### 
### Created by X-TOOL on Mon Sep 10 21:13:15 2018
### 

@<TRIPOS>MOLECULE
4eoy_ligand
  137   140     1     0     0
SMALL
GAST_HUCK


@<TRIPOS>ATOM
      1 N           9.0810  -34.8320   27.1270 N.4       1 ASN         0.2396
      2 CA          7.6820  -35.3130   27.3430 C.3       1 ASN         0.0818
      3 C           7.3150  -35.4540   28.8280 C.2       1 ASN         0.2292
      4 O           6.3040  -36.0880   29.1590 O.2       1 ASN        -0.3905
      5 CB          7.4400  -36.6390   26.5850 C.3       1 ASN         0.0972
      6 CG          8.3960  -37.7600   26.9990 C.2       1 ASN         0.1813
      7 OD1         9.2310  -37.6050   27.8950 O.2       1 ASN        -0.3969
      8 ND2         8.2700  -38.9040   26.3380 N.am      1 ASN        -0.3006
      9 N           8.1110  -34.8300   29.7050 N.am      1 ASP        -0.2593
     10 CA          7.9910  -35.0140   31.1550 C.3       1 ASP         0.1424
     11 C           7.2410  -33.8780   31.8400 C.2       1 ASP         0.2057
     12 O           7.5580  -32.7080   31.6280 O.2       1 ASP        -0.3943
     13 CB          9.3790  -35.1570   31.7870 C.3       1 ASP         0.0406
     14 CG          9.9910  -36.5300   31.5570 C.2       1 ASP         0.0393
     15 OD1         9.7920  -37.0990   30.4670 O.co2     1 ASP        -0.5688
     16 OD2        10.6720  -37.0460   32.4730 O.co2     1 ASP        -0.5688
     17 N           6.2730  -34.2470   32.6770 N.am      1 TRP        -0.2626
     18 CA          5.4750  -33.3090   33.4510 C.3       1 TRP         0.1352
     19 C           5.4140  -33.6940   34.8930 C.2       1 TRP         0.2052
     20 O           5.2980  -34.8720   35.2130 O.2       1 TRP        -0.3942
     21 CB          4.0450  -33.3020   32.9420 C.3       1 TRP         0.0042
     22 CG          3.8920  -32.9770   31.4900 C.2       1 TRP        -0.0418
     23 CD1         3.9380  -33.8570   30.4170 C.2       1 TRP         0.0167
     24 CD2         3.6240  -31.6620   30.8970 C.ar      1 TRP        -0.0214
     25 NE1         3.7410  -33.1930   29.2310 N.pl3     1 TRP        -0.2890
     26 CE2         3.5430  -31.8760   29.4490 C.ar      1 TRP         0.0603
     27 CE3         3.4520  -30.3800   31.3990 C.ar      1 TRP        -0.0747
     28 CZ2         3.3050  -30.8380   28.5650 C.ar      1 TRP        -0.0443
     29 CZ3         3.2140  -29.3430   30.5020 C.ar      1 TRP        -0.0792
     30 CH2         3.1390  -29.5700   29.1150 C.ar      1 TRP        -0.0768
     31 N           5.4560  -32.7020   35.7800 N.am      1 LEU        -0.2636
     32 CA          5.1600  -32.9160   37.1910 C.3       1 LEU         0.1312
     33 C           3.6700  -32.7000   37.4550 C.2       1 LEU         0.2039
     34 O           3.0680  -31.7210   36.9850 O.2       1 LEU        -0.3944
     35 CB          5.9840  -31.9680   38.0690 C.3       1 LEU        -0.0101
     36 CG          7.4990  -32.2080   38.1090 C.3       1 LEU        -0.0425
     37 CD1         8.0670  -32.1010   39.5330 C.3       1 LEU        -0.0625
     38 CD2         7.9100  -33.5900   37.5840 C.3       1 LEU        -0.0625
     39 N           3.0870  -33.6150   38.2260 N.am      1 LEU        -0.2637
     40 CA          1.6750  -33.6020   38.5430 C.3       1 LEU         0.1314
     41 C           1.4610  -33.3500   40.0300 C.2       1 LEU         0.2064
     42 O           1.4440  -34.2830   40.8310 O.2       1 LEU        -0.3942
     43 CB          1.0360  -34.9340   38.1520 C.3       1 LEU        -0.0101
     44 CG          0.5770  -35.1110   36.7160 C.3       1 LEU        -0.0425
     45 CD1         1.5910  -34.6000   35.7120 C.3       1 LEU        -0.0625
     46 CD2         0.2640  -36.5780   36.4750 C.3       1 LEU        -0.0625
     47 N           1.2750  -32.0800   40.4090 N.am      1 PRO        -0.2498
     48 CA          1.1270  -31.7510   41.8030 C.3       1 PRO         0.1338
     49 C          -0.2140  -32.1620   42.3710 C.2       1 PRO         0.2042
     50 O          -1.1990  -32.2500   41.6430 O.2       1 PRO        -0.3944
     51 CB          1.2740  -30.2340   41.8010 C.3       1 PRO        -0.0104
     52 CG          0.7040  -29.8240   40.5030 C.3       1 PRO        -0.0281
     53 CD          1.0600  -30.9100   39.5460 C.3       1 PRO         0.0369
     54 N          -0.2380  -32.4050   43.6760 N.am      1 SER        -0.2616
     55 CA         -1.4460  -32.8140   44.3900 C.3       1 SER         0.1539
     56 C          -1.5040  -32.1560   45.7700 C.2       1 SER         0.2057
     57 O          -0.5300  -31.5350   46.2180 O.2       1 SER        -0.3943
     58 CB         -1.4830  -34.3310   44.5400 C.3       1 SER         0.0843
     59 OG         -2.6600  -34.7420   45.2150 O.3       1 SER        -0.3903
     60 N          -2.6240  -32.3700   46.4610 N.am      1 TYR        -0.2678
     61 CA         -3.0180  -31.5700   47.6270 C.3       1 TYR         0.1025
     62 C          -2.6630  -32.2440   48.9600 C.2       1 TYR         0.0619
     63 O          -1.4960  -32.3100   49.3420 O.co2     1 TYR        -0.5665
     64 CB         -4.5240  -31.3020   47.5780 C.3       1 TYR         0.0108
     65 CG         -5.0180  -30.6660   46.2920 C.ar      1 TYR        -0.0499
     66 CD1        -5.0160  -31.3710   45.0840 C.ar      1 TYR        -0.0686
     67 CD2        -5.5110  -29.3630   46.2870 C.ar      1 TYR        -0.0686
     68 CE1        -5.4720  -30.7920   43.9150 C.ar      1 TYR        -0.0398
     69 CE2        -5.9730  -28.7790   45.1210 C.ar      1 TYR        -0.0398
     70 CZ         -5.9510  -29.4970   43.9410 C.ar      1 TYR         0.0805
     71 OH         -6.4170  -28.9190   42.7870 O.3       1 TYR        -0.3376
     72 OXT        -3.5220  -32.7320   49.7010 O.co2     1 TYR        -0.5665
     73 H1          9.2625  -34.7596   26.1381 H         1 ASN         0.2017
     74 H2          9.7283  -35.4847   27.5405 H         1 ASN         0.2017
     75 H3          9.1954  -33.9274   27.5567 H         1 ASN         0.2017
     76 H4          7.0085  -34.5567   26.9137 H         1 ASN         0.1125
     77 H5          7.5665  -36.4530   25.5083 H         1 ASN         0.0585
     78 H6          6.4094  -36.9697   26.7814 H         1 ASN         0.0585
     79 H7          8.8641  -39.6774   26.5593 H         1 ASN         0.1814
     80 H8          7.5810  -38.9926   25.6187 H         1 ASN         0.1814
     81 H9          8.8167  -34.2128   29.3570 H         1 ASP         0.1886
     82 H10         7.4304  -35.9441   31.3299 H         1 ASP         0.0819
     83 H11         9.2913  -34.9881   32.8704 H         1 ASP         0.0478
     84 H12        10.0443  -34.3977   31.3501 H         1 ASP         0.0478
     85 H13         6.0842  -35.2237   32.7791 H         1 TRP         0.1884
     86 H14         5.9124  -32.3042   33.3555 H         1 TRP         0.0815
     87 H15         3.4808  -32.5553   33.5200 H         1 TRP         0.0397
     88 H16         3.6163  -34.3001   33.1151 H         1 TRP         0.0397
     89 H17         4.1074  -34.9292   30.5041 H         1 TRP         0.0795
     90 H18         3.7440  -33.6390   28.3026 H         1 TRP         0.2216
     91 H19         3.5019  -30.1906   32.4652 H         1 TRP         0.0540
     92 H20         3.2505  -31.0045   27.4952 H         1 TRP         0.0541
     93 H21         3.0832  -28.3358   30.8808 H         1 TRP         0.0510
     94 H22         2.9461  -28.7320   28.4550 H         1 TRP         0.0530
     95 H23         5.6978  -31.7829   35.4689 H         1 LEU         0.1883
     96 H24         5.4199  -33.9527   37.4511 H         1 LEU         0.0800
     97 H25         5.6057  -32.0536   39.0983 H         1 LEU         0.0315
     98 H26         5.8183  -30.9446   37.7014 H         1 LEU         0.0315
     99 H27         7.9713  -31.4392   37.4798 H         1 LEU         0.0298
    100 H28         9.1520  -32.2802   39.5093 H         1 LEU         0.0232
    101 H29         7.5854  -32.8514   40.1772 H         1 LEU         0.0232
    102 H30         7.8702  -31.0949   39.9317 H         1 LEU         0.0232
    103 H31         7.5276  -33.7222   36.5611 H         1 LEU         0.0232
    104 H32         7.4898  -34.3698   38.2362 H         1 LEU         0.0232
    105 H33         9.0072  -33.6687   37.5782 H         1 LEU         0.0232
    106 H34         3.6525  -34.3475   38.6049 H         1 LEU         0.1883
    107 H35         1.1927  -32.7941   37.9731 H         1 LEU         0.0800
    108 H36         0.1558  -35.0760   38.7963 H         1 LEU         0.0315
    109 H37         1.7733  -35.7236   38.3591 H         1 LEU         0.0315
    110 H38        -0.3483  -34.5319   36.5800 H         1 LEU         0.0298
    111 H39         1.2070  -34.7533   34.6927 H         1 LEU         0.0232
    112 H40         2.5365  -35.1488   35.8340 H         1 LEU         0.0232
    113 H41         1.7654  -33.5271   35.8806 H         1 LEU         0.0232
    114 H42        -0.4727  -36.9222   37.2158 H         1 LEU         0.0232
    115 H43         1.1858  -37.1704   36.5720 H         1 LEU         0.0232
    116 H44        -0.1478  -36.7036   35.4628 H         1 LEU         0.0232
    117 H45         1.9240  -32.2226   42.3966 H         1 PRO         0.0802
    118 H46         2.3324  -29.9432   41.8730 H         1 PRO         0.0313
    119 H47         0.7130  -29.7853   42.6340 H         1 PRO         0.0313
    120 H48         1.1396  -28.8678   40.1775 H         1 PRO         0.0287
    121 H49        -0.3887  -29.7223   40.5787 H         1 PRO         0.0287
    122 H50         0.2394  -31.0917   38.8364 H         1 PRO         0.0524
    123 H51         1.9758  -30.6587   38.9909 H         1 PRO         0.0524
    124 H52         0.6107  -32.3034   44.1951 H         1 SER         0.1884
    125 H53        -2.3233  -32.4938   43.8088 H         1 SER         0.0823
    126 H54        -0.6045  -34.6579   45.1156 H         1 SER         0.0606
    127 H55        -1.4600  -34.7927   43.5419 H         1 SER         0.0606
    128 H56        -2.6624  -35.6885   45.2973 H         1 SER         0.2097
    129 H57        -3.2263  -33.1134   46.1701 H         1 TYR         0.1877
    130 H58        -2.4856  -30.6087   47.5774 H         1 TYR         0.0747
    131 H59        -4.7789  -30.6305   48.4112 H         1 TYR         0.0446
    132 H60        -5.0463  -32.2614   47.7073 H         1 TYR         0.0446
    133 H61        -4.6498  -32.3911   45.0644 H         1 TYR         0.0530
    134 H62        -5.5330  -28.7976   47.2116 H         1 TYR         0.0530
    135 H63        -5.4539  -31.3496   42.9856 H         1 TYR         0.0525
    136 H64        -6.3504  -27.7629   45.1333 H         1 TYR         0.0525
    137 H65        -6.3349  -29.5362   42.0695 H         1 TYR         0.2458
@<TRIPOS>BOND
     1    1    2 1  
     2    2    3 1  
     3    2    5 1  
     4    3    4 2  
     5    3    9 am 
     6    5    6 1  
     7    6    7 2  
     8    6    8 am 
     9    9   10 1  
    10   10   11 1  
    11   10   13 1  
    12   11   12 2  
    13   11   17 am 
    14   13   14 1  
    15   14   15 ar 
    16   14   16 ar 
    17   17   18 1  
    18   18   19 1  
    19   18   21 1  
    20   19   20 2  
    21   19   31 am 
    22   21   22 1  
    23   22   23 2  
    24   22   24 1  
    25   23   25 1  
    26   24   26 ar 
    27   24   27 ar 
    28   25   26 1  
    29   26   28 ar 
    30   27   29 ar 
    31   28   30 ar 
    32   29   30 ar 
    33   31   32 1  
    34   32   33 1  
    35   32   35 1  
    36   33   34 2  
    37   33   39 am 
    38   35   36 1  
    39   36   37 1  
    40   36   38 1  
    41   39   40 1  
    42   40   41 1  
    43   40   43 1  
    44   41   42 2  
    45   41   47 am 
    46   43   44 1  
    47   44   45 1  
    48   44   46 1  
    49   47   48 1  
    50   47   53 1  
    51   48   49 1  
    52   48   51 1  
    53   49   50 2  
    54   49   54 am 
    55   51   52 1  
    56   52   53 1  
    57   54   55 1  
    58   55   56 1  
    59   55   58 1  
    60   56   57 2  
    61   56   60 am 
    62   58   59 1  
    63   60   61 1  
    64   61   62 1  
    65   61   64 1  
    66   62   63 ar 
    67   62   72 ar 
    68   64   65 1  
    69   65   66 ar 
    70   65   67 ar 
    71   66   68 ar 
    72   67   69 ar 
    73   68   70 ar 
    74   69   70 ar 
    75   70   71 1  
    76    1   73 1  
    77    1   74 1  
    78    1   75 1  
    79    2   76 1  
    80    5   77 1  
    81    5   78 1  
    82    8   79 1  
    83    8   80 1  
    84    9   81 1  
    85   10   82 1  
    86   13   83 1  
    87   13   84 1  
    88   17   85 1  
    89   18   86 1  
    90   21   87 1  
    91   21   88 1  
    92   23   89 1  
    93   25   90 1  
    94   27   91 1  
    95   28   92 1  
    96   29   93 1  
    97   30   94 1  
    98   31   95 1  
    99   32   96 1  
   100   35   97 1  
   101   35   98 1  
   102   36   99 1  
   103   37  100 1  
   104   37  101 1  
   105   37  102 1  
   106   38  103 1  
   107   38  104 1  
   108   38  105 1  
   109   39  106 1  
   110   40  107 1  
   111   43  108 1  
   112   43  109 1  
   113   44  110 1  
   114   45  111 1  
   115   45  112 1  
   116   45  113 1  
   117   46  114 1  
   118   46  115 1  
   119   46  116 1  
   120   48  117 1  
   121   51  118 1  
   122   51  119 1  
   123   52  120 1  
   124   52  121 1  
   125   53  122 1  
   126   53  123 1  
   127   54  124 1  
   128   55  125 1  
   129   58  126 1  
   130   58  127 1  
   131   59  128 1  
   132   60  129 1  
   133   61  130 1  
   134   64  131 1  
   135   64  132 1  
   136   66  133 1  
   137   67  134 1  
   138   68  135 1  
   139   69  136 1  
   140   71  137 1  
@<TRIPOS>SUBSTRUCTURE
     1 ASN         1

