4eoy_ligand
  -I-interpret- 

138141  0  0  0  0  0  0  0  0999 V2000
    9.0810  -34.8320   27.1270 N   0  3  0  0  0
    7.6820  -35.3130   27.3430 C   0  0  0  0  0
    7.3150  -35.4540   28.8280 C   0  0  0  0  0
    6.3040  -36.0880   29.1590 O   0  0  0  0  0
    7.4400  -36.6390   26.5850 C   0  0  0  0  0
    8.3960  -37.7600   26.9990 C   0  0  0  0  0
    9.2310  -37.6050   27.8950 O   0  0  0  0  0
    8.2700  -38.9040   26.3380 N   0  0  0  0  0
    8.1110  -34.8300   29.7050 N   0  0  0  0  0
    7.9910  -35.0140   31.1550 C   0  0  0  0  0
    7.2410  -33.8780   31.8400 C   0  0  0  0  0
    7.5580  -32.7080   31.6280 O   0  0  0  0  0
    9.3790  -35.1570   31.7870 C   0  0  0  0  0
    9.9910  -36.5300   31.5570 C   0  0  0  0  0
    9.7920  -37.0990   30.4670 O   0  0  0  0  0
   10.6720  -37.0460   32.4730 O   0  0  0  0  0
    6.2730  -34.2470   32.6770 N   0  0  0  0  0
    5.4750  -33.3090   33.4510 C   0  0  0  0  0
    5.4140  -33.6940   34.8930 C   0  0  0  0  0
    5.2980  -34.8720   35.2130 O   0  0  0  0  0
    4.0450  -33.3020   32.9420 C   0  0  0  0  0
    3.8920  -32.9770   31.4900 C   0  0  0  0  0
    3.9380  -33.8570   30.4170 C   0  0  0  0  0
    3.6240  -31.6620   30.8970 C   0  0  0  0  0
    3.7410  -33.1930   29.2310 N   0  0  0  0  0
    3.5430  -31.8760   29.4490 C   0  0  0  0  0
    3.4520  -30.3800   31.3990 C   0  0  0  0  0
    3.3050  -30.8380   28.5650 C   0  0  0  0  0
    3.2140  -29.3430   30.5020 C   0  0  0  0  0
    3.1390  -29.5700   29.1150 C   0  0  0  0  0
    5.4560  -32.7020   35.7800 N   0  0  0  0  0
    5.1600  -32.9160   37.1910 C   0  0  0  0  0
    3.6700  -32.7000   37.4550 C   0  0  0  0  0
    3.0680  -31.7210   36.9850 O   0  0  0  0  0
    5.9840  -31.9680   38.0690 C   0  0  0  0  0
    7.4990  -32.2080   38.1090 C   0  0  0  0  0
    8.0670  -32.1010   39.5330 C   0  0  0  0  0
    7.9100  -33.5900   37.5840 C   0  0  0  0  0
    3.0870  -33.6150   38.2260 N   0  0  0  0  0
    1.6750  -33.6020   38.5430 C   0  0  0  0  0
    1.4610  -33.3500   40.0300 C   0  0  0  0  0
    1.4440  -34.2830   40.8310 O   0  0  0  0  0
    1.0360  -34.9340   38.1520 C   0  0  0  0  0
    0.5770  -35.1110   36.7160 C   0  0  0  0  0
    1.5910  -34.6000   35.7120 C   0  0  0  0  0
    0.2640  -36.5780   36.4750 C   0  0  0  0  0
    1.2750  -32.0800   40.4090 N   0  0  0  0  0
    1.1270  -31.7510   41.8030 C   0  0  0  0  0
   -0.2140  -32.1620   42.3710 C   0  0  0  0  0
   -1.1990  -32.2500   41.6430 O   0  0  0  0  0
    1.2740  -30.2340   41.8010 C   0  0  0  0  0
    0.7040  -29.8240   40.5030 C   0  0  0  0  0
    1.0600  -30.9100   39.5460 C   0  0  0  0  0
   -0.2380  -32.4050   43.6760 N   0  0  0  0  0
   -1.4460  -32.8140   44.3900 C   0  0  0  0  0
   -1.5040  -32.1560   45.7700 C   0  0  0  0  0
   -0.5300  -31.5350   46.2180 O   0  0  0  0  0
   -1.4830  -34.3310   44.5400 C   0  0  0  0  0
   -2.6600  -34.7420   45.2150 O   0  0  0  0  0
   -2.6240  -32.3700   46.4610 N   0  0  0  0  0
   -3.0180  -31.5700   47.6270 C   0  0  0  0  0
   -2.6630  -32.2440   48.9600 C   0  0  0  0  0
   -1.4960  -32.3100   49.3420 O   0  0  0  0  0
   -4.5240  -31.3020   47.5780 C   0  0  0  0  0
   -5.0180  -30.6660   46.2920 C   0  0  0  0  0
   -5.0160  -31.3710   45.0840 C   0  0  0  0  0
   -5.5110  -29.3630   46.2870 C   0  0  0  0  0
   -5.4720  -30.7920   43.9150 C   0  0  0  0  0
   -5.9730  -28.7790   45.1210 C   0  0  0  0  0
   -5.9510  -29.4970   43.9410 C   0  0  0  0  0
   -6.4170  -28.9190   42.7870 O   0  0  0  0  0
   -3.5220  -32.7320   49.7010 O   0  0  0  0  0
    9.2209  -33.9580   27.6340 H   0  0  0  0  0
    9.7372  -35.5338   27.4694 H   0  0  0  0  0
    9.2360  -34.6772   26.1308 H   0  0  0  0  0
    7.0219  -34.5464   26.9373 H   0  0  0  0  0
    7.6012  -36.4450   25.5246 H   0  0  0  0  0
    6.4273  -36.9692   26.8163 H   0  0  0  0  0
    8.8752  -39.6932   26.5644 H   0  0  0  0  0
    7.5679  -38.9940   25.6036 H   0  0  0  0  0
    8.8308  -34.2005   29.3500 H   0  0  0  0  0
    7.4104  -35.9245   31.3033 H   0  0  0  0  0
    9.2730  -35.0141   32.8624 H   0  0  0  0  0
   10.0340  -34.4176   31.3262 H   0  0  0  0  0
   10.7024  -36.4480   33.2234 H   0  0  0  0  0
    6.0804  -35.2432   32.7811 H   0  0  0  0  0
    5.9473  -32.3324   33.3445 H   0  0  0  0  0
    3.5179  -32.5249   33.4955 H   0  0  0  0  0
    3.6567  -34.3109   33.0811 H   0  0  0  0  0
    4.1076  -34.9302   30.5042 H   0  0  0  0  0
    3.5021  -30.1895   32.4711 H   0  0  0  0  0
    3.2502  -31.0054   27.4893 H   0  0  0  0  0
    3.0825  -28.3302   30.8829 H   0  0  0  0  0
    2.9450  -28.7274   28.4513 H   0  0  0  0  0
    5.7026  -31.7645   35.4627 H   0  0  0  0  0
    5.4250  -33.9428   37.4429 H   0  0  0  0  0
    5.6291  -32.1185   39.0886 H   0  0  0  0  0
    5.8487  -30.9728   37.6455 H   0  0  0  0  0
    7.9034  -31.4282   37.4636 H   0  0  0  0  0
    7.8713  -31.1037   39.9269 H   0  0  0  0  0
    7.5890  -32.8450   40.1703 H   0  0  0  0  0
    9.1421  -32.2787   39.5083 H   0  0  0  0  0
    7.4389  -34.3628   38.1914 H   0  0  0  0  0
    7.5883  -33.6940   36.5478 H   0  0  0  0  0
    8.9938  -33.6914   37.6412 H   0  0  0  0  0
    3.6638  -34.3622   38.6125 H   0  0  0  0  0
    1.2053  -32.7965   37.9784 H   0  0  0  0  0
    0.1314  -35.0086   38.7556 H   0  0  0  0  0
    1.8144  -35.6824   38.3007 H   0  0  0  0  0
   -0.3208  -34.5106   36.5694 H   0  0  0  0  0
    1.7629  -33.5369   35.8801 H   0  0  0  0  0
    2.5273  -35.1445   35.8340 H   0  0  0  0  0
    1.2094  -34.7524   34.7024 H   0  0  0  0  0
    1.1600  -37.1731   36.6515 H   0  0  0  0  0
   -0.5252  -36.8964   37.1560 H   0  0  0  0  0
   -0.0665  -36.7132   35.4452 H   0  0  0  0  0
    1.8508  -32.2728   42.4290 H   0  0  0  0  0
    2.3110  -29.9184   41.9160 H   0  0  0  0  0
    0.7632  -29.7675   42.6433 H   0  0  0  0  0
    1.1023  -28.8623   40.1795 H   0  0  0  0  0
   -0.3756  -29.6887   40.5675 H   0  0  0  0  0
    0.2814  -31.0799   38.8023 H   0  0  0  0  0
    1.9394  -30.6664   38.9498 H   0  0  0  0  0
    0.6276  -32.3014   44.2055 H   0  0  0  0  0
   -2.3111  -32.4915   43.8106 H   0  0  0  0  0
   -0.6164  -34.6479   45.1203 H   0  0  0  0  0
   -1.4711  -34.7825   43.5480 H   0  0  0  0  0
   -2.6624  -35.6984   45.2982 H   0  0  0  0  0
   -3.2384  -33.1282   46.1643 H   0  0  0  0  0
   -2.4585  -30.6358   47.5786 H   0  0  0  0  0
   -4.7461  -30.6009   48.3825 H   0  0  0  0  0
   -5.0196  -32.2691   47.6624 H   0  0  0  0  0
   -4.6477  -32.3967   45.0643 H   0  0  0  0  0
   -5.5331  -28.7945   47.2167 H   0  0  0  0  0
   -5.4538  -31.3526   42.9804 H   0  0  0  0  0
   -6.3525  -27.7573   45.1333 H   0  0  0  0  0
   -6.7111  -28.0246   42.9746 H   0  0  0  0  0
   -4.3878  -32.6219   49.3012 H   0  0  0  0  0
  1  2  1  0  0  0
  2  3  1  0  0  0
  2  5  1  0  0  0
  3  4  2  0  0  0
  3  9  1  0  0  0
  5  6  1  0  0  0
  6  7  2  0  0  0
  6  8  1  0  0  0
  9 10  1  0  0  0
 10 11  1  0  0  0
 10 13  1  0  0  0
 11 12  2  0  0  0
 11 17  1  0  0  0
 13 14  1  0  0  0
 14 15  2  0  0  0
 14 16  1  0  0  0
 17 18  1  0  0  0
 18 19  1  0  0  0
 18 21  1  0  0  0
 19 20  2  0  0  0
 19 31  1  0  0  0
 21 22  1  0  0  0
 22 23  4  0  0  0
 22 24  4  0  0  0
 23 25  4  0  0  0
 24 26  4  0  0  0
 24 27  4  0  0  0
 25 26  4  0  0  0
 26 28  4  0  0  0
 27 29  4  0  0  0
 28 30  4  0  0  0
 29 30  4  0  0  0
 31 32  1  0  0  0
 32 33  1  0  0  0
 32 35  1  0  0  0
 33 34  2  0  0  0
 33 39  1  0  0  0
 35 36  1  0  0  0
 36 37  1  0  0  0
 36 38  1  0  0  0
 39 40  1  0  0  0
 40 41  1  0  0  0
 40 43  1  0  0  0
 41 42  2  0  0  0
 41 47  1  0  0  0
 43 44  1  0  0  0
 44 45  1  0  0  0
 44 46  1  0  0  0
 47 48  1  0  0  0
 47 53  1  0  0  0
 48 49  1  0  0  0
 48 51  1  0  0  0
 49 50  2  0  0  0
 49 54  1  0  0  0
 51 52  1  0  0  0
 52 53  1  0  0  0
 54 55  1  0  0  0
 55 56  1  0  0  0
 55 58  1  0  0  0
 56 57  2  0  0  0
 56 60  1  0  0  0
 58 59  1  0  0  0
 60 61  1  0  0  0
 61 62  1  0  0  0
 61 64  1  0  0  0
 62 63  2  0  0  0
 62 72  1  0  0  0
 64 65  1  0  0  0
 65 66  4  0  0  0
 65 67  4  0  0  0
 66 68  4  0  0  0
 67 69  4  0  0  0
 68 70  4  0  0  0
 69 70  4  0  0  0
 70 71  1  0  0  0
  1 73  1  0  0  0
  1 74  1  0  0  0
  1 75  1  0  0  0
  2 76  1  0  0  0
  5 77  1  0  0  0
  5 78  1  0  0  0
  8 79  1  0  0  0
  8 80  1  0  0  0
  9 81  1  0  0  0
 10 82  1  0  0  0
 13 83  1  0  0  0
 13 84  1  0  0  0
 16 85  1  0  0  0
 17 86  1  0  0  0
 18 87  1  0  0  0
 21 88  1  0  0  0
 21 89  1  0  0  0
 23 90  1  0  0  0
 27 91  1  0  0  0
 28 92  1  0  0  0
 29 93  1  0  0  0
 30 94  1  0  0  0
 31 95  1  0  0  0
 32 96  1  0  0  0
 35 97  1  0  0  0
 35 98  1  0  0  0
 36 99  1  0  0  0
 37100  1  0  0  0
 37101  1  0  0  0
 37102  1  0  0  0
 38103  1  0  0  0
 38104  1  0  0  0
 38105  1  0  0  0
 39106  1  0  0  0
 40107  1  0  0  0
 43108  1  0  0  0
 43109  1  0  0  0
 44110  1  0  0  0
 45111  1  0  0  0
 45112  1  0  0  0
 45113  1  0  0  0
 46114  1  0  0  0
 46115  1  0  0  0
 46116  1  0  0  0
 48117  1  0  0  0
 51118  1  0  0  0
 51119  1  0  0  0
 52120  1  0  0  0
 52121  1  0  0  0
 53122  1  0  0  0
 53123  1  0  0  0
 54124  1  0  0  0
 55125  1  0  0  0
 58126  1  0  0  0
 58127  1  0  0  0
 59128  1  0  0  0
 60129  1  0  0  0
 61130  1  0  0  0
 64131  1  0  0  0
 64132  1  0  0  0
 66133  1  0  0  0
 67134  1  0  0  0
 68135  1  0  0  0
 69136  1  0  0  0
 71137  1  0  0  0
 72138  1  0  0  0
M  END
$$$$
