5kgn_ligand
  -I-interpret- 

189195  0  0  0  0  0  0  0  0999 V2000
    1.4430   83.2140   19.5600 C   0  0  0  0  0
    1.1700   82.2450   18.9240 O   0  0  0  0  0
    2.2480   84.3750   18.9620 C   0  0  0  0  0
    1.0130   83.3020   20.9290 N   0  0  0  0  0
    0.2180   82.2370   21.4940 C   0  0  0  0  0
    1.0480   81.1620   22.1890 C   0  0  0  0  0
    0.3270   80.2630   22.8760 O   0  0  0  0  0
   -0.7960   82.8810   22.4370 C   0  0  0  0  0
   -1.6940   83.8500   21.6600 C   0  0  0  0  0
   -2.2500   83.5120   20.4410 C   0  0  0  0  0
   -1.9340   85.0980   22.1950 C   0  0  0  0  0
   -3.0570   84.4080   19.7560 C   0  0  0  0  0
   -2.7200   86.0000   21.5140 C   0  0  0  0  0
   -3.2970   85.6560   20.3000 C   0  0  0  0  0
   -4.1140   86.5940   19.6480 O   0  0  0  0  0
    2.3770   81.1510   22.0800 N   0  0  0  0  0
    3.1590   80.0160   22.5760 C   0  0  0  0  0
    3.3680   80.0510   24.0830 C   0  0  0  0  0
    3.4550   79.0020   24.7140 O   0  0  0  0  0
    4.5090   79.9330   21.8470 C   0  0  0  0  0
    4.3430   79.7360   20.3540 C   0  0  0  0  0
    3.5920   78.8260   19.9560 O   0  0  0  0  0
    4.9400   80.5080   19.5750 O   0  0  0  0  0
    3.4530   81.2480   24.6590 N   0  0  0  0  0
    3.5920   81.4100   26.1000 C   0  0  0  0  0
    2.8890   82.6870   26.5390 C   0  0  0  0  0
    2.7850   83.6380   25.7550 O   0  0  0  0  0
    5.0630   81.4220   26.5620 C   0  0  0  0  0
    5.9500   82.5020   25.9780 C   0  0  0  0  0
    6.0300   83.7580   26.5700 C   0  0  0  0  0
    6.7430   82.2510   24.8610 C   0  0  0  0  0
    6.8700   84.7610   26.0380 C   0  0  0  0  0
    7.5740   83.2370   24.3230 C   0  0  0  0  0
    7.6320   84.4860   24.9140 C   0  0  0  0  0
    8.4640   85.4490   24.3610 O   0  0  0  0  0
    2.3950   82.7400   27.7760 N   0  0  0  0  0
    1.7360   83.9690   28.2500 C   0  0  0  0  0
    2.6970   85.1500   28.2520 C   0  0  0  0  0
    3.8150   85.0610   28.7590 O   0  0  0  0  0
    1.2730   83.6080   29.6680 C   0  0  0  0  0
    2.0420   82.3510   30.0410 C   0  0  0  0  0
    2.2980   81.6410   28.7520 C   0  0  0  0  0
    2.2620   86.2550   27.6530 N   0  0  0  0  0
    3.1210   87.4160   27.5170 C   0  0  0  0  0
    3.9010   87.5380   26.2190 C   0  0  0  0  0
    4.5970   88.5500   26.0280 O   0  0  0  0  0
    3.8050   86.5710   25.3070 N   0  0  0  0  0
    4.5060   86.7120   24.0370 C   0  0  0  0  0
    3.8380   87.7610   23.1270 C   0  0  0  0  0
    2.8060   88.3630   23.4400 O   0  0  0  0  0
    4.7760   85.3450   23.3870 C   0  0  0  0  0
    3.5620   84.7120   22.6810 C   0  0  0  0  0
    3.7030   83.5150   22.3050 O   0  0  0  0  0
    2.5060   85.3530   22.4850 O   0  0  0  0  0
    4.4730   87.9850   21.9840 N   0  0  0  0  0
    4.1060   89.0940   21.1060 C   0  0  0  0  0
    2.6540   89.0360   20.6400 C   0  0  0  0  0
    2.0460   90.0880   20.4410 O   0  0  0  0  0
    5.0510   89.1520   19.9100 C   0  0  0  0  0
    4.9930   87.9460   18.9850 C   0  0  0  0  0
    4.3110   88.0090   17.7710 C   0  0  0  0  0
    5.6530   86.7550   19.3110 C   0  0  0  0  0
    4.2620   86.9180   16.9220 C   0  0  0  0  0
    5.6080   85.6530   18.4610 C   0  0  0  0  0
    4.9150   85.7420   17.2720 C   0  0  0  0  0
    4.8670   84.6490   16.4410 O   0  0  0  0  0
    2.0650   87.8450   20.4700 N   0  0  0  0  0
    0.6770   87.8040   19.9740 C   0  0  0  0  0
   -0.3220   88.4490   20.9270 C   0  0  0  0  0
   -1.3970   88.8890   20.4860 O   0  0  0  0  0
    0.2290   86.3760   19.6730 C   0  0  0  0  0
    1.1060   85.6630   18.3080 S   0  0  0  0  0
   -0.0010   88.5070   22.2170 N   0  0  0  0  0
   -0.8630   89.1270   23.2140 C   0  0  0  0  0
   -0.9600   90.6360   23.0490 C   0  0  0  0  0
   -1.7980   91.2670   23.7050 O   0  0  0  0  0
   -0.3420   88.7980   24.6100 C   0  0  0  0  0
   -0.6490   87.3910   25.0480 C   0  0  0  0  0
   -1.8770   87.0790   25.6080 C   0  0  0  0  0
    0.2710   86.3620   24.8680 C   0  0  0  0  0
   -2.1700   85.8100   26.0130 C   0  0  0  0  0
   -0.0150   85.0650   25.2760 C   0  0  0  0  0
   -1.2470   84.7960   25.8320 C   0  0  0  0  0
   -1.5470   83.5240   26.2290 O   0  0  0  0  0
   -0.1370   91.2240   22.1970 N   0  0  0  0  0
   -0.2600   92.6370   21.8810 C   0  0  0  0  0
   -1.5250   92.8970   21.0520 C   0  0  0  0  0
   -1.9840   94.0280   20.9850 O   0  0  0  0  0
    0.9730   93.1410   21.1190 C   0  0  0  0  0
    2.2830   93.1230   21.8900 C   0  0  0  0  0
    3.4480   93.3200   20.9420 C   0  0  0  0  0
    2.2800   94.1920   22.9590 C   0  0  0  0  0
   -2.0970   91.8590   20.4430 N   0  0  0  0  0
   -3.3000   92.0430   19.6420 C   0  0  0  0  0
   -4.4100   91.0510   19.9840 C   0  0  0  0  0
   -5.5150   91.3610   19.7160 O   0  0  0  0  0
   -2.9590   92.0310   18.1590 C   0  0  0  0  0
   -2.4460   90.7090   17.6170 C   0  0  0  0  0
   -3.3520   89.7020   17.3000 C   0  0  0  0  0
   -1.0790   90.5290   17.3900 C   0  0  0  0  0
   -2.8970   88.4940   16.7840 C   0  0  0  0  0
   -0.6270   89.3140   16.8650 C   0  0  0  0  0
   -1.5420   88.3020   16.5630 C   0  0  0  0  0
   -0.9600   87.1410   16.0420 O   0  0  0  0  0
   -4.1540   89.7830   20.6380 N   0  0  0  0  0
    2.8683   83.9994   18.1482 H   0  0  0  0  0
    2.8756   84.8131   19.7380 H   0  0  0  0  0
    1.2674   84.1103   21.4968 H   0  0  0  0  0
   -0.2890   81.7018   20.6912 H   0  0  0  0  0
   -0.2642   83.4302   23.2140 H   0  0  0  0  0
   -1.4129   82.1024   22.8856 H   0  0  0  0  0
   -2.0520   82.5294   20.0127 H   0  0  0  0  0
   -1.5012   85.3705   23.1576 H   0  0  0  0  0
   -3.4976   84.1310   18.7983 H   0  0  0  0  0
   -2.8904   86.9922   21.9318 H   0  0  0  0  0
   -4.1620   87.3955   20.1743 H   0  0  0  0  0
    2.8542   81.9415   21.6466 H   0  0  0  0  0
    2.5776   79.1191   22.3623 H   0  0  0  0  0
    5.0558   79.0773   22.2429 H   0  0  0  0  0
    5.0393   80.8716   22.0080 H   0  0  0  0  0
    5.4634   81.1319   20.0833 H   0  0  0  0  0
    3.4196   82.0808   24.0710 H   0  0  0  0  0
    3.1254   80.5453   26.5718 H   0  0  0  0  0
    5.4887   80.4737   26.2340 H   0  0  0  0  0
    5.0389   81.6016   27.6368 H   0  0  0  0  0
    5.4353   83.9715   27.4582 H   0  0  0  0  0
    6.7148   81.2651   24.3969 H   0  0  0  0  0
    6.9184   85.7434   26.5078 H   0  0  0  0  0
    8.1752   83.0223   23.4395 H   0  0  0  0  0
    8.9098   85.0827   23.5938 H   0  0  0  0  0
    0.9112   84.2811   27.6094 H   0  0  0  0  0
    0.1963   83.4425   29.7057 H   0  0  0  0  0
    1.4694   84.4185   30.3699 H   0  0  0  0  0
    1.4764   81.7282   30.7340 H   0  0  0  0  0
    2.9723   82.5905   30.5561 H   0  0  0  0  0
    3.1968   81.0251   28.7825 H   0  0  0  0  0
    1.5142   80.9256   28.5031 H   0  0  0  0  0
    1.3115   86.2865   27.2843 H   0  0  0  0  0
    3.8657   87.3333   28.3086 H   0  0  0  0  0
    2.4621   88.2835   27.5545 H   0  0  0  0  0
    3.2457   85.7393   25.4962 H   0  0  0  0  0
    5.4980   87.1216   24.2275 H   0  0  0  0  0
    5.0645   84.6655   24.1890 H   0  0  0  0  0
    5.5379   85.5033   22.6238 H   0  0  0  0  0
    4.5787   83.2055   22.5479 H   0  0  0  0  0
    5.2372   87.3671   21.7109 H   0  0  0  0  0
    4.2032   90.0068   21.6937 H   0  0  0  0  0
    6.0637   89.1922   20.3111 H   0  0  0  0  0
    4.7551   90.0175   19.3172 H   0  0  0  0  0
    3.8081   88.9331   17.4860 H   0  0  0  0  0
    6.2109   86.6894   20.2451 H   0  0  0  0  0
    3.7134   86.9803   15.9822 H   0  0  0  0  0
    6.1162   84.7279   18.7331 H   0  0  0  0  0
    5.3670   83.9289   16.8321 H   0  0  0  0  0
    2.5673   86.9824   20.6798 H   0  0  0  0  0
    0.6863   88.3873   19.0532 H   0  0  0  0  0
   -0.8297   86.4030   19.4153 H   0  0  0  0  0
    0.4285   85.7679   20.5554 H   0  0  0  0  0
    0.8843   88.1009   22.5199 H   0  0  0  0  0
   -1.8654   88.7226   23.0735 H   0  0  0  0  0
   -0.8320   89.4740   25.3107 H   0  0  0  0  0
    0.7425   88.9059   24.5893 H   0  0  0  0  0
   -2.6242   87.8635   25.7274 H   0  0  0  0  0
    1.2313   86.5772   24.3994 H   0  0  0  0  0
   -3.1315   85.5950   26.4793 H   0  0  0  0  0
    0.7238   84.2723   25.1581 H   0  0  0  0  0
   -0.8059   82.9459   26.0338 H   0  0  0  0  0
    0.5988   90.6747   21.7528 H   0  0  0  0  0
   -0.3333   93.1821   22.8221 H   0  0  0  0  0
    0.7762   94.1843   20.8724 H   0  0  0  0  0
    1.1063   92.4686   20.2716 H   0  0  0  0  0
    2.3911   92.1535   22.3763 H   0  0  0  0  0
    3.4549   92.5169   20.2051 H   0  0  0  0  0
    3.3439   94.2792   20.4349 H   0  0  0  0  0
    4.3805   93.3052   21.5063 H   0  0  0  0  0
    2.1549   95.1695   22.4932 H   0  0  0  0  0
    1.4576   94.0099   23.6508 H   0  0  0  0  0
    3.2253   94.1647   23.5010 H   0  0  0  0  0
   -1.6896   90.9287   20.5383 H   0  0  0  0  0
   -3.7043   93.0236   19.8933 H   0  0  0  0  0
   -2.1571   92.7559   18.0190 H   0  0  0  0  0
   -3.8849   92.2467   17.6259 H   0  0  0  0  0
   -4.4191   89.8602   17.4563 H   0  0  0  0  0
   -0.3726   91.3268   17.6196 H   0  0  0  0  0
   -3.6053   87.6982   16.5533 H   0  0  0  0  0
    0.4376   89.1567   16.6917 H   0  0  0  0  0
   -0.0088   87.2584   15.9865 H   0  0  0  0  0
   -4.9295   89.1607   20.8655 H   0  0  0  0  0
   -3.1983   89.5130   20.8707 H   0  0  0  0  0
  1  2  2  0  0  0
  1  3  1  0  0  0
  1  4  1  0  0  0
  3 72  1  0  0  0
  4  5  1  0  0  0
  5  6  1  0  0  0
  5  8  1  0  0  0
  6  7  2  0  0  0
  6 16  1  0  0  0
  8  9  1  0  0  0
  9 10  4  0  0  0
  9 11  4  0  0  0
 10 12  4  0  0  0
 11 13  4  0  0  0
 12 14  4  0  0  0
 13 14  4  0  0  0
 14 15  1  0  0  0
 16 17  1  0  0  0
 17 18  1  0  0  0
 17 20  1  0  0  0
 18 19  2  0  0  0
 18 24  1  0  0  0
 20 21  1  0  0  0
 21 22  2  0  0  0
 21 23  1  0  0  0
 24 25  1  0  0  0
 25 26  1  0  0  0
 25 28  1  0  0  0
 26 27  2  0  0  0
 26 36  1  0  0  0
 28 29  1  0  0  0
 29 30  4  0  0  0
 29 31  4  0  0  0
 30 32  4  0  0  0
 31 33  4  0  0  0
 32 34  4  0  0  0
 33 34  4  0  0  0
 34 35  1  0  0  0
 36 37  1  0  0  0
 36 42  1  0  0  0
 37 38  1  0  0  0
 37 40  1  0  0  0
 38 39  2  0  0  0
 38 43  1  0  0  0
 40 41  1  0  0  0
 41 42  1  0  0  0
 43 44  1  0  0  0
 44 45  1  0  0  0
 45 46  2  0  0  0
 45 47  1  0  0  0
 47 48  1  0  0  0
 48 49  1  0  0  0
 48 51  1  0  0  0
 49 50  2  0  0  0
 49 55  1  0  0  0
 51 52  1  0  0  0
 52 53  1  0  0  0
 52 54  2  0  0  0
 55 56  1  0  0  0
 56 57  1  0  0  0
 56 59  1  0  0  0
 57 58  2  0  0  0
 57 67  1  0  0  0
 59 60  1  0  0  0
 60 61  4  0  0  0
 60 62  4  0  0  0
 61 63  4  0  0  0
 62 64  4  0  0  0
 63 65  4  0  0  0
 64 65  4  0  0  0
 65 66  1  0  0  0
 67 68  1  0  0  0
 68 69  1  0  0  0
 68 71  1  0  0  0
 69 70  2  0  0  0
 69 73  1  0  0  0
 71 72  1  0  0  0
 73 74  1  0  0  0
 74 75  1  0  0  0
 74 77  1  0  0  0
 75 76  2  0  0  0
 75 85  1  0  0  0
 77 78  1  0  0  0
 78 79  4  0  0  0
 78 80  4  0  0  0
 79 81  4  0  0  0
 80 82  4  0  0  0
 81 83  4  0  0  0
 82 83  4  0  0  0
 83 84  1  0  0  0
 85 86  1  0  0  0
 86 87  1  0  0  0
 86 89  1  0  0  0
 87 88  2  0  0  0
 87 93  1  0  0  0
 89 90  1  0  0  0
 90 91  1  0  0  0
 90 92  1  0  0  0
 93 94  1  0  0  0
 94 95  1  0  0  0
 94 97  1  0  0  0
 95 96  2  0  0  0
 95105  1  0  0  0
 97 98  1  0  0  0
 98 99  4  0  0  0
 98100  4  0  0  0
 99101  4  0  0  0
100102  4  0  0  0
101103  4  0  0  0
102103  4  0  0  0
103104  1  0  0  0
  3106  1  0  0  0
  3107  1  0  0  0
  4108  1  0  0  0
  5109  1  0  0  0
  8110  1  0  0  0
  8111  1  0  0  0
 10112  1  0  0  0
 11113  1  0  0  0
 12114  1  0  0  0
 13115  1  0  0  0
 15116  1  0  0  0
 16117  1  0  0  0
 17118  1  0  0  0
 20119  1  0  0  0
 20120  1  0  0  0
 23121  1  0  0  0
 24122  1  0  0  0
 25123  1  0  0  0
 28124  1  0  0  0
 28125  1  0  0  0
 30126  1  0  0  0
 31127  1  0  0  0
 32128  1  0  0  0
 33129  1  0  0  0
 35130  1  0  0  0
 37131  1  0  0  0
 40132  1  0  0  0
 40133  1  0  0  0
 41134  1  0  0  0
 41135  1  0  0  0
 42136  1  0  0  0
 42137  1  0  0  0
 43138  1  0  0  0
 44139  1  0  0  0
 44140  1  0  0  0
 47141  1  0  0  0
 48142  1  0  0  0
 51143  1  0  0  0
 51144  1  0  0  0
 53145  1  0  0  0
 55146  1  0  0  0
 56147  1  0  0  0
 59148  1  0  0  0
 59149  1  0  0  0
 61150  1  0  0  0
 62151  1  0  0  0
 63152  1  0  0  0
 64153  1  0  0  0
 66154  1  0  0  0
 67155  1  0  0  0
 68156  1  0  0  0
 71157  1  0  0  0
 71158  1  0  0  0
 73159  1  0  0  0
 74160  1  0  0  0
 77161  1  0  0  0
 77162  1  0  0  0
 79163  1  0  0  0
 80164  1  0  0  0
 81165  1  0  0  0
 82166  1  0  0  0
 84167  1  0  0  0
 85168  1  0  0  0
 86169  1  0  0  0
 89170  1  0  0  0
 89171  1  0  0  0
 90172  1  0  0  0
 91173  1  0  0  0
 91174  1  0  0  0
 91175  1  0  0  0
 92176  1  0  0  0
 92177  1  0  0  0
 92178  1  0  0  0
 93179  1  0  0  0
 94180  1  0  0  0
 97181  1  0  0  0
 97182  1  0  0  0
 99183  1  0  0  0
100184  1  0  0  0
101185  1  0  0  0
102186  1  0  0  0
104187  1  0  0  0
105188  1  0  0  0
105189  1  0  0  0
M  END
$$$$
