### 
### Created by X-TOOL on Mon Sep 10 21:13:31 2018
### 

@<TRIPOS>MOLECULE
5kgn_ligand
  187   193     1     0     0
SMALL
GAST_HUCK


@<TRIPOS>ATOM
      1 C           1.4430   83.2140   19.5600 C.2       1 ACE         0.1883
      2 O           1.1700   82.2450   18.9240 O.2       1 ACE        -0.3960
      3 CH3         2.2480   84.3750   18.9620 C.3       1 ACE         0.0836
      4 N           1.0130   83.3020   20.9290 N.am      1 DTY        -0.2634
      5 CA          0.2180   82.2370   21.4940 C.3       1 DTY         0.1390
      6 C           1.0480   81.1620   22.1890 C.2       1 DTY         0.2058
      7 O           0.3270   80.2630   22.8760 O.2       1 DTY        -0.3942
      8 CB         -0.7960   82.8810   22.4370 C.3       1 DTY         0.0163
      9 CG         -1.6940   83.8500   21.6600 C.ar      1 DTY        -0.0493
     10 CD1        -2.2500   83.5120   20.4410 C.ar      1 DTY        -0.0685
     11 CD2        -1.9340   85.0980   22.1950 C.ar      1 DTY        -0.0685
     12 CE1        -3.0570   84.4080   19.7560 C.ar      1 DTY        -0.0398
     13 CE2        -2.7200   86.0000   21.5140 C.ar      1 DTY        -0.0398
     14 CZ         -3.2970   85.6560   20.3000 C.ar      1 DTY         0.0805
     15 OH         -4.1140   86.5940   19.6480 O.3       1 DTY        -0.3376
     16 N           2.3770   81.1510   22.0800 N.am      1 ASP        -0.2620
     17 CA          3.1590   80.0160   22.5760 C.3       1 ASP         0.1423
     18 C           3.3680   80.0510   24.0830 C.2       1 ASP         0.2057
     19 O           3.4550   79.0020   24.7140 O.2       1 ASP        -0.3943
     20 CB          4.5090   79.9330   21.8470 C.3       1 ASP         0.0406
     21 CG          4.3430   79.7360   20.3540 C.2       1 ASP         0.0393
     22 OD1         3.5920   78.8260   19.9560 O.co2     1 ASP        -0.5688
     23 OD2         4.9400   80.5080   19.5750 O.co2     1 ASP        -0.5688
     24 N           3.4530   81.2480   24.6590 N.am      1 TYR        -0.2620
     25 CA          3.5920   81.4100   26.1000 C.3       1 TYR         0.1392
     26 C           2.8890   82.6870   26.5390 C.2       1 TYR         0.2082
     27 O           2.7850   83.6380   25.7550 O.2       1 TYR        -0.3940
     28 CB          5.0630   81.4220   26.5620 C.3       1 TYR         0.0164
     29 CG          5.9500   82.5020   25.9780 C.ar      1 TYR        -0.0493
     30 CD1         6.0300   83.7580   26.5700 C.ar      1 TYR        -0.0685
     31 CD2         6.7430   82.2510   24.8610 C.ar      1 TYR        -0.0685
     32 CE1         6.8700   84.7610   26.0380 C.ar      1 TYR        -0.0398
     33 CE2         7.5740   83.2370   24.3230 C.ar      1 TYR        -0.0398
     34 CZ          7.6320   84.4860   24.9140 C.ar      1 TYR         0.0805
     35 OH          8.4640   85.4490   24.3610 O.3       1 TYR        -0.3376
     36 N           2.3950   82.7400   27.7760 N.am      1 PRO        -0.2497
     37 CA          1.7360   83.9690   28.2500 C.3       1 PRO         0.1338
     38 C           2.6970   85.1500   28.2520 C.2       1 PRO         0.2039
     39 O           3.8150   85.0610   28.7590 O.2       1 PRO        -0.3944
     40 CB          1.2730   83.6080   29.6680 C.3       1 PRO        -0.0104
     41 CG          2.0420   82.3510   30.0410 C.3       1 PRO        -0.0281
     42 CD          2.2980   81.6410   28.7520 C.3       1 PRO         0.0369
     43 N           2.2620   86.2550   27.6530 N.am      1 GLY        -0.2664
     44 CA          3.1210   87.4160   27.5170 C.3       1 GLY         0.1201
     45 C           3.9010   87.5380   26.2190 C.2       1 GLY         0.2008
     46 O           4.5970   88.5500   26.0280 O.2       1 GLY        -0.3947
     47 N           3.8050   86.5710   25.3070 N.am      1 ASP        -0.2624
     48 CA          4.5060   86.7120   24.0370 C.3       1 ASP         0.1423
     49 C           3.8380   87.7610   23.1270 C.2       1 ASP         0.2057
     50 O           2.8060   88.3630   23.4400 O.2       1 ASP        -0.3943
     51 CB          4.7760   85.3450   23.3870 C.3       1 ASP         0.0406
     52 CG          3.5620   84.7120   22.6810 C.2       1 ASP         0.0393
     53 OD1         3.7030   83.5150   22.3050 O.co2     1 ASP        -0.5688
     54 OD2         2.5060   85.3530   22.4850 O.co2     1 ASP        -0.5688
     55 N           4.4730   87.9850   21.9840 N.am      1 TYR        -0.2620
     56 CA          4.1060   89.0940   21.1060 C.3       1 TYR         0.1390
     57 C           2.6540   89.0360   20.6400 C.2       1 TYR         0.2058
     58 O           2.0460   90.0880   20.4410 O.2       1 TYR        -0.3942
     59 CB          5.0510   89.1520   19.9100 C.3       1 TYR         0.0163
     60 CG          4.9930   87.9460   18.9850 C.ar      1 TYR        -0.0493
     61 CD1         4.3110   88.0090   17.7710 C.ar      1 TYR        -0.0685
     62 CD2         5.6530   86.7550   19.3110 C.ar      1 TYR        -0.0685
     63 CE1         4.2620   86.9180   16.9220 C.ar      1 TYR        -0.0398
     64 CE2         5.6080   85.6530   18.4610 C.ar      1 TYR        -0.0398
     65 CZ          4.9150   85.7420   17.2720 C.ar      1 TYR         0.0805
     66 OH          4.8670   84.6490   16.4410 O.3       1 TYR        -0.3376
     67 N           2.0650   87.8450   20.4700 N.am      1 CYS        -0.2628
     68 CA          0.6770   87.8040   19.9740 C.3       1 CYS         0.1400
     69 C          -0.3220   88.4490   20.9270 C.2       1 CYS         0.2048
     70 O          -1.3970   88.8890   20.4860 O.2       1 CYS        -0.3944
     71 CB          0.2290   86.3760   19.6730 C.3       1 CYS         0.0364
     72 SG          1.1060   85.6630   18.3080 S.3       1 CYS        -0.1344
     73 N          -0.0010   88.5070   22.2170 N.am      1 TYR        -0.2621
     74 CA         -0.8630   89.1270   23.2140 C.3       1 TYR         0.1390
     75 C          -0.9600   90.6360   23.0490 C.2       1 TYR         0.2057
     76 O          -1.7980   91.2670   23.7050 O.2       1 TYR        -0.3942
     77 CB         -0.3420   88.7980   24.6100 C.3       1 TYR         0.0163
     78 CG         -0.6490   87.3910   25.0480 C.ar      1 TYR        -0.0493
     79 CD1        -1.8770   87.0790   25.6080 C.ar      1 TYR        -0.0685
     80 CD2         0.2710   86.3620   24.8680 C.ar      1 TYR        -0.0685
     81 CE1        -2.1700   85.8100   26.0130 C.ar      1 TYR        -0.0398
     82 CE2        -0.0150   85.0650   25.2760 C.ar      1 TYR        -0.0398
     83 CZ         -1.2470   84.7960   25.8320 C.ar      1 TYR         0.0805
     84 OH         -1.5470   83.5240   26.2290 O.3       1 TYR        -0.3376
     85 N          -0.1370   91.2240   22.1970 N.am      1 LEU        -0.2636
     86 CA         -0.2600   92.6370   21.8810 C.3       1 LEU         0.1312
     87 C          -1.5250   92.8970   21.0520 C.2       1 LEU         0.2040
     88 O          -1.9840   94.0280   20.9850 O.2       1 LEU        -0.3944
     89 CB          0.9730   93.1410   21.1190 C.3       1 LEU        -0.0101
     90 CG          2.2830   93.1230   21.8900 C.3       1 LEU        -0.0425
     91 CD1         3.4480   93.3200   20.9420 C.3       1 LEU        -0.0625
     92 CD2         2.2800   94.1920   22.9590 C.3       1 LEU        -0.0625
     93 N          -2.0970   91.8590   20.4430 N.am      1 TYR        -0.2621
     94 CA         -3.3000   92.0430   19.6420 C.3       1 TYR         0.1387
     95 C          -4.4100   91.0510   19.9840 C.2       1 TYR         0.2010
     96 O          -5.5150   91.3610   19.7160 O.2       1 TYR        -0.3946
     97 CB         -2.9590   92.0310   18.1590 C.3       1 TYR         0.0163
     98 CG         -2.4460   90.7090   17.6170 C.ar      1 TYR        -0.0493
     99 CD1        -3.3520   89.7020   17.3000 C.ar      1 TYR        -0.0685
    100 CD2        -1.0790   90.5290   17.3900 C.ar      1 TYR        -0.0685
    101 CE1        -2.8970   88.4940   16.7840 C.ar      1 TYR        -0.0398
    102 CE2        -0.6270   89.3140   16.8650 C.ar      1 TYR        -0.0398
    103 CZ         -1.5420   88.3020   16.5630 C.ar      1 TYR         0.0805
    104 OH         -0.9600   87.1410   16.0420 O.3       1 TYR        -0.3376
    105 N          -4.1540   89.7830   20.6380 N.am      1 NH2        -0.2988
    106 H1          2.8783   83.9975   18.1433 H         1 ACE         0.0616
    107 H2          2.8857   84.8160   19.7423 H         1 ACE         0.0616
    108 H3          1.2624   84.0944   21.4856 H         1 DTY         0.1884
    109 H4         -0.3301   81.7469   20.6759 H         1 DTY         0.0821
    110 H5         -0.2617   83.4321   23.2249 H         1 DTY         0.0453
    111 H6         -1.4169   82.0968   22.8947 H         1 DTY         0.0453
    112 H7         -2.0530   82.5348   20.0151 H         1 DTY         0.0530
    113 H8         -1.5036   85.3690   23.1523 H         1 DTY         0.0530
    114 H9         -3.4952   84.1325   18.8036 H         1 DTY         0.0525
    115 H10        -2.8894   86.9868   21.9295 H         1 DTY         0.0525
    116 H11        -4.4359   86.2214   18.8355 H         1 DTY         0.2458
    117 H12         2.8448   81.9260   21.6551 H         1 ASP         0.1884
    118 H13         2.5936   79.1014   22.3441 H         1 ASP         0.0819
    119 H14         5.0800   79.0858   22.2546 H         1 ASP         0.0478
    120 H15         5.0636   80.8668   22.0214 H         1 ASP         0.0478
    121 H16         3.4203   82.0644   24.0825 H         1 TYR         0.1885
    122 H17         3.0957   80.5566   26.5852 H         1 TYR         0.0821
    123 H18         5.5036   80.4495   26.2973 H         1 TYR         0.0453
    124 H19         5.0681   81.5415   27.6555 H         1 TYR         0.0453
    125 H20         5.4386   83.9703   27.4533 H         1 TYR         0.0530
    126 H21         6.7149   81.2705   24.3995 H         1 TYR         0.0530
    127 H22         6.9182   85.7380   26.5052 H         1 TYR         0.0525
    128 H23         8.1719   83.0235   23.4444 H         1 TYR         0.0525
    129 H24         8.4008   86.2497   24.8684 H         1 TYR         0.2458
    130 H25         0.8721   84.2132   27.6143 H         1 PRO         0.0802
    131 H26         0.1904   83.4138   29.6808 H         1 PRO         0.0313
    132 H27         1.5076   84.4235   30.3679 H         1 PRO         0.0313
    133 H28         1.4436   81.7202   30.7148 H         1 PRO         0.0287
    134 H29         2.9916   82.6126   30.5307 H         1 PRO         0.0287
    135 H30         3.2365   81.0689   28.7965 H         1 PRO         0.0524
    136 H31         1.4674   80.9642   28.5028 H         1 PRO         0.0524
    137 H32         1.3301   86.2859   27.2915 H         1 GLY         0.1881
    138 H33         3.8482   87.3914   28.3420 H         1 GLY         0.0763
    139 H34         2.4891   88.3114   27.6118 H         1 GLY         0.0763
    140 H35         3.2566   85.7556   25.4925 H         1 ASP         0.1884
    141 H36         5.4975   87.1231   24.2777 H         1 ASP         0.0819
    142 H37         5.1131   84.6533   24.1731 H         1 ASP         0.0478
    143 H38         5.5760   85.4724   22.6428 H         1 ASP         0.0478
    144 H39         5.2223   87.3792   21.7163 H         1 TYR         0.1885
    145 H40         4.2291   90.0239   21.6806 H         1 TYR         0.0821
    146 H41         6.0790   89.2401   20.2914 H         1 TYR         0.0453
    147 H42         4.8007   90.0463   19.3205 H         1 TYR         0.0453
    148 H43         3.8108   88.9280   17.4876 H         1 TYR         0.0530
    149 H44         6.2079   86.6898   20.2399 H         1 TYR         0.0530
    150 H45         3.7164   86.9800   15.9873 H         1 TYR         0.0525
    151 H46         6.1134   84.7330   18.7316 H         1 TYR         0.0525
    152 H47         4.3577   84.8624   15.6680 H         1 TYR         0.2458
    153 H48         2.5575   86.9993   20.6757 H         1 CYS         0.1884
    154 H49         0.6529   88.3720   19.0323 H         1 CYS         0.0808
    155 H50        -0.8450   86.3858   19.4357 H         1 CYS         0.0426
    156 H51         0.4017   85.7566   20.5654 H         1 CYS         0.0426
    157 H52         0.8670   88.1089   22.5139 H         1 TYR         0.1885
    158 H53        -1.8729   88.7050   23.1043 H         1 TYR         0.0821
    159 H54        -0.8021   89.4942   25.3267 H         1 TYR         0.0453
    160 H55         0.7495   88.9343   24.6156 H         1 TYR         0.0453
    161 H56        -2.6201   87.8592   25.7267 H         1 TYR         0.0530
    162 H57         1.2260   86.5760   24.4020 H         1 TYR         0.0530
    163 H58        -3.1262   85.5962   26.4767 H         1 TYR         0.0525
    164 H59         0.7197   84.2767   25.1588 H         1 TYR         0.0525
    165 H60        -1.4963   82.9399   25.4815 H         1 TYR         0.2458
    166 H61         0.5844   90.6855   21.7615 H         1 LEU         0.1883
    167 H62        -0.3389   93.1964   22.8248 H         1 LEU         0.0800
    168 H63         0.7777   94.1786   20.8105 H         1 LEU         0.0315
    169 H64         1.0986   92.5105   20.2264 H         1 LEU         0.0315
    170 H65         2.3900   92.1426   22.3772 H         1 LEU         0.0298
    171 H66         4.3897   93.3052   21.5103 H         1 LEU         0.0232
    172 H67         3.3442   94.2878   20.4296 H         1 LEU         0.0232
    173 H68         3.4562   92.5100   20.1978 H         1 LEU         0.0232
    174 H69         1.4279   94.0313   23.6358 H         1 LEU         0.0232
    175 H70         2.1920   95.1819   22.4875 H         1 LEU         0.0232
    176 H71         3.2178   94.1406   23.5316 H         1 LEU         0.0232
    177 H72        -1.6976   90.9470   20.5364 H         1 TYR         0.1885
    178 H73        -3.6904   93.0443   19.8766 H         1 TYR         0.0821
    179 H74        -2.1850   92.7926   17.9830 H         1 TYR         0.0453
    180 H75        -3.8684   92.2964   17.6000 H         1 TYR         0.0453
    181 H76        -4.4132   89.8594   17.4554 H         1 TYR         0.0530
    182 H77        -0.3765   91.3224   17.6183 H         1 TYR         0.0530
    183 H78        -3.6014   87.7026   16.5546 H         1 TYR         0.0525
    184 H79         0.4317   89.1576   16.6926 H         1 TYR         0.0525
    185 H80        -0.3469   86.7844   16.6740 H         1 TYR         0.2458
    186 H81        -4.9122   89.1640   20.8429 H         1 NH2         0.1815
    187 H82        -3.2192   89.5272   20.8843 H         1 NH2         0.1815
@<TRIPOS>BOND
     1    1    2 2  
     2    1    3 1  
     3    1    4 am 
     4    3   72 1  
     5    4    5 1  
     6    5    6 1  
     7    5    8 1  
     8    6    7 2  
     9    6   16 am 
    10    8    9 1  
    11    9   10 ar 
    12    9   11 ar 
    13   10   12 ar 
    14   11   13 ar 
    15   12   14 ar 
    16   13   14 ar 
    17   14   15 1  
    18   16   17 1  
    19   17   18 1  
    20   17   20 1  
    21   18   19 2  
    22   18   24 am 
    23   20   21 1  
    24   21   22 ar 
    25   21   23 ar 
    26   24   25 1  
    27   25   26 1  
    28   25   28 1  
    29   26   27 2  
    30   26   36 am 
    31   28   29 1  
    32   29   30 ar 
    33   29   31 ar 
    34   30   32 ar 
    35   31   33 ar 
    36   32   34 ar 
    37   33   34 ar 
    38   34   35 1  
    39   36   37 1  
    40   36   42 1  
    41   37   38 1  
    42   37   40 1  
    43   38   39 2  
    44   38   43 am 
    45   40   41 1  
    46   41   42 1  
    47   43   44 1  
    48   44   45 1  
    49   45   46 2  
    50   45   47 am 
    51   47   48 1  
    52   48   49 1  
    53   48   51 1  
    54   49   50 2  
    55   49   55 am 
    56   51   52 1  
    57   52   53 ar 
    58   52   54 ar 
    59   55   56 1  
    60   56   57 1  
    61   56   59 1  
    62   57   58 2  
    63   57   67 am 
    64   59   60 1  
    65   60   61 ar 
    66   60   62 ar 
    67   61   63 ar 
    68   62   64 ar 
    69   63   65 ar 
    70   64   65 ar 
    71   65   66 1  
    72   67   68 1  
    73   68   69 1  
    74   68   71 1  
    75   69   70 2  
    76   69   73 am 
    77   71   72 1  
    78   73   74 1  
    79   74   75 1  
    80   74   77 1  
    81   75   76 2  
    82   75   85 am 
    83   77   78 1  
    84   78   79 ar 
    85   78   80 ar 
    86   79   81 ar 
    87   80   82 ar 
    88   81   83 ar 
    89   82   83 ar 
    90   83   84 1  
    91   85   86 1  
    92   86   87 1  
    93   86   89 1  
    94   87   88 2  
    95   87   93 am 
    96   89   90 1  
    97   90   91 1  
    98   90   92 1  
    99   93   94 1  
   100   94   95 1  
   101   94   97 1  
   102   95   96 2  
   103   95  105 am 
   104   97   98 1  
   105   98   99 ar 
   106   98  100 ar 
   107   99  101 ar 
   108  100  102 ar 
   109  101  103 ar 
   110  102  103 ar 
   111  103  104 1  
   112    3  106 1  
   113    3  107 1  
   114    4  108 1  
   115    5  109 1  
   116    8  110 1  
   117    8  111 1  
   118   10  112 1  
   119   11  113 1  
   120   12  114 1  
   121   13  115 1  
   122   15  116 1  
   123   16  117 1  
   124   17  118 1  
   125   20  119 1  
   126   20  120 1  
   127   24  121 1  
   128   25  122 1  
   129   28  123 1  
   130   28  124 1  
   131   30  125 1  
   132   31  126 1  
   133   32  127 1  
   134   33  128 1  
   135   35  129 1  
   136   37  130 1  
   137   40  131 1  
   138   40  132 1  
   139   41  133 1  
   140   41  134 1  
   141   42  135 1  
   142   42  136 1  
   143   43  137 1  
   144   44  138 1  
   145   44  139 1  
   146   47  140 1  
   147   48  141 1  
   148   51  142 1  
   149   51  143 1  
   150   55  144 1  
   151   56  145 1  
   152   59  146 1  
   153   59  147 1  
   154   61  148 1  
   155   62  149 1  
   156   63  150 1  
   157   64  151 1  
   158   66  152 1  
   159   67  153 1  
   160   68  154 1  
   161   71  155 1  
   162   71  156 1  
   163   73  157 1  
   164   74  158 1  
   165   77  159 1  
   166   77  160 1  
   167   79  161 1  
   168   80  162 1  
   169   81  163 1  
   170   82  164 1  
   171   84  165 1  
   172   85  166 1  
   173   86  167 1  
   174   89  168 1  
   175   89  169 1  
   176   90  170 1  
   177   91  171 1  
   178   91  172 1  
   179   91  173 1  
   180   92  174 1  
   181   92  175 1  
   182   92  176 1  
   183   93  177 1  
   184   94  178 1  
   185   97  179 1  
   186   97  180 1  
   187   99  181 1  
   188  100  182 1  
   189  101  183 1  
   190  102  184 1  
   191  104  185 1  
   192  105  186 1  
   193  105  187 1  
@<TRIPOS>SUBSTRUCTURE
     1 ACE         1

