4nan_ligand
  -I-interpret- 

 20 21  0  0  0  0  0  0  0  0999 V2000
    4.5370   24.8310  -21.3160 C   0  0  0  0  0
    4.1680   25.9470  -21.9810 C   0  0  0  0  0
    3.8880   27.0750  -21.2890 C   0  0  0  0  0
    5.0470   23.5600  -19.2890 C   0  0  0  0  0
    6.3830   21.8480  -18.9240 C   0  0  0  0  0
    7.9580   20.6140  -19.1300 Br  0  0  0  0  0
    5.3380   21.7070  -18.0590 C   0  0  0  0  0
    5.1380   20.1850  -16.7870 Br  0  0  0  0  0
    4.4960   22.7750  -18.2910 C   0  0  0  0  0
    2.7560   23.1990  -17.4180 Br  0  0  0  0  0
    6.2260   22.9750  -19.6520 N   0  0  0  0  0
    4.5900   24.8140  -19.9320 C   0  0  0  0  0
    4.3010   25.9650  -19.2180 C   0  0  0  0  0
    4.7780   23.7770  -22.1190 O   0  0  0  0  0
    4.0680   25.7530  -23.8550 Br  0  0  0  0  0
    3.9480   27.0800  -19.9110 C   0  0  0  0  0
    3.6135   27.9847  -21.8231 H   0  0  0  0  0
    4.3551   25.9766  -18.1294 H   0  0  0  0  0
    5.0341   23.0214  -21.5851 H   0  0  0  0  0
    3.7081   27.9942  -19.3680 H   0  0  0  0  0
  1  2  4  0  0  0
 12  1  4  0  0  0
  1 14  1  0  0  0
  2  3  4  0  0  0
  2 15  1  0  0  0
  3 16  4  0  0  0
  4  9  4  0  0  0
 11  4  4  0  0  0
  4 12  1  0  0  0
  5  6  1  0  0  0
  5  7  4  0  0  0
  5 11  4  0  0  0
  7  8  1  0  0  0
  7  9  4  0  0  0
  9 10  1  0  0  0
 12 13  4  0  0  0
 13 16  4  0  0  0
  3 17  1  0  0  0
 13 18  1  0  0  0
 14 19  1  0  0  0
 16 20  1  0  0  0
M  END
$$$$
