3wf5_ligand
  -I-interpret- 

 39 43  0  0  0  0  0  0  0  0999 V2000
  -13.1510    7.1800  -14.8580 N   0  0  0  0  0
  -13.4170    8.3490  -15.4210 C   0  0  0  0  0
  -13.4410    9.5790  -14.8610 N   0  0  0  0  0
  -13.1640    9.6770  -13.5500 C   0  0  0  0  0
  -13.2170   10.9450  -12.9280 N   0  0  0  0  0
  -13.0560   12.1910  -13.7480 C   0  0  0  0  0
  -12.0490   13.1250  -13.0700 C   0  0  0  0  0
  -12.1570   13.3600  -11.5430 C   0  0  0  0  0
  -11.0440   14.1540  -11.0110 C   0  0  0  0  0
  -10.8190   15.4340  -11.5810 N   0  0  0  0  0
   -9.6880   15.9640  -10.9210 C   0  0  0  0  0
   -9.0210   17.1960  -11.0570 C   0  0  0  0  0
   -7.9260   17.3810  -10.2380 C   0  0  0  0  0
   -7.5010   16.4070   -9.3180 C   0  0  0  0  0
   -8.1630   15.2130   -9.1790 C   0  0  0  0  0
   -9.2840   14.9780   -9.9940 C   0  0  0  0  0
  -10.1440   13.8650  -10.0770 N   0  0  0  0  0
  -12.5060   12.0390  -10.8840 C   0  0  0  0  0
  -13.5360   11.1140  -11.4980 C   0  0  0  0  0
  -12.8730    8.5180  -12.8120 C   0  0  0  0  0
  -12.5200    8.1550  -11.4620 C   0  0  0  0  0
  -12.3430    6.8160  -11.3730 N   0  0  0  0  0
  -12.5570    6.2930  -12.6130 N   0  0  0  0  0
  -12.8820    7.2910  -13.5180 C   0  0  0  0  0
  -13.6492    8.3143  -16.4854 H   0  0  0  0  0
  -14.0183   12.6958  -13.8329 H   0  0  0  0  0
  -12.6933   11.9268  -14.7414 H   0  0  0  0  0
  -12.2252   14.1026  -13.5186 H   0  0  0  0  0
  -11.0802   12.6466  -13.2136 H   0  0  0  0  0
  -12.9817   14.0235  -11.2826 H   0  0  0  0  0
   -9.3491   17.9567  -11.7653 H   0  0  0  0  0
   -7.3705   18.3163  -10.3070 H   0  0  0  0  0
   -6.6249   16.6047   -8.7004 H   0  0  0  0  0
   -7.8290   14.4678   -8.4570 H   0  0  0  0  0
  -12.9432   12.3263   -9.9277 H   0  0  0  0  0
  -11.5783   11.4683  -10.9248 H   0  0  0  0  0
  -13.5159   10.1473  -10.9948 H   0  0  0  0  0
  -14.5331   11.5398  -11.3863 H   0  0  0  0  0
  -12.4116    8.8561  -10.6344 H   0  0  0  0  0
  1  2  4  0  0  0
  1 24  4  0  0  0
  2  3  4  0  0  0
  3  4  4  0  0  0
  4  5  1  0  0  0
  4 20  4  0  0  0
  5  6  1  0  0  0
  5 19  1  0  0  0
  6  7  1  0  0  0
  7  8  1  0  0  0
  8  9  1  0  0  0
  8 18  1  0  0  0
  9 10  4  0  0  0
  9 17  4  0  0  0
 10 11  4  0  0  0
 11 12  4  0  0  0
 11 16  4  0  0  0
 12 13  4  0  0  0
 13 14  4  0  0  0
 14 15  4  0  0  0
 15 16  4  0  0  0
 16 17  4  0  0  0
 18 19  1  0  0  0
 20 21  4  0  0  0
 20 24  4  0  0  0
 21 22  4  0  0  0
 22 23  4  0  0  0
 23 24  4  0  0  0
  2 25  1  0  0  0
  6 26  1  0  0  0
  6 27  1  0  0  0
  7 28  1  0  0  0
  7 29  1  0  0  0
  8 30  1  0  0  0
 12 31  1  0  0  0
 13 32  1  0  0  0
 14 33  1  0  0  0
 15 34  1  0  0  0
 18 35  1  0  0  0
 18 36  1  0  0  0
 19 37  1  0  0  0
 19 38  1  0  0  0
 21 39  1  0  0  0
M  END
$$$$
