1o37_ligand
  -I-interpret- 

 49 52  0  0  0  0  0  0  0  0999 V2000
   44.4980   -2.9990   26.1780 C   0  0  0  0  0
   44.8270   -1.6290   26.2690 C   0  0  0  0  0
   44.7470   -0.8890   27.4430 C   0  0  0  0  0
   44.3220   -1.5550   28.5580 C   0  0  0  0  0
   44.0010   -2.8480   28.5460 C   0  0  0  0  0
   44.0660   -3.6350   27.3920 C   0  0  0  0  0
   44.5970   -3.6560   24.9010 C   0  0  0  0  0
   44.3260   -4.9420   24.7860 N   0  0  0  0  0
   44.9420   -2.9510   23.8290 N   0  0  0  0  0
   44.1480   -1.1200   29.7620 N   0  0  0  0  0
   43.6220   -3.2620   29.7350 N   0  0  0  0  0
   43.7430   -2.1340   30.4310 C   0  0  0  0  0
   43.4620   -2.0560   31.8270 C   0  0  0  0  0
   43.0700   -3.2040   32.5180 C   0  0  0  0  0
   42.7820   -3.1860   33.8820 C   0  0  0  0  0
   42.3010   -4.1650   34.7970 C   0  0  0  0  0
   40.8180   -4.4770   34.5760 C   0  0  0  0  0
   40.5260   -5.8350   35.1270 N   0  3  0  0  0
   42.8870   -2.0100   34.6010 C   0  0  0  0  0
   43.2720   -0.8370   33.9940 C   0  0  0  0  0
   43.5500   -0.8710   32.6030 C   0  0  0  0  0
   43.8870    0.3130   32.0000 O   0  0  0  0  0
   43.4070    0.3040   34.7740 C   0  0  0  0  0
   44.6160    1.0330   34.8030 C   0  0  0  0  0
   44.7790    2.1860   35.5950 C   0  0  0  0  0
   43.7310    2.6460   36.3850 C   0  0  0  0  0
   42.5200    1.9470   36.3770 C   0  0  0  0  0
   42.3600    0.7880   35.5810 C   0  0  0  0  0
   45.1637   -1.1215   25.3650 H   0  0  0  0  0
   45.0098    0.1684   27.4727 H   0  0  0  0  0
   43.7989   -4.6916   27.4125 H   0  0  0  0  0
   44.3813   -5.3953   23.8739 H   0  0  0  0  0
   44.9974   -3.4040   22.9168 H   0  0  0  0  0
   45.1515   -1.9567   23.9182 H   0  0  0  0  0
   42.9864   -4.1446   31.9736 H   0  0  0  0  0
   42.4203   -3.7747   35.8077 H   0  0  0  0  0
   42.8689   -5.0827   34.6441 H   0  0  0  0  0
   40.5897   -4.4531   33.5104 H   0  0  0  0  0
   40.2038   -3.7324   35.0824 H   0  0  0  0  0
   39.5398   -6.0534   34.9850 H   0  0  0  0  0
   41.1012   -6.5266   34.6462 H   0  0  0  0  0
   40.7383   -5.8487   36.1246 H   0  0  0  0  0
   42.6608   -2.0121   35.6673 H   0  0  0  0  0
   43.9029    1.0124   32.6574 H   0  0  0  0  0
   45.4514    0.6917   34.1917 H   0  0  0  0  0
   45.7295    2.7195   35.5888 H   0  0  0  0  0
   43.8517    3.5373   37.0007 H   0  0  0  0  0
   41.6904    2.2986   36.9904 H   0  0  0  0  0
   41.4068    0.2594   35.5930 H   0  0  0  0  0
  1  2  4  0  0  0
  1  6  4  0  0  0
  1  7  1  0  0  0
  2  3  4  0  0  0
  3  4  4  0  0  0
  4  5  4  0  0  0
  4 10  4  0  0  0
  5  6  4  0  0  0
  5 11  4  0  0  0
  7  8  2  0  0  0
  7  9  1  0  0  0
 10 12  4  0  0  0
 11 12  4  0  0  0
 12 13  1  0  0  0
 13 14  4  0  0  0
 13 21  4  0  0  0
 14 15  4  0  0  0
 15 16  1  0  0  0
 15 19  4  0  0  0
 16 17  1  0  0  0
 17 18  1  0  0  0
 19 20  4  0  0  0
 20 21  4  0  0  0
 20 23  1  0  0  0
 21 22  1  0  0  0
 23 24  4  0  0  0
 23 28  4  0  0  0
 24 25  4  0  0  0
 25 26  4  0  0  0
 26 27  4  0  0  0
 27 28  4  0  0  0
  2 29  1  0  0  0
  3 30  1  0  0  0
  6 31  1  0  0  0
  8 32  1  0  0  0
  9 33  1  0  0  0
  9 34  1  0  0  0
 14 35  1  0  0  0
 16 36  1  0  0  0
 16 37  1  0  0  0
 17 38  1  0  0  0
 17 39  1  0  0  0
 18 40  1  0  0  0
 18 41  1  0  0  0
 18 42  1  0  0  0
 19 43  1  0  0  0
 22 44  1  0  0  0
 24 45  1  0  0  0
 25 46  1  0  0  0
 26 47  1  0  0  0
 27 48  1  0  0  0
 28 49  1  0  0  0
M  END
$$$$
