6q89_ligand
  -I-interpret- 

 57 59  0  0  0  0  0  0  0  0999 V2000
   -3.1570   -4.2110  -28.0590 C   0  0  0  0  0
  -13.3330   -8.3550  -27.8920 N   0  0  0  0  0
   -4.1950   -3.6880  -27.6750 O   0  0  0  0  0
   -4.2320   -6.5150  -27.2150 S   0  0  0  0  0
  -12.9200   -7.9600  -29.1000 C   0  0  0  0  0
   -3.0770   -5.6330  -27.8750 N   0  0  0  0  0
   -9.2920   -4.3230  -29.3760 O   0  0  0  0  0
  -11.6950   -7.6000  -29.4930 N   0  0  0  0  0
   -7.5860   -4.6010  -31.4160 O   0  0  0  0  0
  -10.8270   -7.6680  -28.4750 C   0  0  0  0  0
   -0.8430   -4.4160  -28.6310 N   0  3  0  0  0
   -7.6020   -7.4260  -29.8650 O   0  0  0  0  0
  -11.1030   -8.0720  -27.1760 C   0  0  0  0  0
   -5.5030   -6.5330  -28.1780 O   0  0  0  0  0
  -12.4320   -8.4270  -26.8910 C   0  0  0  0  0
  -12.8550   -8.8110  -25.6790 N   0  0  0  0  0
   -1.3170   -1.9020  -30.5620 C   0  0  0  0  0
   -9.9560   -8.0150  -26.4040 N   0  0  0  0  0
   -9.0340   -7.5890  -27.2240 C   0  0  0  0  0
   -2.2850   -2.9910  -30.0910 C   0  0  0  0  0
   -9.4940   -7.3330  -28.4990 N   0  0  0  0  0
   -1.9810   -3.4820  -28.6710 C   0  0  0  0  0
   -1.4980   -1.5830  -32.0450 C   0  0  0  0  0
   -1.4520   -0.6410  -29.7040 C   0  0  0  0  0
   -4.7140   -5.9430  -26.0090 O   0  0  0  0  0
   -8.7650   -6.6790  -29.5730 C   0  0  0  0  0
   -8.2640   -5.2840  -29.1970 C   0  0  0  0  0
   -7.1040   -5.1020  -30.1730 C   0  0  0  0  0
   -6.5590   -6.5330  -30.3330 C   0  0  0  0  0
   -5.2710   -6.8290  -29.6000 C   0  0  0  0  0
   -3.7110   -7.8380  -27.2500 O   0  0  0  0  0
  -13.6892   -7.9270  -29.8716 H   0  0  0  0  0
   -2.2298   -6.1087  -28.1852 H   0  0  0  0  0
   -8.9616   -3.4542  -29.1360 H   0  0  0  0  0
   -6.8499   -4.4901  -32.0221 H   0  0  0  0  0
   -0.6816   -4.7124  -27.6684 H   0  0  0  0  0
   -1.0527   -5.2304  -29.2082 H   0  0  0  0  0
   -0.0093   -3.9498  -28.9887 H   0  0  0  0  0
  -13.8378   -9.0405  -25.5309 H   0  0  0  0  0
  -12.1943   -8.8738  -24.9045 H   0  0  0  0  0
   -0.3057   -2.2892  -30.4380 H   0  0  0  0  0
   -7.9945   -7.4483  -26.9279 H   0  0  0  0  0
   -2.1859   -3.8407  -30.7665 H   0  0  0  0  0
   -3.2893   -2.5673  -30.0900 H   0  0  0  0  0
   -1.7503   -2.5773  -28.1086 H   0  0  0  0  0
   -1.3148   -2.4819  -32.6337 H   0  0  0  0  0
   -2.5161   -1.2346  -32.2188 H   0  0  0  0  0
   -0.7918   -0.8057  -32.3370 H   0  0  0  0  0
   -2.4707   -0.2603  -29.7776 H   0  0  0  0  0
   -1.2278   -0.8841  -28.6654 H   0  0  0  0  0
   -0.7533    0.1159  -30.0603 H   0  0  0  0  0
   -9.4619   -6.6077  -30.4081 H   0  0  0  0  0
   -7.9629   -5.1650  -28.1562 H   0  0  0  0  0
   -6.3487   -4.3947  -29.8305 H   0  0  0  0  0
   -6.3045   -6.6691  -31.3841 H   0  0  0  0  0
   -4.9840   -7.8720  -29.7335 H   0  0  0  0  0
   -4.4571   -6.2188  -29.9916 H   0  0  0  0  0
  1  3  2  0  0  0
  6  1  1  0  0  0
  1 22  1  0  0  0
  5  2  4  0  0  0
 15  2  4  0  0  0
  4  6  1  0  0  0
 14  4  1  0  0  0
  4 25  2  0  0  0
  4 31  2  0  0  0
  8  5  4  0  0  0
 27  7  1  0  0  0
 10  8  4  0  0  0
 28  9  1  0  0  0
 10 13  4  0  0  0
 21 10  4  0  0  0
 22 11  1  0  0  0
 12 26  1  0  0  0
 29 12  1  0  0  0
 13 15  4  0  0  0
 18 13  4  0  0  0
 30 14  1  0  0  0
 15 16  1  0  0  0
 20 17  1  0  0  0
 17 23  1  0  0  0
 17 24  1  0  0  0
 19 18  4  0  0  0
 21 19  4  0  0  0
 22 20  1  0  0  0
 26 21  1  0  0  0
 27 26  1  0  0  0
 28 27  1  0  0  0
 29 28  1  0  0  0
 29 30  1  0  0  0
  5 32  1  0  0  0
  6 33  1  0  0  0
  7 34  1  0  0  0
  9 35  1  0  0  0
 11 36  1  0  0  0
 11 37  1  0  0  0
 11 38  1  0  0  0
 16 39  1  0  0  0
 16 40  1  0  0  0
 17 41  1  0  0  0
 19 42  1  0  0  0
 20 43  1  0  0  0
 20 44  1  0  0  0
 22 45  1  0  0  0
 23 46  1  0  0  0
 23 47  1  0  0  0
 23 48  1  0  0  0
 24 49  1  0  0  0
 24 50  1  0  0  0
 24 51  1  0  0  0
 26 52  1  0  0  0
 27 53  1  0  0  0
 28 54  1  0  0  0
 29 55  1  0  0  0
 30 56  1  0  0  0
 30 57  1  0  0  0
M  END
$$$$
