5jzy_ligand
  -I-interpret- 

 63 65  0  0  0  0  0  0  0  0999 V2000
    7.9920  -13.2730   97.1330 C   0  0  0  0  0
    8.9760  -14.3360   96.6890 C   0  0  0  0  0
    8.6720  -14.7970   95.2690 C   0  0  0  0  0
    5.0810  -13.0580   92.4700 N   0  0  0  0  0
    7.2370  -15.2940   95.1370 C   0  0  0  0  0
    4.1720  -13.4590   93.3730 C   0  0  0  0  0
    2.8750  -10.5640   91.3190 N   0  0  0  0  0
    6.1990  -13.8350   91.9030 C   0  0  0  0  0
    7.0160  -12.8070   91.1720 C   0  0  0  0  0
    6.0700  -11.6670   90.8280 C   0  0  0  0  0
    4.9350  -11.7290   91.8560 C   0  0  0  0  0
   -2.6740   -9.4350   95.6600 N   0  0  0  0  0
    3.5820  -11.6770   91.1580 C   0  0  0  0  0
    1.5240  -10.4410   90.7800 C   0  0  0  0  0
    0.5000  -10.4950   91.8850 C   0  0  0  0  0
   -3.0910  -11.6360   95.3030 N   0  0  0  0  0
    3.2430  -12.7420   93.7100 O   0  0  0  0  0
    4.2990  -14.8650   94.0040 C   0  0  0  0  0
    4.7930  -14.7220   95.4480 C   0  0  0  0  0
    6.2330  -14.2290   95.5750 C   0  0  0  0  0
    6.5610  -13.7720   96.9970 C   0  0  0  0  0
    2.9500  -15.4600   93.9570 N   0  3  0  0  0
    3.2060  -12.6070   90.4340 O   0  0  0  0  0
    0.1020  -11.6920   92.4570 C   0  0  0  0  0
   -0.8340  -11.7220   93.4710 C   0  0  0  0  0
   -1.3950  -10.5420   93.9550 C   0  0  0  0  0
   -2.4290  -10.5700   94.9980 C   0  0  0  0  0
   -0.9940   -9.3510   93.3860 C   0  0  0  0  0
   -0.0630   -9.3270   92.3680 C   0  0  0  0  0
    8.1185  -12.3918   96.5041 H   0  0  0  0  0
    8.1826  -13.0320   98.1788 H   0  0  0  0  0
    8.8959  -15.1909   97.3604 H   0  0  0  0  0
    9.9815  -13.9160   96.7141 H   0  0  0  0  0
    9.3453  -15.6176   95.0212 H   0  0  0  0  0
    8.8073  -13.9509   94.5953 H   0  0  0  0  0
    7.1142  -16.1681   95.7765 H   0  0  0  0  0
    7.0500  -15.5351   94.0906 H   0  0  0  0  0
    3.2837   -9.7807   91.8287 H   0  0  0  0  0
    5.8572  -14.6360   91.2475 H   0  0  0  0  0
    6.7745  -14.3538   92.6696 H   0  0  0  0  0
    7.4600  -13.2305   90.2711 H   0  0  0  0  0
    7.8425  -12.4550   91.7893 H   0  0  0  0  0
    5.6866  -11.7671   89.8126 H   0  0  0  0  0
    6.5826  -10.7058   90.8658 H   0  0  0  0  0
    4.9832  -10.9029   92.5654 H   0  0  0  0  0
   -3.3780   -9.4168   96.3979 H   0  0  0  0  0
   -2.1570   -8.5871   95.4273 H   0  0  0  0  0
    1.3432  -11.2673   90.0925 H   0  0  0  0  0
    1.4364   -9.4838   90.2660 H   0  0  0  0  0
   -3.7928  -11.6064   96.0426 H   0  0  0  0  0
    5.0110  -15.4976   93.4739 H   0  0  0  0  0
    4.7527  -15.7131   95.8999 H   0  0  0  0  0
    4.1569  -13.9811   95.9322 H   0  0  0  0  0
    6.3177  -13.3708   94.9084 H   0  0  0  0  0
    5.8924  -12.9487   97.2483 H   0  0  0  0  0
    6.4383  -14.6270   97.6618 H   0  0  0  0  0
    2.6496  -15.5421   92.9857 H   0  0  0  0  0
    2.9725  -16.3849   94.3865 H   0  0  0  0  0
    2.2985  -14.8630   94.4664 H   0  0  0  0  0
    0.5354  -12.6264   92.1003 H   0  0  0  0  0
   -1.1373  -12.6782   93.8973 H   0  0  0  0  0
   -1.4193   -8.4143   93.7463 H   0  0  0  0  0
    0.2342   -8.3711   91.9367 H   0  0  0  0  0
  1  2  1  0  0  0
 21  1  1  0  0  0
  3  2  1  0  0  0
  5  3  1  0  0  0
  4  6  1  0  0  0
  4  8  1  0  0  0
 11  4  1  0  0  0
 20  5  1  0  0  0
  6 17  2  0  0  0
  6 18  1  0  0  0
  7 13  1  0  0  0
 14  7  1  0  0  0
  9  8  1  0  0  0
 10  9  1  0  0  0
 11 10  1  0  0  0
 13 11  1  0  0  0
 27 12  1  0  0  0
 13 23  2  0  0  0
 15 14  1  0  0  0
 24 15  4  0  0  0
 15 29  4  0  0  0
 27 16  2  0  0  0
 18 19  1  0  0  0
 18 22  1  0  0  0
 19 20  1  0  0  0
 20 21  1  0  0  0
 25 24  4  0  0  0
 26 25  4  0  0  0
 26 27  1  0  0  0
 26 28  4  0  0  0
 28 29  4  0  0  0
  1 30  1  0  0  0
  1 31  1  0  0  0
  2 32  1  0  0  0
  2 33  1  0  0  0
  3 34  1  0  0  0
  3 35  1  0  0  0
  5 36  1  0  0  0
  5 37  1  0  0  0
  7 38  1  0  0  0
  8 39  1  0  0  0
  8 40  1  0  0  0
  9 41  1  0  0  0
  9 42  1  0  0  0
 10 43  1  0  0  0
 10 44  1  0  0  0
 11 45  1  0  0  0
 12 46  1  0  0  0
 12 47  1  0  0  0
 14 48  1  0  0  0
 14 49  1  0  0  0
 16 50  1  0  0  0
 18 51  1  0  0  0
 19 52  1  0  0  0
 19 53  1  0  0  0
 20 54  1  0  0  0
 21 55  1  0  0  0
 21 56  1  0  0  0
 22 57  1  0  0  0
 22 58  1  0  0  0
 22 59  1  0  0  0
 24 60  1  0  0  0
 25 61  1  0  0  0
 28 62  1  0  0  0
 29 63  1  0  0  0
M  END
$$$$
