5dxb_ligand
  -I-interpret- 

208210  0  0  0  0  0  0  0  0999 V2000
   31.5000   19.5270    8.2320 C   0  0  0  0  0
   31.3560   18.6780    9.1030 O   0  0  0  0  0
   32.8300   20.2650    8.0460 C   0  0  0  0  0
   30.5410   19.8680    7.3850 N   0  0  0  0  0
   29.2690   19.1770    7.4580 C   0  0  0  0  0
   29.5020   17.6780    7.2690 C   0  0  0  0  0
   30.6190   17.2270    7.1140 O   0  0  0  0  0
   28.3260   19.6860    6.3670 C   0  0  0  0  0
   27.1960   20.3600    7.1130 C   0  0  0  0  0
   26.8970   21.6290    7.0400 N   0  0  0  0  0
   26.4110   19.7560    7.9890 C   0  0  0  0  0
   25.8800   21.8230    7.8660 C   0  0  0  0  0
   25.5790   20.6840    8.4530 N   0  0  0  0  0
   28.4180   16.9300    7.3320 N   0  0  0  0  0
   28.4260   15.5170    7.1160 C   0  0  0  0  0
   28.3410   15.2900    5.6260 C   0  0  0  0  0
   27.6880   16.0200    4.9190 O   0  0  0  0  0
   27.1900   15.0580    7.7550 C   0  0  0  0  0
   27.4060   15.1210    9.2410 C   0  0  0  0  0
   26.5220   14.1280    9.9540 C   0  0  0  0  0
   25.2880   14.8460   10.4610 C   0  0  0  0  0
   24.6820   14.1880   11.6200 N   0  3  0  0  0
   27.7310   13.7710    3.2880 C   0  0  0  0  0
   29.0260   14.2640    5.1950 N   0  0  0  0  0
   27.4190   14.2300    2.2290 O   0  0  0  0  0
   29.0450   13.8450    3.8040 C   0  0  0  0  0
   29.7030   12.4940    3.7000 C   0  0  0  0  0
   28.4440   11.3160    1.8650 C   0  0  0  0  0
   28.5610   10.6270    0.6990 C   0  0  0  0  0
   29.7470   11.9840    2.2850 C   0  0  0  0  0
   29.9110   14.8350    3.0750 C   0  0  0  0  0
   26.7550   13.1730    3.9910 N   0  0  0  0  0
   25.3600   13.0340    3.5940 C   0  0  0  0  0
   24.7740   14.2380    3.2180 C   0  0  0  0  0
   24.0540   14.2810    2.2690 O   0  0  0  0  0
   24.5610   12.4880    4.7500 C   0  0  0  0  0
   23.6970   11.3290    4.3770 C   0  0  0  0  0
   22.7070   11.0610    5.5000 C   0  0  0  0  0
   23.0120   11.4700    3.0560 C   0  0  0  0  0
   24.9400   15.3590    4.0010 N   0  0  0  0  0
   24.4280   16.7130    3.7650 C   0  0  0  0  0
   24.7420   17.1520    2.4750 C   0  0  0  0  0
   23.9050   17.6750    1.8140 O   0  0  0  0  0
   24.9220   17.6820    4.8470 C   0  0  0  0  0
   24.2870   19.0470    4.7020 C   0  0  0  0  0
   24.7320   20.0310    3.9680 N   0  0  0  0  0
   23.1910   19.4250    5.2720 C   0  0  0  0  0
   23.8910   21.0080    4.1030 C   0  0  0  0  0
   22.9530   20.6410    4.9110 N   0  0  0  0  0
   25.9580   16.8950    1.8850 N   0  0  0  0  0
   26.3180   17.3130    0.5370 C   0  0  0  0  0
   25.7900   16.4650   -0.4310 C   0  0  0  0  0
   25.1700   16.8700   -1.3700 O   0  0  0  0  0
   27.8390   17.4000    0.4490 C   0  0  0  0  0
   28.3470   17.6170   -0.9580 C   0  0  0  0  0
   28.2550   19.0690   -1.3300 C   0  0  0  0  0
   28.2880   19.1800   -2.7790 N   0  0  0  0  0
   29.3580   19.4760   -3.4800 C   0  0  0  0  0
   29.2740   19.5180   -4.7900 N   0  0  0  0  0
   30.5200   19.7300   -2.8960 N   0  0  0  0  0
   25.9440   15.1220   -0.2900 N   0  0  0  0  0
   25.4180   14.0920   -1.1810 C   0  0  0  0  0
   25.6840   12.8280   -0.4220 C   0  0  0  0  0
   25.7420   11.5840   -1.1740 C   0  0  0  0  0
   24.3290   11.2880   -1.5340 C   0  0  0  0  0
   26.2050   10.5300   -0.2400 C   0  0  0  0  0
   27.5810   10.3050   -0.2200 C   0  0  0  0  0
   26.2410   14.1230   -2.4280 C   0  0  0  0  0
   24.0200   14.2360   -1.4610 C   0  0  0  0  0
   23.5530   14.0560   -2.5470 O   0  0  0  0  0
   23.2320   14.6790   -0.4960 N   0  0  0  0  0
   21.7840   14.8590   -0.6660 C   0  0  0  0  0
   21.4390   15.9570   -1.7030 C   0  0  0  0  0
   20.3950   15.9550   -2.2750 O   0  0  0  0  0
   21.1070   15.1710    0.6340 C   0  0  0  0  0
   20.5720   13.9080    1.2950 C   0  0  0  0  0
   20.2920   14.1590    2.7540 C   0  0  0  0  0
   19.3030   13.4300    0.6390 C   0  0  0  0  0
   22.3450   16.8770   -1.8740 N   0  0  0  0  0
   22.1720   17.9920   -2.8020 C   0  0  0  0  0
   22.5360   17.6580   -4.2560 C   0  0  0  0  0
   22.2100   18.4110   -5.1060 O   0  0  0  0  0
   22.9730   19.2010   -2.3300 C   0  0  0  0  0
   22.5490   19.5360   -0.9210 C   0  0  0  0  0
   23.2230   20.7700   -0.4170 C   0  0  0  0  0
   23.8970   20.7540    0.5740 O   0  0  0  0  0
   22.9910   21.8280   -1.0990 N   0  0  0  0  0
   23.1740   16.5530   -4.5310 N   0  0  0  0  0
   23.5620   16.1020   -5.8590 C   0  0  0  0  0
   22.3700   15.5220   -6.5810 C   0  0  0  0  0
   21.6490   14.7230   -6.0560 O   0  0  0  0  0
   24.4570   14.9310   -5.6030 C   0  0  0  0  0
   25.7950   15.0110   -6.2740 C   0  0  0  0  0
   26.6590   15.6950   -5.6970 O   0  0  0  0  0
   25.9610   14.3270   -7.3150 O   0  0  0  0  0
   22.1600   15.9150   -7.8130 N   0  0  0  0  0
   21.0470   15.3740   -8.6100 C   0  0  0  0  0
   21.6380   14.4720   -9.6540 C   0  0  0  0  0
   22.8400   14.4570   -9.8500 O   0  0  0  0  0
   20.3000   16.4780   -9.3280 C   0  0  0  0  0
   20.1150   17.5840   -8.4530 O   0  0  0  0  0
   20.7850   13.7090  -10.2770 N   0  0  0  0  0
   33.0768   20.8026    8.9615 H   0  0  0  0  0
   33.6163   19.5437    7.8235 H   0  0  0  0  0
   32.7396   20.9718    7.2212 H   0  0  0  0  0
   30.6945   20.6028    6.6944 H   0  0  0  0  0
   28.8156   19.3645    8.4313 H   0  0  0  0  0
   27.9660   18.8759    5.7327 H   0  0  0  0  0
   28.8282   20.3731    5.6860 H   0  0  0  0  0
   26.4401   18.7045    8.2746 H   0  0  0  0  0
   25.3734   22.7736    8.0329 H   0  0  0  0  0
   27.5291   17.3823    7.5456 H   0  0  0  0  0
   29.3070   15.0064    7.5050 H   0  0  0  0  0
   26.9534   14.0402    7.4450 H   0  0  0  0  0
   26.3504   15.6887    7.4627 H   0  0  0  0  0
   27.1598   16.1240    9.5895 H   0  0  0  0  0
   28.4475   14.8811    9.4550 H   0  0  0  0  0
   27.0629   13.6880   10.7918 H   0  0  0  0  0
   26.2302   13.3340    9.2666 H   0  0  0  0  0
   24.5514   14.8500    9.6575 H   0  0  0  0  0
   25.5879   15.8484   10.7663 H   0  0  0  0  0
   23.8593   14.7133   11.9160 H   0  0  0  0  0
   24.4076   13.2391   11.3658 H   0  0  0  0  0
   25.3583   14.1548   12.3828 H   0  0  0  0  0
   29.5750   13.7305    5.8691 H   0  0  0  0  0
   29.1214   11.7893    4.2943 H   0  0  0  0  0
   30.7289   12.5906    4.0555 H   0  0  0  0  0
   27.5186   11.3832    2.4371 H   0  0  0  0  0
   29.5657   10.2812    0.4558 H   0  0  0  0  0
   30.5420   11.2412    2.2198 H   0  0  0  0  0
   29.9162   12.8354    1.6257 H   0  0  0  0  0
   29.9836   14.5489    2.0257 H   0  0  0  0  0
   29.4691   15.8284    3.1523 H   0  0  0  0  0
   30.9058   14.8428    3.5204 H   0  0  0  0  0
   27.0168   12.7763    4.8935 H   0  0  0  0  0
   25.3532   12.3642    2.7341 H   0  0  0  0  0
   23.9073   13.2852    5.1038 H   0  0  0  0  0
   25.2678   12.1422    5.5043 H   0  0  0  0  0
   24.3540   10.4690    4.2476 H   0  0  0  0  0
   23.2518   10.8320    6.4159 H   0  0  0  0  0
   22.0878   11.9445    5.6553 H   0  0  0  0  0
   22.0744   10.2151    5.2308 H   0  0  0  0  0
   22.3722   12.3523    3.0723 H   0  0  0  0  0
   23.7597   11.5762    2.2700 H   0  0  0  0  0
   22.4064   10.5839    2.8658 H   0  0  0  0  0
   25.4878   15.2315    4.8519 H   0  0  0  0  0
   23.3405   16.6858    3.8334 H   0  0  0  0  0
   26.0017   17.7913    4.7451 H   0  0  0  0  0
   24.6509   17.2774    5.8221 H   0  0  0  0  0
   22.5755   18.8228    5.9403 H   0  0  0  0  0
   23.9636   21.9798    3.6147 H   0  0  0  0  0
   26.6517   16.3788    2.4261 H   0  0  0  0  0
   25.8860   18.2934    0.3362 H   0  0  0  0  0
   28.2435   16.4513    0.8019 H   0  0  0  0  0
   28.1546   18.2543    1.0479 H   0  0  0  0  0
   27.7379   17.0343   -1.6491 H   0  0  0  0  0
   29.3892   17.3023   -1.0115 H   0  0  0  0  0
   29.0920   19.6166   -0.8969 H   0  0  0  0  0
   27.3265   19.4920   -0.9466 H   0  0  0  0  0
   27.4187   19.0164   -3.2869 H   0  0  0  0  0
   28.3853   19.3220   -5.2506 H   0  0  0  0  0
   31.3374   19.9552   -3.4631 H   0  0  0  0  0
   30.5971   19.7003   -1.8794 H   0  0  0  0  0
   26.4794   14.8025    0.5172 H   0  0  0  0  0
   24.8416   12.7160    0.2606 H   0  0  0  0  0
   26.6765   12.9524    0.0111 H   0  0  0  0  0
   26.3943   11.6368   -2.0457 H   0  0  0  0  0
   23.7381   11.1824   -0.6242 H   0  0  0  0  0
   23.9298   12.1048   -2.1353 H   0  0  0  0  0
   24.2876   10.3607   -2.1053 H   0  0  0  0  0
   25.7439    9.5992   -0.5704 H   0  0  0  0  0
   25.9309   10.8617    0.7615 H   0  0  0  0  0
   27.5833    9.2204   -0.1112 H   0  0  0  0  0
   27.8811   10.9596   -1.0382 H   0  0  0  0  0
   26.1615   15.1071   -2.8899 H   0  0  0  0  0
   27.2827   13.9200   -2.1794 H   0  0  0  0  0
   25.8770   13.3645   -3.1210 H   0  0  0  0  0
   23.6483   14.9060    0.4071 H   0  0  0  0  0
   21.4108   13.9065   -1.0423 H   0  0  0  0  0
   20.2703   15.8415    0.4378 H   0  0  0  0  0
   21.8343   15.6316    1.3026 H   0  0  0  0  0
   21.3376   13.1402    1.1833 H   0  0  0  0  0
   21.2133   14.4593    3.2530 H   0  0  0  0  0
   19.5505   14.9523    2.8491 H   0  0  0  0  0
   19.9103   13.2463    3.2116 H   0  0  0  0  0
   18.5416   14.2063    0.7148 H   0  0  0  0  0
   19.4981   13.2120   -0.4110 H   0  0  0  0  0
   18.9542   12.5271    1.1402 H   0  0  0  0  0
   23.2107   16.8165   -1.3381 H   0  0  0  0  0
   21.1060   18.2196   -2.7994 H   0  0  0  0  0
   22.7860   20.0506   -2.9867 H   0  0  0  0  0
   24.0387   18.9735   -2.3537 H   0  0  0  0  0
   22.8271   18.7049   -0.2729 H   0  0  0  0  0
   21.4727   19.7086   -0.9191 H   0  0  0  0  0
   23.3886   22.7207   -0.8066 H   0  0  0  0  0
   22.4085   21.7785   -1.9349 H   0  0  0  0  0
   23.4227   15.9522   -3.7452 H   0  0  0  0  0
   23.9980   16.9180   -6.4354 H   0  0  0  0  0
   23.9525   14.0512   -6.0025 H   0  0  0  0  0
   24.6407   14.8993   -4.5291 H   0  0  0  0  0
   25.1350   13.8976   -7.5495 H   0  0  0  0  0
   22.7804   16.6100   -8.2284 H   0  0  0  0  0
   20.3557   14.8520   -7.9484 H   0  0  0  0  0
   19.3269   16.1053   -9.6478 H   0  0  0  0  0
   20.8771   16.7979  -10.1956 H   0  0  0  0  0
   19.6411   18.2798   -8.9144 H   0  0  0  0  0
   21.1122   13.0459  -10.9796 H   0  0  0  0  0
   19.7901   13.7749  -10.0621 H   0  0  0  0  0
  1  2  2  0  0  0
  1  3  1  0  0  0
  4  1  1  0  0  0
  5  4  1  0  0  0
  6  5  1  0  0  0
  5  8  1  0  0  0
  6  7  2  0  0  0
 14  6  1  0  0  0
  8  9  1  0  0  0
  9 10  4  0  0  0
  9 11  4  0  0  0
 10 12  4  0  0  0
 11 13  4  0  0  0
 13 12  4  0  0  0
 15 14  1  0  0  0
 16 15  1  0  0  0
 15 18  1  0  0  0
 16 17  2  0  0  0
 24 16  1  0  0  0
 18 19  1  0  0  0
 19 20  1  0  0  0
 20 21  1  0  0  0
 21 22  1  0  0  0
 23 25  2  0  0  0
 26 23  1  0  0  0
 23 32  1  0  0  0
 26 24  1  0  0  0
 27 26  1  0  0  0
 26 31  1  0  0  0
 30 27  1  0  0  0
 28 29  2  0  0  0
 28 30  1  0  0  0
 29 67  1  0  0  0
 32 33  1  0  0  0
 33 34  1  0  0  0
 33 36  1  0  0  0
 34 35  2  0  0  0
 34 40  1  0  0  0
 36 37  1  0  0  0
 37 38  1  0  0  0
 37 39  1  0  0  0
 40 41  1  0  0  0
 41 42  1  0  0  0
 41 44  1  0  0  0
 42 43  2  0  0  0
 42 50  1  0  0  0
 44 45  1  0  0  0
 45 46  4  0  0  0
 45 47  4  0  0  0
 46 48  4  0  0  0
 47 49  4  0  0  0
 48 49  4  0  0  0
 50 51  1  0  0  0
 51 52  1  0  0  0
 51 54  1  0  0  0
 52 53  2  0  0  0
 52 61  1  0  0  0
 54 55  1  0  0  0
 55 56  1  0  0  0
 56 57  1  0  0  0
 57 58  1  0  0  0
 58 59  2  0  0  0
 58 60  1  0  0  0
 61 62  1  0  0  0
 62 63  1  0  0  0
 62 68  1  0  0  0
 62 69  1  0  0  0
 63 64  1  0  0  0
 64 65  1  0  0  0
 64 66  1  0  0  0
 66 67  1  0  0  0
 69 70  2  0  0  0
 69 71  1  0  0  0
 71 72  1  0  0  0
 72 73  1  0  0  0
 72 75  1  0  0  0
 73 74  2  0  0  0
 73 79  1  0  0  0
 75 76  1  0  0  0
 76 77  1  0  0  0
 76 78  1  0  0  0
 79 80  1  0  0  0
 80 81  1  0  0  0
 80 83  1  0  0  0
 81 82  2  0  0  0
 81 88  1  0  0  0
 83 84  1  0  0  0
 84 85  1  0  0  0
 85 86  2  0  0  0
 85 87  1  0  0  0
 88 89  1  0  0  0
 89 90  1  0  0  0
 89 92  1  0  0  0
 90 91  2  0  0  0
 90 96  1  0  0  0
 92 93  1  0  0  0
 93 94  2  0  0  0
 93 95  1  0  0  0
 96 97  1  0  0  0
 97 98  1  0  0  0
 97100  1  0  0  0
 98 99  2  0  0  0
 98102  1  0  0  0
100101  1  0  0  0
  3103  1  0  0  0
  3104  1  0  0  0
  3105  1  0  0  0
  4106  1  0  0  0
  5107  1  0  0  0
  8108  1  0  0  0
  8109  1  0  0  0
 11110  1  0  0  0
 12111  1  0  0  0
 14112  1  0  0  0
 15113  1  0  0  0
 18114  1  0  0  0
 18115  1  0  0  0
 19116  1  0  0  0
 19117  1  0  0  0
 20118  1  0  0  0
 20119  1  0  0  0
 21120  1  0  0  0
 21121  1  0  0  0
 22122  1  0  0  0
 22123  1  0  0  0
 22124  1  0  0  0
 24125  1  0  0  0
 27126  1  0  0  0
 27127  1  0  0  0
 28128  1  0  0  0
 29129  1  0  0  0
 30130  1  0  0  0
 30131  1  0  0  0
 31132  1  0  0  0
 31133  1  0  0  0
 31134  1  0  0  0
 32135  1  0  0  0
 33136  1  0  0  0
 36137  1  0  0  0
 36138  1  0  0  0
 37139  1  0  0  0
 38140  1  0  0  0
 38141  1  0  0  0
 38142  1  0  0  0
 39143  1  0  0  0
 39144  1  0  0  0
 39145  1  0  0  0
 40146  1  0  0  0
 41147  1  0  0  0
 44148  1  0  0  0
 44149  1  0  0  0
 47150  1  0  0  0
 48151  1  0  0  0
 50152  1  0  0  0
 51153  1  0  0  0
 54154  1  0  0  0
 54155  1  0  0  0
 55156  1  0  0  0
 55157  1  0  0  0
 56158  1  0  0  0
 56159  1  0  0  0
 57160  1  0  0  0
 59161  1  0  0  0
 60162  1  0  0  0
 60163  1  0  0  0
 61164  1  0  0  0
 63165  1  0  0  0
 63166  1  0  0  0
 64167  1  0  0  0
 65168  1  0  0  0
 65169  1  0  0  0
 65170  1  0  0  0
 66171  1  0  0  0
 66172  1  0  0  0
 67173  1  0  0  0
 67174  1  0  0  0
 68175  1  0  0  0
 68176  1  0  0  0
 68177  1  0  0  0
 71178  1  0  0  0
 72179  1  0  0  0
 75180  1  0  0  0
 75181  1  0  0  0
 76182  1  0  0  0
 77183  1  0  0  0
 77184  1  0  0  0
 77185  1  0  0  0
 78186  1  0  0  0
 78187  1  0  0  0
 78188  1  0  0  0
 79189  1  0  0  0
 80190  1  0  0  0
 83191  1  0  0  0
 83192  1  0  0  0
 84193  1  0  0  0
 84194  1  0  0  0
 87195  1  0  0  0
 87196  1  0  0  0
 88197  1  0  0  0
 89198  1  0  0  0
 92199  1  0  0  0
 92200  1  0  0  0
 95201  1  0  0  0
 96202  1  0  0  0
 97203  1  0  0  0
100204  1  0  0  0
100205  1  0  0  0
101206  1  0  0  0
102207  1  0  0  0
102208  1  0  0  0
M  END
$$$$
