### 
### Created by X-TOOL on Mon Sep 10 21:13:27 2018
### 

@<TRIPOS>MOLECULE
5dxb_ligand
  210   212     1     0     0
SMALL
GAST_HUCK


@<TRIPOS>ATOM
      1 C          31.5000   19.5270    8.2320 C.2       1 ACE         0.1752
      2 O          31.3560   18.6780    9.1030 O.2       1 ACE        -0.3972
      3 CH3        32.8300   20.2650    8.0460 C.3       1 ACE         0.0258
      4 N          30.5410   19.8680    7.3850 N.am      1 HIS        -0.2640
      5 CA         29.2690   19.1770    7.4580 C.3       1 HIS         0.1420
      6 C          29.5020   17.6780    7.2690 C.2       1 HIS         0.2060
      7 O          30.6190   17.2270    7.1140 O.2       1 HIS        -0.3942
      8 CB         28.3260   19.6860    6.3670 C.3       1 HIS         0.0427
      9 CG         27.1960   20.3600    7.1130 C.2       1 HIS         0.0561
     10 ND1        26.8970   21.6290    7.0400 N.pl3     1 HIS        -0.2623
     11 CD2        26.4110   19.7560    7.9890 C.2       1 HIS        -0.0276
     12 CE1        25.8800   21.8230    7.8660 C.2       1 HIS         0.0875
     13 NE2        25.5790   20.6840    8.4530 N.2       1 HIS        -0.3437
     14 N          28.4180   16.9300    7.3320 N.am      1 LYS        -0.2636
     15 CA         28.4260   15.5170    7.1160 C.3       1 LYS         0.1307
     16 C          28.3410   15.2900    5.6260 C.2       1 LYS         0.2010
     17 O          27.6880   16.0200    4.9190 O.2       1 LYS        -0.3947
     18 CB         27.1900   15.0580    7.7550 C.3       1 LYS        -0.0122
     19 CG         27.4060   15.1210    9.2410 C.3       1 LYS        -0.0440
     20 CD         26.5220   14.1280    9.9540 C.3       1 LYS        -0.0124
     21 CE         25.2880   14.8460   10.4610 C.3       1 LYS        -0.0354
     22 NZ         24.6820   14.1880   11.6200 N.4       1 LYS         0.2185
     23 C          27.7310   13.7710    3.2880 C.2       1 MK8         0.2265
     24 N          29.0260   14.2640    5.1950 N.am      1 MK8        -0.2741
     25 O          27.4190   14.2300    2.2290 O.2       1 MK8        -0.3419
     26 CA         29.0450   13.8450    3.8040 C.3       1 MK8         0.1318
     27 CB         29.7030   12.4940    3.7000 C.3       1 MK8        -0.0135
     28 CD         28.4440   11.3160    1.8650 C.2       1 MK8        -0.0987
     29 CE         28.5610   10.6270    0.6990 C.2       1 MK8        -0.0987
     30 CG         29.7470   11.9840    2.2850 C.3       1 MK8        -0.0350
     31 CB1        29.9110   14.8350    3.0750 C.3       1 MK8        -0.0318
     32 N          26.7550   13.1730    3.9910 N.am      1 LEU        -0.2629
     33 CA         25.3600   13.0340    3.5940 C.3       1 LEU         0.1314
     34 C          24.7740   14.2380    3.2180 C.2       1 LEU         0.2042
     35 O          24.0540   14.2810    2.2690 O.2       1 LEU        -0.3944
     36 CB         24.5610   12.4880    4.7500 C.3       1 LEU        -0.0099
     37 CG         23.6970   11.3290    4.3770 C.3       1 LEU        -0.0425
     38 CD1        22.7070   11.0610    5.5000 C.3       1 LEU        -0.0625
     39 CD2        23.0120   11.4700    3.0560 C.3       1 LEU        -0.0625
     40 N          24.9400   15.3590    4.0010 N.am      1 HIS        -0.2619
     41 CA         24.4280   16.7130    3.7650 C.3       1 HIS         0.1421
     42 C          24.7420   17.1520    2.4750 C.2       1 HIS         0.2060
     43 O          23.9050   17.6750    1.8140 O.2       1 HIS        -0.3942
     44 CB         24.9220   17.6820    4.8470 C.3       1 HIS         0.0427
     45 CG         24.2870   19.0470    4.7020 C.2       1 HIS         0.0561
     46 ND1        24.7320   20.0310    3.9680 N.pl3     1 HIS        -0.2623
     47 CD2        23.1910   19.4250    5.2720 C.2       1 HIS        -0.0276
     48 CE1        23.8910   21.0080    4.1030 C.2       1 HIS         0.0875
     49 NE2        22.9530   20.6410    4.9110 N.2       1 HIS        -0.3437
     50 N          25.9580   16.8950    1.8850 N.am      1 ARG        -0.2636
     51 CA         26.3180   17.3130    0.5370 C.3       1 ARG         0.1308
     52 C          25.7900   16.4650   -0.4310 C.2       1 ARG         0.2010
     53 O          25.1700   16.8700   -1.3700 O.2       1 ARG        -0.3947
     54 CB         27.8390   17.4000    0.4490 C.3       1 ARG        -0.0092
     55 CG         28.3470   17.6170   -0.9580 C.3       1 ARG        -0.0156
     56 CD         28.2550   19.0690   -1.3300 C.3       1 ARG         0.0627
     57 NE         28.2880   19.1800   -2.7790 N.pl3     1 ARG        -0.2723
     58 CZ         29.3580   19.4760   -3.4800 C.cat     1 ARG         0.2882
     59 NH1        29.2740   19.5180   -4.7900 N.pl3     1 ARG        -0.2849
     60 NH2        30.5200   19.7300   -2.8960 N.pl3     1 ARG        -0.2849
     61 N          25.9440   15.1220   -0.2900 N.am      1 66D        -0.2742
     62 CA         25.4180   14.0920   -1.1810 C.3       1 66D         0.1305
     63 CB         25.6840   12.8280   -0.4220 C.3       1 66D        -0.0174
     64 CC         25.7420   11.5840   -1.1740 C.3       1 66D        -0.0409
     65 CD2        24.3290   11.2880   -1.5340 C.3       1 66D        -0.0623
     66 CD         26.2050   10.5300   -0.2400 C.3       1 66D        -0.0439
     67 CE         27.5810   10.3050   -0.2200 C.3       1 66D        -0.0362
     68 CB2        26.2410   14.1230   -2.4280 C.3       1 66D        -0.0320
     69 C          24.0200   14.2360   -1.4610 C.2       1 66D         0.2263
     70 O          23.5530   14.0560   -2.5470 O.2       1 66D        -0.3419
     71 N          23.2320   14.6790   -0.4960 N.am      1 LEU        -0.2629
     72 CA         21.7840   14.8590   -0.6660 C.3       1 LEU         0.1314
     73 C          21.4390   15.9570   -1.7030 C.2       1 LEU         0.2041
     74 O          20.3950   15.9550   -2.2750 O.2       1 LEU        -0.3944
     75 CB         21.1070   15.1710    0.6340 C.3       1 LEU        -0.0099
     76 CG         20.5720   13.9080    1.2950 C.3       1 LEU        -0.0425
     77 CD1        20.2920   14.1590    2.7540 C.3       1 LEU        -0.0625
     78 CD2        19.3030   13.4300    0.6390 C.3       1 LEU        -0.0625
     79 N          22.3450   16.8770   -1.8740 N.am      1 GLN        -0.2636
     80 CA         22.1720   17.9920   -2.8020 C.3       1 GLN         0.1330
     81 C          22.5360   17.6580   -4.2560 C.2       1 GLN         0.2041
     82 O          22.2100   18.4110   -5.1060 O.2       1 GLN        -0.3944
     83 CB         22.9730   19.2010   -2.3300 C.3       1 GLN         0.0045
     84 CG         22.5490   19.5360   -0.9210 C.3       1 GLN         0.0412
     85 CD         23.2230   20.7700   -0.4170 C.2       1 GLN         0.1737
     86 OE1        23.8970   20.7540    0.5740 O.2       1 GLN        -0.3973
     87 NE2        22.9910   21.8280   -1.0990 N.am      1 GLN        -0.3009
     88 N          23.1740   16.5530   -4.5310 N.am      1 ASP        -0.2622
     89 CA         23.5620   16.1020   -5.8590 C.3       1 ASP         0.1423
     90 C          22.3700   15.5220   -6.5810 C.2       1 ASP         0.2057
     91 O          21.6490   14.7230   -6.0560 O.2       1 ASP        -0.3943
     92 CB         24.4570   14.9310   -5.6030 C.3       1 ASP         0.0406
     93 CG         25.7950   15.0110   -6.2740 C.2       1 ASP         0.0393
     94 OD1        26.6590   15.6950   -5.6970 O.co2     1 ASP        -0.5688
     95 OD2        25.9610   14.3270   -7.3150 O.co2     1 ASP        -0.5688
     96 N          22.1600   15.9150   -7.8130 N.am      1 SER        -0.2615
     97 CA         21.0470   15.3740   -8.6100 C.3       1 SER         0.1536
     98 C          21.6380   14.4720   -9.6540 C.2       1 SER         0.2015
     99 O          22.8400   14.4570   -9.8500 O.2       1 SER        -0.3947
    100 CB         20.3000   16.4780   -9.3280 C.3       1 SER         0.0843
    101 OG         20.1150   17.5840   -8.4530 O.3       1 SER        -0.3903
    102 N          20.7850   13.7090  -10.2770 N.am      1 NH2        -0.2989
    103 H1         32.7400   20.9787    7.2138 H         1 ACE         0.0467
    104 H2         33.6244   19.5381    7.8213 H         1 ACE         0.0467
    105 H3         33.0803   20.8081    8.9693 H         1 ACE         0.0467
    106 H4         30.6915   20.5884    6.7080 H         1 HIS         0.1884
    107 H5         28.8138   19.3561    8.4432 H         1 HIS         0.0824
    108 H6         27.9459   18.8492    5.7626 H         1 HIS         0.0491
    109 H7         28.8420   20.4053    5.7140 H         1 HIS         0.0491
    110 H8         27.3606   22.3391    6.4554 H         1 HIS         0.2386
    111 H9         26.4400   18.7054    8.2743 H         1 HIS         0.0324
    112 H10        25.3739   22.7727    8.0328 H         1 HIS         0.1149
    113 H11        27.5465   17.3735    7.5414 H         1 LYS         0.1883
    114 H12        29.3155   15.0314    7.5438 H         1 LYS         0.0800
    115 H13        26.9698   14.0243    7.4500 H         1 LYS         0.0312
    116 H14        26.3527   15.7112    7.4682 H         1 LYS         0.0312
    117 H15        27.1697   16.1346    9.5970 H         1 LYS         0.0269
    118 H16        28.4586   14.8906    9.4624 H         1 LYS         0.0269
    119 H17        27.0684   13.6891   10.8018 H         1 LYS         0.0317
    120 H18        26.2250   13.3306    9.2569 H         1 LYS         0.0317
    121 H19        24.5454   14.8829    9.6503 H         1 LYS         0.0813
    122 H20        25.5702   15.8701   10.7466 H         1 LYS         0.0813
    123 H21        23.8688   14.7063   11.9135 H         1 LYS         0.1994
    124 H22        25.3495   14.1547   12.3746 H         1 LYS         0.1994
    125 H23        24.4104   13.2501   11.3700 H         1 LYS         0.1994
    126 H24        29.5642   13.7409    5.8559 H         1 MK8         0.1839
    127 H25        29.1390   11.7781    4.3159 H         1 MK8         0.0297
    128 H26        30.7326   12.5725    4.0792 H         1 MK8         0.0297
    129 H27        27.5195   11.3831    2.4366 H         1 MK8         0.0450
    130 H28        29.5648   10.2815    0.4560 H         1 MK8         0.0450
    131 H29        30.5627   11.2510    2.1994 H         1 MK8         0.0387
    132 H30        29.9426   12.8308    1.6107 H         1 MK8         0.0387
    133 H31        29.9609   14.5641    2.0100 H         1 MK8         0.0242
    134 H32        30.9237   14.8223    3.5043 H         1 MK8         0.0242
    135 H33        29.4819   15.8427    3.1773 H         1 MK8         0.0242
    136 H34        27.0117   12.7841    4.8758 H         1 LEU         0.1889
    137 H35        25.3081   12.3343    2.7468 H         1 LEU         0.0802
    138 H36        23.9183   13.2910    5.1401 H         1 LEU         0.0315
    139 H37        25.2600   12.1637    5.5350 H         1 LEU         0.0315
    140 H38        24.3537   10.4502    4.2969 H         1 LEU         0.0298
    141 H39        22.0680   10.2075    5.2295 H         1 LEU         0.0232
    142 H40        22.0814   11.9519    5.6577 H         1 LEU         0.0232
    143 H41        23.2555   10.8297    6.4250 H         1 LEU         0.0232
    144 H42        23.7607   11.6623    2.2734 H         1 LEU         0.0232
    145 H43        22.3024   12.3094    3.0987 H         1 LEU         0.0232
    146 H44        22.4689   10.5421    2.8237 H         1 LEU         0.0232
    147 H45        25.4771   15.2340    4.8352 H         1 HIS         0.1885
    148 H46        23.3313   16.6711    3.8385 H         1 HIS         0.0824
    149 H47        26.0139   17.7852    4.7626 H         1 HIS         0.0491
    150 H48        24.6677   17.2730    5.8359 H         1 HIS         0.0491
    151 H49        25.5864   20.0308    3.3928 H         1 HIS         0.2386
    152 H50        22.5761   18.8234    5.9397 H         1 HIS         0.0324
    153 H51        23.9636   21.9789    3.6151 H         1 HIS         0.1149
    154 H52        26.6381   16.3889    2.4155 H         1 ARG         0.1883
    155 H53        25.9029   18.3168    0.3635 H         1 ARG         0.0800
    156 H54        28.2648   16.4611    0.8326 H         1 ARG         0.0313
    157 H55        28.1772   18.2388    1.0751 H         1 ARG         0.0313
    158 H56        27.7397   17.0244   -1.6580 H         1 ARG         0.0301
    159 H57        29.3966   17.2933   -1.0183 H         1 ARG         0.0301
    160 H58        29.1049   19.6170   -0.8971 H         1 ARG         0.0689
    161 H59        27.3137   19.4905   -0.9475 H         1 ARG         0.0689
    162 H60        27.4102   19.0148   -3.2919 H         1 ARG         0.2642
    163 H61        30.1056   19.7489   -5.3522 H         1 ARG         0.2615
    164 H62        28.3766   19.3201   -5.2551 H         1 ARG         0.2615
    165 H63        30.5979   19.7000   -1.8694 H         1 ARG         0.2615
    166 H64        31.3454   19.9574   -3.4687 H         1 ARG         0.2615
    167 H65        26.4689   14.8087    0.5014 H         1 66D         0.1839
    168 H66        24.8859   12.7213    0.3274 H         1 66D         0.0280
    169 H67        26.6515   12.9487    0.0873 H         1 66D         0.0280
    170 H68        26.3905   11.6589   -2.0593 H         1 66D         0.0299
    171 H69        24.2859   10.3523   -2.1107 H         1 66D         0.0232
    172 H70        23.9250   12.1116   -2.1409 H         1 66D         0.0232
    173 H71        23.7315   11.1812   -0.6166 H         1 66D         0.0232
    174 H72        25.7121    9.5878   -0.5216 H         1 66D         0.0287
    175 H73        25.8943   10.8172    0.7754 H         1 66D         0.0287
    176 H74        27.6642    9.2121   -0.3126 H         1 66D         0.0388
    177 H75        27.9327   10.7795   -1.1480 H         1 66D         0.0388
    178 H76        25.8746   13.3579   -3.1282 H         1 66D         0.0242
    179 H77        27.2926   13.9182   -2.1785 H         1 66D         0.0242
    180 H78        26.1616   15.1157   -2.8952 H         1 66D         0.0242
    181 H79        23.6401   14.9015    0.3894 H         1 LEU         0.1889
    182 H80        21.3780   13.9070   -1.0385 H         1 LEU         0.0802
    183 H81        20.2699   15.8594    0.4461 H         1 LEU         0.0315
    184 H82        21.8311   15.6499    1.3095 H         1 LEU         0.0315
    185 H83        21.3344   13.1200    1.2064 H         1 LEU         0.0298
    186 H84        19.9067   13.2386    3.2170 H         1 LEU         0.0232
    187 H85        19.5438   14.9594    2.8514 H         1 LEU         0.0232
    188 H86        21.2211   14.4621    3.2588 H         1 LEU         0.0232
    189 H87        19.4905   13.2418   -0.4284 H         1 LEU         0.0232
    190 H88        18.5236   14.1990    0.7443 H         1 LEU         0.0232
    191 H89        18.9683   12.5001    1.1220 H         1 LEU         0.0232
    192 H90        23.1938   16.8177   -1.3486 H         1 GLN         0.1883
    193 H91        21.1063   18.2641   -2.7873 H         1 GLN         0.0801
    194 H92        22.7752   20.0580   -2.9906 H         1 GLN         0.0337
    195 H93        24.0471   18.9644   -2.3479 H         1 GLN         0.0337
    196 H94        22.8080   18.6944   -0.2617 H         1 GLN         0.0504
    197 H95        21.4604   19.6931   -0.9047 H         1 GLN         0.0504
    198 H96        23.4042   22.6976   -0.8288 H         1 GLN         0.1814
    199 H97        22.3966   21.7849   -1.9020 H         1 GLN         0.1814
    200 H98        23.4178   15.9640   -3.7606 H         1 ASP         0.1884
    201 H99        24.0474   16.8995   -6.4407 H         1 ASP         0.0819
    202 H100       23.9471   14.0245   -5.9610 H         1 ASP         0.0478
    203 H101       24.6212   14.8551   -4.5180 H         1 ASP         0.0478
    204 H102       22.7682   16.5964   -8.2202 H         1 SER         0.1884
    205 H103       20.3568   14.8159   -7.9603 H         1 SER         0.0823
    206 H104       19.3188   16.1026   -9.6541 H         1 SER         0.0606
    207 H105       20.8797   16.8000  -10.2057 H         1 SER         0.0606
    208 H106       19.6460   18.2725   -8.9095 H         1 SER         0.2097
    209 H107       21.1022   13.0800  -10.9868 H         1 NH2         0.1815
    210 H108       19.8132   13.7524  -10.0454 H         1 NH2         0.1815
@<TRIPOS>BOND
     1    1    2 2  
     2    1    3 1  
     3    4    1 am 
     4    5    4 1  
     5    6    5 1  
     6    5    8 1  
     7    6    7 2  
     8   14    6 am 
     9    8    9 1  
    10    9   10 1  
    11    9   11 2  
    12   10   12 1  
    13   11   13 1  
    14   13   12 2  
    15   15   14 1  
    16   16   15 1  
    17   15   18 1  
    18   16   17 2  
    19   24   16 am 
    20   18   19 1  
    21   19   20 1  
    22   20   21 1  
    23   21   22 1  
    24   23   25 2  
    25   26   23 1  
    26   23   32 am 
    27   26   24 1  
    28   27   26 1  
    29   26   31 1  
    30   30   27 1  
    31   28   29 2  
    32   28   30 1  
    33   29   67 1  
    34   32   33 1  
    35   33   34 1  
    36   33   36 1  
    37   34   35 2  
    38   34   40 am 
    39   36   37 1  
    40   37   38 1  
    41   37   39 1  
    42   40   41 1  
    43   41   42 1  
    44   41   44 1  
    45   42   43 2  
    46   42   50 am 
    47   44   45 1  
    48   45   46 1  
    49   45   47 2  
    50   46   48 1  
    51   47   49 1  
    52   48   49 2  
    53   50   51 1  
    54   51   52 1  
    55   51   54 1  
    56   52   53 2  
    57   52   61 am 
    58   54   55 1  
    59   55   56 1  
    60   56   57 1  
    61   57   58 ar 
    62   58   59 ar 
    63   58   60 ar 
    64   61   62 1  
    65   62   63 1  
    66   62   68 1  
    67   62   69 1  
    68   63   64 1  
    69   64   65 1  
    70   64   66 1  
    71   66   67 1  
    72   69   70 2  
    73   69   71 am 
    74   71   72 1  
    75   72   73 1  
    76   72   75 1  
    77   73   74 2  
    78   73   79 am 
    79   75   76 1  
    80   76   77 1  
    81   76   78 1  
    82   79   80 1  
    83   80   81 1  
    84   80   83 1  
    85   81   82 2  
    86   81   88 am 
    87   83   84 1  
    88   84   85 1  
    89   85   86 2  
    90   85   87 am 
    91   88   89 1  
    92   89   90 1  
    93   89   92 1  
    94   90   91 2  
    95   90   96 am 
    96   92   93 1  
    97   93   94 ar 
    98   93   95 ar 
    99   96   97 1  
   100   97   98 1  
   101   97  100 1  
   102   98   99 2  
   103   98  102 am 
   104  100  101 1  
   105    3  103 1  
   106    3  104 1  
   107    3  105 1  
   108    4  106 1  
   109    5  107 1  
   110    8  108 1  
   111    8  109 1  
   112   10  110 1  
   113   11  111 1  
   114   12  112 1  
   115   14  113 1  
   116   15  114 1  
   117   18  115 1  
   118   18  116 1  
   119   19  117 1  
   120   19  118 1  
   121   20  119 1  
   122   20  120 1  
   123   21  121 1  
   124   21  122 1  
   125   22  123 1  
   126   22  124 1  
   127   22  125 1  
   128   24  126 1  
   129   27  127 1  
   130   27  128 1  
   131   28  129 1  
   132   29  130 1  
   133   30  131 1  
   134   30  132 1  
   135   31  133 1  
   136   31  134 1  
   137   31  135 1  
   138   32  136 1  
   139   33  137 1  
   140   36  138 1  
   141   36  139 1  
   142   37  140 1  
   143   38  141 1  
   144   38  142 1  
   145   38  143 1  
   146   39  144 1  
   147   39  145 1  
   148   39  146 1  
   149   40  147 1  
   150   41  148 1  
   151   44  149 1  
   152   44  150 1  
   153   46  151 1  
   154   47  152 1  
   155   48  153 1  
   156   50  154 1  
   157   51  155 1  
   158   54  156 1  
   159   54  157 1  
   160   55  158 1  
   161   55  159 1  
   162   56  160 1  
   163   56  161 1  
   164   57  162 1  
   165   59  163 1  
   166   59  164 1  
   167   60  165 1  
   168   60  166 1  
   169   61  167 1  
   170   63  168 1  
   171   63  169 1  
   172   64  170 1  
   173   65  171 1  
   174   65  172 1  
   175   65  173 1  
   176   66  174 1  
   177   66  175 1  
   178   67  176 1  
   179   67  177 1  
   180   68  178 1  
   181   68  179 1  
   182   68  180 1  
   183   71  181 1  
   184   72  182 1  
   185   75  183 1  
   186   75  184 1  
   187   76  185 1  
   188   77  186 1  
   189   77  187 1  
   190   77  188 1  
   191   78  189 1  
   192   78  190 1  
   193   78  191 1  
   194   79  192 1  
   195   80  193 1  
   196   83  194 1  
   197   83  195 1  
   198   84  196 1  
   199   84  197 1  
   200   87  198 1  
   201   87  199 1  
   202   88  200 1  
   203   89  201 1  
   204   92  202 1  
   205   92  203 1  
   206   96  204 1  
   207   97  205 1  
   208  100  206 1  
   209  100  207 1  
   210  101  208 1  
   211  102  209 1  
   212  102  210 1  
@<TRIPOS>SUBSTRUCTURE
     1 ACE         1

