### 
### Created by X-TOOL on Mon Sep 10 21:13:01 2018
### 

@<TRIPOS>MOLECULE
3hg1_ligand
  148   147     1     0     0
SMALL
GAST_HUCK


@<TRIPOS>ATOM
      1 N          48.7280  -14.8800   30.5160 N.4       1 GLU         0.2380
      2 CA         48.0350  -13.6560   30.9860 C.3       1 GLU         0.0665
      3 C          48.7390  -12.3980   30.4770 C.2       1 GLU         0.2268
      4 O          49.8160  -12.0760   30.9250 O.2       1 GLU        -0.3907
      5 CB         48.0120  -13.6390   32.5080 C.3       1 GLU         0.0194
      6 CG         47.2770  -12.4460   33.1100 C.3       1 GLU         0.0075
      7 CD         45.7850  -12.5010   32.8780 C.2       1 GLU         0.0351
      8 OE1        45.2610  -13.6120   32.5890 O.co2     1 GLU        -0.5690
      9 OE2        45.1300  -11.4410   32.9970 O.co2     1 GLU        -0.5690
     10 N          48.1190  -11.6970   29.5350 N.am      1 LEU        -0.2610
     11 CA         48.7070  -10.4580   28.9950 C.3       1 LEU         0.1313
     12 C          48.6750   -9.3510   30.0320 C.2       1 LEU         0.2039
     13 O          47.8150   -9.3330   30.8980 O.2       1 LEU        -0.3944
     14 CB         47.9560   -9.9980   27.7370 C.3       1 LEU        -0.0101
     15 CG         48.1490  -10.8290   26.4690 C.3       1 LEU        -0.0425
     16 CD1        47.2540  -10.3050   25.3440 C.3       1 LEU        -0.0625
     17 CD2        49.6190  -10.8130   26.0420 C.3       1 LEU        -0.0625
     18 N          49.6190   -8.4210   29.9380 N.am      1 ALA        -0.2640
     19 CA         49.6670   -7.3100   30.8720 C.3       1 ALA         0.1282
     20 C          48.4030   -6.4790   30.7170 C.2       1 ALA         0.2034
     21 O          48.0200   -6.1250   29.6180 O.2       1 ALA        -0.3944
     22 CB         50.9010   -6.4630   30.6300 C.3       1 ALA        -0.0244
     23 N          47.7570   -6.1780   31.8310 N.am      1 GLY        -0.2664
     24 CA         46.5160   -5.3980   31.8140 C.3       1 GLY         0.1201
     25 C          46.7240   -3.9210   32.0620 C.2       1 GLY         0.2008
     26 O          45.7900   -3.1350   31.9640 O.2       1 GLY        -0.3947
     27 N          47.9530   -3.5500   32.3880 N.am      1 ILE        -0.2637
     28 CA         48.2970   -2.1590   32.6500 C.3       1 ILE         0.1335
     29 C          49.7670   -1.8960   32.3190 C.2       1 ILE         0.2040
     30 O          50.4610   -2.7570   31.7970 O.2       1 ILE        -0.3944
     31 CB         48.0500   -1.7790   34.1460 C.3       1 ILE        -0.0037
     32 CG1        48.8740   -2.6770   35.0700 C.3       1 ILE        -0.0491
     33 CG2        46.5820   -1.9010   34.4990 C.3       1 ILE        -0.0582
     34 CD1        48.6960   -2.3470   36.5490 C.3       1 ILE        -0.0648
     35 N          50.2230   -0.6970   32.6150 N.am      1 GLY        -0.2664
     36 CA         51.6230   -0.3290   32.3870 C.3       1 GLY         0.1201
     37 C          52.0600   -0.3390   30.9310 C.2       1 GLY         0.2008
     38 O          53.2370   -0.4560   30.6380 O.2       1 GLY        -0.3947
     39 N          51.1090   -0.2020   30.0270 N.am      1 ILE        -0.2637
     40 CA         51.4130   -0.1860   28.6230 C.3       1 ILE         0.1335
     41 C          50.8820    1.0630   27.9850 C.2       1 ILE         0.2042
     42 O          49.6780    1.2550   27.8900 O.2       1 ILE        -0.3944
     43 CB         50.8530   -1.3850   27.9440 C.3       1 ILE        -0.0037
     44 CG1        51.5950   -2.6250   28.4300 C.3       1 ILE        -0.0491
     45 CG2        50.9870   -1.2510   26.4550 C.3       1 ILE        -0.0582
     46 CD1        51.1890   -3.8640   27.7530 C.3       1 ILE        -0.0648
     47 N          51.7920    1.9160   27.5310 N.am      1 LEU        -0.2637
     48 CA         51.4130    3.1730   26.9410 C.3       1 LEU         0.1312
     49 C          52.1770    3.4910   25.6770 C.2       1 LEU         0.2040
     50 O          53.0280    2.7450   25.2510 O.2       1 LEU        -0.3944
     51 CB         51.6580    4.2810   27.9370 C.3       1 LEU        -0.0101
     52 CG         51.0140    4.0680   29.2890 C.3       1 LEU        -0.0425
     53 CD1        51.3270    5.2590   30.1970 C.3       1 LEU        -0.0625
     54 CD2        49.5180    3.8790   29.1230 C.3       1 LEU        -0.0625
     55 N          51.8540    4.6260   25.0910 N.am      1 THR        -0.2613
     56 CA         52.4990    5.0700   23.9120 C.3       1 THR         0.1564
     57 C          53.8820    5.5620   24.2650 C.2       1 THR         0.2059
     58 O          54.0670    6.2090   25.2960 O.2       1 THR        -0.3943
     59 CB         51.7350    6.2170   23.2900 C.3       1 THR         0.0924
     60 OG1        50.3870    5.8080   23.0300 O.3       1 THR        -0.3874
     61 CG2        52.4130    6.6750   21.9660 C.3       1 THR        -0.0346
     62 N          54.8620    5.2540   23.4140 N.am      1 VAL        -0.2692
     63 CA         56.2420    5.7030   23.6410 C.3       1 VAL         0.0967
     64 C          56.3670    7.2210   23.3990 C.2       1 VAL         0.0603
     65 O          57.1810    7.8970   24.0320 O.co2     1 VAL        -0.5666
     66 CB         57.2370    4.9750   22.7150 C.3       1 VAL        -0.0118
     67 CG1        57.3390    3.5240   23.0790 C.3       1 VAL        -0.0590
     68 CG2        56.8260    5.1380   21.2740 C.3       1 VAL        -0.0590
     69 OXT        55.6630    7.8050   22.5670 O.co2     1 VAL        -0.5666
     70 H1         48.2457  -15.6938   30.8641 H         1 GLU         0.2015
     71 H2         49.6768  -14.8806   30.8563 H         1 GLU         0.2015
     72 H3         48.7325  -14.8976   29.5082 H         1 GLU         0.2015
     73 H4         47.0020  -13.6643   30.6082 H         1 GLU         0.1099
     74 H5         49.0511  -13.6213   32.8683 H         1 GLU         0.0363
     75 H6         47.5190  -14.5588   32.8556 H         1 GLU         0.0363
     76 H7         47.6699  -11.5248   32.6550 H         1 GLU         0.0434
     77 H8         47.4639  -12.4282   34.1939 H         1 GLU         0.0434
     78 H9         47.2377  -12.0153   29.1858 H         1 LEU         0.1884
     79 H10        49.7544  -10.6593   28.7260 H         1 LEU         0.0800
     80 H11        48.2816   -8.9714   27.5133 H         1 LEU         0.0315
     81 H12        46.8817   -9.9986   27.9734 H         1 LEU         0.0315
     82 H13        47.8612  -11.8682   26.6862 H         1 LEU         0.0298
     83 H14        47.4060  -10.9141   24.4407 H         1 LEU         0.0232
     84 H15        47.5120   -9.2578   25.1277 H         1 LEU         0.0232
     85 H16        46.2006  -10.3665   25.6547 H         1 LEU         0.0232
     86 H17        50.2437  -11.1929   26.8639 H         1 LEU         0.0232
     87 H18        49.9191   -9.7830   25.7992 H         1 LEU         0.0232
     88 H19        49.7505  -11.4517   25.1561 H         1 LEU         0.0232
     89 H20        50.3059   -8.4869   29.2142 H         1 ALA         0.1883
     90 H21        49.7095   -7.7066   31.8971 H         1 ALA         0.0797
     91 H22        50.9190   -5.6283   31.3462 H         1 ALA         0.0277
     92 H23        50.8778   -6.0658   29.6045 H         1 ALA         0.0277
     93 H24        51.8015   -7.0803   30.7638 H         1 ALA         0.0277
     94 H25        48.1244   -6.4904   32.7070 H         1 GLY         0.1881
     95 H26        45.8481   -5.7907   32.5948 H         1 GLY         0.0763
     96 H27        46.0415   -5.5215   30.8293 H         1 GLY         0.0763
     97 H28        48.6671   -4.2467   32.4564 H         1 ILE         0.1883
     98 H29        47.6671   -1.5202   32.0135 H         1 ILE         0.0803
     99 H30        48.3627   -0.7352   34.2966 H         1 ILE         0.0345
    100 H31        49.9371   -2.5615   34.8121 H         1 ILE         0.0267
    101 H32        48.5682   -3.7208   34.9060 H         1 ILE         0.0267
    102 H33        45.9901   -1.2549   33.8340 H         1 ILE         0.0235
    103 H34        46.4289   -1.5908   35.5432 H         1 ILE         0.0235
    104 H35        46.2609   -2.9459   34.3761 H         1 ILE         0.0235
    105 H36        49.3138   -3.0274   37.1534 H         1 ILE         0.0230
    106 H37        47.6386   -2.4675   36.8269 H         1 ILE         0.0230
    107 H38        49.0074   -1.3082   36.7330 H         1 ILE         0.0230
    108 H39        49.5984   -0.0205   33.0052 H         1 GLY         0.1881
    109 H40        52.2568   -1.0390   32.9385 H         1 GLY         0.0763
    110 H41        51.7782    0.6854   32.7830 H         1 GLY         0.0763
    111 H42        50.1590   -0.1075   30.3245 H         1 ILE         0.1883
    112 H43        52.5066   -0.1998   28.5058 H         1 ILE         0.0803
    113 H44        49.7871   -1.4790   28.1990 H         1 ILE         0.0345
    114 H45        51.4069   -2.7413   29.5075 H         1 ILE         0.0267
    115 H46        52.6712   -2.4738   28.2598 H         1 ILE         0.0267
    116 H47        50.4478   -0.3535   26.1177 H         1 ILE         0.0235
    117 H48        50.5607   -2.1399   25.9670 H         1 ILE         0.0235
    118 H49        52.0506   -1.1613   26.1891 H         1 ILE         0.0235
    119 H50        51.7664   -4.7087   28.1570 H         1 ILE         0.0230
    120 H51        51.3805   -3.7718   26.6737 H         1 ILE         0.0230
    121 H52        50.1162   -4.0393   27.9215 H         1 ILE         0.0230
    122 H53        52.7614    1.6804   27.6003 H         1 LEU         0.1883
    123 H54        50.3407    3.1323   26.6993 H         1 LEU         0.0800
    124 H55        51.2639    5.2164   27.5131 H         1 LEU         0.0315
    125 H56        52.7439    4.3746   28.0855 H         1 LEU         0.0315
    126 H57        51.4333    3.1589   29.7447 H         1 LEU         0.0298
    127 H58        50.8585    5.1037   31.1800 H         1 LEU         0.0232
    128 H59        50.9312    6.1797   29.7436 H         1 LEU         0.0232
    129 H60        52.4163    5.3498   30.3203 H         1 LEU         0.0232
    130 H61        49.3280    3.0171   28.4665 H         1 LEU         0.0232
    131 H62        49.0815    4.7841   28.6755 H         1 LEU         0.0232
    132 H63        49.0598    3.6987   30.1066 H         1 LEU         0.0232
    133 H64        51.1319    5.1904   25.4910 H         1 THR         0.1884
    134 H65        52.5673    4.2386   23.1950 H         1 THR         0.0826
    135 H66        51.7247    7.0619   23.9943 H         1 THR         0.0639
    136 H67        49.9081    6.5295   22.6393 H         1 THR         0.2101
    137 H68        51.8421    7.5086   21.5310 H         1 THR         0.0257
    138 H69        52.4347    5.8354   21.2556 H         1 THR         0.0257
    139 H70        53.4413    7.0047   22.1756 H         1 THR         0.0257
    140 H71        54.6527    4.7058   22.6043 H         1 VAL         0.1875
    141 H72        56.5085    5.4854   24.6858 H         1 VAL         0.0729
    142 H73        58.2287    5.4327   22.8453 H         1 VAL         0.0336
    143 H74        58.0530    3.0265   22.4062 H         1 VAL         0.0234
    144 H75        56.3510    3.0507   22.9798 H         1 VAL         0.0234
    145 H76        57.6879    3.4302   24.1180 H         1 VAL         0.0234
    146 H77        56.7580    6.2087   21.0310 H         1 VAL         0.0234
    147 H78        55.8463    4.6633   21.1162 H         1 VAL         0.0234
    148 H79        57.5737    4.6611   20.6232 H         1 VAL         0.0234
@<TRIPOS>BOND
     1    1    2 1  
     2    2    3 1  
     3    2    5 1  
     4    3    4 2  
     5    3   10 am 
     6    5    6 1  
     7    6    7 1  
     8    7    8 ar 
     9    7    9 ar 
    10   10   11 1  
    11   11   12 1  
    12   11   14 1  
    13   12   13 2  
    14   12   18 am 
    15   14   15 1  
    16   15   16 1  
    17   15   17 1  
    18   18   19 1  
    19   19   20 1  
    20   19   22 1  
    21   20   21 2  
    22   20   23 am 
    23   23   24 1  
    24   24   25 1  
    25   25   26 2  
    26   25   27 am 
    27   27   28 1  
    28   28   29 1  
    29   28   31 1  
    30   29   30 2  
    31   29   35 am 
    32   31   32 1  
    33   31   33 1  
    34   32   34 1  
    35   35   36 1  
    36   36   37 1  
    37   37   38 2  
    38   37   39 am 
    39   39   40 1  
    40   40   41 1  
    41   40   43 1  
    42   41   42 2  
    43   41   47 am 
    44   43   44 1  
    45   43   45 1  
    46   44   46 1  
    47   47   48 1  
    48   48   49 1  
    49   48   51 1  
    50   49   50 2  
    51   49   55 am 
    52   51   52 1  
    53   52   53 1  
    54   52   54 1  
    55   55   56 1  
    56   56   57 1  
    57   56   59 1  
    58   57   58 2  
    59   57   62 am 
    60   59   60 1  
    61   59   61 1  
    62   62   63 1  
    63   63   64 1  
    64   63   66 1  
    65   64   65 ar 
    66   64   69 ar 
    67   66   67 1  
    68   66   68 1  
    69    1   70 1  
    70    1   71 1  
    71    1   72 1  
    72    2   73 1  
    73    5   74 1  
    74    5   75 1  
    75    6   76 1  
    76    6   77 1  
    77   10   78 1  
    78   11   79 1  
    79   14   80 1  
    80   14   81 1  
    81   15   82 1  
    82   16   83 1  
    83   16   84 1  
    84   16   85 1  
    85   17   86 1  
    86   17   87 1  
    87   17   88 1  
    88   18   89 1  
    89   19   90 1  
    90   22   91 1  
    91   22   92 1  
    92   22   93 1  
    93   23   94 1  
    94   24   95 1  
    95   24   96 1  
    96   27   97 1  
    97   28   98 1  
    98   31   99 1  
    99   32  100 1  
   100   32  101 1  
   101   33  102 1  
   102   33  103 1  
   103   33  104 1  
   104   34  105 1  
   105   34  106 1  
   106   34  107 1  
   107   35  108 1  
   108   36  109 1  
   109   36  110 1  
   110   39  111 1  
   111   40  112 1  
   112   43  113 1  
   113   44  114 1  
   114   44  115 1  
   115   45  116 1  
   116   45  117 1  
   117   45  118 1  
   118   46  119 1  
   119   46  120 1  
   120   46  121 1  
   121   47  122 1  
   122   48  123 1  
   123   51  124 1  
   124   51  125 1  
   125   52  126 1  
   126   53  127 1  
   127   53  128 1  
   128   53  129 1  
   129   54  130 1  
   130   54  131 1  
   131   54  132 1  
   132   55  133 1  
   133   56  134 1  
   134   59  135 1  
   135   60  136 1  
   136   61  137 1  
   137   61  138 1  
   138   61  139 1  
   139   62  140 1  
   140   63  141 1  
   141   66  142 1  
   142   67  143 1  
   143   67  144 1  
   144   67  145 1  
   145   68  146 1  
   146   68  147 1  
   147   68  148 1  
@<TRIPOS>SUBSTRUCTURE
     1 GLU         1

