3hg1_ligand
  -I-interpret- 

150149  0  0  0  0  0  0  0  0999 V2000
   48.7280  -14.8800   30.5160 N   0  3  0  0  0
   48.0350  -13.6560   30.9860 C   0  0  0  0  0
   48.7390  -12.3980   30.4770 C   0  0  0  0  0
   49.8160  -12.0760   30.9250 O   0  0  0  0  0
   48.0120  -13.6390   32.5080 C   0  0  0  0  0
   47.2770  -12.4460   33.1100 C   0  0  0  0  0
   45.7850  -12.5010   32.8780 C   0  0  0  0  0
   45.2610  -13.6120   32.5890 O   0  0  0  0  0
   45.1300  -11.4410   32.9970 O   0  0  0  0  0
   48.1190  -11.6970   29.5350 N   0  0  0  0  0
   48.7070  -10.4580   28.9950 C   0  0  0  0  0
   48.6750   -9.3510   30.0320 C   0  0  0  0  0
   47.8150   -9.3330   30.8980 O   0  0  0  0  0
   47.9560   -9.9980   27.7370 C   0  0  0  0  0
   48.1490  -10.8290   26.4690 C   0  0  0  0  0
   47.2540  -10.3050   25.3440 C   0  0  0  0  0
   49.6190  -10.8130   26.0420 C   0  0  0  0  0
   49.6190   -8.4210   29.9380 N   0  0  0  0  0
   49.6670   -7.3100   30.8720 C   0  0  0  0  0
   48.4030   -6.4790   30.7170 C   0  0  0  0  0
   48.0200   -6.1250   29.6180 O   0  0  0  0  0
   50.9010   -6.4630   30.6300 C   0  0  0  0  0
   47.7570   -6.1780   31.8310 N   0  0  0  0  0
   46.5160   -5.3980   31.8140 C   0  0  0  0  0
   46.7240   -3.9210   32.0620 C   0  0  0  0  0
   45.7900   -3.1350   31.9640 O   0  0  0  0  0
   47.9530   -3.5500   32.3880 N   0  0  0  0  0
   48.2970   -2.1590   32.6500 C   0  0  0  0  0
   49.7670   -1.8960   32.3190 C   0  0  0  0  0
   50.4610   -2.7570   31.7970 O   0  0  0  0  0
   48.0500   -1.7790   34.1460 C   0  0  0  0  0
   48.8740   -2.6770   35.0700 C   0  0  0  0  0
   46.5820   -1.9010   34.4990 C   0  0  0  0  0
   48.6960   -2.3470   36.5490 C   0  0  0  0  0
   50.2230   -0.6970   32.6150 N   0  0  0  0  0
   51.6230   -0.3290   32.3870 C   0  0  0  0  0
   52.0600   -0.3390   30.9310 C   0  0  0  0  0
   53.2370   -0.4560   30.6380 O   0  0  0  0  0
   51.1090   -0.2020   30.0270 N   0  0  0  0  0
   51.4130   -0.1860   28.6230 C   0  0  0  0  0
   50.8820    1.0630   27.9850 C   0  0  0  0  0
   49.6780    1.2550   27.8900 O   0  0  0  0  0
   50.8530   -1.3850   27.9440 C   0  0  0  0  0
   51.5950   -2.6250   28.4300 C   0  0  0  0  0
   50.9870   -1.2510   26.4550 C   0  0  0  0  0
   51.1890   -3.8640   27.7530 C   0  0  0  0  0
   51.7920    1.9160   27.5310 N   0  0  0  0  0
   51.4130    3.1730   26.9410 C   0  0  0  0  0
   52.1770    3.4910   25.6770 C   0  0  0  0  0
   53.0280    2.7450   25.2510 O   0  0  0  0  0
   51.6580    4.2810   27.9370 C   0  0  0  0  0
   51.0140    4.0680   29.2890 C   0  0  0  0  0
   51.3270    5.2590   30.1970 C   0  0  0  0  0
   49.5180    3.8790   29.1230 C   0  0  0  0  0
   51.8540    4.6260   25.0910 N   0  0  0  0  0
   52.4990    5.0700   23.9120 C   0  0  0  0  0
   53.8820    5.5620   24.2650 C   0  0  0  0  0
   54.0670    6.2090   25.2960 O   0  0  0  0  0
   51.7350    6.2170   23.2900 C   0  0  0  0  0
   50.3870    5.8080   23.0300 O   0  0  0  0  0
   52.4130    6.6750   21.9660 C   0  0  0  0  0
   54.8620    5.2540   23.4140 N   0  0  0  0  0
   56.2420    5.7030   23.6410 C   0  0  0  0  0
   56.3670    7.2210   23.3990 C   0  0  0  0  0
   57.1810    7.8970   24.0320 O   0  0  0  0  0
   57.2370    4.9750   22.7150 C   0  0  0  0  0
   57.3390    3.5240   23.0790 C   0  0  0  0  0
   56.8260    5.1380   21.2740 C   0  0  0  0  0
   55.6630    7.8050   22.5670 O   0  0  0  0  0
   48.7429  -14.8905   29.4962 H   0  0  0  0  0
   49.6841  -14.8856   30.8713 H   0  0  0  0  0
   48.2320  -15.7028   30.8584 H   0  0  0  0  0
   47.0173  -13.6657   30.5958 H   0  0  0  0  0
   49.0472  -13.5814   32.8442 H   0  0  0  0  0
   47.4856  -14.5370   32.8313 H   0  0  0  0  0
   47.6566  -11.5433   32.6312 H   0  0  0  0  0
   47.4484  -12.4563   34.1864 H   0  0  0  0  0
   45.9436  -14.2859   32.5495 H   0  0  0  0  0
   47.2200  -12.0216   29.1788 H   0  0  0  0  0
   49.7428  -10.6729   28.7322 H   0  0  0  0  0
   48.3452   -9.0067   27.5046 H   0  0  0  0  0
   46.8961  -10.0701   27.9809 H   0  0  0  0  0
   47.8629  -11.8592   26.6810 H   0  0  0  0  0
   46.2105  -10.3664   25.6531 H   0  0  0  0  0
   47.5106   -9.2673   25.1307 H   0  0  0  0  0
   47.4055  -10.9093   24.4496 H   0  0  0  0  0
   49.9279   -9.7863   25.8458 H   0  0  0  0  0
   50.2323  -11.2321   26.8397 H   0  0  0  0  0
   49.7398  -11.4093   25.1376 H   0  0  0  0  0
   50.3196   -8.4882   29.1998 H   0  0  0  0  0
   49.7238   -7.6930   31.8909 H   0  0  0  0  0
   51.7925   -7.0758   30.7629 H   0  0  0  0  0
   50.8768   -6.0701   29.6136 H   0  0  0  0  0
   50.9177   -5.6363   31.3402 H   0  0  0  0  0
   48.1317   -6.4966   32.7246 H   0  0  0  0  0
   45.8814   -5.7771   32.6150 H   0  0  0  0  0
   46.0779   -5.5036   30.8215 H   0  0  0  0  0
   48.6814   -4.2606   32.4578 H   0  0  0  0  0
   47.6553   -1.5479   32.0152 H   0  0  0  0  0
   48.3598   -0.7429   34.2824 H   0  0  0  0  0
   49.9251   -2.5272   34.8234 H   0  0  0  0  0
   48.5373   -3.7026   34.9186 H   0  0  0  0  0
   46.0005   -1.2309   33.8658 H   0  0  0  0  0
   46.2554   -2.9286   34.3392 H   0  0  0  0  0
   46.4375   -1.6310   35.5451 H   0  0  0  0  0
   49.0048   -1.3174   36.7300 H   0  0  0  0  0
   47.6478   -2.4668   36.8231 H   0  0  0  0  0
   49.3086   -3.0219   37.1468 H   0  0  0  0  0
   49.5859   -0.0070   33.0130 H   0  0  0  0  0
   52.2319   -1.0708   32.9037 H   0  0  0  0  0
   51.7421    0.6937   32.7446 H   0  0  0  0  0
   50.1400   -0.1057   30.3305 H   0  0  0  0  0
   52.4973   -0.2039   28.5133 H   0  0  0  0  0
   49.7939   -1.4763   28.1850 H   0  0  0  0  0
   51.3680   -2.7447   29.4894 H   0  0  0  0  0
   52.6537   -2.4726   28.2204 H   0  0  0  0  0
   50.4447   -0.3665   26.1208 H   0  0  0  0  0
   52.0407   -1.1531   26.1937 H   0  0  0  0  0
   50.5725   -2.1365   25.9730 H   0  0  0  0  0
   50.1259   -4.0365   27.9206 H   0  0  0  0  0
   51.3792   -3.7714   26.6837 H   0  0  0  0  0
   51.7618   -4.7002   28.1541 H   0  0  0  0  0
   52.7808    1.6757   27.6017 H   0  0  0  0  0
   50.3585    3.0926   26.6772 H   0  0  0  0  0
   51.2225    5.1877   27.5170 H   0  0  0  0  0
   52.7345    4.3277   28.1017 H   0  0  0  0  0
   51.4171    3.1679   29.7532 H   0  0  0  0  0
   52.4066    5.3479   30.3183 H   0  0  0  0  0
   50.9344    6.1707   29.7466 H   0  0  0  0  0
   50.8623    5.1039   31.1707 H   0  0  0  0  0
   49.0906    4.7662   28.6558 H   0  0  0  0  0
   49.3306    3.0092   28.4933 H   0  0  0  0  0
   49.0616    3.7262   30.1010 H   0  0  0  0  0
   51.1174    5.2016   25.4990 H   0  0  0  0  0
   52.5474    4.2405   23.2066 H   0  0  0  0  0
   51.7351    7.0566   23.9851 H   0  0  0  0  0
   49.9031    6.5371   22.6352 H   0  0  0  0  0
   53.4318    7.0014   22.1750 H   0  0  0  0  0
   52.4339    5.8422   21.2630 H   0  0  0  0  0
   51.8465    7.5010   21.5360 H   0  0  0  0  0
   54.6485    4.6948   22.5881 H   0  0  0  0  0
   56.4843    5.4684   24.6775 H   0  0  0  0  0
   58.2217    5.4238   22.8456 H   0  0  0  0  0
   57.6847    3.4325   24.1087 H   0  0  0  0  0
   56.3594    3.0563   22.9804 H   0  0  0  0  0
   58.0467    3.0322   22.4117 H   0  0  0  0  0
   55.8315    4.7154   21.1311 H   0  0  0  0  0
   56.8119    6.1977   21.0192 H   0  0  0  0  0
   57.5385    4.6184   20.6333 H   0  0  0  0  0
   55.0761    7.1727   22.1459 H   0  0  0  0  0
  1  2  1  0  0  0
  2  3  1  0  0  0
  2  5  1  0  0  0
  3  4  2  0  0  0
  3 10  1  0  0  0
  5  6  1  0  0  0
  6  7  1  0  0  0
  7  8  1  0  0  0
  7  9  2  0  0  0
 10 11  1  0  0  0
 11 12  1  0  0  0
 11 14  1  0  0  0
 12 13  2  0  0  0
 12 18  1  0  0  0
 14 15  1  0  0  0
 15 16  1  0  0  0
 15 17  1  0  0  0
 18 19  1  0  0  0
 19 20  1  0  0  0
 19 22  1  0  0  0
 20 21  2  0  0  0
 20 23  1  0  0  0
 23 24  1  0  0  0
 24 25  1  0  0  0
 25 26  2  0  0  0
 25 27  1  0  0  0
 27 28  1  0  0  0
 28 29  1  0  0  0
 28 31  1  0  0  0
 29 30  2  0  0  0
 29 35  1  0  0  0
 31 32  1  0  0  0
 31 33  1  0  0  0
 32 34  1  0  0  0
 35 36  1  0  0  0
 36 37  1  0  0  0
 37 38  2  0  0  0
 37 39  1  0  0  0
 39 40  1  0  0  0
 40 41  1  0  0  0
 40 43  1  0  0  0
 41 42  2  0  0  0
 41 47  1  0  0  0
 43 44  1  0  0  0
 43 45  1  0  0  0
 44 46  1  0  0  0
 47 48  1  0  0  0
 48 49  1  0  0  0
 48 51  1  0  0  0
 49 50  2  0  0  0
 49 55  1  0  0  0
 51 52  1  0  0  0
 52 53  1  0  0  0
 52 54  1  0  0  0
 55 56  1  0  0  0
 56 57  1  0  0  0
 56 59  1  0  0  0
 57 58  2  0  0  0
 57 62  1  0  0  0
 59 60  1  0  0  0
 59 61  1  0  0  0
 62 63  1  0  0  0
 63 64  1  0  0  0
 63 66  1  0  0  0
 64 65  2  0  0  0
 64 69  1  0  0  0
 66 67  1  0  0  0
 66 68  1  0  0  0
  1 70  1  0  0  0
  1 71  1  0  0  0
  1 72  1  0  0  0
  2 73  1  0  0  0
  5 74  1  0  0  0
  5 75  1  0  0  0
  6 76  1  0  0  0
  6 77  1  0  0  0
  8 78  1  0  0  0
 10 79  1  0  0  0
 11 80  1  0  0  0
 14 81  1  0  0  0
 14 82  1  0  0  0
 15 83  1  0  0  0
 16 84  1  0  0  0
 16 85  1  0  0  0
 16 86  1  0  0  0
 17 87  1  0  0  0
 17 88  1  0  0  0
 17 89  1  0  0  0
 18 90  1  0  0  0
 19 91  1  0  0  0
 22 92  1  0  0  0
 22 93  1  0  0  0
 22 94  1  0  0  0
 23 95  1  0  0  0
 24 96  1  0  0  0
 24 97  1  0  0  0
 27 98  1  0  0  0
 28 99  1  0  0  0
 31100  1  0  0  0
 32101  1  0  0  0
 32102  1  0  0  0
 33103  1  0  0  0
 33104  1  0  0  0
 33105  1  0  0  0
 34106  1  0  0  0
 34107  1  0  0  0
 34108  1  0  0  0
 35109  1  0  0  0
 36110  1  0  0  0
 36111  1  0  0  0
 39112  1  0  0  0
 40113  1  0  0  0
 43114  1  0  0  0
 44115  1  0  0  0
 44116  1  0  0  0
 45117  1  0  0  0
 45118  1  0  0  0
 45119  1  0  0  0
 46120  1  0  0  0
 46121  1  0  0  0
 46122  1  0  0  0
 47123  1  0  0  0
 48124  1  0  0  0
 51125  1  0  0  0
 51126  1  0  0  0
 52127  1  0  0  0
 53128  1  0  0  0
 53129  1  0  0  0
 53130  1  0  0  0
 54131  1  0  0  0
 54132  1  0  0  0
 54133  1  0  0  0
 55134  1  0  0  0
 56135  1  0  0  0
 59136  1  0  0  0
 60137  1  0  0  0
 61138  1  0  0  0
 61139  1  0  0  0
 61140  1  0  0  0
 62141  1  0  0  0
 63142  1  0  0  0
 66143  1  0  0  0
 67144  1  0  0  0
 67145  1  0  0  0
 67146  1  0  0  0
 68147  1  0  0  0
 68148  1  0  0  0
 68149  1  0  0  0
 69150  1  0  0  0
M  END
$$$$
