1i8z_ligand
  -I-interpret- 

 54 57  0  0  0  0  0  0  0  0999 V2000
   -5.9430    0.6900   16.7430 S   0  0  0  0  0
   -5.4330    0.7710   18.0390 O   0  0  0  0  0
   -7.3270    0.7100   16.7950 O   0  0  0  0  0
   -5.4450   -0.5330   16.1380 N   0  0  0  0  0
   -5.4080    1.9220   15.8850 C   0  0  0  0  0
   -4.0990    1.9930   15.3380 C   0  0  0  0  0
   -3.9320    3.2050   14.5940 C   0  0  0  0  0
   -5.1610    3.9930   14.6270 C   0  0  0  0  0
   -6.1140    3.1920   15.4520 S   0  0  0  0  0
   -2.7850    3.7620   13.8900 C   0  0  0  0  0
   -2.7680    5.0980   13.1030 C   0  0  0  0  0
   -4.1030    5.8440   13.1700 N   0  0  0  0  0
   -5.1930    5.3870   14.0850 S   0  0  0  0  0
   -5.0530    6.2980   15.1230 O   0  0  0  0  0
   -6.4060    5.5890   13.4820 O   0  0  0  0  0
   -1.6680    5.6690   12.2600 C   0  0  0  0  0
   -0.9650    8.2270   12.2380 C   0  0  0  0  0
   -1.3190    9.6400   12.7770 C   0  0  0  0  0
   -1.2940    9.6780   14.3340 O   0  0  0  0  0
   -2.1370    8.5850   14.9930 C   0  0  0  0  0
   -1.8700    7.1860   14.4570 C   0  0  0  0  0
   -1.8960    7.1600   12.8610 N   0  3  0  0  0
   -5.2900    7.1760   11.4220 C   0  0  0  0  0
   -4.5910    5.9900   11.8120 C   0  0  0  0  0
   -4.4490    4.9060   10.8600 C   0  0  0  0  0
   -4.9800    4.9620    9.4990 C   0  0  0  0  0
   -5.6710    6.2500    9.2340 C   0  0  0  0  0
   -5.9010    7.3800   10.1620 C   0  0  0  0  0
   -6.6000    8.4870    9.8150 O   0  0  0  0  0
   -6.5270    9.9610   10.5910 C   0  0  0  0  0
   -6.0996   -1.2453   15.8146 H   0  0  0  0  0
   -4.4407   -0.6796   16.0366 H   0  0  0  0  0
   -3.3296    1.2317   15.4666 H   0  0  0  0  0
   -2.6273    3.0299   13.0980 H   0  0  0  0  0
   -2.0963    3.9718   14.7084 H   0  0  0  0  0
   -1.6821    5.0491   13.1839 H   0  0  0  0  0
   -1.7083    5.5276   11.1800 H   0  0  0  0  0
   -0.6747    5.2247   12.3235 H   0  0  0  0  0
   -1.0921    8.2190   11.1555 H   0  0  0  0  0
    0.0665    7.9951   12.5033 H   0  0  0  0  0
   -2.3236    9.8967   12.4409 H   0  0  0  0  0
   -0.5803   10.3483   12.4019 H   0  0  0  0  0
   -3.1821    8.8154   14.7864 H   0  0  0  0  0
   -1.8838    8.5778   16.0532 H   0  0  0  0  0
   -0.8826    6.8689   14.7927 H   0  0  0  0  0
   -2.6484    6.5187   14.8271 H   0  0  0  0  0
   -2.8399    7.4242   12.5787 H   0  0  0  0  0
   -5.3570    7.9837   12.1508 H   0  0  0  0  0
   -3.9208    4.0057   11.1741 H   0  0  0  0  0
   -4.8811    4.1584    8.7693 H   0  0  0  0  0
   -6.0595    6.3800    8.2239 H   0  0  0  0  0
   -6.8329    9.8387   11.6300 H   0  0  0  0  0
   -5.5055   10.3395   10.5538 H   0  0  0  0  0
   -7.1950   10.6649   10.0947 H   0  0  0  0  0
  1  5  1  0  0  0
  1  4  1  0  0  0
  1  3  2  0  0  0
  1  2  2  0  0  0
  5  9  4  0  0  0
  5  6  4  0  0  0
  6  7  4  0  0  0
  7 10  1  0  0  0
  7  8  4  0  0  0
  8 13  1  0  0  0
  8  9  4  0  0  0
 13 15  2  0  0  0
 13 14  2  0  0  0
 13 12  1  0  0  0
 12 24  1  0  0  0
 12 11  1  0  0  0
 11 16  1  0  0  0
 11 10  1  0  0  0
 16 22  1  0  0  0
 22 21  1  0  0  0
 22 17  1  0  0  0
 17 18  1  0  0  0
 18 19  1  0  0  0
 19 20  1  0  0  0
 20 21  1  0  0  0
 24 23  4  0  0  0
 24 25  4  0  0  0
 25 26  4  0  0  0
 26 27  4  0  0  0
 27 28  4  0  0  0
 28 23  4  0  0  0
 28 29  1  0  0  0
 29 30  1  0  0  0
  4 31  1  0  0  0
  4 32  1  0  0  0
  6 33  1  0  0  0
 10 34  1  0  0  0
 10 35  1  0  0  0
 11 36  1  0  0  0
 16 37  1  0  0  0
 16 38  1  0  0  0
 17 39  1  0  0  0
 17 40  1  0  0  0
 18 41  1  0  0  0
 18 42  1  0  0  0
 20 43  1  0  0  0
 20 44  1  0  0  0
 21 45  1  0  0  0
 21 46  1  0  0  0
 22 47  1  0  0  0
 23 48  1  0  0  0
 25 49  1  0  0  0
 26 50  1  0  0  0
 27 51  1  0  0  0
 30 52  1  0  0  0
 30 53  1  0  0  0
 30 54  1  0  0  0
M  END
$$$$
