### 
### Created by X-TOOL on Fri Nov  2 10:56:26 2018
### 

@<TRIPOS>MOLECULE
5kk8_ligand
   39    41     1     0     0
SMALL
GAST_HUCK


@<TRIPOS>ATOM
      1 PB         77.6400  106.6570   34.9490 P.3       1 ADP         0.2069
      2 O1B        77.4030  108.1520   34.8660 O.co2     1 ADP        -0.5891
      3 O2B        78.5740  106.2770   36.0810 O.co2     1 ADP        -0.5891
      4 O3B        76.3910  105.8060   34.8720 O.co2     1 ADP        -0.5891
      5 PA         78.9710  104.8140   33.1980 P.3       1 ADP         0.3276
      6 O1A        79.9880  104.9840   32.0860 O.co2     1 ADP        -0.5556
      7 O2A        77.7600  103.9150   32.9970 O.co2     1 ADP        -0.5556
      8 O3A        78.4300  106.3020   33.5740 O.3       1 ADP        -0.1548
      9 O5'        79.7000  104.3900   34.5850 O.3       1 ADP        -0.2436
     10 C5'        81.0380  103.9320   34.5760 C.3       1 ADP         0.1132
     11 C4'        81.7660  104.3850   35.8250 C.3       1 ADP         0.1189
     12 O4'        83.1380  104.0490   35.6060 O.3       1 ADP        -0.3364
     13 C3'        81.7290  105.8870   36.0970 C.3       1 ADP         0.1149
     14 O3'        80.6850  106.2910   37.0040 O.3       1 ADP        -0.3864
     15 C2'        83.1390  106.1890   36.6050 C.3       1 ADP         0.1385
     16 O2'        83.2890  106.0690   38.0260 O.3       1 ADP        -0.3836
     17 C1'        84.0050  105.1390   35.9350 C.3       1 ADP         0.2010
     18 N9         84.6100  105.7140   34.7000 N.pl3     1 ADP        -0.1919
     19 C8         83.9330  106.0150   33.5610 C.2       1 ADP         0.1123
     20 N7         84.7720  106.5330   32.6280 N.2       1 ADP        -0.2958
     21 C5         86.0100  106.5720   33.1660 C.ar      1 ADP         0.1045
     22 C6         87.3470  107.0080   32.7110 C.ar      1 ADP         0.1298
     23 N6         87.4890  107.5080   31.4590 N.pl3     1 ADP        -0.3152
     24 N1         88.3850  106.8860   33.5790 N.ar      1 ADP        -0.2698
     25 C2         88.2310  106.3860   34.8260 C.ar      1 ADP         0.0533
     26 N3         87.0340  105.9670   35.2970 N.ar      1 ADP        -0.2714
     27 C4         85.9060  106.0360   34.5340 C.ar      1 ADP         0.1613
     28 H1         81.5523  104.3359   33.6915 H         1 ADP         0.0648
     29 H2         81.0434  102.8329   34.5332 H         1 ADP         0.0648
     30 H3         81.3601  103.8509   36.6967 H         1 ADP         0.0651
     31 H4         81.5625  106.4223   35.1506 H         1 ADP         0.0648
     32 H5         79.8408  106.0497   36.6411 H         1 ADP         0.2100
     33 H6         83.4383  107.2019   36.2977 H         1 ADP         0.0676
     34 H7         82.7001  106.6765   38.4579 H         1 ADP         0.2101
     35 H8         84.8003  104.8023   36.6163 H         1 ADP         0.0996
     36 H9         82.8646  105.8618   33.4165 H         1 ADP         0.1349
     37 H10        88.4151  107.8155   31.1292 H         1 ADP         0.1820
     38 H11        86.6708  107.5804   30.8375 H         1 ADP         0.1820
     39 H12        89.0988  106.3184   35.4721 H         1 ADP         0.0996
@<TRIPOS>BOND
     1    1    2 ar 
     2    1    3 ar 
     3    1    4 ar 
     4    8    1 1  
     5    5    6 ar 
     6    5    7 ar 
     7    5    8 1  
     8    5    9 1  
     9    9   10 1  
    10   10   11 1  
    11   11   12 1  
    12   11   13 1  
    13   12   17 1  
    14   13   14 1  
    15   13   15 1  
    16   15   16 1  
    17   15   17 1  
    18   17   18 1  
    19   18   19 1  
    20   18   27 1  
    21   19   20 2  
    22   20   21 1  
    23   21   22 ar 
    24   21   27 ar 
    25   22   23 1  
    26   22   24 ar 
    27   24   25 ar 
    28   25   26 ar 
    29   26   27 ar 
    30   10   28 1  
    31   10   29 1  
    32   11   30 1  
    33   13   31 1  
    34   14   32 1  
    35   15   33 1  
    36   16   34 1  
    37   17   35 1  
    38   19   36 1  
    39   23   37 1  
    40   23   38 1  
    41   25   39 1  
@<TRIPOS>SUBSTRUCTURE
     1 ADP         1

