5kk8_ligand
  -I-interpret- 

 42 44  0  0  0  0  0  0  0  0999 V2000
   77.6400  106.6570   34.9490 P   0  0  0  0  0
   77.4030  108.1520   34.8660 O   0  0  0  0  0
   78.5740  106.2770   36.0810 O   0  0  0  0  0
   76.3910  105.8060   34.8720 O   0  0  0  0  0
   78.9710  104.8140   33.1980 P   0  0  0  0  0
   79.9880  104.9840   32.0860 O   0  0  0  0  0
   77.7600  103.9150   32.9970 O   0  0  0  0  0
   78.4300  106.3020   33.5740 O   0  0  0  0  0
   79.7000  104.3900   34.5850 O   0  0  0  0  0
   81.0380  103.9320   34.5760 C   0  0  0  0  0
   81.7660  104.3850   35.8250 C   0  0  0  0  0
   83.1380  104.0490   35.6060 O   0  0  0  0  0
   81.7290  105.8870   36.0970 C   0  0  0  0  0
   80.6850  106.2910   37.0040 O   0  0  0  0  0
   83.1390  106.1890   36.6050 C   0  0  0  0  0
   83.2890  106.0690   38.0260 O   0  0  0  0  0
   84.0050  105.1390   35.9350 C   0  0  0  0  0
   84.6100  105.7140   34.7000 N   0  0  0  0  0
   83.9330  106.0150   33.5610 C   0  0  0  0  0
   84.7720  106.5330   32.6280 N   0  0  0  0  0
   86.0100  106.5720   33.1660 C   0  0  0  0  0
   87.3470  107.0080   32.7110 C   0  0  0  0  0
   87.4890  107.5080   31.4590 N   0  0  0  0  0
   88.3850  106.8860   33.5790 N   0  0  0  0  0
   88.2310  106.3860   34.8260 C   0  0  0  0  0
   87.0340  105.9670   35.2970 N   0  0  0  0  0
   85.9060  106.0360   34.5340 C   0  0  0  0  0
   78.2438  108.6118   34.9225 H   0  0  0  0  0
   79.3405  106.8548   36.0695 H   0  0  0  0  0
   77.2231  103.9206   33.7928 H   0  0  0  0  0
   81.5456  104.3426   33.7032 H   0  0  0  0  0
   81.0378  102.8425   34.5433 H   0  0  0  0  0
   81.2816  103.9064   36.6761 H   0  0  0  0  0
   81.4767  106.4620   35.2060 H   0  0  0  0  0
   80.7210  107.2422   37.1283 H   0  0  0  0  0
   83.4008  107.2217   36.3747 H   0  0  0  0  0
   84.1951  106.2723   38.2693 H   0  0  0  0  0
   84.8155  104.8065   36.5835 H   0  0  0  0  0
   82.8636  105.8617   33.4164 H   0  0  0  0  0
   86.6788  107.5797   30.8435 H   0  0  0  0  0
   88.4061  107.8125   31.1324 H   0  0  0  0  0
   89.1036  106.3181   35.4757 H   0  0  0  0  0
  1  2  1  0  0  0
  1  3  1  0  0  0
  1  4  2  0  0  0
  8  1  1  0  0  0
  5  6  2  0  0  0
  5  7  1  0  0  0
  5  8  1  0  0  0
  5  9  1  0  0  0
  9 10  1  0  0  0
 10 11  1  0  0  0
 11 12  1  0  0  0
 11 13  1  0  0  0
 12 17  1  0  0  0
 13 14  1  0  0  0
 13 15  1  0  0  0
 15 16  1  0  0  0
 15 17  1  0  0  0
 17 18  1  0  0  0
 18 19  4  0  0  0
 18 27  4  0  0  0
 19 20  4  0  0  0
 20 21  4  0  0  0
 21 22  4  0  0  0
 21 27  4  0  0  0
 22 23  1  0  0  0
 22 24  4  0  0  0
 24 25  4  0  0  0
 25 26  4  0  0  0
 26 27  4  0  0  0
  2 28  1  0  0  0
  3 29  1  0  0  0
  7 30  1  0  0  0
 10 31  1  0  0  0
 10 32  1  0  0  0
 11 33  1  0  0  0
 13 34  1  0  0  0
 14 35  1  0  0  0
 15 36  1  0  0  0
 16 37  1  0  0  0
 17 38  1  0  0  0
 19 39  1  0  0  0
 23 40  1  0  0  0
 23 41  1  0  0  0
 25 42  1  0  0  0
M  END
$$$$
