5hfb_ligand
  -I-interpret- 

 93 93  0  0  0  0  0  0  0  0999 V2000
   37.4410   45.2100   24.0350 N   0  3  0  0  0
   38.2090   46.4330   24.2140 C   0  0  0  0  0
   37.9230   47.4880   23.1480 C   0  0  0  0  0
   37.7870   47.1720   21.9670 O   0  0  0  0  0
   39.6910   46.0830   24.2180 C   0  0  0  0  0
   40.6010   47.2230   23.8520 C   0  0  0  0  0
   40.9170   48.2000   24.7790 C   0  0  0  0  0
   41.1510   47.3070   22.5860 C   0  0  0  0  0
   41.7590   49.2390   24.4670 C   0  0  0  0  0
   42.0070   48.3470   22.2430 C   0  0  0  0  0
   42.3050   49.3180   23.2010 C   0  0  0  0  0
   43.1460   50.3680   22.9270 O   0  0  0  0  0
   37.8400   48.7450   23.5790 N   0  0  0  0  0
   37.6180   49.8680   22.6720 C   0  0  0  0  0
   38.2690   51.1380   23.2240 C   0  0  0  0  0
   38.1550   51.4330   24.4150 O   0  0  0  0  0
   36.1200   50.0920   22.4530 C   0  0  0  0  0
   38.9620   51.8780   22.3620 N   0  0  0  0  0
   39.5880   53.1360   22.7650 C   0  0  0  0  0
   39.2720   54.2320   21.7560 C   0  0  0  0  0
   39.3290   54.0160   20.5460 O   0  0  0  0  0
   41.1060   52.9700   22.9180 C   0  0  0  0  0
   41.8400   54.2700   23.2100 C   0  0  0  0  0
   43.1850   54.0930   23.9040 C   0  0  0  0  0
   43.8140   55.0780   24.3010 O   0  0  0  0  0
   43.6590   52.8470   24.0070 N   0  0  0  0  0
   38.9480   55.4150   22.2660 N   0  0  0  0  0
   38.5020   56.5220   21.4250 C   0  0  0  0  0
   39.0850   57.8520   21.8860 C   0  0  0  0  0
   39.2670   58.0710   23.0790 O   0  0  0  0  0
   36.9640   56.6390   21.4310 C   0  0  0  0  0
   36.3780   55.3430   21.2600 O   0  0  0  0  0
   36.4870   57.5590   20.3160 C   0  0  0  0  0
   39.3570   58.7430   20.9350 N   0  0  0  0  0
   39.7950   60.0970   21.2470 C   0  0  0  0  0
   38.5840   61.0050   21.4100 C   0  0  0  0  0
   37.6400   60.9280   20.6200 O   0  0  0  0  0
   40.7010   60.6490   20.1390 C   0  0  0  0  0
   41.8330   59.8280   19.9330 O   0  0  0  0  0
   38.6140   61.8730   22.4180 N   0  0  0  0  0
   37.5270   62.8240   22.6200 C   0  0  0  0  0
   38.0610   64.2350   22.7930 C   0  0  0  0  0
   37.2670   65.1840   22.7840 O   0  0  0  0  0
   36.6570   62.4360   23.8280 C   0  0  0  0  0
   36.0200   61.0760   23.6080 C   0  0  0  0  0
   37.4860   62.4390   25.1040 C   0  0  0  0  0
   39.2620   64.4450   22.9510 O   0  0  0  0  0
   36.4456   45.4326   24.0307 H   0  0  0  0  0
   37.6973   44.7757   23.1484 H   0  0  0  0  0
   37.6437   44.5675   24.8008 H   0  0  0  0  0
   37.9091   46.8736   25.1648 H   0  0  0  0  0
   39.8373   45.3045   23.4692 H   0  0  0  0  0
   39.9459   45.7847   25.2349 H   0  0  0  0  0
   40.4880   48.1439   25.7795 H   0  0  0  0  0
   40.9093   46.5451   21.8449 H   0  0  0  0  0
   41.9950   49.9968   25.2141 H   0  0  0  0  0
   42.4381   48.4035   21.2435 H   0  0  0  0  0
   43.4522   50.3029   22.0195 H   0  0  0  0  0
   37.9348   48.9302   24.5776 H   0  0  0  0  0
   38.0773   49.6307   21.7124 H   0  0  0  0  0
   35.6791   49.1940   22.0202 H   0  0  0  0  0
   35.6427   50.3083   23.4088 H   0  0  0  0  0
   35.9750   50.9327   21.7746 H   0  0  0  0  0
   39.0586   51.5600   21.3977 H   0  0  0  0  0
   39.1797   53.4237   23.7338 H   0  0  0  0  0
   41.4879   52.5868   21.9717 H   0  0  0  0  0
   41.2763   52.3038   23.7637 H   0  0  0  0  0
   41.2076   54.8497   23.8823 H   0  0  0  0  0
   42.0363   54.7484   22.2505 H   0  0  0  0  0
   44.5739   52.6825   24.4269 H   0  0  0  0  0
   43.1057   52.0610   23.6657 H   0  0  0  0  0
   39.0127   55.5540   23.2744 H   0  0  0  0  0
   38.8549   56.3043   20.4170 H   0  0  0  0  0
   36.6567   57.0598   22.3884 H   0  0  0  0  0
   35.4213   55.4225   21.2646 H   0  0  0  0  0
   36.9158   58.5511   20.4569 H   0  0  0  0  0
   36.8055   57.1574   19.3541 H   0  0  0  0  0
   35.3993   57.6250   20.3415 H   0  0  0  0  0
   39.2556   58.4692   19.9577 H   0  0  0  0  0
   40.3621   60.0668   22.1774 H   0  0  0  0  0
   41.0445   61.6395   20.4374 H   0  0  0  0  0
   40.1284   60.6838   19.2122 H   0  0  0  0  0
   42.3757   60.2024   19.2352 H   0  0  0  0  0
   39.4081   61.8733   23.0582 H   0  0  0  0  0
   36.9029   62.7948   21.7268 H   0  0  0  0  0
   36.3757   64.8528   22.6514 H   0  0  0  0  0
   35.8623   63.1745   23.9334 H   0  0  0  0  0
   35.3945   61.1092   22.7160 H   0  0  0  0  0
   36.8012   60.3271   23.4779 H   0  0  0  0  0
   35.4085   60.8185   24.4728 H   0  0  0  0  0
   38.3006   61.7212   25.0082 H   0  0  0  0  0
   37.8957   63.4358   25.2672 H   0  0  0  0  0
   36.8534   62.1622   25.9474 H   0  0  0  0  0
  1  2  1  0  0  0
  2  3  1  0  0  0
  2  5  1  0  0  0
  3  4  2  0  0  0
  3 13  1  0  0  0
  5  6  1  0  0  0
  6  7  4  0  0  0
  6  8  4  0  0  0
  7  9  4  0  0  0
  8 10  4  0  0  0
  9 11  4  0  0  0
 10 11  4  0  0  0
 11 12  1  0  0  0
 13 14  1  0  0  0
 14 15  1  0  0  0
 14 17  1  0  0  0
 15 16  2  0  0  0
 15 18  1  0  0  0
 18 19  1  0  0  0
 19 20  1  0  0  0
 19 22  1  0  0  0
 20 21  2  0  0  0
 20 27  1  0  0  0
 22 23  1  0  0  0
 23 24  1  0  0  0
 24 25  2  0  0  0
 24 26  1  0  0  0
 27 28  1  0  0  0
 28 29  1  0  0  0
 28 31  1  0  0  0
 29 30  2  0  0  0
 29 34  1  0  0  0
 31 32  1  0  0  0
 31 33  1  0  0  0
 34 35  1  0  0  0
 35 36  1  0  0  0
 35 38  1  0  0  0
 36 37  2  0  0  0
 36 40  1  0  0  0
 38 39  1  0  0  0
 40 41  1  0  0  0
 41 42  1  0  0  0
 41 44  1  0  0  0
 42 43  1  0  0  0
 42 47  2  0  0  0
 44 45  1  0  0  0
 44 46  1  0  0  0
  1 48  1  0  0  0
  1 49  1  0  0  0
  1 50  1  0  0  0
  2 51  1  0  0  0
  5 52  1  0  0  0
  5 53  1  0  0  0
  7 54  1  0  0  0
  8 55  1  0  0  0
  9 56  1  0  0  0
 10 57  1  0  0  0
 12 58  1  0  0  0
 13 59  1  0  0  0
 14 60  1  0  0  0
 17 61  1  0  0  0
 17 62  1  0  0  0
 17 63  1  0  0  0
 18 64  1  0  0  0
 19 65  1  0  0  0
 22 66  1  0  0  0
 22 67  1  0  0  0
 23 68  1  0  0  0
 23 69  1  0  0  0
 26 70  1  0  0  0
 26 71  1  0  0  0
 27 72  1  0  0  0
 28 73  1  0  0  0
 31 74  1  0  0  0
 32 75  1  0  0  0
 33 76  1  0  0  0
 33 77  1  0  0  0
 33 78  1  0  0  0
 34 79  1  0  0  0
 35 80  1  0  0  0
 38 81  1  0  0  0
 38 82  1  0  0  0
 39 83  1  0  0  0
 40 84  1  0  0  0
 41 85  1  0  0  0
 43 86  1  0  0  0
 44 87  1  0  0  0
 45 88  1  0  0  0
 45 89  1  0  0  0
 45 90  1  0  0  0
 46 91  1  0  0  0
 46 92  1  0  0  0
 46 93  1  0  0  0
M  END
$$$$
