### 
### Created by X-TOOL on Sun Sep  9 21:51:52 2018
### 

@<TRIPOS>MOLECULE
2yim_ligand
   93    95     1     0     0
SMALL
GAST_HUCK


@<TRIPOS>ATOM
      1 C1        125.4820   28.4460  -11.1800 C.2       1 NON         0.1838
      2 O1        125.6440   29.6670  -11.1920 O.2       1 NON        -0.3750
      3 C2        126.4800   27.6130  -10.6360 C.3       1 NON         0.1025
      4 C3        126.3730   26.0720  -10.5710 C.2       1 NON         0.0782
      5 O3        127.3940   25.4170   -9.9450 O.3       1 NON        -0.3260
      6 C4        125.3310   25.3460  -11.1360 C.2       1 NON        -0.1063
      7 N1A       112.6770   17.7030  -22.4040 N.ar      1 NON        -0.2698
      8 O1A       118.9350   26.9720  -21.2860 O.co2     1 NON        -0.6127
      9 P1A       119.6270   26.2860  -22.4380 P.3       1 NON         0.2972
     10 C1B       115.9060   21.6500  -23.4890 C.3       1 NON         0.2013
     11 S1P       123.9570   27.8240  -11.8060 S.3       1 NON        -0.0453
     12 C2A       113.2820   18.0300  -23.5680 C.ar      1 NON         0.0533
     13 O2A       120.2270   27.3660  -23.5800 O.co2     1 NON        -0.6127
     14 P2A       122.3270   25.2950  -22.0590 P.3       1 NON         0.2971
     15 C2B       115.2970   22.9650  -23.9300 C.3       1 NON         0.1432
     16 O2B       114.2810   22.7630  -24.9140 O.3       1 NON        -0.3832
     17 C2P       123.3550   29.2510  -12.7420 C.3       1 NON         0.0337
     18 N3A       114.1030   19.0900  -23.7190 N.ar      1 NON        -0.2714
     19 O3A       120.7290   25.2720  -21.8370 O.3       1 NON        -0.1319
     20 C3B       116.5060   23.6860  -24.4860 C.3       1 NON         0.1487
     21 O3B       116.6980   23.2960  -25.8440 O.3       1 NON        -0.2674
     22 P3B       116.9770   24.3460  -27.0360 P.3       1 NON         0.2013
     23 C3P       123.5420   29.0730  -14.2460 C.3       1 NON         0.0422
     24 C4A       114.3630   19.8910  -22.6770 C.ar      1 NON         0.1613
     25 O4A       122.7630   25.6940  -23.6350 O.co2     1 NON        -0.6127
     26 C4B       117.6560   23.1730  -23.6260 C.3       1 NON         0.1235
     27 O4B       117.2020   21.9780  -22.9880 O.3       1 NON        -0.3360
     28 N4P       122.9050   30.1380  -15.0060 N.am      1 NON        -0.2860
     29 C52       127.7480   28.2820  -10.0840 C.3       1 NON        -0.0308
     30 C5A       113.7400   19.5910  -21.3930 C.ar      1 NON         0.1045
     31 O5A       122.8550   23.9540  -21.6120 O.co2     1 NON        -0.6127
     32 C5B       118.0470   24.1680  -22.5440 C.3       1 NON         0.1131
     33 O5B       118.5960   25.3100  -23.1860 O.3       1 NON        -0.2476
     34 C5P       121.5840   30.1850  -15.2000 C.2       1 NON         0.1779
     35 O5P       120.8070   29.3490  -14.7540 O.2       1 NON        -0.3970
     36 C6A       112.8490   18.4190  -21.2800 C.ar      1 NON         0.1298
     37 N6A       112.2430   18.0840  -20.1190 N.pl3     1 NON        -0.3152
     38 O6A       122.8630   26.4480  -21.0720 O.3       1 NON        -0.2496
     39 C6P       121.0710   31.3570  -16.0050 C.3       1 NON         0.0574
     40 N7A       114.1220   20.5010  -20.4980 N.2       1 NON        -0.2958
     41 O7A       116.0050   25.5020  -26.9680 O.co2     1 NON        -0.5537
     42 C7P       119.9780   30.9380  -16.9920 C.3       1 NON         0.0477
     43 C8A       114.9440   21.3430  -21.1570 C.2       1 NON         0.1123
     44 O8A       118.5630   24.9270  -26.9310 O.co2     1 NON        -0.5537
     45 N8P       120.3040   29.7190  -17.7250 N.am      1 NON        -0.2826
     46 N9A       115.0880   20.9830  -22.4550 N.pl3     1 NON        -0.1919
     47 O9A       116.7780   23.5090  -28.4990 O.co2     1 NON        -0.5537
     48 C9P       121.2180   29.6630  -18.6990 C.2       1 NON         0.2057
     49 O9P       121.8470   30.6430  -19.0800 O.2       1 NON        -0.3942
     50 CAP       121.4310   28.3120  -19.3480 C.3       1 NON         0.1510
     51 OAP       120.3050   27.4640  -19.0430 O.3       1 NON        -0.3708
     52 CBP       122.7530   27.6170  -18.9580 C.3       1 NON         0.0367
     53 CCP       122.8430   26.2670  -19.6570 C.3       1 NON         0.0936
     54 CDP       122.8230   27.3700  -17.4540 C.3       1 NON        -0.0528
     55 CEP       123.9460   28.4580  -19.3980 C.3       1 NON        -0.0528
     56 H1        125.9945   27.6815   -9.6513 H         1 NON         0.0757
     57 H2        127.2270   24.4820   -9.9628 H         1 NON         0.2551
     58 H3        125.3165   24.2602  -11.0536 H         1 NON        -0.0019
     59 H4        124.5291   25.8630  -11.6610 H         1 NON        -0.0019
     60 H5        115.9985   20.9754  -24.3529 H         1 NON         0.0996
     61 H6        113.0962   17.4026  -24.4323 H         1 NON         0.0996
     62 H7        114.8687   23.5123  -23.0774 H         1 NON         0.0680
     63 H8        113.9186   23.6029  -25.1705 H         1 NON         0.2101
     64 H9        123.9082   30.1454  -12.4195 H         1 NON         0.0424
     65 H10       122.2839   29.3866  -12.5317 H         1 NON         0.0424
     66 H11       116.4004   24.7783  -24.4105 H         1 NON         0.0704
     67 H12       123.1023   28.1106  -14.5468 H         1 NON         0.0529
     68 H13       124.6185   29.0709  -14.4719 H         1 NON         0.0529
     69 H14       118.5283   22.9617  -24.2620 H         1 NON         0.0654
     70 H15       123.4760   30.8600  -15.3967 H         1 NON         0.1851
     71 H16       127.6688   29.3726  -10.2036 H         1 NON         0.0284
     72 H17       128.6260   27.9154  -10.6360 H         1 NON         0.0284
     73 H18       127.8571   28.0371   -9.0172 H         1 NON         0.0284
     74 H19       118.7952   23.7187  -21.8744 H         1 NON         0.0648
     75 H20       117.1595   24.4561  -21.9614 H         1 NON         0.0648
     76 H21       112.3959   18.6542  -19.2750 H         1 NON         0.1820
     77 H22       111.6283   17.2585  -20.0784 H         1 NON         0.1820
     78 H23       121.9084   31.7958  -16.5673 H         1 NON         0.0522
     79 H24       120.6584   32.1084  -15.3157 H         1 NON         0.0522
     80 H25       119.8295   31.7526  -17.7162 H         1 NON         0.0545
     81 H26       119.0461   30.7708  -16.4319 H         1 NON         0.0545
     82 H27       115.4310   22.2045  -20.7025 H         1 NON         0.1349
     83 H28       119.8168   28.8792  -17.4855 H         1 NON         0.1853
     84 H29       121.4574   28.4700  -20.4363 H         1 NON         0.0844
     85 H30       119.5105   27.8610  -19.3802 H         1 NON         0.2133
     86 H31       123.7645   25.7553  -19.3426 H         1 NON         0.0628
     87 H32       121.9714   25.6555  -19.3807 H         1 NON         0.0628
     88 H33       122.7601   28.3304  -16.9214 H         1 NON         0.0238
     89 H34       123.7742   26.8756  -17.2075 H         1 NON         0.0238
     90 H35       121.9851   26.7260  -17.1488 H         1 NON         0.0238
     91 H36       123.8910   28.6332  -20.4826 H         1 NON         0.0238
     92 H37       124.8782   27.9250  -19.1596 H         1 NON         0.0238
     93 H38       123.9296   29.4226  -18.8695 H         1 NON         0.0238
@<TRIPOS>BOND
     1    1    2 2  
     2    1    3 1  
     3   11    1 1  
     4    3    4 1  
     5    3   29 1  
     6    4    5 1  
     7    4    6 2  
     8   12    7 ar 
     9   36    7 ar 
    10    9    8 ar 
    11    9   13 ar 
    12   19    9 1  
    13    9   33 1  
    14   10   15 1  
    15   27   10 1  
    16   10   46 1  
    17   17   11 1  
    18   18   12 ar 
    19   14   19 1  
    20   14   25 ar 
    21   14   31 ar 
    22   38   14 1  
    23   15   16 1  
    24   20   15 1  
    25   23   17 1  
    26   24   18 ar 
    27   20   21 1  
    28   26   20 1  
    29   21   22 1  
    30   22   41 ar 
    31   22   44 ar 
    32   22   47 ar 
    33   28   23 1  
    34   24   30 ar 
    35   46   24 1  
    36   26   27 1  
    37   32   26 1  
    38   34   28 am 
    39   30   36 ar 
    40   40   30 1  
    41   33   32 1  
    42   34   35 2  
    43   39   34 1  
    44   36   37 1  
    45   53   38 1  
    46   42   39 1  
    47   43   40 2  
    48   45   42 1  
    49   46   43 1  
    50   48   45 am 
    51   48   49 2  
    52   50   48 1  
    53   50   51 1  
    54   52   50 1  
    55   52   53 1  
    56   52   54 1  
    57   52   55 1  
    58    3   56 1  
    59    5   57 1  
    60    6   58 1  
    61    6   59 1  
    62   10   60 1  
    63   12   61 1  
    64   15   62 1  
    65   16   63 1  
    66   17   64 1  
    67   17   65 1  
    68   20   66 1  
    69   23   67 1  
    70   23   68 1  
    71   26   69 1  
    72   28   70 1  
    73   29   71 1  
    74   29   72 1  
    75   29   73 1  
    76   32   74 1  
    77   32   75 1  
    78   37   76 1  
    79   37   77 1  
    80   39   78 1  
    81   39   79 1  
    82   42   80 1  
    83   42   81 1  
    84   43   82 1  
    85   45   83 1  
    86   50   84 1  
    87   51   85 1  
    88   53   86 1  
    89   53   87 1  
    90   54   88 1  
    91   54   89 1  
    92   54   90 1  
    93   55   91 1  
    94   55   92 1  
    95   55   93 1  
@<TRIPOS>SUBSTRUCTURE
     1 NON         1

