2yim_ligand
  -I-interpret- 

 97 99  0  0  0  0  0  0  0  0999 V2000
  125.4820   28.4460  -11.1800 C   0  0  0  0  0
  125.6440   29.6670  -11.1920 O   0  0  0  0  0
  126.4800   27.6130  -10.6360 C   0  0  0  0  0
  126.3730   26.0720  -10.5710 C   0  0  0  0  0
  127.3940   25.4170   -9.9450 O   0  0  0  0  0
  125.3310   25.3460  -11.1360 C   0  0  0  0  0
  112.6770   17.7030  -22.4040 N   0  0  0  0  0
  118.9350   26.9720  -21.2860 O   0  0  0  0  0
  119.6270   26.2860  -22.4380 P   0  0  0  0  0
  115.9060   21.6500  -23.4890 C   0  0  0  0  0
  123.9570   27.8240  -11.8060 S   0  0  0  0  0
  113.2820   18.0300  -23.5680 C   0  0  0  0  0
  120.2270   27.3660  -23.5800 O   0  0  0  0  0
  122.3270   25.2950  -22.0590 P   0  0  0  0  0
  115.2970   22.9650  -23.9300 C   0  0  0  0  0
  114.2810   22.7630  -24.9140 O   0  0  0  0  0
  123.3550   29.2510  -12.7420 C   0  0  0  0  0
  114.1030   19.0900  -23.7190 N   0  0  0  0  0
  120.7290   25.2720  -21.8370 O   0  0  0  0  0
  116.5060   23.6860  -24.4860 C   0  0  0  0  0
  116.6980   23.2960  -25.8440 O   0  0  0  0  0
  116.9770   24.3460  -27.0360 P   0  0  0  0  0
  123.5420   29.0730  -14.2460 C   0  0  0  0  0
  114.3630   19.8910  -22.6770 C   0  0  0  0  0
  122.7630   25.6940  -23.6350 O   0  0  0  0  0
  117.6560   23.1730  -23.6260 C   0  0  0  0  0
  117.2020   21.9780  -22.9880 O   0  0  0  0  0
  122.9050   30.1380  -15.0060 N   0  0  0  0  0
  127.7480   28.2820  -10.0840 C   0  0  0  0  0
  113.7400   19.5910  -21.3930 C   0  0  0  0  0
  122.8550   23.9540  -21.6120 O   0  0  0  0  0
  118.0470   24.1680  -22.5440 C   0  0  0  0  0
  118.5960   25.3100  -23.1860 O   0  0  0  0  0
  121.5840   30.1850  -15.2000 C   0  0  0  0  0
  120.8070   29.3490  -14.7540 O   0  0  0  0  0
  112.8490   18.4190  -21.2800 C   0  0  0  0  0
  112.2430   18.0840  -20.1190 N   0  0  0  0  0
  122.8630   26.4480  -21.0720 O   0  0  0  0  0
  121.0710   31.3570  -16.0050 C   0  0  0  0  0
  114.1220   20.5010  -20.4980 N   0  0  0  0  0
  116.0050   25.5020  -26.9680 O   0  0  0  0  0
  119.9780   30.9380  -16.9920 C   0  0  0  0  0
  114.9440   21.3430  -21.1570 C   0  0  0  0  0
  118.5630   24.9270  -26.9310 O   0  0  0  0  0
  120.3040   29.7190  -17.7250 N   0  0  0  0  0
  115.0880   20.9830  -22.4550 N   0  0  0  0  0
  116.7780   23.5090  -28.4990 O   0  0  0  0  0
  121.2180   29.6630  -18.6990 C   0  0  0  0  0
  121.8470   30.6430  -19.0800 O   0  0  0  0  0
  121.4310   28.3120  -19.3480 C   0  0  0  0  0
  120.3050   27.4640  -19.0430 O   0  0  0  0  0
  122.7530   27.6170  -18.9580 C   0  0  0  0  0
  122.8430   26.2670  -19.6570 C   0  0  0  0  0
  122.8230   27.3700  -17.4540 C   0  0  0  0  0
  123.9460   28.4580  -19.3980 C   0  0  0  0  0
  125.5870   27.0568  -10.9212 H   0  0  0  0  0
  128.0271   26.0573   -9.6123 H   0  0  0  0  0
  125.3311   24.2575  -11.0783 H   0  0  0  0  0
  124.5138   25.8652  -11.6368 H   0  0  0  0  0
  115.9583   20.9444  -24.3181 H   0  0  0  0  0
  113.0952   17.3991  -24.4370 H   0  0  0  0  0
  120.6550   26.8775  -24.2869 H   0  0  0  0  0
  114.7901   23.5167  -23.1383 H   0  0  0  0  0
  113.9148   23.6117  -25.1731 H   0  0  0  0  0
  123.9248   30.1264  -12.4303 H   0  0  0  0  0
  122.2891   29.3623  -12.5432 H   0  0  0  0  0
  116.4160   24.7721  -24.4649 H   0  0  0  0  0
  123.0843   28.1273  -14.5362 H   0  0  0  0  0
  124.6104   29.0939  -14.4608 H   0  0  0  0  0
  122.3987   26.5536  -23.8587 H   0  0  0  0  0
  118.5267   23.0083  -24.2606 H   0  0  0  0  0
  123.4875   30.8744  -15.4046 H   0  0  0  0  0
  127.8549   28.0385   -9.0269 H   0  0  0  0  0
  128.6172   27.9179  -10.6318 H   0  0  0  0  0
  127.6684   29.3626  -10.2030 H   0  0  0  0  0
  118.7778   23.7251  -21.8674 H   0  0  0  0  0
  117.1751   24.4476  -21.9526 H   0  0  0  0  0
  111.6343   17.2665  -20.0788 H   0  0  0  0  0
  112.3944   18.6487  -19.2832 H   0  0  0  0  0
  121.9036   31.7716  -16.5733 H   0  0  0  0  0
  120.6465   32.0859  -15.3146 H   0  0  0  0  0
  119.8639   31.7413  -17.7199 H   0  0  0  0  0
  119.0705   30.7470  -16.4192 H   0  0  0  0  0
  115.4315   22.2053  -20.7021 H   0  0  0  0  0
  119.1762   24.1897  -26.9746 H   0  0  0  0  0
  119.8071   28.8624  -17.4807 H   0  0  0  0  0
  117.3982   22.7771  -28.5346 H   0  0  0  0  0
  121.5091   28.4872  -20.4210 H   0  0  0  0  0
  120.4330   26.6048  -19.4516 H   0  0  0  0  0
  123.7594   25.7644  -19.3477 H   0  0  0  0  0
  121.9757   25.6651  -19.3856 H   0  0  0  0  0
  122.7613   28.3224  -16.9274 H   0  0  0  0  0
  121.9919   26.7323  -17.1527 H   0  0  0  0  0
  123.7656   26.8795  -17.2111 H   0  0  0  0  0
  123.9183   28.5876  -20.4799 H   0  0  0  0  0
  123.9004   29.4329  -18.9127 H   0  0  0  0  0
  124.8693   27.9526  -19.1149 H   0  0  0  0  0
  1  2  2  0  0  0
  1  3  1  0  0  0
 11  1  1  0  0  0
  3  4  1  0  0  0
  3 29  1  0  0  0
  4  5  1  0  0  0
  4  6  2  0  0  0
 12  7  4  0  0  0
 36  7  4  0  0  0
  9  8  2  0  0  0
  9 13  1  0  0  0
 19  9  1  0  0  0
  9 33  1  0  0  0
 10 15  1  0  0  0
 27 10  1  0  0  0
 10 46  1  0  0  0
 17 11  1  0  0  0
 18 12  4  0  0  0
 14 19  1  0  0  0
 14 25  1  0  0  0
 14 31  2  0  0  0
 38 14  1  0  0  0
 15 16  1  0  0  0
 20 15  1  0  0  0
 23 17  1  0  0  0
 24 18  4  0  0  0
 20 21  1  0  0  0
 26 20  1  0  0  0
 21 22  1  0  0  0
 22 41  2  0  0  0
 22 44  1  0  0  0
 22 47  1  0  0  0
 28 23  1  0  0  0
 24 30  4  0  0  0
 46 24  4  0  0  0
 26 27  1  0  0  0
 32 26  1  0  0  0
 34 28  1  0  0  0
 30 36  4  0  0  0
 40 30  4  0  0  0
 33 32  1  0  0  0
 34 35  2  0  0  0
 39 34  1  0  0  0
 36 37  1  0  0  0
 53 38  1  0  0  0
 42 39  1  0  0  0
 43 40  4  0  0  0
 45 42  1  0  0  0
 46 43  4  0  0  0
 48 45  1  0  0  0
 48 49  2  0  0  0
 50 48  1  0  0  0
 50 51  1  0  0  0
 52 50  1  0  0  0
 52 53  1  0  0  0
 52 54  1  0  0  0
 52 55  1  0  0  0
  3 56  1  0  0  0
  5 57  1  0  0  0
  6 58  1  0  0  0
  6 59  1  0  0  0
 10 60  1  0  0  0
 12 61  1  0  0  0
 13 62  1  0  0  0
 15 63  1  0  0  0
 16 64  1  0  0  0
 17 65  1  0  0  0
 17 66  1  0  0  0
 20 67  1  0  0  0
 23 68  1  0  0  0
 23 69  1  0  0  0
 25 70  1  0  0  0
 26 71  1  0  0  0
 28 72  1  0  0  0
 29 73  1  0  0  0
 29 74  1  0  0  0
 29 75  1  0  0  0
 32 76  1  0  0  0
 32 77  1  0  0  0
 37 78  1  0  0  0
 37 79  1  0  0  0
 39 80  1  0  0  0
 39 81  1  0  0  0
 42 82  1  0  0  0
 42 83  1  0  0  0
 43 84  1  0  0  0
 44 85  1  0  0  0
 45 86  1  0  0  0
 47 87  1  0  0  0
 50 88  1  0  0  0
 51 89  1  0  0  0
 53 90  1  0  0  0
 53 91  1  0  0  0
 54 92  1  0  0  0
 54 93  1  0  0  0
 54 94  1  0  0  0
 55 95  1  0  0  0
 55 96  1  0  0  0
 55 97  1  0  0  0
M  END
$$$$
