4p6c_ligand
  -I-interpret- 

 24 23  0  0  0  0  0  0  0  0999 V2000
   -8.2640    4.1710  -34.7270 O   0  0  0  0  0
   -8.3260    3.1180  -33.6430 P   0  0  0  0  0
   -6.9790    2.6290  -33.1720 O   0  0  0  0  0
   -9.2970    2.0080  -33.9850 O   0  0  0  0  0
   -8.9800    3.8210  -32.3530 O   0  0  0  0  0
   -9.1490    5.2280  -32.2390 C   0  0  0  0  0
   -9.9540    5.5050  -30.9780 C   0  0  0  0  0
  -11.2340    6.0330  -31.3210 O   0  0  0  0  0
  -10.1650    4.2030  -30.2320 C   0  0  0  0  0
   -9.0230    3.9640  -29.4230 O   0  0  0  0  0
  -11.3570    4.3090  -29.3390 C   0  0  0  0  0
  -12.4630    4.0870  -29.7900 O   0  0  0  0  0
  -11.1190    4.6390  -28.0730 N   0  0  0  0  0
  -12.1620    4.7310  -27.1540 O   0  0  0  0  0
   -9.1555    4.4295  -34.9718 H   0  0  0  0  0
  -10.1284    2.3899  -34.2756 H   0  0  0  0  0
   -9.6727    5.6161  -33.1126 H   0  0  0  0  0
   -8.1782    5.7202  -32.1814 H   0  0  0  0  0
   -9.4118    6.2220  -30.3616 H   0  0  0  0  0
  -11.1211    6.8599  -31.7954 H   0  0  0  0  0
  -10.3190    3.3956  -30.9479 H   0  0  0  0  0
   -9.1394    3.1414  -28.9421 H   0  0  0  0  0
  -10.1628    4.8267  -27.7716 H   0  0  0  0  0
  -11.8099    4.9779  -26.2957 H   0  0  0  0  0
  1  2  1  0  0  0
  2  3  2  0  0  0
  2  4  1  0  0  0
  2  5  1  0  0  0
  5  6  1  0  0  0
  6  7  1  0  0  0
  7  8  1  0  0  0
  7  9  1  0  0  0
  9 10  1  0  0  0
  9 11  1  0  0  0
 11 12  2  0  0  0
 11 13  1  0  0  0
 13 14  1  0  0  0
  1 15  1  0  0  0
  4 16  1  0  0  0
  6 17  1  0  0  0
  6 18  1  0  0  0
  7 19  1  0  0  0
  8 20  1  0  0  0
  9 21  1  0  0  0
 10 22  1  0  0  0
 13 23  1  0  0  0
 14 24  1  0  0  0
M  END
$$$$
