### 
### Created by X-TOOL on Wed Jan  1 15:39:34 2020
### 

@<TRIPOS>MOLECULE
5y59_ligand
  208   207     1     0     0
SMALL
GAST_HUCK


@<TRIPOS>ATOM
      1 N          40.1700    6.7010  -17.0400 N.4       1 ASN         0.2396
      2 CA         40.8710    7.9720  -17.2000 C.3       1 ASN         0.0818
      3 C          41.0580    8.3410  -18.6650 C.2       1 ASN         0.2291
      4 O          40.6030    9.3920  -19.1240 O.2       1 ASN        -0.3905
      5 CB         42.2420    7.9270  -16.5170 C.3       1 ASN         0.0972
      6 CG         42.8900    9.2980  -16.3990 C.2       1 ASN         0.1813
      7 OD1        42.2060   10.3160  -16.2740 O.2       1 ASN        -0.3969
      8 ND2        44.2210    9.3290  -16.4440 N.am      1 ASN        -0.3006
      9 N          41.7410    7.4590  -19.3890 N.am      1 SER        -0.2587
     10 CA         42.1310    7.7010  -20.7740 C.3       1 SER         0.1540
     11 C          40.9260    7.7890  -21.7160 C.2       1 SER         0.2062
     12 O          40.8200    8.7280  -22.5040 O.2       1 SER        -0.3943
     13 CB         43.0990    6.6060  -21.2310 C.3       1 SER         0.0843
     14 OG         42.4620    5.3380  -21.2320 O.3       1 SER        -0.3903
     15 N          40.0190    6.8170  -21.6270 N.am      1 LYS        -0.2637
     16 CA         38.8120    6.8130  -22.4560 C.3       1 LYS         0.1310
     17 C          37.9800    8.0950  -22.2960 C.2       1 LYS         0.2039
     18 O          37.6240    8.7380  -23.2920 O.2       1 LYS        -0.3944
     19 CB         37.9450    5.5950  -22.1310 C.3       1 LYS        -0.0122
     20 CG         38.5690    4.2750  -22.5190 C.3       1 LYS        -0.0440
     21 CD         37.6700    3.1130  -22.1480 C.3       1 LYS        -0.0124
     22 CE         38.2910    1.7840  -22.5640 C.3       1 LYS        -0.0354
     23 NZ         37.4310    0.6250  -22.1840 N.4       1 LYS         0.2185
     24 N          37.6760    8.4530  -21.0460 N.am      1 LEU        -0.2637
     25 CA         36.9450    9.6820  -20.7410 C.3       1 LEU         0.1312
     26 C          37.5920   10.9130  -21.3680 C.2       1 LEU         0.2039
     27 O          36.9030   11.7540  -21.9540 O.2       1 LEU        -0.3944
     28 CB         36.8410    9.8870  -19.2270 C.3       1 LEU        -0.0101
     29 CG         35.9640    8.9440  -18.4030 C.3       1 LEU        -0.0425
     30 CD1        36.1670    9.2280  -16.9230 C.3       1 LEU        -0.0625
     31 CD2        34.5030    9.0890  -18.7950 C.3       1 LEU        -0.0625
     32 N          38.9150   11.0110  -21.2420 N.am      1 LEU        -0.2637
     33 CA         39.6580   12.1810  -21.7100 C.3       1 LEU         0.1312
     34 C          39.6120   12.3470  -23.2410 C.2       1 LEU         0.2040
     35 O          39.5510   13.4720  -23.7420 O.2       1 LEU        -0.3944
     36 CB         41.1160   12.1100  -21.2400 C.3       1 LEU        -0.0101
     37 CG         42.0210   13.3280  -21.4650 C.3       1 LEU        -0.0425
     38 CD1        43.0260   13.4390  -20.3350 C.3       1 LEU        -0.0625
     39 CD2        42.7380   13.2990  -22.8070 C.3       1 LEU        -0.0625
     40 N          39.6480   11.2430  -23.9850 N.am      1 SER        -0.2616
     41 CA         39.6040   11.3260  -25.4490 C.3       1 SER         0.1539
     42 C          38.1750   11.6080  -25.9130 C.2       1 SER         0.2062
     43 O          37.9430   12.3470  -26.8780 O.2       1 SER        -0.3943
     44 CB         40.1400   10.0410  -26.0840 C.3       1 SER         0.0843
     45 OG         41.4910    9.8120  -25.7060 O.3       1 SER        -0.3903
     46 N          37.2200   11.0270  -25.1950 N.am      1 LEU        -0.2636
     47 CA         35.8040   11.2670  -25.4330 C.3       1 LEU         0.1312
     48 C          35.4160   12.7390  -25.2100 C.2       1 LEU         0.2039
     49 O          34.4810   13.2420  -25.8420 O.2       1 LEU        -0.3944
     50 CB         34.9760   10.3490  -24.5360 C.3       1 LEU        -0.0101
     51 CG         33.4720   10.3470  -24.7610 C.3       1 LEU        -0.0425
     52 CD1        33.1460   10.2610  -26.2360 C.3       1 LEU        -0.0625
     53 CD2        32.8650    9.1790  -24.0120 C.3       1 LEU        -0.0625
     54 N          36.1380   13.4270  -24.3220 N.am      1 LEU        -0.2637
     55 CA         35.9090   14.8530  -24.0640 C.3       1 LEU         0.1312
     56 C          36.6170   15.7500  -25.0970 C.2       1 LEU         0.2039
     57 O          36.0880   16.7960  -25.4920 O.2       1 LEU        -0.3944
     58 CB         36.3600   15.2170  -22.6410 C.3       1 LEU        -0.0101
     59 CG         36.4360   16.7010  -22.2710 C.3       1 LEU        -0.0425
     60 CD1        35.0840   17.3770  -22.4130 C.3       1 LEU        -0.0625
     61 CD2        36.9690   16.8660  -20.8640 C.3       1 LEU        -0.0625
     62 N          37.8140   15.3430  -25.5170 N.am      1 ARG        -0.2637
     63 CA         38.5500   16.0380  -26.5740 C.3       1 ARG         0.1311
     64 C          37.7850   15.9340  -27.8870 C.2       1 ARG         0.2040
     65 O          37.7610   16.8690  -28.6900 O.2       1 ARG        -0.3944
     66 CB         39.9590   15.4590  -26.7300 C.3       1 ARG        -0.0092
     67 CG         40.8020   16.1460  -27.7980 C.3       1 ARG        -0.0156
     68 CD         42.2240   15.5710  -27.8550 C.3       1 ARG         0.0627
     69 NE         42.2400   14.1700  -28.2780 N.pl3     1 ARG        -0.2723
     70 CZ         42.1990   13.7690  -29.5460 C.cat     1 ARG         0.2882
     71 NH1        42.1370   14.6670  -30.5280 N.pl3     1 ARG        -0.2849
     72 NH2        42.2210   12.4710  -29.8340 N.pl3     1 ARG        -0.2849
     73 N          37.1670   14.7750  -28.0880 N.am      1 SER        -0.2616
     74 CA         36.2380   14.5470  -29.1830 C.3       1 SER         0.1539
     75 C          35.1450   15.6100  -29.2230 C.2       1 SER         0.2062
     76 O          34.7910   16.1110  -30.2880 O.2       1 SER        -0.3943
     77 CB         35.6160   13.1550  -29.0470 C.3       1 SER         0.0843
     78 OG         34.6710   12.9100  -30.0680 O.3       1 SER        -0.3903
     79 N          34.6170   15.9490  -28.0530 N.am      1 LYS        -0.2637
     80 CA         33.5530   16.9330  -27.9580 C.3       1 LYS         0.1309
     81 C          34.0080   18.3710  -27.9690 C.2       1 LYS         0.2034
     82 O          33.1960   19.2600  -28.0470 O.2       1 LYS        -0.3944
     83 CB         32.6590   16.6320  -26.7880 C.3       1 LYS        -0.0122
     84 CG         32.1240   15.2140  -26.7870 C.3       1 LYS        -0.0440
     85 CD         30.7750   15.1050  -27.4680 C.3       1 LYS        -0.0124
     86 CE         30.3590   13.6530  -27.5650 C.3       1 LYS        -0.0354
     87 NZ         29.2340   13.4290  -28.5030 N.4       1 LYS         0.2185
     88 N          35.3060   18.6090  -27.9230 N.am      1 THR        -0.2670
     89 CA         35.8190   19.9770  -28.0200 C.3       1 THR         0.1198
     90 C          36.5720   20.1880  -29.3210 C.2       1 THR         0.0626
     91 O          35.9850   20.5800  -30.3300 O.co2     1 THR        -0.5665
     92 CB         36.7480   20.3410  -26.8460 C.3       1 THR         0.0869
     93 OG1        35.9670   20.5000  -25.6590 O.3       1 THR        -0.3880
     94 CG2        37.4800   21.6540  -27.1260 C.3       1 THR        -0.0352
     95 OXT        37.7820   19.9710  -29.3890 O.co2     1 THR        -0.5665
     96 H1         40.0675    6.4951  -16.0586 H         1 ASN         0.2017
     97 H2         40.6995    5.9670  -17.4838 H         1 ASN         0.2017
     98 H3         39.2591    6.7636  -17.4670 H         1 ASN         0.2017
     99 H4         40.2664    8.7559  -16.7205 H         1 ASN         0.1125
    100 H5         42.9053    7.2747  -17.1040 H         1 ASN         0.0585
    101 H6         42.1174    7.5097  -15.5069 H         1 ASN         0.0585
    102 H7         44.7035   10.2019  -16.3714 H         1 ASN         0.1814
    103 H8         44.7376    8.4794  -16.5504 H         1 ASN         0.1814
    104 H9         41.9989    6.5908  -18.9651 H         1 SER         0.1885
    105 H10        42.6577    8.6659  -20.8140 H         1 SER         0.0823
    106 H11        43.9594    6.5766  -20.5463 H         1 SER         0.0606
    107 H12        43.4479    6.8350  -22.2488 H         1 SER         0.0606
    108 H13        43.0793    4.6750  -21.5181 H         1 SER         0.2097
    109 H14        40.1664    6.0711  -20.9774 H         1 LYS         0.1883
    110 H15        39.1274    6.7432  -23.5075 H         1 LYS         0.0800
    111 H16        36.9902    5.6971  -22.6675 H         1 LYS         0.0312
    112 H17        37.7572    5.5834  -21.0472 H         1 LYS         0.0312
    113 H18        39.5307    4.1655  -21.9964 H         1 LYS         0.0269
    114 H19        38.7389    4.2642  -23.6057 H         1 LYS         0.0269
    115 H20        36.7015    3.2316  -22.6559 H         1 LYS         0.0317
    116 H21        37.5152    3.1119  -21.0590 H         1 LYS         0.0317
    117 H22        39.2685    1.6783  -22.0708 H         1 LYS         0.0813
    118 H23        38.4288    1.7819  -23.6553 H         1 LYS         0.0813
    119 H24        37.8745   -0.2321  -22.4751 H         1 LYS         0.1994
    120 H25        36.5341    0.7096  -22.6362 H         1 LYS         0.1994
    121 H26        37.3036    0.6146  -21.1841 H         1 LYS         0.1994
    122 H27        37.9582    7.8597  -20.2921 H         1 LEU         0.1883
    123 H28        35.9292    9.5815  -21.1508 H         1 LEU         0.0800
    124 H29        36.4564   10.9050  -19.0666 H         1 LEU         0.0315
    125 H30        37.8611    9.8123  -18.8222 H         1 LEU         0.0315
    126 H31        36.2744    7.9084  -18.6060 H         1 LEU         0.0298
    127 H32        35.5362    8.5498  -16.3296 H         1 LEU         0.0232
    128 H33        35.8881   10.2701  -16.7080 H         1 LEU         0.0232
    129 H34        37.2234    9.0695  -16.6607 H         1 LEU         0.0232
    130 H35        34.3887    8.8778  -19.8685 H         1 LEU         0.0232
    131 H36        34.1672   10.1153  -18.5854 H         1 LEU         0.0232
    132 H37        33.8955    8.3788  -18.2149 H         1 LEU         0.0232
    133 H38        39.4166   10.2597  -20.8132 H         1 LEU         0.1883
    134 H39        39.1941   13.0720  -21.2617 H         1 LEU         0.0800
    135 H40        41.5826   11.2594  -21.7584 H         1 LEU         0.0315
    136 H41        41.0985   11.9149  -20.1576 H         1 LEU         0.0315
    137 H42        41.3840   14.2246  -21.4481 H         1 LEU         0.0298
    138 H43        43.6712   14.3140  -20.5028 H         1 LEU         0.0232
    139 H44        43.6433   12.5291  -20.3026 H         1 LEU         0.0232
    140 H45        42.4926   13.5545  -19.3799 H         1 LEU         0.0232
    141 H46        41.9977   13.2184  -23.6166 H         1 LEU         0.0232
    142 H47        43.4155   12.4331  -22.8422 H         1 LEU         0.0232
    143 H48        43.3191   14.2245  -22.9324 H         1 LEU         0.0232
    144 H49        39.7056   10.3487  -23.5413 H         1 SER         0.1884
    145 H50        40.2444   12.1611  -25.7691 H         1 SER         0.0823
    146 H51        40.0828   10.1296  -27.1789 H         1 SER         0.0606
    147 H52        39.5246    9.1918  -25.7522 H         1 SER         0.0606
    148 H53        41.5449    9.7312  -24.7609 H         1 SER         0.2097
    149 H54        37.4843   10.4001  -24.4621 H         1 LEU         0.1883
    150 H55        35.5866   11.0163  -26.4817 H         1 LEU         0.0800
    151 H56        35.1564   10.6507  -23.4937 H         1 LEU         0.0315
    152 H57        35.3368    9.3210  -24.6879 H         1 LEU         0.0315
    153 H58        33.0517   11.2828  -24.3640 H         1 LEU         0.0298
    154 H59        32.0543   10.2613  -26.3708 H         1 LEU         0.0232
    155 H60        33.5664    9.3331  -26.6510 H         1 LEU         0.0232
    156 H61        33.5801   11.1261  -26.7585 H         1 LEU         0.0232
    157 H62        33.1131    9.2599  -22.9434 H         1 LEU         0.0232
    158 H63        33.2689    8.2372  -24.4118 H         1 LEU         0.0232
    159 H64        31.7722    9.1915  -24.1367 H         1 LEU         0.0232
    160 H65        36.8592   12.9542  -23.8157 H         1 LEU         0.1883
    161 H66        34.8277   15.0401  -24.1400 H         1 LEU         0.0800
    162 H67        37.3641   14.7916  -22.4967 H         1 LEU         0.0315
    163 H68        35.6562   14.7409  -21.9424 H         1 LEU         0.0315
    164 H69        37.1361   17.1905  -22.9640 H         1 LEU         0.0298
    165 H70        35.1745   18.4388  -22.1402 H         1 LEU         0.0232
    166 H71        34.3578   16.8880  -21.7471 H         1 LEU         0.0232
    167 H72        34.7402   17.2941  -23.4546 H         1 LEU         0.0232
    168 H73        37.9475   16.3701  -20.7821 H         1 LEU         0.0232
    169 H74        36.2666   16.4112  -20.1501 H         1 LEU         0.0232
    170 H75        37.0804   17.9366  -20.6373 H         1 LEU         0.0232
    171 H76        38.2240   14.5343  -25.0953 H         1 ARG         0.1883
    172 H77        38.6380   17.0998  -26.3003 H         1 ARG         0.0800
    173 H78        39.8675   14.3952  -26.9943 H         1 ARG         0.0313
    174 H79        40.4797   15.5539  -25.7657 H         1 ARG         0.0313
    175 H80        40.8608   17.2204  -27.5694 H         1 ARG         0.0301
    176 H81        40.3210   16.0052  -28.7772 H         1 ARG         0.0301
    177 H82        42.6753   15.6436  -26.8545 H         1 ARG         0.0689
    178 H83        42.8165   16.1626  -28.5684 H         1 ARG         0.0689
    179 H84        42.2860   13.4469  -27.5459 H         1 ARG         0.2642
    180 H85        42.1053   14.3557  -31.5093 H         1 ARG         0.2615
    181 H86        42.1208   15.6727  -30.3060 H         1 ARG         0.2615
    182 H87        42.2689   11.7759  -29.0754 H         1 ARG         0.2615
    183 H88        42.1901   12.1607  -30.8157 H         1 ARG         0.2615
    184 H89        37.3498   14.0227  -27.4551 H         1 SER         0.1884
    185 H90        36.7980   14.5919  -30.1287 H         1 SER         0.0823
    186 H91        35.1150   13.0809  -28.0706 H         1 SER         0.0606
    187 H92        36.4130   12.3994  -29.1085 H         1 SER         0.0606
    188 H93        34.3040   12.0409  -29.9564 H         1 SER         0.2097
    189 H94        34.9595   15.5172  -27.2186 H         1 LYS         0.1883
    190 H95        32.9406   16.8068  -28.8630 H         1 LYS         0.0800
    191 H96        31.8061   17.3262  -26.8135 H         1 LYS         0.0312
    192 H97        33.2319   16.7889  -25.8622 H         1 LYS         0.0312
    193 H98        32.0221   14.8756  -25.7453 H         1 LYS         0.0269
    194 H99        32.8394   14.5662  -27.3147 H         1 LYS         0.0269
    195 H100       30.8419   15.5329  -28.4791 H         1 LYS         0.0317
    196 H101       30.0262   15.6600  -26.8838 H         1 LYS         0.0317
    197 H102       30.0544   13.3092  -26.5655 H         1 LYS         0.0813
    198 H103       31.2225   13.0642  -27.9080 H         1 LYS         0.0813
    199 H104       29.0042   12.4478  -28.5239 H         1 LYS         0.1994
    200 H105       29.5014   13.7311  -29.4267 H         1 LYS         0.1994
    201 H106       28.4310   13.9556  -28.1965 H         1 LYS         0.1994
    202 H107       35.9454   17.8469  -27.8208 H         1 THR         0.1876
    203 H108       34.9573   20.6604  -28.0012 H         1 THR         0.0752
    204 H109       37.4833   19.5358  -26.7012 H         1 THR         0.0632
    205 H110       36.5377   20.7245  -24.9335 H         1 THR         0.2100
    206 H111       38.1369   21.8957  -26.2774 H         1 THR         0.0256
    207 H112       36.7455   22.4614  -27.2627 H         1 THR         0.0256
    208 H113       38.0842   21.5495  -28.0392 H         1 THR         0.0256
@<TRIPOS>BOND
     1    1    2 1  
     2    2    3 1  
     3    2    5 1  
     4    3    4 2  
     5    3    9 am 
     6    5    6 1  
     7    6    7 2  
     8    6    8 am 
     9    9   10 1  
    10   10   11 1  
    11   10   13 1  
    12   11   12 2  
    13   11   15 am 
    14   13   14 1  
    15   15   16 1  
    16   16   17 1  
    17   16   19 1  
    18   17   18 2  
    19   17   24 am 
    20   19   20 1  
    21   20   21 1  
    22   21   22 1  
    23   22   23 1  
    24   24   25 1  
    25   25   26 1  
    26   25   28 1  
    27   26   27 2  
    28   26   32 am 
    29   28   29 1  
    30   29   30 1  
    31   29   31 1  
    32   32   33 1  
    33   33   34 1  
    34   33   36 1  
    35   34   35 2  
    36   34   40 am 
    37   36   37 1  
    38   37   38 1  
    39   37   39 1  
    40   40   41 1  
    41   41   42 1  
    42   41   44 1  
    43   42   43 2  
    44   42   46 am 
    45   44   45 1  
    46   46   47 1  
    47   47   48 1  
    48   47   50 1  
    49   48   49 2  
    50   48   54 am 
    51   50   51 1  
    52   51   52 1  
    53   51   53 1  
    54   54   55 1  
    55   55   56 1  
    56   55   58 1  
    57   56   57 2  
    58   56   62 am 
    59   58   59 1  
    60   59   60 1  
    61   59   61 1  
    62   62   63 1  
    63   63   64 1  
    64   63   66 1  
    65   64   65 2  
    66   64   73 am 
    67   66   67 1  
    68   67   68 1  
    69   68   69 1  
    70   69   70 ar 
    71   70   71 ar 
    72   70   72 ar 
    73   73   74 1  
    74   74   75 1  
    75   74   77 1  
    76   75   76 2  
    77   75   79 am 
    78   77   78 1  
    79   79   80 1  
    80   80   81 1  
    81   80   83 1  
    82   81   82 2  
    83   81   88 am 
    84   83   84 1  
    85   84   85 1  
    86   85   86 1  
    87   86   87 1  
    88   88   89 1  
    89   89   90 1  
    90   89   92 1  
    91   90   91 ar 
    92   90   95 ar 
    93   92   93 1  
    94   92   94 1  
    95    1   96 1  
    96    1   97 1  
    97    1   98 1  
    98    2   99 1  
    99    5  100 1  
   100    5  101 1  
   101    8  102 1  
   102    8  103 1  
   103    9  104 1  
   104   10  105 1  
   105   13  106 1  
   106   13  107 1  
   107   14  108 1  
   108   15  109 1  
   109   16  110 1  
   110   19  111 1  
   111   19  112 1  
   112   20  113 1  
   113   20  114 1  
   114   21  115 1  
   115   21  116 1  
   116   22  117 1  
   117   22  118 1  
   118   23  119 1  
   119   23  120 1  
   120   23  121 1  
   121   24  122 1  
   122   25  123 1  
   123   28  124 1  
   124   28  125 1  
   125   29  126 1  
   126   30  127 1  
   127   30  128 1  
   128   30  129 1  
   129   31  130 1  
   130   31  131 1  
   131   31  132 1  
   132   32  133 1  
   133   33  134 1  
   134   36  135 1  
   135   36  136 1  
   136   37  137 1  
   137   38  138 1  
   138   38  139 1  
   139   38  140 1  
   140   39  141 1  
   141   39  142 1  
   142   39  143 1  
   143   40  144 1  
   144   41  145 1  
   145   44  146 1  
   146   44  147 1  
   147   45  148 1  
   148   46  149 1  
   149   47  150 1  
   150   50  151 1  
   151   50  152 1  
   152   51  153 1  
   153   52  154 1  
   154   52  155 1  
   155   52  156 1  
   156   53  157 1  
   157   53  158 1  
   158   53  159 1  
   159   54  160 1  
   160   55  161 1  
   161   58  162 1  
   162   58  163 1  
   163   59  164 1  
   164   60  165 1  
   165   60  166 1  
   166   60  167 1  
   167   61  168 1  
   168   61  169 1  
   169   61  170 1  
   170   62  171 1  
   171   63  172 1  
   172   66  173 1  
   173   66  174 1  
   174   67  175 1  
   175   67  176 1  
   176   68  177 1  
   177   68  178 1  
   178   69  179 1  
   179   71  180 1  
   180   71  181 1  
   181   72  182 1  
   182   72  183 1  
   183   73  184 1  
   184   74  185 1  
   185   77  186 1  
   186   77  187 1  
   187   78  188 1  
   188   79  189 1  
   189   80  190 1  
   190   83  191 1  
   191   83  192 1  
   192   84  193 1  
   193   84  194 1  
   194   85  195 1  
   195   85  196 1  
   196   86  197 1  
   197   86  198 1  
   198   87  199 1  
   199   87  200 1  
   200   87  201 1  
   201   88  202 1  
   202   89  203 1  
   203   92  204 1  
   204   93  205 1  
   205   94  206 1  
   206   94  207 1  
   207   94  208 1  
@<TRIPOS>SUBSTRUCTURE
     1 ASN         1

