5y59_ligand
  -I-interpret- 

208207  0  0  0  0  0  0  0  0999 V2000
   40.1700    6.7010  -17.0400 N   0  3  0  0  0
   40.8710    7.9720  -17.2000 C   0  0  0  0  0
   41.0580    8.3410  -18.6650 C   0  0  0  0  0
   40.6030    9.3920  -19.1240 O   0  0  0  0  0
   42.2420    7.9270  -16.5170 C   0  0  0  0  0
   42.8900    9.2980  -16.3990 C   0  0  0  0  0
   42.2060   10.3160  -16.2740 O   0  0  0  0  0
   44.2210    9.3290  -16.4440 N   0  0  0  0  0
   41.7410    7.4590  -19.3890 N   0  0  0  0  0
   42.1310    7.7010  -20.7740 C   0  0  0  0  0
   40.9260    7.7890  -21.7160 C   0  0  0  0  0
   40.8200    8.7280  -22.5040 O   0  0  0  0  0
   43.0990    6.6060  -21.2310 C   0  0  0  0  0
   42.4620    5.3380  -21.2320 O   0  0  0  0  0
   40.0190    6.8170  -21.6270 N   0  0  0  0  0
   38.8120    6.8130  -22.4560 C   0  0  0  0  0
   37.9800    8.0950  -22.2960 C   0  0  0  0  0
   37.6240    8.7380  -23.2920 O   0  0  0  0  0
   37.9450    5.5950  -22.1310 C   0  0  0  0  0
   38.5690    4.2750  -22.5190 C   0  0  0  0  0
   37.6700    3.1130  -22.1480 C   0  0  0  0  0
   38.2910    1.7840  -22.5640 C   0  0  0  0  0
   37.4310    0.6250  -22.1840 N   0  3  0  0  0
   37.6760    8.4530  -21.0460 N   0  0  0  0  0
   36.9450    9.6820  -20.7410 C   0  0  0  0  0
   37.5920   10.9130  -21.3680 C   0  0  0  0  0
   36.9030   11.7540  -21.9540 O   0  0  0  0  0
   36.8410    9.8870  -19.2270 C   0  0  0  0  0
   35.9640    8.9440  -18.4030 C   0  0  0  0  0
   36.1670    9.2280  -16.9230 C   0  0  0  0  0
   34.5030    9.0890  -18.7950 C   0  0  0  0  0
   38.9150   11.0110  -21.2420 N   0  0  0  0  0
   39.6580   12.1810  -21.7100 C   0  0  0  0  0
   39.6120   12.3470  -23.2410 C   0  0  0  0  0
   39.5510   13.4720  -23.7420 O   0  0  0  0  0
   41.1160   12.1100  -21.2400 C   0  0  0  0  0
   42.0210   13.3280  -21.4650 C   0  0  0  0  0
   43.0260   13.4390  -20.3350 C   0  0  0  0  0
   42.7380   13.2990  -22.8070 C   0  0  0  0  0
   39.6480   11.2430  -23.9850 N   0  0  0  0  0
   39.6040   11.3260  -25.4490 C   0  0  0  0  0
   38.1750   11.6080  -25.9130 C   0  0  0  0  0
   37.9430   12.3470  -26.8780 O   0  0  0  0  0
   40.1400   10.0410  -26.0840 C   0  0  0  0  0
   41.4910    9.8120  -25.7060 O   0  0  0  0  0
   37.2200   11.0270  -25.1950 N   0  0  0  0  0
   35.8040   11.2670  -25.4330 C   0  0  0  0  0
   35.4160   12.7390  -25.2100 C   0  0  0  0  0
   34.4810   13.2420  -25.8420 O   0  0  0  0  0
   34.9760   10.3490  -24.5360 C   0  0  0  0  0
   33.4720   10.3470  -24.7610 C   0  0  0  0  0
   33.1460   10.2610  -26.2360 C   0  0  0  0  0
   32.8650    9.1790  -24.0120 C   0  0  0  0  0
   36.1380   13.4270  -24.3220 N   0  0  0  0  0
   35.9090   14.8530  -24.0640 C   0  0  0  0  0
   36.6170   15.7500  -25.0970 C   0  0  0  0  0
   36.0880   16.7960  -25.4920 O   0  0  0  0  0
   36.3600   15.2170  -22.6410 C   0  0  0  0  0
   36.4360   16.7010  -22.2710 C   0  0  0  0  0
   35.0840   17.3770  -22.4130 C   0  0  0  0  0
   36.9690   16.8660  -20.8640 C   0  0  0  0  0
   37.8140   15.3430  -25.5170 N   0  0  0  0  0
   38.5500   16.0380  -26.5740 C   0  0  0  0  0
   37.7850   15.9340  -27.8870 C   0  0  0  0  0
   37.7610   16.8690  -28.6900 O   0  0  0  0  0
   39.9590   15.4590  -26.7300 C   0  0  0  0  0
   40.8020   16.1460  -27.7980 C   0  0  0  0  0
   42.2240   15.5710  -27.8550 C   0  0  0  0  0
   42.2400   14.1700  -28.2780 N   0  0  0  0  0
   42.1990   13.7690  -29.5460 C   0  0  0  0  0
   42.1370   14.6670  -30.5280 N   0  0  0  0  0
   42.2210   12.4710  -29.8340 N   0  0  0  0  0
   37.1670   14.7750  -28.0880 N   0  0  0  0  0
   36.2380   14.5470  -29.1830 C   0  0  0  0  0
   35.1450   15.6100  -29.2230 C   0  0  0  0  0
   34.7910   16.1110  -30.2880 O   0  0  0  0  0
   35.6160   13.1550  -29.0470 C   0  0  0  0  0
   34.6710   12.9100  -30.0680 O   0  0  0  0  0
   34.6170   15.9490  -28.0530 N   0  0  0  0  0
   33.5530   16.9330  -27.9580 C   0  0  0  0  0
   34.0080   18.3710  -27.9690 C   0  0  0  0  0
   33.1960   19.2600  -28.0470 O   0  0  0  0  0
   32.6590   16.6320  -26.7880 C   0  0  0  0  0
   32.1240   15.2140  -26.7870 C   0  0  0  0  0
   30.7750   15.1050  -27.4680 C   0  0  0  0  0
   30.3590   13.6530  -27.5650 C   0  0  0  0  0
   29.2340   13.4290  -28.5030 N   0  3  0  0  0
   35.3060   18.6090  -27.9230 N   0  0  0  0  0
   35.8190   19.9770  -28.0200 C   0  0  0  0  0
   36.5720   20.1880  -29.3210 C   0  0  0  0  0
   35.9850   20.5800  -30.3300 O   0  0  0  0  0
   36.7480   20.3410  -26.8460 C   0  0  0  0  0
   35.9670   20.5000  -25.6590 O   0  0  0  0  0
   37.4800   21.6540  -27.1260 C   0  0  0  0  0
   37.7820   19.9710  -29.3890 O   0  0  0  0  0
   39.2620    6.7544  -17.5016 H   0  0  0  0  0
   40.7229    5.9539  -17.4601 H   0  0  0  0  0
   40.0371    6.5100  -16.0469 H   0  0  0  0  0
   40.2488    8.7329  -16.7288 H   0  0  0  0  0
   42.8959    7.3009  -17.1241 H   0  0  0  0  0
   42.0989    7.5386  -15.5087 H   0  0  0  0  0
   44.7131   10.2197  -16.3740 H   0  0  0  0  0
   44.7481    8.4620  -16.5485 H   0  0  0  0  0
   42.0041    6.5734  -18.9566 H   0  0  0  0  0
   42.6274    8.6705  -20.8163 H   0  0  0  0  0
   43.9437    6.5742  -20.5428 H   0  0  0  0  0
   43.4326    6.8323  -22.2437 H   0  0  0  0  0
   43.0858    4.6680  -21.5211 H   0  0  0  0  0
   40.1693    6.0562  -20.9644 H   0  0  0  0  0
   39.1453    6.7649  -23.4927 H   0  0  0  0  0
   37.0207    5.6952  -22.6999 H   0  0  0  0  0
   37.8014    5.5795  -21.0506 H   0  0  0  0  0
   39.5140    4.1673  -21.9865 H   0  0  0  0  0
   38.7209    4.2662  -23.5983 H   0  0  0  0  0
   36.7175    3.2300  -22.6650 H   0  0  0  0  0
   37.5318    3.1102  -21.0668 H   0  0  0  0  0
   39.2492    1.6801  -22.0549 H   0  0  0  0  0
   38.4049    1.7843  -23.6480 H   0  0  0  0  0
   37.8807   -0.2417  -22.4790 H   0  0  0  0  0
   37.3028    0.6156  -21.1721 H   0  0  0  0  0
   36.5238    0.7117  -22.6421 H   0  0  0  0  0
   37.9638    7.8479  -20.2770 H   0  0  0  0  0
   35.9498    9.5654  -21.1700 H   0  0  0  0  0
   36.3811   10.8683  -19.1099 H   0  0  0  0  0
   37.8521    9.7240  -18.8539 H   0  0  0  0  0
   36.2555    7.9134  -18.6052 H   0  0  0  0  0
   37.2141    9.0706  -16.6644 H   0  0  0  0  0
   35.8904   10.2608  -16.7113 H   0  0  0  0  0
   35.5415    8.5554  -16.3361 H   0  0  0  0  0
   34.1808   10.1152  -18.6181 H   0  0  0  0  0
   34.3858    8.8470  -19.8513 H   0  0  0  0  0
   33.8981    8.4085  -18.1957 H   0  0  0  0  0
   39.4267   10.2446  -20.8046 H   0  0  0  0  0
   39.1699   13.0536  -21.2759 H   0  0  0  0  0
   41.5653   11.3100  -21.8284 H   0  0  0  0  0
   41.0600   11.9941  -20.1576 H   0  0  0  0  0
   41.3754   14.2061  -21.4769 H   0  0  0  0  0
   42.4963   13.5534  -19.3893 H   0  0  0  0  0
   43.6370   12.5369  -20.3039 H   0  0  0  0  0
   43.6647   14.3063  -20.5024 H   0  0  0  0  0
   43.3626   12.4075  -22.8646 H   0  0  0  0  0
   42.0017   13.2809  -23.6105 H   0  0  0  0  0
   43.3614   14.1879  -22.9037 H   0  0  0  0  0
   39.7067   10.3308  -23.5325 H   0  0  0  0  0
   40.2439   12.1474  -25.7715 H   0  0  0  0  0
   40.0920   10.1401  -27.1684 H   0  0  0  0  0
   39.5338    9.2022  -25.7417 H   0  0  0  0  0
   41.8039    9.0023  -26.1159 H   0  0  0  0  0
   37.4896   10.3875  -24.4475 H   0  0  0  0  0
   35.5956   11.0440  -26.4794 H   0  0  0  0  0
   35.1263   10.7092  -23.5183 H   0  0  0  0  0
   35.3128    9.3352  -24.7523 H   0  0  0  0  0
   33.0514   11.2800  -24.3859 H   0  0  0  0  0
   33.5768   11.1187  -26.7526 H   0  0  0  0  0
   33.5632    9.3412  -26.6460 H   0  0  0  0  0
   32.0641   10.2613  -26.3683 H   0  0  0  0  0
   33.2947    8.2484  -24.3828 H   0  0  0  0  0
   33.0787    9.2808  -22.9480 H   0  0  0  0  0
   31.7863    9.1701  -24.1680 H   0  0  0  0  0
   36.8736   12.9448  -23.8056 H   0  0  0  0  0
   34.8381   15.0329  -24.1579 H   0  0  0  0  0
   37.3808   14.8443  -22.5561 H   0  0  0  0  0
   35.6051   14.7916  -21.9798 H   0  0  0  0  0
   37.1227   17.1855  -22.9652 H   0  0  0  0  0
   34.7444   17.2941  -23.4454 H   0  0  0  0  0
   34.3653   16.8915  -21.7527 H   0  0  0  0  0
   35.1750   18.4290  -22.1424 H   0  0  0  0  0
   36.3060   16.3579  -20.1638 H   0  0  0  0  0
   37.9669   16.4319  -20.8016 H   0  0  0  0  0
   37.0166   17.9266  -20.6169 H   0  0  0  0  0
   38.2322   14.5181  -25.0868 H   0  0  0  0  0
   38.6469   17.0882  -26.2985 H   0  0  0  0  0
   39.8472   14.4170  -27.0296 H   0  0  0  0  0
   40.4709   15.5976  -25.7777 H   0  0  0  0  0
   40.8696   17.2060  -27.5532 H   0  0  0  0  0
   40.3275   15.9856  -28.7661 H   0  0  0  0  0
   42.6518   15.6270  -26.8540 H   0  0  0  0  0
   42.7941   16.1501  -28.5814 H   0  0  0  0  0
   42.2856   13.4539  -27.5531 H   0  0  0  0  0
   42.1064   14.3587  -31.4998 H   0  0  0  0  0
   42.1201   15.6629  -30.3081 H   0  0  0  0  0
   42.2693   11.7827  -29.0828 H   0  0  0  0  0
   37.3535   14.0076  -27.4424 H   0  0  0  0  0
   36.7933   14.6108  -30.1188 H   0  0  0  0  0
   35.1083   13.0956  -28.0843 H   0  0  0  0  0
   36.4099   12.4123  -29.1251 H   0  0  0  0  0
   34.3001   12.0317  -29.9552 H   0  0  0  0  0
   34.9664   15.5086  -27.2019 H   0  0  0  0  0
   32.9793   16.8343  -28.8795 H   0  0  0  0  0
   31.8039   17.3053  -26.8467 H   0  0  0  0  0
   33.2505   16.7602  -25.8815 H   0  0  0  0  0
   32.0047   14.8994  -25.7502 H   0  0  0  0  0
   32.8290   14.5872  -27.3331 H   0  0  0  0  0
   30.8450   15.5254  -28.4712 H   0  0  0  0  0
   30.0340   15.6518  -26.8849 H   0  0  0  0  0
   30.0312   13.3367  -26.5748 H   0  0  0  0  0
   31.2148   13.0884  -27.9351 H   0  0  0  0  0
   29.0024   12.4358  -28.5233 H   0  0  0  0  0
   28.4221   13.9624  -28.1919 H   0  0  0  0  0
   29.5058   13.7351  -29.4373 H   0  0  0  0  0
   35.9582   17.8317  -27.8188 H   0  0  0  0  0
   34.9460   20.6288  -27.9864 H   0  0  0  0  0
   35.0548   20.7059  -30.1291 H   0  0  0  0  0
   37.4785   19.5417  -26.7208 H   0  0  0  0  0
   36.5437   20.7269  -24.9258 H   0  0  0  0  0
   38.0782   21.5491  -28.0311 H   0  0  0  0  0
   36.7512   22.4531  -27.2613 H   0  0  0  0  0
   38.1305   21.8924  -26.2845 H   0  0  0  0  0
  1  2  1  0  0  0
  2  3  1  0  0  0
  2  5  1  0  0  0
  3  4  2  0  0  0
  3  9  1  0  0  0
  5  6  1  0  0  0
  6  7  2  0  0  0
  6  8  1  0  0  0
  9 10  1  0  0  0
 10 11  1  0  0  0
 10 13  1  0  0  0
 11 12  2  0  0  0
 11 15  1  0  0  0
 13 14  1  0  0  0
 15 16  1  0  0  0
 16 17  1  0  0  0
 16 19  1  0  0  0
 17 18  2  0  0  0
 17 24  1  0  0  0
 19 20  1  0  0  0
 20 21  1  0  0  0
 21 22  1  0  0  0
 22 23  1  0  0  0
 24 25  1  0  0  0
 25 26  1  0  0  0
 25 28  1  0  0  0
 26 27  2  0  0  0
 26 32  1  0  0  0
 28 29  1  0  0  0
 29 30  1  0  0  0
 29 31  1  0  0  0
 32 33  1  0  0  0
 33 34  1  0  0  0
 33 36  1  0  0  0
 34 35  2  0  0  0
 34 40  1  0  0  0
 36 37  1  0  0  0
 37 38  1  0  0  0
 37 39  1  0  0  0
 40 41  1  0  0  0
 41 42  1  0  0  0
 41 44  1  0  0  0
 42 43  2  0  0  0
 42 46  1  0  0  0
 44 45  1  0  0  0
 46 47  1  0  0  0
 47 48  1  0  0  0
 47 50  1  0  0  0
 48 49  2  0  0  0
 48 54  1  0  0  0
 50 51  1  0  0  0
 51 52  1  0  0  0
 51 53  1  0  0  0
 54 55  1  0  0  0
 55 56  1  0  0  0
 55 58  1  0  0  0
 56 57  2  0  0  0
 56 62  1  0  0  0
 58 59  1  0  0  0
 59 60  1  0  0  0
 59 61  1  0  0  0
 62 63  1  0  0  0
 63 64  1  0  0  0
 63 66  1  0  0  0
 64 65  2  0  0  0
 64 73  1  0  0  0
 66 67  1  0  0  0
 67 68  1  0  0  0
 68 69  1  0  0  0
 69 70  1  0  0  0
 70 71  1  0  0  0
 70 72  2  0  0  0
 73 74  1  0  0  0
 74 75  1  0  0  0
 74 77  1  0  0  0
 75 76  2  0  0  0
 75 79  1  0  0  0
 77 78  1  0  0  0
 79 80  1  0  0  0
 80 81  1  0  0  0
 80 83  1  0  0  0
 81 82  2  0  0  0
 81 88  1  0  0  0
 83 84  1  0  0  0
 84 85  1  0  0  0
 85 86  1  0  0  0
 86 87  1  0  0  0
 88 89  1  0  0  0
 89 90  1  0  0  0
 89 92  1  0  0  0
 90 91  1  0  0  0
 90 95  2  0  0  0
 92 93  1  0  0  0
 92 94  1  0  0  0
  1 96  1  0  0  0
  1 97  1  0  0  0
  1 98  1  0  0  0
  2 99  1  0  0  0
  5100  1  0  0  0
  5101  1  0  0  0
  8102  1  0  0  0
  8103  1  0  0  0
  9104  1  0  0  0
 10105  1  0  0  0
 13106  1  0  0  0
 13107  1  0  0  0
 14108  1  0  0  0
 15109  1  0  0  0
 16110  1  0  0  0
 19111  1  0  0  0
 19112  1  0  0  0
 20113  1  0  0  0
 20114  1  0  0  0
 21115  1  0  0  0
 21116  1  0  0  0
 22117  1  0  0  0
 22118  1  0  0  0
 23119  1  0  0  0
 23120  1  0  0  0
 23121  1  0  0  0
 24122  1  0  0  0
 25123  1  0  0  0
 28124  1  0  0  0
 28125  1  0  0  0
 29126  1  0  0  0
 30127  1  0  0  0
 30128  1  0  0  0
 30129  1  0  0  0
 31130  1  0  0  0
 31131  1  0  0  0
 31132  1  0  0  0
 32133  1  0  0  0
 33134  1  0  0  0
 36135  1  0  0  0
 36136  1  0  0  0
 37137  1  0  0  0
 38138  1  0  0  0
 38139  1  0  0  0
 38140  1  0  0  0
 39141  1  0  0  0
 39142  1  0  0  0
 39143  1  0  0  0
 40144  1  0  0  0
 41145  1  0  0  0
 44146  1  0  0  0
 44147  1  0  0  0
 45148  1  0  0  0
 46149  1  0  0  0
 47150  1  0  0  0
 50151  1  0  0  0
 50152  1  0  0  0
 51153  1  0  0  0
 52154  1  0  0  0
 52155  1  0  0  0
 52156  1  0  0  0
 53157  1  0  0  0
 53158  1  0  0  0
 53159  1  0  0  0
 54160  1  0  0  0
 55161  1  0  0  0
 58162  1  0  0  0
 58163  1  0  0  0
 59164  1  0  0  0
 60165  1  0  0  0
 60166  1  0  0  0
 60167  1  0  0  0
 61168  1  0  0  0
 61169  1  0  0  0
 61170  1  0  0  0
 62171  1  0  0  0
 63172  1  0  0  0
 66173  1  0  0  0
 66174  1  0  0  0
 67175  1  0  0  0
 67176  1  0  0  0
 68177  1  0  0  0
 68178  1  0  0  0
 69179  1  0  0  0
 71180  1  0  0  0
 71181  1  0  0  0
 72182  1  0  0  0
 73183  1  0  0  0
 74184  1  0  0  0
 77185  1  0  0  0
 77186  1  0  0  0
 78187  1  0  0  0
 79188  1  0  0  0
 80189  1  0  0  0
 83190  1  0  0  0
 83191  1  0  0  0
 84192  1  0  0  0
 84193  1  0  0  0
 85194  1  0  0  0
 85195  1  0  0  0
 86196  1  0  0  0
 86197  1  0  0  0
 87198  1  0  0  0
 87199  1  0  0  0
 87200  1  0  0  0
 88201  1  0  0  0
 89202  1  0  0  0
 91203  1  0  0  0
 92204  1  0  0  0
 93205  1  0  0  0
 94206  1  0  0  0
 94207  1  0  0  0
 94208  1  0  0  0
M  END
$$$$
