6b8u_ligand
  -I-interpret- 

 52 55  0  0  0  0  0  0  0  0999 V2000
  -25.6480    3.8070  -10.9300 C   0  0  0  0  0
  -24.7520    4.0230   -9.8610 C   0  0  0  0  0
  -25.0310    3.4820   -8.6000 C   0  0  0  0  0
  -26.9260    0.8900   -4.6100 C   0  0  0  0  0
  -27.3560    0.2910   -3.4370 C   0  0  0  0  0
  -27.6480    1.0700   -2.3260 C   0  0  0  0  0
  -27.5220    2.4550   -2.3810 C   0  0  0  0  0
  -27.0920    3.0520   -3.5660 C   0  0  0  0  0
  -25.5220    4.4890  -12.2690 C   0  0  0  0  0
  -23.5040    4.8120  -10.0370 C   0  0  0  0  0
  -23.5620    6.1470  -10.2770 C   0  0  0  0  0
  -21.1270    6.2420  -10.5450 C   0  0  0  0  0
  -21.0410    4.8560  -10.2570 C   0  0  0  0  0
  -22.1870    4.1620  -10.0060 C   0  0  0  0  0
  -22.2220    8.1780  -10.8090 C   0  0  0  0  0
  -20.8840    8.3120  -10.9960 C   0  0  0  0  0
  -20.6940   10.7490  -11.3870 C   0  0  0  0  0
  -19.6990   11.8160  -11.7310 C   0  0  0  0  0
  -27.8730    3.3030   -1.2000 C   0  0  0  0  0
  -26.1870    2.7400   -8.3830 C   0  0  0  0  0
  -27.0400    2.4900   -9.4420 C   0  0  0  0  0
  -26.7610    3.0070  -10.6920 C   0  0  0  0  0
  -26.5700    2.3180   -7.0850 N   0  0  0  0  0
  -26.3070    2.9550   -5.9180 C   0  0  0  0  0
  -26.7930    2.2760   -4.6830 C   0  0  0  0  0
  -25.7000    4.0200   -5.8490 O   0  0  0  0  0
  -22.3970    6.8480  -10.5270 N   0  0  0  0  0
  -20.1880    7.1360  -10.8510 N   0  0  0  0  0
  -20.1840    9.4860  -11.2790 N   0  0  0  0  0
  -21.8800   10.9970  -11.1970 O   0  0  0  0  0
  -28.1000    2.5860   -0.1030 F   0  0  0  0  0
  -28.9640    4.0550   -1.3930 F   0  0  0  0  0
  -26.9190    4.1650   -0.8910 F   0  0  0  0  0
  -24.3335    3.6444   -7.7783 H   0  0  0  0  0
  -26.6908    0.2754   -5.4790 H   0  0  0  0  0
  -27.4650   -0.7924   -3.3867 H   0  0  0  0  0
  -27.9786    0.5934   -1.4032 H   0  0  0  0  0
  -26.9891    4.1359   -3.6182 H   0  0  0  0  0
  -25.5828    5.5687  -12.1325 H   0  0  0  0  0
  -24.5625    4.2316  -12.7175 H   0  0  0  0  0
  -26.3300    4.1579  -12.9214 H   0  0  0  0  0
  -24.5219    6.6633  -10.2726 H   0  0  0  0  0
  -20.0738    4.3537  -10.2367 H   0  0  0  0  0
  -22.1246    3.0982   -9.7766 H   0  0  0  0  0
  -22.9855    8.9536  -10.8695 H   0  0  0  0  0
  -19.9961   12.3021  -12.6603 H   0  0  0  0  0
  -19.6662   12.5528  -10.9284 H   0  0  0  0  0
  -18.7137   11.3663  -11.8536 H   0  0  0  0  0
  -27.9335    1.8844   -9.2903 H   0  0  0  0  0
  -27.4345    2.7809  -11.5186 H   0  0  0  0  0
  -27.0968    1.4468   -7.0231 H   0  0  0  0  0
  -19.1785    9.3903  -11.4212 H   0  0  0  0  0
  2  1  4  0  0  0
  1  9  1  0  0  0
 22  1  4  0  0  0
  3  2  4  0  0  0
  2 10  1  0  0  0
 20  3  4  0  0  0
  4  5  4  0  0  0
 25  4  4  0  0  0
  5  6  4  0  0  0
  7  6  4  0  0  0
  8  7  4  0  0  0
  7 19  1  0  0  0
 25  8  4  0  0  0
 10 11  4  0  0  0
 10 14  4  0  0  0
 11 27  4  0  0  0
 13 12  4  0  0  0
 27 12  4  0  0  0
 12 28  4  0  0  0
 14 13  4  0  0  0
 15 16  4  0  0  0
 27 15  4  0  0  0
 28 16  4  0  0  0
 16 29  1  0  0  0
 17 18  1  0  0  0
 29 17  1  0  0  0
 17 30  2  0  0  0
 19 31  1  0  0  0
 19 32  1  0  0  0
 19 33  1  0  0  0
 20 21  4  0  0  0
 23 20  1  0  0  0
 21 22  4  0  0  0
 24 23  1  0  0  0
 24 25  1  0  0  0
 24 26  2  0  0  0
  3 34  1  0  0  0
  4 35  1  0  0  0
  5 36  1  0  0  0
  6 37  1  0  0  0
  8 38  1  0  0  0
  9 39  1  0  0  0
  9 40  1  0  0  0
  9 41  1  0  0  0
 11 42  1  0  0  0
 13 43  1  0  0  0
 14 44  1  0  0  0
 15 45  1  0  0  0
 18 46  1  0  0  0
 18 47  1  0  0  0
 18 48  1  0  0  0
 21 49  1  0  0  0
 22 50  1  0  0  0
 23 51  1  0  0  0
 29 52  1  0  0  0
M  END
$$$$
