2bpv_ligand
  -I-interpret- 

 95 98  0  0  0  0  0  0  0  0999 V2000
    9.1790   24.0720    4.1940 C   0  0  0  0  0
   10.3520   24.9650    4.6250 C   0  0  0  0  0
   10.4030   24.9800    6.1450 C   0  0  0  0  0
   18.5740   19.9240    4.9050 O   0  0  0  0  0
    7.9940   24.6190    0.8360 O   0  0  0  0  0
    8.9360   25.3950    8.7340 C   0  0  0  0  0
   11.5130   24.4110    2.5520 C   0  0  0  0  0
   10.3200   23.6040    2.0830 C   0  0  0  0  0
   12.7820   25.3030    4.4560 C   0  0  0  0  0
   13.9320   24.3120    4.6850 C   0  0  0  0  0
   14.0160   23.8310    6.1350 C   0  0  0  0  0
   15.1810   22.8870    6.4560 C   0  0  0  0  0
   15.2650   22.7560    7.9780 C   0  0  0  0  0
   16.3790   21.8410    8.4250 C   0  0  0  0  0
   17.7130   22.1450    8.1520 C   0  0  0  0  0
   17.0270   19.8330    9.6040 C   0  0  0  0  0
   16.0300   20.6850    9.1320 C   0  0  0  0  0
   14.9790   21.5070    5.8020 C   0  0  0  0  0
   16.1910   19.5270    5.0220 C   0  0  0  0  0
   17.6090   17.7380    4.5580 C   0  0  0  0  0
    5.5540   25.1720    2.1490 C   0  0  0  0  0
   15.7440   19.0140    3.6240 C   0  0  0  0  0
    8.0320   24.5460    2.0640 C   0  0  0  0  0
    3.0940   24.9920    2.1330 C   0  0  0  0  0
    1.8720   24.9440    2.8110 C   0  0  0  0  0
    1.9020   24.9680    4.2130 C   0  0  0  0  0
    4.2320   25.0690    4.2470 C   0  0  0  0  0
    9.1250   24.1110    2.7380 N   0  0  0  0  0
   10.7290   23.9600    6.7590 O   0  0  0  0  0
   10.0420   26.1670    6.6910 N   0  0  0  0  0
    9.9590   26.3750    8.1290 C   0  0  0  0  0
    9.4660   27.8180    8.3590 C   0  0  0  0  0
   11.3400   26.2050    8.7790 C   0  0  0  0  0
   11.6290   24.5080    4.0130 N   0  3  0  0  0
   15.1430   24.9890    4.3710 O   0  0  0  0  0
   18.7140   21.2920    8.6110 C   0  0  0  0  0
   18.3710   20.1370    9.3370 C   0  0  0  0  0
   13.8740   20.9640    5.7880 O   0  0  0  0  0
   16.0820   20.9730    5.2500 N   0  0  0  0  0
   17.5960   19.0150    5.4040 C   0  0  0  0  0
   16.8530   18.0060    3.3020 C   0  0  0  0  0
   15.7270   20.1160    2.6030 C   0  0  0  0  0
    6.8300   24.9450    2.8330 C   0  0  0  0  0
    4.2870   25.0620    2.8540 C   0  0  0  0  0
    3.0610   25.0130    4.8690 N   0  0  0  0  0
    9.3223   23.0507    4.5470 H   0  0  0  0  0
    8.2437   24.4304    4.6240 H   0  0  0  0  0
   10.2035   25.9842    4.2683 H   0  0  0  0  0
   19.4503   19.6102    5.1399 H   0  0  0  0  0
    7.9582   25.5693    8.2849 H   0  0  0  0  0
    9.2524   24.3715    8.5329 H   0  0  0  0  0
    8.8761   25.5532    9.8108 H   0  0  0  0  0
   12.4084   23.9068    2.1886 H   0  0  0  0  0
   11.3900   25.4239    2.1687 H   0  0  0  0  0
   10.4623   22.5533    2.3357 H   0  0  0  0  0
   10.2151   23.6939    1.0018 H   0  0  0  0  0
   12.5508   25.8507    5.3696 H   0  0  0  0  0
   13.0523   26.0489    3.7085 H   0  0  0  0  0
   13.7615   23.4366    4.0583 H   0  0  0  0  0
   13.1018   23.2695    6.3274 H   0  0  0  0  0
   14.1620   24.7208    6.7474 H   0  0  0  0  0
   16.1096   23.2934    6.0551 H   0  0  0  0  0
   14.3239   22.3329    8.3293 H   0  0  0  0  0
   15.4614   23.7466    8.3882 H   0  0  0  0  0
   17.9692   23.0404    7.5856 H   0  0  0  0  0
   16.7660   18.9412   10.1737 H   0  0  0  0  0
   14.9809   20.4513    9.3132 H   0  0  0  0  0
   15.4504   19.0904    5.6921 H   0  0  0  0  0
   18.6348   17.4525    4.3250 H   0  0  0  0  0
   17.1454   16.9188    5.1077 H   0  0  0  0  0
    5.5547   25.4287    1.0896 H   0  0  0  0  0
   14.7341   18.6040    3.6144 H   0  0  0  0  0
    3.1148   24.9748    1.0433 H   0  0  0  0  0
    0.9282   24.8898    2.2684 H   0  0  0  0  0
    0.9666   24.9496    4.7723 H   0  0  0  0  0
    5.1535   25.1206    4.8270 H   0  0  0  0  0
    9.8198   26.9448    6.0697 H   0  0  0  0  0
   10.1723   28.5175    7.9119 H   0  0  0  0  0
    8.4866   27.9439    7.8975 H   0  0  0  0  0
    9.3919   28.0090    9.4296 H   0  0  0  0  0
   11.7087   25.1973    8.5876 H   0  0  0  0  0
   12.0317   26.9330    8.3551 H   0  0  0  0  0
   11.2563   26.3645    9.8540 H   0  0  0  0  0
   11.8127   23.5641    4.3530 H   0  0  0  0  0
   15.8847   24.3942    4.5044 H   0  0  0  0  0
   19.7606   21.5190    8.4081 H   0  0  0  0  0
   19.1564   19.4718    9.6956 H   0  0  0  0  0
   16.8559   21.5824    4.9852 H   0  0  0  0  0
   17.7956   18.8893    6.4682 H   0  0  0  0  0
   17.5194   18.4094    2.5396 H   0  0  0  0  0
   16.4222   17.0818    2.9168 H   0  0  0  0  0
   15.0320   20.8932    2.9207 H   0  0  0  0  0
   16.7276   20.5379    2.5089 H   0  0  0  0  0
   15.4091   19.7136    1.6412 H   0  0  0  0  0
    6.8952   25.0704    3.9138 H   0  0  0  0  0
  1 28  1  0  0  0
  1  2  1  0  0  0
  2 34  1  0  0  0
  2  3  1  0  0  0
  3 30  1  0  0  0
  3 29  2  0  0  0
 30 31  1  0  0  0
 31  6  1  0  0  0
 31 33  1  0  0  0
 31 32  1  0  0  0
 34  9  1  0  0  0
 34  7  1  0  0  0
  7  8  1  0  0  0
  8 28  1  0  0  0
 28 23  1  0  0  0
 23 43  1  0  0  0
 23  5  2  0  0  0
 43 21  2  0  0  0
 21 44  1  0  0  0
 44 24  4  0  0  0
 44 27  4  0  0  0
 27 45  4  0  0  0
 45 26  4  0  0  0
 26 25  4  0  0  0
 25 24  4  0  0  0
  9 10  1  0  0  0
 10 35  1  0  0  0
 10 11  1  0  0  0
 11 12  1  0  0  0
 12 18  1  0  0  0
 12 13  1  0  0  0
 13 14  1  0  0  0
 14 17  4  0  0  0
 14 15  4  0  0  0
 15 36  4  0  0  0
 36 37  4  0  0  0
 37 16  4  0  0  0
 16 17  4  0  0  0
 18 38  2  0  0  0
 18 39  1  0  0  0
 39 19  1  0  0  0
 19 40  1  0  0  0
 19 22  1  0  0  0
 22 41  1  0  0  0
 22 42  1  0  0  0
 41 20  1  0  0  0
 20 40  1  0  0  0
 40  4  1  0  0  0
  1 46  1  0  0  0
  1 47  1  0  0  0
  2 48  1  0  0  0
  4 49  1  0  0  0
  6 50  1  0  0  0
  6 51  1  0  0  0
  6 52  1  0  0  0
  7 53  1  0  0  0
  7 54  1  0  0  0
  8 55  1  0  0  0
  8 56  1  0  0  0
  9 57  1  0  0  0
  9 58  1  0  0  0
 10 59  1  0  0  0
 11 60  1  0  0  0
 11 61  1  0  0  0
 12 62  1  0  0  0
 13 63  1  0  0  0
 13 64  1  0  0  0
 15 65  1  0  0  0
 16 66  1  0  0  0
 17 67  1  0  0  0
 19 68  1  0  0  0
 20 69  1  0  0  0
 20 70  1  0  0  0
 21 71  1  0  0  0
 22 72  1  0  0  0
 24 73  1  0  0  0
 25 74  1  0  0  0
 26 75  1  0  0  0
 27 76  1  0  0  0
 30 77  1  0  0  0
 32 78  1  0  0  0
 32 79  1  0  0  0
 32 80  1  0  0  0
 33 81  1  0  0  0
 33 82  1  0  0  0
 33 83  1  0  0  0
 34 84  1  0  0  0
 35 85  1  0  0  0
 36 86  1  0  0  0
 37 87  1  0  0  0
 39 88  1  0  0  0
 40 89  1  0  0  0
 41 90  1  0  0  0
 41 91  1  0  0  0
 42 92  1  0  0  0
 42 93  1  0  0  0
 42 94  1  0  0  0
 43 95  1  0  0  0
M  END
$$$$
