3r0y_ligand
  -I-interpret- 

 87 89  0  0  0  0  0  0  0  0999 V2000
   13.5230   12.9340   -0.5410 C   0  0  0  0  0
   11.9100   11.5890    0.5610 C   0  0  0  0  0
   11.9370   12.4400    1.6820 C   0  0  0  0  0
   14.3920   13.2680   -1.7320 C   0  0  0  0  0
   12.7780   13.5640    1.6890 C   0  0  0  0  0
   13.5690   13.8150    0.5610 C   0  0  0  0  0
   14.5380   14.4550   -1.9670 O   0  0  0  0  0
   12.6820   11.8510   -0.5200 N   0  0  0  0  0
   15.0270   12.4460   -2.5680 N   0  0  0  0  0
   15.2160   11.0030   -2.7530 C   0  0  0  0  0
   15.4660   10.1860   -1.4900 C   0  0  0  0  0
   14.6490   10.2550   -0.5780 O   0  0  0  0  0
   16.3560   11.2320   -3.7760 C   0  0  0  0  0
   15.9090   10.8330   -5.2220 C   0  0  0  0  0
   17.7600   10.6070   -3.4790 C   0  0  0  0  0
   16.5480    9.3840   -1.4220 N   0  0  0  0  0
   17.0350    8.4880   -0.3460 C   0  0  0  0  0
   17.3010    9.1920    1.0090 C   0  0  0  0  0
   17.2970   10.7190    0.9940 C   0  0  0  0  0
   16.3830   11.3950    1.8250 C   0  0  0  0  0
   18.1900   11.4540    0.1850 C   0  0  0  0  0
   16.3540   12.8020    1.8410 C   0  0  0  0  0
   18.1550   12.8620    0.2000 C   0  0  0  0  0
   17.2380   13.5360    1.0290 C   0  0  0  0  0
   16.0800    7.2870   -0.2480 C   0  0  0  0  0
   16.8790    6.1400    0.0950 O   0  0  0  0  0
   14.8910    7.4340    0.7230 C   0  0  0  0  0
   14.1370    6.1230    0.8960 C   0  0  0  0  0
   14.7610    5.1190    1.1970 O   0  0  0  0  0
   12.8080    6.0380    0.7210 N   0  0  0  0  0
   11.8410    7.0870    0.3770 C   0  0  0  0  0
   11.2680    6.8260   -0.9880 C   0  0  0  0  0
   10.0860    6.5570   -1.1350 O   0  0  0  0  0
   10.7640    6.9810    1.4700 C   0  0  0  0  0
   11.4320    6.7480    2.8140 C   0  0  0  0  0
   11.8420    5.4320    3.1790 C   0  0  0  0  0
   11.6550    7.8420    3.6730 C   0  0  0  0  0
   12.4790    5.2110    4.3970 C   0  0  0  0  0
   12.2860    7.6190    4.8990 C   0  0  0  0  0
   12.6920    6.3080    5.2600 C   0  0  0  0  0
   12.2000    6.9170   -1.9400 N   0  0  0  0  0
   12.3390    6.7750   -3.4130 C   0  0  0  0  0
   10.9900    6.0690   -4.2770 C   0  0  0  0  0
    9.8030    5.4480   -5.0370 C   0  0  0  0  0
   11.2625   10.7122    0.5633 H   0  0  0  0  0
   11.3052   12.2263    2.5441 H   0  0  0  0  0
   12.8145   14.2269    2.5535 H   0  0  0  0  0
   14.2193   14.6894    0.5340 H   0  0  0  0  0
   15.5250   12.9722   -3.2860 H   0  0  0  0  0
   14.3901   10.3651   -3.0677 H   0  0  0  0  0
   16.5228   12.3047   -3.6776 H   0  0  0  0  0
   15.6339    9.7784   -5.2379 H   0  0  0  0  0
   15.0512   11.4380   -5.5157 H   0  0  0  0  0
   16.7317   11.0057   -5.9159 H   0  0  0  0  0
   18.1426   11.0061   -2.5396 H   0  0  0  0  0
   17.6654    9.5238   -3.4033 H   0  0  0  0  0
   18.4462   10.8574   -4.2880 H   0  0  0  0  0
   17.1338    9.3960   -2.2569 H   0  0  0  0  0
   18.0294    8.1334   -0.6171 H   0  0  0  0  0
   18.3051    8.8952    1.3120 H   0  0  0  0  0
   16.4868    8.8939    1.6696 H   0  0  0  0  0
   15.6980   10.8286    2.4559 H   0  0  0  0  0
   18.9058   10.9327   -0.4506 H   0  0  0  0  0
   15.6452   13.3241    2.4838 H   0  0  0  0  0
   18.8385   13.4304   -0.4308 H   0  0  0  0  0
   17.2130   14.6256    1.0417 H   0  0  0  0  0
   15.5914    7.1911   -1.2176 H   0  0  0  0  0
   16.3138    5.3672    0.1653 H   0  0  0  0  0
   14.2031    8.1733    0.3128 H   0  0  0  0  0
   15.2784    7.7373    1.6956 H   0  0  0  0  0
   12.4122    5.1062    0.8457 H   0  0  0  0  0
   12.2808    8.0836    0.3385 H   0  0  0  0  0
   10.0974    6.1484    1.2452 H   0  0  0  0  0
   10.1880    7.9057    1.5048 H   0  0  0  0  0
   11.6563    4.5973    2.5030 H   0  0  0  0  0
   11.3405    8.8454    3.3858 H   0  0  0  0  0
   12.8070    4.2105    4.6789 H   0  0  0  0  0
   12.4666    8.4520    5.5785 H   0  0  0  0  0
   13.1777    6.1448    6.2221 H   0  0  0  0  0
   13.0998    7.1607   -1.5260 H   0  0  0  0  0
   13.1782    6.0968   -3.5678 H   0  0  0  0  0
   12.4417    7.7886   -3.8004 H   0  0  0  0  0
   10.9504    5.2566   -3.5514 H   0  0  0  0  0
   11.0297    6.8813   -5.0027 H   0  0  0  0  0
    9.1646    4.9114   -4.3352 H   0  0  0  0  0
    9.2293    6.2386   -5.5207 H   0  0  0  0  0
   10.1780    4.7561   -5.7911 H   0  0  0  0  0
  1  4  1  0  0  0
  1  6  4  0  0  0
  8  1  4  0  0  0
  2  3  4  0  0  0
  2  8  4  0  0  0
  3  5  4  0  0  0
  4  7  2  0  0  0
  4  9  1  0  0  0
  5  6  4  0  0  0
  9 10  1  0  0  0
 10 11  1  0  0  0
 10 13  1  0  0  0
 11 12  2  0  0  0
 11 16  1  0  0  0
 13 14  1  0  0  0
 13 15  1  0  0  0
 16 17  1  0  0  0
 17 18  1  0  0  0
 17 25  1  0  0  0
 18 19  1  0  0  0
 19 20  4  0  0  0
 19 21  4  0  0  0
 20 22  4  0  0  0
 21 23  4  0  0  0
 22 24  4  0  0  0
 23 24  4  0  0  0
 25 26  1  0  0  0
 25 27  1  0  0  0
 27 28  1  0  0  0
 28 29  2  0  0  0
 28 30  1  0  0  0
 30 31  1  0  0  0
 31 32  1  0  0  0
 31 34  1  0  0  0
 32 33  2  0  0  0
 32 41  1  0  0  0
 34 35  1  0  0  0
 35 36  4  0  0  0
 35 37  4  0  0  0
 36 38  4  0  0  0
 37 39  4  0  0  0
 38 40  4  0  0  0
 39 40  4  0  0  0
 41 42  1  0  0  0
 42 43  1  0  0  0
 43 44  1  0  0  0
  2 45  1  0  0  0
  3 46  1  0  0  0
  5 47  1  0  0  0
  6 48  1  0  0  0
  9 49  1  0  0  0
 10 50  1  0  0  0
 13 51  1  0  0  0
 14 52  1  0  0  0
 14 53  1  0  0  0
 14 54  1  0  0  0
 15 55  1  0  0  0
 15 56  1  0  0  0
 15 57  1  0  0  0
 16 58  1  0  0  0
 17 59  1  0  0  0
 18 60  1  0  0  0
 18 61  1  0  0  0
 20 62  1  0  0  0
 21 63  1  0  0  0
 22 64  1  0  0  0
 23 65  1  0  0  0
 24 66  1  0  0  0
 25 67  1  0  0  0
 26 68  1  0  0  0
 27 69  1  0  0  0
 27 70  1  0  0  0
 30 71  1  0  0  0
 31 72  1  0  0  0
 34 73  1  0  0  0
 34 74  1  0  0  0
 36 75  1  0  0  0
 37 76  1  0  0  0
 38 77  1  0  0  0
 39 78  1  0  0  0
 40 79  1  0  0  0
 41 80  1  0  0  0
 42 81  1  0  0  0
 42 82  1  0  0  0
 43 83  1  0  0  0
 43 84  1  0  0  0
 44 85  1  0  0  0
 44 86  1  0  0  0
 44 87  1  0  0  0
M  END
$$$$
