6qr1_ligand
  -I-interpret- 

 37 40  0  0  0  0  0  0  0  0999 V2000
  -22.0750   20.4910  -11.4950 C   0  0  0  0  0
  -20.4810   18.7490  -12.2910 C   0  0  0  0  0
  -19.9130   17.4570  -12.4650 C   0  0  0  0  0
  -20.5610   16.0950  -12.5090 C   0  0  0  0  0
  -24.0600   18.5560  -10.9970 C   0  0  0  0  0
  -25.3900   20.6480  -10.1350 C   0  0  0  0  0
  -25.0490   22.0290  -10.0720 C   0  0  0  0  0
  -23.0360   23.3650  -10.6650 C   0  0  0  0  0
  -22.1540   23.4950   -9.4240 C   0  0  0  0  0
  -22.5670   22.9900   -8.1660 C   0  0  0  0  0
  -21.7070   23.1400   -7.0570 C   0  0  0  0  0
  -20.4650   23.7800   -7.2470 C   0  0  0  0  0
  -20.8910   24.1210   -9.5000 C   0  0  0  0  0
  -23.3190   20.8900  -10.9350 C   0  0  0  0  0
  -21.8690   19.1420  -11.8370 C   0  0  0  0  0
  -18.5810   17.6550  -12.6970 C   0  0  0  0  0
  -22.8330   18.1640  -11.5450 C   0  0  0  0  0
  -24.2900   19.9300  -10.6950 C   0  0  0  0  0
  -23.8040   22.1430  -10.5510 N   0  0  0  0  0
  -20.1100   24.2410   -8.4400 N   0  0  0  0  0
  -19.4630   19.6420  -12.2990 N   0  0  0  0  0
  -18.3280   18.9700  -12.5960 N   0  0  0  0  0
  -17.6110   16.6110  -12.9900 N   0  0  0  0  0
  -20.9960   15.0550  -12.5520 N   0  0  0  0  0
  -26.8440   19.8720   -9.6340 Cl  0  0  0  0  0
  -21.2861   21.2252  -11.6583 H   0  0  0  0  0
  -24.8351   17.8148  -10.8023 H   0  0  0  0  0
  -25.6803   22.8380   -9.7044 H   0  0  0  0  0
  -22.4173   23.3354  -11.5619 H   0  0  0  0  0
  -23.7056   24.2219  -10.7392 H   0  0  0  0  0
  -23.5317   22.4945   -8.0568 H   0  0  0  0  0
  -21.9969   22.7688   -6.0740 H   0  0  0  0  0
  -19.7866   23.8979   -6.4020 H   0  0  0  0  0
  -20.5509   24.5157  -10.4574 H   0  0  0  0  0
  -22.6284   17.1118  -11.7427 H   0  0  0  0  0
  -17.9086   15.6364  -13.0353 H   0  0  0  0  0
  -16.6333   16.8536  -13.1501 H   0  0  0  0  0
 14  1  4  0  0  0
  1 15  4  0  0  0
  2  3  4  0  0  0
 15  2  1  0  0  0
  2 21  4  0  0  0
  3  4  1  0  0  0
  3 16  4  0  0  0
  4 24  3  0  0  0
  5 17  4  0  0  0
 18  5  4  0  0  0
  6  7  4  0  0  0
 18  6  4  0  0  0
  6 25  1  0  0  0
  7 19  4  0  0  0
  8  9  1  0  0  0
 19  8  1  0  0  0
  9 10  4  0  0  0
  9 13  4  0  0  0
 10 11  4  0  0  0
 11 12  4  0  0  0
 20 12  4  0  0  0
 13 20  4  0  0  0
 14 18  4  0  0  0
 14 19  4  0  0  0
 15 17  4  0  0  0
 16 22  4  0  0  0
 16 23  1  0  0  0
 21 22  4  0  0  0
  1 26  1  0  0  0
  5 27  1  0  0  0
  7 28  1  0  0  0
  8 29  1  0  0  0
  8 30  1  0  0  0
 10 31  1  0  0  0
 11 32  1  0  0  0
 12 33  1  0  0  0
 13 34  1  0  0  0
 17 35  1  0  0  0
 23 36  1  0  0  0
 23 37  1  0  0  0
M  END
$$$$
