6mo7_ligand
  -I-interpret- 

 52 54  0  0  0  0  0  0  0  0999 V2000
   31.8200   11.0630   78.9560 C   0  0  0  0  0
   32.3810   10.0800   78.1410 C   0  0  0  0  0
   33.7600    9.8530   78.1650 C   0  0  0  0  0
   34.5700   10.6260   79.0010 C   0  0  0  0  0
   34.0250   11.6180   79.8380 C   0  0  0  0  0
   32.6300   11.8270   79.8040 C   0  0  0  0  0
   31.5060    9.3120   77.2860 C   0  0  0  0  0
   31.7870   13.0340   80.8210 S   0  0  0  0  0
   32.1590   12.7340   82.1880 O   0  0  0  0  0
   30.3880   13.0180   80.4290 O   0  0  0  0  0
   34.9840   12.3890   80.7050 C   0  0  0  0  0
   32.4650   14.4980   80.3110 N   0  0  0  0  0
   31.9320   15.1900   79.1230 C   0  0  0  0  0
   31.1970   16.4420   79.5970 C   0  0  0  0  0
   32.3530   17.3570   79.9870 C   0  0  0  0  0
   33.4440   17.0830   78.9580 C   0  0  0  0  0
   33.0910   15.7480   78.3060 C   0  0  0  0  0
   31.6480    9.1860   75.9250 C   0  0  0  0  0
   30.6390    8.3980   75.4520 O   0  0  0  0  0
   29.8200    8.0030   76.5200 N   0  0  0  0  0
   30.3510    8.5600   77.6120 C   0  0  0  0  0
   29.7500    8.3760   78.9570 C   0  0  0  0  0
   32.6360    9.6840   74.9360 C   0  0  0  0  0
   33.6170    8.6300   74.6650 N   0  0  0  0  0
   33.3860    7.6410   73.7140 C   0  0  0  0  0
   32.3730    7.5540   73.0310 O   0  0  0  0  0
   34.5070    6.6440   73.5520 C   0  0  0  0  0
   30.7443   11.2373   78.9324 H   0  0  0  0  0
   34.2002    9.0789   77.5364 H   0  0  0  0  0
   35.6469   10.4573   79.0051 H   0  0  0  0  0
   35.5051   11.7001   81.3698 H   0  0  0  0  0
   35.7080   12.9048   80.0742 H   0  0  0  0  0
   34.4309   13.1185   81.2967 H   0  0  0  0  0
   33.2456   14.9035   80.8274 H   0  0  0  0  0
   31.3099   14.4942   78.5600 H   0  0  0  0  0
   30.5013   16.2517   80.4143 H   0  0  0  0  0
   30.5419   16.8718   78.8393 H   0  0  0  0  0
   32.6982   17.1587   81.0017 H   0  0  0  0  0
   32.0540   18.4052   79.9868 H   0  0  0  0  0
   34.4262   17.0423   79.4288 H   0  0  0  0  0
   33.4938   17.8807   78.2169 H   0  0  0  0  0
   32.8168   15.8750   77.2587 H   0  0  0  0  0
   33.9422   15.0672   78.3035 H   0  0  0  0  0
   30.4776    7.9038   79.6171 H   0  0  0  0  0
   29.4660    9.3471   79.3626 H   0  0  0  0  0
   28.8667    7.7425   78.8753 H   0  0  0  0  0
   33.1429   10.5626   75.3350 H   0  0  0  0  0
   32.1250    9.9553   74.0122 H   0  0  0  0  0
   34.4929    8.6210   75.1876 H   0  0  0  0  0
   34.1347    5.6424   73.7672 H   0  0  0  0  0
   34.8804    6.6822   72.5287 H   0  0  0  0  0
   35.3129    6.8898   74.2436 H   0  0  0  0  0
  1  2  4  0  0  0
  1  6  4  0  0  0
  2  3  4  0  0  0
  2  7  1  0  0  0
  3  4  4  0  0  0
  4  5  4  0  0  0
  5  6  4  0  0  0
  5 11  1  0  0  0
  6  8  1  0  0  0
  7 18  4  0  0  0
  7 21  4  0  0  0
  8  9  2  0  0  0
  8 10  2  0  0  0
  8 12  1  0  0  0
 12 13  1  0  0  0
 13 14  1  0  0  0
 13 17  1  0  0  0
 14 15  1  0  0  0
 15 16  1  0  0  0
 16 17  1  0  0  0
 18 19  4  0  0  0
 18 23  1  0  0  0
 19 20  4  0  0  0
 20 21  4  0  0  0
 21 22  1  0  0  0
 23 24  1  0  0  0
 24 25  1  0  0  0
 25 26  2  0  0  0
 25 27  1  0  0  0
  1 28  1  0  0  0
  3 29  1  0  0  0
  4 30  1  0  0  0
 11 31  1  0  0  0
 11 32  1  0  0  0
 11 33  1  0  0  0
 12 34  1  0  0  0
 13 35  1  0  0  0
 14 36  1  0  0  0
 14 37  1  0  0  0
 15 38  1  0  0  0
 15 39  1  0  0  0
 16 40  1  0  0  0
 16 41  1  0  0  0
 17 42  1  0  0  0
 17 43  1  0  0  0
 22 44  1  0  0  0
 22 45  1  0  0  0
 22 46  1  0  0  0
 23 47  1  0  0  0
 23 48  1  0  0  0
 24 49  1  0  0  0
 27 50  1  0  0  0
 27 51  1  0  0  0
 27 52  1  0  0  0
M  END
$$$$
