2fda_ligand
  -I-interpret- 

 53 53  0  0  0  0  0  0  0  0999 V2000
   11.3030   51.2840   25.5070 C   0  0  0  0  0
   11.5590   51.4010   23.9880 C   0  0  0  0  0
   11.6850   52.5300   26.3190 C   0  0  0  0  0
   13.0080   53.5790   22.8310 O   0  0  0  0  0
   13.0130   51.5390   23.8060 N   0  0  0  0  0
    9.9130   51.0020   25.6330 O   0  0  0  0  0
   11.2060   50.1440   23.1490 C   0  0  0  0  0
   11.4300   50.2940   21.6390 C   0  0  0  0  0
   11.1000   48.9970   20.9160 C   0  0  0  0  0
   11.2880   49.2230   19.4740 N   0  0  0  0  0
   11.0960   48.3170   18.5030 C   0  0  0  0  0
   10.7100   47.0670   18.8040 N   0  0  0  0  0
   11.2880   48.6770   17.2270 N   0  0  0  0  0
   12.9140   52.7780   26.5970 N   0  0  0  0  0
   13.0170   53.9520   27.3360 C   0  0  0  0  0
   11.7820   54.5390   27.5760 C   0  0  0  0  0
   10.5020   53.6440   26.8940 S   0  0  0  0  0
   15.5300   53.1370   21.8290 N   0  0  0  0  0
   15.1510   52.5430   23.1250 C   0  0  0  0  0
   13.6240   52.6000   23.2470 C   0  0  0  0  0
   15.8330   53.2930   24.3010 C   0  0  0  0  0
   17.3180   52.9100   24.3910 C   0  0  0  0  0
   15.7410   54.8320   24.1610 C   0  0  0  0  0
   15.1390   52.7170   20.6050 C   0  0  0  0  0
   15.7000   53.5290   19.4360 N   0  0  0  0  0
   14.3890   51.7560   20.4190 O   0  0  0  0  0
   11.9398   50.5027   25.9219 H   0  0  0  0  0
   10.9360   52.2306   23.6538 H   0  0  0  0  0
   13.6028   50.7717   24.1282 H   0  0  0  0  0
    9.6982   50.2208   25.1180 H   0  0  0  0  0
   10.1422   49.9557   23.2937 H   0  0  0  0  0
   11.8627   49.3428   23.4881 H   0  0  0  0  0
   12.4766   50.5409   21.4605 H   0  0  0  0  0
   10.7791   51.0831   21.2626 H   0  0  0  0  0
   10.0710   48.7016   21.1210 H   0  0  0  0  0
   11.7533   48.1956   21.2610 H   0  0  0  0  0
   11.5920   50.1532   19.1864 H   0  0  0  0  0
   10.5614   46.3859   18.0594 H   0  0  0  0  0
   10.5653   46.7983   19.7773 H   0  0  0  0  0
   11.5765   49.6295   17.0037 H   0  0  0  0  0
   13.9624   54.3652   27.6876 H   0  0  0  0  0
   11.6467   55.4646   28.1355 H   0  0  0  0  0
   16.1498   53.9465   21.8595 H   0  0  0  0  0
   15.4876   51.5073   23.1716 H   0  0  0  0  0
   15.2984   52.9940   25.2026 H   0  0  0  0  0
   17.4056   51.8361   24.5556 H   0  0  0  0  0
   17.8181   53.1782   23.4604 H   0  0  0  0  0
   17.7802   53.4449   25.2206 H   0  0  0  0  0
   16.2308   55.1415   23.2377 H   0  0  0  0  0
   14.6932   55.1313   24.1359 H   0  0  0  0  0
   16.2345   55.3030   25.0111 H   0  0  0  0  0
   15.4553   53.2794   18.4778 H   0  0  0  0  0
   16.3187   54.3200   19.6149 H   0  0  0  0  0
  2  1  1  0  0  0
  1  3  1  0  0  0
  1  6  1  0  0  0
  5  2  1  0  0  0
  2  7  1  0  0  0
  3 14  4  0  0  0
  3 17  4  0  0  0
 20  4  2  0  0  0
 20  5  1  0  0  0
  7  8  1  0  0  0
  8  9  1  0  0  0
  9 10  1  0  0  0
 10 11  1  0  0  0
 11 12  1  0  0  0
 11 13  2  0  0  0
 14 15  4  0  0  0
 16 15  4  0  0  0
 17 16  4  0  0  0
 19 18  1  0  0  0
 18 24  1  0  0  0
 19 20  1  0  0  0
 19 21  1  0  0  0
 21 22  1  0  0  0
 21 23  1  0  0  0
 24 25  1  0  0  0
 24 26  2  0  0  0
  1 27  1  0  0  0
  2 28  1  0  0  0
  5 29  1  0  0  0
  6 30  1  0  0  0
  7 31  1  0  0  0
  7 32  1  0  0  0
  8 33  1  0  0  0
  8 34  1  0  0  0
  9 35  1  0  0  0
  9 36  1  0  0  0
 10 37  1  0  0  0
 12 38  1  0  0  0
 12 39  1  0  0  0
 13 40  1  0  0  0
 15 41  1  0  0  0
 16 42  1  0  0  0
 18 43  1  0  0  0
 19 44  1  0  0  0
 21 45  1  0  0  0
 22 46  1  0  0  0
 22 47  1  0  0  0
 22 48  1  0  0  0
 23 49  1  0  0  0
 23 50  1  0  0  0
 23 51  1  0  0  0
 25 52  1  0  0  0
 25 53  1  0  0  0
M  END
$$$$
