6r1d_ligand
  -I-interpret- 

 30 31  0  0  0  0  0  0  0  0999 V2000
    8.0210    5.3750    2.9570 O   0  0  0  0  0
    8.0830    4.7150    3.9880 C   0  0  0  0  0
    7.6950    3.4060    4.0620 N   0  0  0  0  0
    7.7810    2.9140    5.3280 C   0  0  0  0  0
    7.5280    1.7920    5.6450 O   0  0  0  0  0
    8.2480    4.0090    6.2750 C   0  0  0  0  0
    8.6270    5.1290    5.3070 C   0  0  0  0  0
    8.2090    6.4620    5.6890 N   0  0  0  0  0
    8.8920    7.5050    5.4060 C   0  0  0  0  0
   10.0450    7.5190    4.9250 O   0  0  0  0  0
    8.2410    8.6610    5.6880 O   0  0  0  0  0
    8.8580    9.9380    5.5280 C   0  0  0  0  0
    9.8650   10.2270    6.5680 C   0  0  0  0  0
   11.1670   10.4730    6.1900 C   0  0  0  0  0
   12.0870   10.7200    7.0600 C   0  0  0  0  0
   11.9060   10.8690    8.4740 C   0  0  0  0  0
   10.5430   10.6550    8.8070 C   0  0  0  0  0
    9.6180   10.2770    7.9070 C   0  0  0  0  0
    7.3776    2.8609    3.2605 H   0  0  0  0  0
    9.0709    3.6994    6.9192 H   0  0  0  0  0
    7.4894    4.3043    6.9998 H   0  0  0  0  0
    9.7114    5.2386    5.2957 H   0  0  0  0  0
    7.3356    6.5730    6.2039 H   0  0  0  0  0
    8.0775   10.6953    5.6022 H   0  0  0  0  0
    9.3661    9.9426    4.5637 H   0  0  0  0  0
   11.4257   10.4586    5.1312 H   0  0  0  0  0
   13.1038   10.8260    6.6819 H   0  0  0  0  0
   12.6955   11.1101    9.1858 H   0  0  0  0  0
   10.2313   10.8040    9.8408 H   0  0  0  0  0
    8.6268    9.9983    8.2646 H   0  0  0  0  0
  1  2  2  0  0  0
  2  3  1  0  0  0
  2  7  1  0  0  0
  3  4  1  0  0  0
  4  5  2  0  0  0
  4  6  1  0  0  0
  6  7  1  0  0  0
  7  8  1  0  0  0
  8  9  1  0  0  0
  9 10  2  0  0  0
  9 11  1  0  0  0
 11 12  1  0  0  0
 12 13  1  0  0  0
 13 14  4  0  0  0
 13 18  4  0  0  0
 14 15  4  0  0  0
 15 16  4  0  0  0
 16 17  4  0  0  0
 17 18  4  0  0  0
  3 19  1  0  0  0
  6 20  1  0  0  0
  6 21  1  0  0  0
  7 22  1  0  0  0
  8 23  1  0  0  0
 12 24  1  0  0  0
 12 25  1  0  0  0
 14 26  1  0  0  0
 15 27  1  0  0  0
 16 28  1  0  0  0
 17 29  1  0  0  0
 18 30  1  0  0  0
M  END
$$$$
