1ec0_ligand
  -I-interpret- 

 88 93  0  0  0  0  0  0  0  0999 V2000
   16.5600   22.0740    8.7360 C   0  0  0  0  0
   17.9710   21.8820    8.4810 C   0  0  0  0  0
   18.6600   20.7120    8.8980 C   0  0  0  0  0
   17.9510   19.6690    9.5990 C   0  0  0  0  0
   16.5510   19.8160    9.8720 C   0  0  0  0  0
   15.8650   21.0100    9.4430 C   0  0  0  0  0
    9.8300   23.8680    2.2960 C   0  0  0  0  0
    8.8110   22.9360    2.7380 C   0  0  0  0  0
    7.4250   23.3290    2.7330 C   0  0  0  0  0
    7.0500   24.6440    2.2880 C   0  0  0  0  0
    8.0620   25.5710    1.8480 C   0  0  0  0  0
    9.4340   25.1850    1.8550 C   0  0  0  0  0
   11.3110   23.4870    2.3030 C   0  0  0  0  0
   11.7930   23.1120    3.6080 O   0  0  0  0  0
   11.8950   24.2250    4.5510 C   0  0  0  0  0
   12.9550   23.9760    5.5860 C   0  0  0  0  0
   14.2570   23.6220    4.9800 C   0  0  0  0  0
   15.1320   22.8490    6.0000 C   0  0  0  0  0
   15.1410   21.3470    5.8310 C   0  0  0  0  0
   14.1310   20.6550    6.0000 O   0  0  0  0  0
   16.3590   20.7900    5.4950 N   0  0  0  0  0
   14.7770   23.1250    7.3840 O   0  0  0  0  0
   15.8900   23.3530    8.2520 C   0  0  0  0  0
   14.8130   24.8770    4.5610 O   0  0  0  0  0
   13.1170   25.1020    6.4930 O   0  0  0  0  0
   10.6800   24.3210    5.3860 C   0  0  0  0  0
   10.2950   23.3310    6.0100 O   0  0  0  0  0
   10.0420   25.5140    5.4090 N   0  0  0  0  0
    8.8530   25.7180    6.1840 C   0  0  0  0  0
    9.1420   26.4450    7.4680 C   0  0  0  0  0
    8.0410   27.2850    7.8160 C   0  0  0  0  0
   10.3150   26.3960    8.3190 C   0  0  0  0  0
   10.3540   27.2030    9.5150 C   0  0  0  0  0
    9.2270   28.0440    9.8480 C   0  0  0  0  0
    7.7630   26.6090    5.5700 C   0  0  0  0  0
    8.4140   27.6650    4.8690 O   0  0  0  0  0
    8.0590   28.0920    8.9990 C   0  0  0  0  0
    6.9690   27.1580    6.7820 C   0  0  0  0  0
   16.6030   19.3700    5.2960 C   0  0  0  0  0
   16.5080   18.9380    3.8540 C   0  0  0  0  0
   17.4320   17.8860    3.5830 C   0  0  0  0  0
   15.6550   19.4350    2.8070 C   0  0  0  0  0
   15.7550   18.8480    1.4880 C   0  0  0  0  0
   16.6880   17.7930    1.2350 C   0  0  0  0  0
   18.0030   18.8550    5.6630 C   0  0  0  0  0
   18.9460   19.8890    5.3350 O   0  0  0  0  0
   17.5400   17.2960    2.2760 C   0  0  0  0  0
   18.1950   17.5570    4.8220 C   0  0  0  0  0
   14.5850   21.0660    9.7270 F   0  0  0  0  0
    9.1310   21.7320    3.1530 F   0  0  0  0  0
   18.5226   22.6594    7.9524 H   0  0  0  0  0
   19.7240   20.6021    8.6885 H   0  0  0  0  0
   18.4786   18.7710    9.9204 H   0  0  0  0  0
   16.0092   19.0312   10.3998 H   0  0  0  0  0
    6.6595   22.6286    3.0670 H   0  0  0  0  0
    6.0008   24.9395    2.2835 H   0  0  0  0  0
    7.7781   26.5675    1.5098 H   0  0  0  0  0
   10.1939   25.8926    1.5234 H   0  0  0  0  0
   11.8785   24.3593    1.9788 H   0  0  0  0  0
   11.4344   22.6268    1.6450 H   0  0  0  0  0
   12.0847   25.1015    3.9314 H   0  0  0  0  0
   12.6060   23.1215    6.1658 H   0  0  0  0  0
   14.1784   22.9464    4.1282 H   0  0  0  0  0
   16.1287   23.2284    5.7748 H   0  0  0  0  0
   17.1494   21.4239    5.3771 H   0  0  0  0  0
   16.6330   23.9173    7.6884 H   0  0  0  0  0
   15.5160   23.8780    9.1309 H   0  0  0  0  0
   15.6689   24.7263    4.1533 H   0  0  0  0  0
   13.8018   24.8988    7.1344 H   0  0  0  0  0
   10.4166   26.2883    4.8608 H   0  0  0  0  0
    8.5050   24.6895    6.2803 H   0  0  0  0  0
   11.1583   25.7565    8.0583 H   0  0  0  0  0
   11.2294   27.1782   10.1640 H   0  0  0  0  0
    9.2586   28.6509   10.7528 H   0  0  0  0  0
    7.1037   26.0896    4.8745 H   0  0  0  0  0
    7.7543   28.2395    4.4737 H   0  0  0  0  0
    7.2109   28.7279    9.2530 H   0  0  0  0  0
    6.4532   28.0955    6.5742 H   0  0  0  0  0
    6.1446   26.5141    7.0884 H   0  0  0  0  0
   15.8320   18.9682    5.9534 H   0  0  0  0  0
   14.9462   20.2393    3.0039 H   0  0  0  0  0
   15.1162   19.2114    0.6830 H   0  0  0  0  0
   16.7521   17.3608    0.2364 H   0  0  0  0  0
   18.1415   18.6224    6.7188 H   0  0  0  0  0
   19.8326   19.5934    5.5547 H   0  0  0  0  0
   18.2505   16.4925    2.0818 H   0  0  0  0  0
   19.2401   17.3092    4.6366 H   0  0  0  0  0
   17.8416   16.6566    5.3245 H   0  0  0  0  0
  1  2  4  0  0  0
  1  6  4  0  0  0
 23  1  1  0  0  0
  2  3  4  0  0  0
  3  4  4  0  0  0
  5  4  4  0  0  0
  6  5  4  0  0  0
  6 49  1  0  0  0
  7  8  4  0  0  0
  7 12  4  0  0  0
 13  7  1  0  0  0
  8  9  4  0  0  0
  9 10  4  0  0  0
 11 10  4  0  0  0
 12 11  4  0  0  0
 14 13  1  0  0  0
 15 14  1  0  0  0
 16 15  1  0  0  0
 17 16  1  0  0  0
 18 17  1  0  0  0
 18 19  1  0  0  0
 22 18  1  0  0  0
 19 20  2  0  0  0
 19 21  1  0  0  0
 23 22  1  0  0  0
 17 24  1  0  0  0
 16 25  1  0  0  0
 15 26  1  0  0  0
 26 27  2  0  0  0
 26 28  1  0  0  0
 28 29  1  0  0  0
 29 30  1  0  0  0
 29 35  1  0  0  0
 30 31  4  0  0  0
 30 32  4  0  0  0
 31 37  4  0  0  0
 31 38  1  0  0  0
 32 33  4  0  0  0
 33 34  4  0  0  0
 34 37  4  0  0  0
 35 36  1  0  0  0
 35 38  1  0  0  0
 21 39  1  0  0  0
 39 40  1  0  0  0
 39 45  1  0  0  0
 40 41  4  0  0  0
 40 42  4  0  0  0
 41 47  4  0  0  0
 41 48  1  0  0  0
 42 43  4  0  0  0
 43 44  4  0  0  0
 44 47  4  0  0  0
 45 46  1  0  0  0
 45 48  1  0  0  0
  8 50  1  0  0  0
  2 51  1  0  0  0
  3 52  1  0  0  0
  4 53  1  0  0  0
  5 54  1  0  0  0
  9 55  1  0  0  0
 10 56  1  0  0  0
 11 57  1  0  0  0
 12 58  1  0  0  0
 13 59  1  0  0  0
 13 60  1  0  0  0
 15 61  1  0  0  0
 16 62  1  0  0  0
 17 63  1  0  0  0
 18 64  1  0  0  0
 21 65  1  0  0  0
 23 66  1  0  0  0
 23 67  1  0  0  0
 24 68  1  0  0  0
 25 69  1  0  0  0
 28 70  1  0  0  0
 29 71  1  0  0  0
 32 72  1  0  0  0
 33 73  1  0  0  0
 34 74  1  0  0  0
 35 75  1  0  0  0
 36 76  1  0  0  0
 37 77  1  0  0  0
 38 78  1  0  0  0
 38 79  1  0  0  0
 39 80  1  0  0  0
 42 81  1  0  0  0
 43 82  1  0  0  0
 44 83  1  0  0  0
 45 84  1  0  0  0
 46 85  1  0  0  0
 47 86  1  0  0  0
 48 87  1  0  0  0
 48 88  1  0  0  0
M  END
$$$$
