4fzj_ligand
  -I-interpret- 

 21 22  0  0  0  0  0  0  0  0999 V2000
   11.8720    4.2050  -15.5300 O   0  0  0  0  0
   12.5200    3.3810  -14.8140 C   0  0  0  0  0
   11.9180    2.3900  -14.3240 O   0  0  0  0  0
   13.8560    3.5350  -14.6120 C   0  0  0  0  0
   14.6450    4.3700  -15.3170 C   0  0  0  0  0
   14.8420    2.6860  -13.3780 S   0  0  0  0  0
   16.3050    3.5390  -13.9710 C   0  0  0  0  0
   15.9570    4.3910  -14.9900 C   0  0  0  0  0
   17.1050    5.0100  -15.3640 C   0  0  0  0  0
   17.2600    6.0600  -16.4800 C   0  0  0  0  0
   18.1290    4.6010  -14.6160 N   0  0  0  0  0
   17.6290    3.6810  -13.7440 N   0  0  0  0  0
   18.4680    2.9260  -12.7040 C   0  0  0  0  0
   12.4622    4.9006  -15.8289 H   0  0  0  0  0
   14.2447    4.9983  -16.1127 H   0  0  0  0  0
   16.9514    5.6259  -17.4310 H   0  0  0  0  0
   16.6350    6.9239  -16.2537 H   0  0  0  0  0
   18.3029    6.3708  -16.5424 H   0  0  0  0  0
   18.0760    3.1276  -11.7071 H   0  0  0  0  0
   18.4179    1.8561  -12.9060 H   0  0  0  0  0
   19.5039    3.2601  -12.7629 H   0  0  0  0  0
  1  2  1  0  0  0
  2  3  2  0  0  0
  2  4  1  0  0  0
  4  5  4  0  0  0
  4  6  4  0  0  0
  5  8  4  0  0  0
  6  7  4  0  0  0
  7  8  4  0  0  0
  7 12  4  0  0  0
  8  9  4  0  0  0
  9 10  1  0  0  0
  9 11  4  0  0  0
 11 12  4  0  0  0
 12 13  1  0  0  0
  1 14  1  0  0  0
  5 15  1  0  0  0
 10 16  1  0  0  0
 10 17  1  0  0  0
 10 18  1  0  0  0
 13 19  1  0  0  0
 13 20  1  0  0  0
 13 21  1  0  0  0
M  END
$$$$
