3tiz_ligand
  -I-interpret- 

 35 37  0  0  0  0  0  0  0  0999 V2000
  -90.1190  -10.2350  -84.3970 N   0  0  0  0  0
  -89.1210  -10.5340  -83.3710 C   0  0  0  0  0
  -88.6360  -11.8450  -83.2180 C   0  0  0  0  0
  -87.6730  -12.1390  -82.2230 C   0  0  0  0  0
  -87.1990  -11.1400  -81.4000 C   0  0  0  0  0
  -87.6850   -9.8340  -81.5470 C   0  0  0  0  0
  -88.6550   -9.5360  -82.5440 C   0  0  0  0  0
  -91.1510   -9.2220  -84.2110 C   0  0  0  0  0
  -92.1190   -8.9200  -85.3990 C   0  0  0  0  0
  -92.0300   -9.6690  -86.5900 C   0  0  0  0  0
  -92.8840   -9.4130  -87.6640 C   0  0  0  0  0
  -93.8680   -8.3930  -87.5520 C   0  0  0  0  0
  -93.9740   -7.6180  -86.3390 C   0  0  0  0  0
  -93.1240   -7.8700  -85.2750 C   0  0  0  0  0
  -93.2350   -7.0970  -84.0800 C   0  0  0  0  0
  -94.2140   -6.0710  -83.9710 C   0  0  0  0  0
  -95.0830   -5.8230  -85.0550 C   0  0  0  0  0
  -94.9750   -6.5710  -86.2230 C   0  0  0  0  0
  -86.2690  -11.4330  -80.4370 O   0  0  0  0  0
  -91.0750  -10.6610  -86.7050 O   0  0  0  0  0
  -90.0922  -10.7540  -85.2747 H   0  0  0  0  0
  -89.0033  -12.6386  -83.8687 H   0  0  0  0  0
  -87.3052  -13.1585  -82.1073 H   0  0  0  0  0
  -87.3179   -9.0422  -80.8940 H   0  0  0  0  0
  -89.0293   -8.5182  -82.6534 H   0  0  0  0  0
  -90.6101   -8.2913  -84.0397 H   0  0  0  0  0
  -91.7879   -9.6061  -83.4142 H   0  0  0  0  0
  -92.7969   -9.9919  -88.5835 H   0  0  0  0  0
  -94.5439   -8.1958  -88.3841 H   0  0  0  0  0
  -92.5639   -7.2947  -83.2441 H   0  0  0  0  0
  -94.2924   -5.4811  -83.0578 H   0  0  0  0  0
  -95.8408   -5.0434  -84.9769 H   0  0  0  0  0
  -95.6465   -6.3701  -87.0577 H   0  0  0  0  0
  -86.0464  -10.6333  -79.9549 H   0  0  0  0  0
  -91.1457  -11.0730  -87.5692 H   0  0  0  0  0
  1  2  1  0  0  0
  1  8  1  0  0  0
  2  3  4  0  0  0
  2  7  4  0  0  0
  3  4  4  0  0  0
  4  5  4  0  0  0
  5  6  4  0  0  0
  5 19  1  0  0  0
  6  7  4  0  0  0
  8  9  1  0  0  0
  9 10  4  0  0  0
  9 14  4  0  0  0
 10 11  4  0  0  0
 10 20  1  0  0  0
 11 12  4  0  0  0
 12 13  4  0  0  0
 13 14  4  0  0  0
 13 18  4  0  0  0
 14 15  4  0  0  0
 15 16  4  0  0  0
 16 17  4  0  0  0
 17 18  4  0  0  0
  1 21  1  0  0  0
  3 22  1  0  0  0
  4 23  1  0  0  0
  6 24  1  0  0  0
  7 25  1  0  0  0
  8 26  1  0  0  0
  8 27  1  0  0  0
 11 28  1  0  0  0
 12 29  1  0  0  0
 15 30  1  0  0  0
 16 31  1  0  0  0
 17 32  1  0  0  0
 18 33  1  0  0  0
 19 34  1  0  0  0
 20 35  1  0  0  0
M  END
$$$$
