2jiu_ligand
  -I-interpret- 

 66 70  0  0  0  0  0  0  0  0999 V2000
  -10.6900   10.5920   36.2440 C   0  0  0  0  0
  -11.8340    9.6390   35.8930 C   0  0  0  0  0
  -13.0640   10.0790   36.5690 N   0  3  0  0  0
  -12.8520   10.0760   38.0230 C   0  0  0  0  0
  -13.5550    8.8650   38.6400 C   0  0  0  0  0
  -13.4060   11.4380   36.1260 C   0  0  0  0  0
  -12.2630   12.3920   36.4780 C   0  0  0  0  0
  -11.0320   11.9530   35.8060 N   0  3  0  0  0
  -11.2360   11.9630   34.3500 C   0  0  0  0  0
  -10.5150   13.1680   33.7420 C   0  0  0  0  0
   -9.1290   13.1700   33.6420 C   0  0  0  0  0
   -8.4730   14.2650   33.0900 C   0  0  0  0  0
  -11.2460   14.2610   33.2910 C   0  0  0  0  0
  -10.5910   15.3560   32.7400 C   0  0  0  0  0
   -9.2040   15.3580   32.6390 C   0  0  0  0  0
   -8.5490   16.4520   32.0870 C   0  0  0  0  0
   -7.2350   16.6770   32.1440 N   0  0  0  0  0
   -9.1330   17.4460   31.4160 C   0  0  0  0  0
   -8.1880   18.3040   31.0460 C   0  0  0  0  0
   -6.9810   17.8160   31.5090 C   0  0  0  0  0
   -5.8570   18.5030   31.2660 N   0  0  0  0  0
   -5.8990   19.6400   30.5890 C   0  0  0  0  0
   -7.0390   20.1360   30.1320 N   0  0  0  0  0
   -8.1980   19.4970   30.3410 C   0  0  0  0  0
   -9.3400   19.9990   29.8800 N   0  0  0  0  0
   -9.4520   21.4390   29.6060 C   0  0  0  0  0
  -10.9280   21.8220   29.4840 C   0  0  0  0  0
   -8.7290   21.7690   28.2990 C   0  0  0  0  0
   -8.1820   23.0320   28.1070 C   0  0  0  0  0
   -7.5250   23.3320   26.9190 C   0  0  0  0  0
   -7.4140   22.3680   25.9240 C   0  0  0  0  0
   -7.9610   21.1050   26.1160 C   0  0  0  0  0
   -8.6180   20.8050   27.3040 C   0  0  0  0  0
   -9.7796   10.2669   35.7404 H   0  0  0  0  0
  -10.5317   10.5870   37.3224 H   0  0  0  0  0
  -11.5803    8.6308   36.2205 H   0  0  0  0  0
  -11.9913    9.6421   34.8144 H   0  0  0  0  0
  -13.8267    9.4431   36.3359 H   0  0  0  0  0
  -13.2620   10.9906   38.4513 H   0  0  0  0  0
  -11.7840   10.0218   38.2338 H   0  0  0  0  0
  -14.6229    8.9197   38.4285 H   0  0  0  0  0
  -13.1447    7.9508   38.2110 H   0  0  0  0  0
  -13.3964    8.8649   39.7184 H   0  0  0  0  0
  -14.3183   11.7641   36.6255 H   0  0  0  0  0
  -13.5617   11.4400   35.0472 H   0  0  0  0  0
  -12.1079   12.3898   37.5569 H   0  0  0  0  0
  -12.5168   13.3995   36.1483 H   0  0  0  0  0
  -10.2708   12.5878   36.0466 H   0  0  0  0  0
  -12.3021   12.0301   34.1330 H   0  0  0  0  0
  -10.8347   11.0450   33.9207 H   0  0  0  0  0
   -8.5559   12.3132   33.9963 H   0  0  0  0  0
   -7.3859   14.2662   33.0110 H   0  0  0  0  0
  -12.3332   14.2593   33.3695 H   0  0  0  0  0
  -11.1644   16.2132   32.3870 H   0  0  0  0  0
  -10.1989   17.5384   31.2076 H   0  0  0  0  0
   -4.9717   20.1818   30.4029 H   0  0  0  0  0
  -10.1380   19.3851   29.7166 H   0  0  0  0  0
   -8.9976   21.9998   30.4228 H   0  0  0  0  0
  -11.3816   21.2600   28.6676 H   0  0  0  0  0
  -11.4410   21.5882   30.4169 H   0  0  0  0  0
  -11.0094   22.8898   29.2809 H   0  0  0  0  0
   -8.2681   23.7876   28.8879 H   0  0  0  0  0
   -7.0971   24.3230   26.7680 H   0  0  0  0  0
   -6.8979   22.6026   24.9930 H   0  0  0  0  0
   -7.8749   20.3494   25.3351 H   0  0  0  0  0
   -9.0459   19.8140   27.4550 H   0  0  0  0  0
  1  2  1  0  0  0
  1  8  1  0  0  0
  2  3  1  0  0  0
  3  4  1  0  0  0
  3  6  1  0  0  0
  4  5  1  0  0  0
  6  7  1  0  0  0
  7  8  1  0  0  0
  8  9  1  0  0  0
  9 10  1  0  0  0
 10 11  4  0  0  0
 10 13  4  0  0  0
 11 12  4  0  0  0
 12 15  4  0  0  0
 13 14  4  0  0  0
 14 15  4  0  0  0
 15 16  1  0  0  0
 16 17  4  0  0  0
 16 18  4  0  0  0
 17 20  4  0  0  0
 18 19  4  0  0  0
 19 20  4  0  0  0
 19 24  4  0  0  0
 20 21  4  0  0  0
 21 22  4  0  0  0
 22 23  4  0  0  0
 23 24  4  0  0  0
 24 25  1  0  0  0
 25 26  1  0  0  0
 26 27  1  0  0  0
 26 28  1  0  0  0
 28 29  4  0  0  0
 28 33  4  0  0  0
 29 30  4  0  0  0
 30 31  4  0  0  0
 31 32  4  0  0  0
 32 33  4  0  0  0
  1 34  1  0  0  0
  1 35  1  0  0  0
  2 36  1  0  0  0
  2 37  1  0  0  0
  3 38  1  0  0  0
  4 39  1  0  0  0
  4 40  1  0  0  0
  5 41  1  0  0  0
  5 42  1  0  0  0
  5 43  1  0  0  0
  6 44  1  0  0  0
  6 45  1  0  0  0
  7 46  1  0  0  0
  7 47  1  0  0  0
  8 48  1  0  0  0
  9 49  1  0  0  0
  9 50  1  0  0  0
 11 51  1  0  0  0
 12 52  1  0  0  0
 13 53  1  0  0  0
 14 54  1  0  0  0
 18 55  1  0  0  0
 22 56  1  0  0  0
 25 57  1  0  0  0
 26 58  1  0  0  0
 27 59  1  0  0  0
 27 60  1  0  0  0
 27 61  1  0  0  0
 29 62  1  0  0  0
 30 63  1  0  0  0
 31 64  1  0  0  0
 32 65  1  0  0  0
 33 66  1  0  0  0
M  END
$$$$
