5a7c_ligand
  -I-interpret- 

 34 33  0  0  0  0  0  0  0  0999 V2000
   12.1780  -36.1760   34.0430 O   0  0  0  0  0
   12.6520  -36.4800   32.9770 C   0  0  0  0  0
   13.0480  -35.4060   32.0150 C   0  0  0  0  0
   12.8150  -37.7220   32.5550 N   0  0  0  0  0
   12.4090  -38.9150   33.2850 C   0  0  0  0  0
   13.5500  -39.6180   34.0570 C   0  0  0  0  0
   14.8970  -39.7570   33.3010 C   0  0  0  0  0
   15.3340  -41.2150   33.0210 C   0  0  0  0  0
   16.6270  -41.2970   32.1840 C   0  0  0  0  0
   16.8640  -42.6850   31.5980 C   0  0  0  0  0
   16.8890  -42.7900   30.1490 N   0  0  0  0  0
   16.0630  -42.2280   29.2010 C   0  0  0  0  0
   16.1550  -42.6150   28.0440 O   0  0  0  0  0
   14.9830  -41.1740   29.4270 C   0  0  0  0  0
   12.1733  -34.8077   31.7602 H   0  0  0  0  0
   13.8041  -34.7693   32.4744 H   0  0  0  0  0
   13.4543  -35.8609   31.1116 H   0  0  0  0  0
   13.2600  -37.8553   31.6469 H   0  0  0  0  0
   12.0377  -39.6274   32.5483 H   0  0  0  0  0
   11.6723  -38.6000   34.0240 H   0  0  0  0  0
   13.2049  -40.6324   34.2568 H   0  0  0  0  0
   13.7525  -39.0013   34.9327 H   0  0  0  0  0
   15.6640  -39.3121   33.9349 H   0  0  0  0  0
   14.7689  -39.2727   32.3329 H   0  0  0  0  0
   14.5381  -41.7010   32.4567 H   0  0  0  0  0
   15.5240  -41.6979   33.9795 H   0  0  0  0  0
   17.4653  -41.0641   32.8406 H   0  0  0  0  0
   16.5331  -40.5959   31.3547 H   0  0  0  0  0
   16.0236  -43.2960   31.9275 H   0  0  0  0  0
   17.8550  -42.9872   31.9367 H   0  0  0  0  0
   17.6375  -43.3728   29.7742 H   0  0  0  0  0
   15.1972  -40.2988   28.8136 H   0  0  0  0  0
   14.0123  -41.5850   29.1496 H   0  0  0  0  0
   14.9707  -40.8879   30.4787 H   0  0  0  0  0
  1  2  2  0  0  0
  2  3  1  0  0  0
  2  4  1  0  0  0
  4  5  1  0  0  0
  5  6  1  0  0  0
  6  7  1  0  0  0
  7  8  1  0  0  0
  8  9  1  0  0  0
  9 10  1  0  0  0
 10 11  1  0  0  0
 11 12  1  0  0  0
 12 13  2  0  0  0
 12 14  1  0  0  0
  3 15  1  0  0  0
  3 16  1  0  0  0
  3 17  1  0  0  0
  4 18  1  0  0  0
  5 19  1  0  0  0
  5 20  1  0  0  0
  6 21  1  0  0  0
  6 22  1  0  0  0
  7 23  1  0  0  0
  7 24  1  0  0  0
  8 25  1  0  0  0
  8 26  1  0  0  0
  9 27  1  0  0  0
  9 28  1  0  0  0
 10 29  1  0  0  0
 10 30  1  0  0  0
 11 31  1  0  0  0
 14 32  1  0  0  0
 14 33  1  0  0  0
 14 34  1  0  0  0
M  END
$$$$
