### 
### Created by X-TOOL on Mon Sep 10 21:13:25 2018
### 

@<TRIPOS>MOLECULE
4xnw_ligand
   43    46     1     0     0
SMALL
GAST_HUCK


@<TRIPOS>ATOM
      1 OAF        24.5600   20.5540   12.0400 O.co2     1 2ID        -0.5537
      2 PBC        24.1960   21.0300   10.5560 P.3       1 2ID         0.2011
      3 OAG        23.0760   19.9900   10.0560 O.co2     1 2ID        -0.5537
      4 OAC        25.4410   20.9900    9.7350 O.co2     1 2ID        -0.5537
      5 OAR        23.5010   22.5100   10.6520 O.3       1 2ID        -0.2721
      6 CAW        22.1710   22.7730   10.1560 C.3       1 2ID         0.1004
      7 CAK        21.2060   22.5860   11.3000 C.3       1 2ID         0.0093
      8 CBA        22.0160   24.2660    9.6780 C.3       1 2ID         0.0351
      9 CAJ        21.8740   24.5660    8.2070 C.3       1 2ID         0.0871
     10 OAQ        22.4470   23.5610    7.3930 O.3       1 2ID        -0.2754
     11 PBB        22.2400   23.7210    5.8030 P.3       1 2ID         0.2007
     12 OAD        22.5040   25.2550    5.4710 O.co2     1 2ID        -0.5537
     13 OAE        20.6450   23.4990    5.5380 O.co2     1 2ID        -0.5537
     14 OAB        23.0850   22.7540    5.0470 O.co2     1 2ID        -0.5537
     15 CAL        22.0640   25.3950   10.6460 C.3       1 2ID        -0.0356
     16 CAY        20.7610   24.7550   10.3040 C.3       1 2ID         0.0010
     17 CAX        20.1260   23.6620   11.1100 C.3       1 2ID         0.0776
     18 N9         18.9600   23.1430   10.3580 N.pl3     1 2ID        -0.2184
     19 C8         18.8750   22.8400    9.0700 C.2       1 2ID         0.1097
     20 N7         17.6540   22.3760    8.8190 N.2       1 2ID        -0.2962
     21 C5         16.9790   22.3910    9.9550 C.ar      1 2ID         0.1041
     22 C4         17.7890   22.8660   10.9030 C.ar      1 2ID         0.1595
     23 N3         17.3450   22.9820   12.1610 N.ar      1 2ID        -0.2579
     24 C2         16.0810   22.6170   12.4580 C.ar      1 2ID         0.1287
     25 I2         15.3690   22.7810   14.4260 I         1 2ID        -0.0020
     26 N1         15.2650   22.1460   11.5010 N.ar      1 2ID        -0.2556
     27 C6         15.7330   22.0360   10.2600 C.ar      1 2ID         0.1324
     28 N6         14.9870   21.5790    9.2750 N.pl3     1 2ID        -0.3043
     29 CAA        13.8030   20.7800    9.6410 C.3       1 2ID         0.0184
     30 H1         21.9375   22.0853    9.3299 H         1 2ID         0.0656
     31 H2         21.7202   22.7240   12.2625 H         1 2ID         0.0323
     32 H3         20.7581   21.5820   11.2642 H         1 2ID         0.0323
     33 H4         22.3736   25.5221    7.9918 H         1 2ID         0.0619
     34 H5         20.8041   24.6487    7.9652 H         1 2ID         0.0619
     35 H6         22.2865   26.4131   10.2938 H         1 2ID         0.0276
     36 H7         22.5051   25.2472   11.6428 H         1 2ID         0.0276
     37 H8         20.0010   25.3417    9.7671 H         1 2ID         0.0338
     38 H9         19.7954   24.0413   12.0882 H         1 2ID         0.0654
     39 H10        19.6735   22.9525    8.3381 H         1 2ID         0.1346
     40 H11        15.2210   21.7717    8.2906 H         1 2ID         0.1852
     41 H12        13.2763   20.4656    8.7279 H         1 2ID         0.0489
     42 H13        13.1286   21.3873   10.2626 H         1 2ID         0.0489
     43 H14        14.1208   19.8910   10.2054 H         1 2ID         0.0489
@<TRIPOS>BOND
     1    1    2 ar 
     2    2    3 ar 
     3    2    4 ar 
     4    2    5 1  
     5    5    6 1  
     6    6    7 1  
     7    6    8 1  
     8    7   17 1  
     9    8    9 1  
    10    8   15 1  
    11    8   16 1  
    12    9   10 1  
    13   10   11 1  
    14   11   12 ar 
    15   11   13 ar 
    16   11   14 ar 
    17   15   16 1  
    18   16   17 1  
    19   17   18 1  
    20   18   19 1  
    21   18   22 1  
    22   19   20 2  
    23   20   21 1  
    24   21   22 ar 
    25   21   27 ar 
    26   22   23 ar 
    27   23   24 ar 
    28   24   25 1  
    29   24   26 ar 
    30   26   27 ar 
    31   27   28 1  
    32   28   29 1  
    33    6   30 1  
    34    7   31 1  
    35    7   32 1  
    36    9   33 1  
    37    9   34 1  
    38   15   35 1  
    39   15   36 1  
    40   16   37 1  
    41   17   38 1  
    42   19   39 1  
    43   28   40 1  
    44   29   41 1  
    45   29   42 1  
    46   29   43 1  
@<TRIPOS>SUBSTRUCTURE
     1 2ID         1

