4xnw_ligand
  -I-interpret- 

 47 50  0  0  0  0  0  0  0  0999 V2000
   24.5600   20.5540   12.0400 O   0  0  0  0  0
   24.1960   21.0300   10.5560 P   0  0  0  0  0
   23.0760   19.9900   10.0560 O   0  0  0  0  0
   25.4410   20.9900    9.7350 O   0  0  0  0  0
   23.5010   22.5100   10.6520 O   0  0  0  0  0
   22.1710   22.7730   10.1560 C   0  0  0  0  0
   21.2060   22.5860   11.3000 C   0  0  0  0  0
   22.0160   24.2660    9.6780 C   0  0  0  0  0
   21.8740   24.5660    8.2070 C   0  0  0  0  0
   22.4470   23.5610    7.3930 O   0  0  0  0  0
   22.2400   23.7210    5.8030 P   0  0  0  0  0
   22.5040   25.2550    5.4710 O   0  0  0  0  0
   20.6450   23.4990    5.5380 O   0  0  0  0  0
   23.0850   22.7540    5.0470 O   0  0  0  0  0
   22.0640   25.3950   10.6460 C   0  0  0  0  0
   20.7610   24.7550   10.3040 C   0  0  0  0  0
   20.1260   23.6620   11.1100 C   0  0  0  0  0
   18.9600   23.1430   10.3580 N   0  0  0  0  0
   18.8750   22.8400    9.0700 C   0  0  0  0  0
   17.6540   22.3760    8.8190 N   0  0  0  0  0
   16.9790   22.3910    9.9550 C   0  0  0  0  0
   17.7890   22.8660   10.9030 C   0  0  0  0  0
   17.3450   22.9820   12.1610 N   0  0  0  0  0
   16.0810   22.6170   12.4580 C   0  0  0  0  0
   15.3690   22.7810   14.4260 I   0  0  0  0  0
   15.2650   22.1460   11.5010 N   0  0  0  0  0
   15.7330   22.0360   10.2600 C   0  0  0  0  0
   14.9870   21.5790    9.2750 N   0  0  0  0  0
   13.8030   20.7800    9.6410 C   0  0  0  0  0
   23.7693   20.5733   12.5840 H   0  0  0  0  0
   22.3016   20.0603   10.6190 H   0  0  0  0  0
   21.9792   22.1010    9.3195 H   0  0  0  0  0
   21.7055   22.6888   12.2633 H   0  0  0  0  0
   20.7753   21.5847   11.2982 H   0  0  0  0  0
   22.3935   25.5021    8.0024 H   0  0  0  0  0
   20.8103   24.6211    7.9756 H   0  0  0  0  0
   21.9189   25.8012    6.0009 H   0  0  0  0  0
   20.1449   24.1430    6.0447 H   0  0  0  0  0
   22.4916   26.3951   10.7175 H   0  0  0  0  0
   22.6238   25.6897   11.5336 H   0  0  0  0  0
   19.8076   25.2182   10.0497 H   0  0  0  0  0
   19.7680   24.0013   12.0820 H   0  0  0  0  0
   19.6742   22.9526    8.3374 H   0  0  0  0  0
   15.2187   21.7699    8.3002 H   0  0  0  0  0
   14.1192   19.8995   10.2002 H   0  0  0  0  0
   13.1357   21.3829   10.2569 H   0  0  0  0  0
   13.2820   20.4691    8.7355 H   0  0  0  0  0
  1  2  1  0  0  0
  2  3  1  0  0  0
  2  4  2  0  0  0
  2  5  1  0  0  0
  5  6  1  0  0  0
  6  7  1  0  0  0
  6  8  1  0  0  0
  7 17  1  0  0  0
  8  9  1  0  0  0
  8 15  1  0  0  0
  8 16  1  0  0  0
  9 10  1  0  0  0
 10 11  1  0  0  0
 11 12  1  0  0  0
 11 13  1  0  0  0
 11 14  2  0  0  0
 15 16  1  0  0  0
 16 17  1  0  0  0
 17 18  1  0  0  0
 18 19  4  0  0  0
 18 22  4  0  0  0
 19 20  4  0  0  0
 20 21  4  0  0  0
 21 22  4  0  0  0
 21 27  4  0  0  0
 22 23  4  0  0  0
 23 24  4  0  0  0
 24 25  1  0  0  0
 24 26  4  0  0  0
 26 27  4  0  0  0
 27 28  1  0  0  0
 28 29  1  0  0  0
  1 30  1  0  0  0
  3 31  1  0  0  0
  6 32  1  0  0  0
  7 33  1  0  0  0
  7 34  1  0  0  0
  9 35  1  0  0  0
  9 36  1  0  0  0
 12 37  1  0  0  0
 13 38  1  0  0  0
 15 39  1  0  0  0
 15 40  1  0  0  0
 16 41  1  0  0  0
 17 42  1  0  0  0
 19 43  1  0  0  0
 28 44  1  0  0  0
 29 45  1  0  0  0
 29 46  1  0  0  0
 29 47  1  0  0  0
M  END
$$$$
