2wfj_ligand
  -I-interpret- 

196196  0  0  0  0  0  0  0  0999 V2000
   16.2880   62.2700    8.0440 N   0  0  0  0  0
   15.4190   63.0890    8.9250 C   0  0  0  0  0
   16.9650   62.9080    6.9150 C   0  0  0  0  0
   18.0560   63.8450    7.4080 C   0  0  0  0  0
   18.2410   64.1140    8.5930 O   0  0  0  0  0
   16.0230   63.5980    5.9040 C   0  0  0  0  0
   15.5720   64.8130    6.5120 O   0  0  0  0  0
   14.8710   62.7040    5.4520 C   0  0  0  0  0
   15.3950   61.3910    4.8400 C   0  0  0  0  0
   13.9570   63.4180    4.4190 C   0  0  0  0  0
   14.6610   63.8330    3.1500 C   0  0  0  0  0
   14.6960   65.0770    2.6820 C   0  0  0  0  0
   15.3410   65.4720    1.3580 C   0  0  0  0  0
   18.8160   64.3080    6.3950 N   0  0  0  0  0
   20.0890   65.0530    6.6090 C   0  0  0  0  0
   19.9630   66.3860    5.8480 C   0  0  0  0  0
   20.4090   66.5080    4.7370 O   0  0  0  0  0
   21.2480   64.2240    6.0550 C   0  0  0  0  0
   21.3800   62.8840    6.8120 C   0  0  0  0  0
   19.3000   67.3950    6.4450 N   0  0  0  0  0
   19.2200   68.6640    5.7140 C   0  0  0  0  0
   17.7720   69.2110    5.8010 C   0  0  0  0  0
   17.6080   70.2970    6.3340 O   0  0  0  0  0
   18.7120   67.3430    7.7770 C   0  0  0  0  0
   16.7890   68.5580    5.2020 N   0  0  0  0  0
   17.0640   67.3530    4.4440 C   0  0  0  0  0
   15.4150   69.0250    5.3270 C   0  0  0  0  0
   14.6920   69.2560    3.9900 C   0  0  0  0  0
   13.5170   70.2250    4.1620 C   0  0  0  0  0
   12.4100   70.1680    5.1540 C   0  0  0  0  0
   14.1080   71.6450    4.2650 C   0  0  0  0  0
   14.6280   67.9640    6.1040 C   0  0  0  0  0
   14.1600   66.9520    5.5310 O   0  0  0  0  0
   14.5170   68.1180    7.4050 N   0  0  0  0  0
   13.8010   67.1590    8.2500 C   0  0  0  0  0
   12.2900   67.3370    7.9860 C   0  0  0  0  0
   11.7980   68.4450    8.0290 O   0  0  0  0  0
   14.1260   67.3570    9.7150 C   0  0  0  0  0
   13.3290   66.4180   10.5820 C   0  0  0  0  0
   15.6710   67.2160    9.9380 C   0  0  0  0  0
   11.5630   66.2390    7.7640 N   0  0  0  0  0
   12.1170   64.8840    7.7510 C   0  0  0  0  0
   10.1390   66.3660    7.4800 C   0  0  0  0  0
    9.7580   65.6920    6.1480 C   0  0  0  0  0
   10.6270   66.0870    4.9750 C   0  0  0  0  0
   10.4060   65.2400    3.7420 C   0  0  0  0  0
   10.4980   67.5640    4.6500 C   0  0  0  0  0
    9.3490   65.8190    8.6440 C   0  0  0  0  0
    9.8130   65.2750    9.6210 O   0  0  0  0  0
    7.9900   65.9400    8.5320 N   0  0  0  0  0
    7.0630   65.4820    9.5430 C   0  0  0  0  0
    7.0340   63.9830    9.7480 C   0  0  0  0  0
    7.4100   63.2460    8.8450 O   0  0  0  0  0
    5.6140   65.9120    9.1850 C   0  0  0  0  0
    6.5250   63.5500   10.9030 N   0  0  0  0  0
    6.3120   62.1570   11.1520 C   0  0  0  0  0
    5.2840   61.9690   12.2820 C   0  0  0  0  0
    7.6000   61.4820   11.6000 C   0  0  0  0  0
    8.2020   61.9150   12.5750 O   0  0  0  0  0
    8.0460   60.3960   10.9160 N   0  0  0  0  0
    7.4270   59.9650    9.6430 C   0  0  0  0  0
    9.1220   59.5760   11.4900 C   0  0  0  0  0
    8.5870   58.2260   11.9460 C   0  0  0  0  0
    7.4950   58.2920   13.0370 C   0  0  0  0  0
    6.8910   56.8760   13.1710 C   0  0  0  0  0
    8.0760   58.7970   14.3440 C   0  0  0  0  0
   10.2350   59.3650   10.4490 C   0  0  0  0  0
   10.5000   58.2280   10.0730 O   0  0  0  0  0
   10.9300   60.4390   10.0280 N   0  0  0  0  0
   10.6330   61.8150   10.4030 C   0  0  0  0  0
   11.9890   60.1970    9.0290 C   0  0  0  0  0
   11.8130   61.0450    7.7650 C   0  0  0  0  0
   10.5130   60.7230    7.0040 C   0  0  0  0  0
   10.5200   61.5660    5.6870 C   0  0  0  0  0
   10.3380   59.2520    6.6380 C   0  0  0  0  0
   13.3790   60.4350    9.6680 C   0  0  0  0  0
   13.4880   61.0330   10.7210 O   0  0  0  0  0
   14.4400   59.9900    8.9760 N   0  0  0  0  0
   14.4000   59.0710    7.8200 C   0  0  0  0  0
   15.8000   60.3020    9.4560 C   0  0  0  0  0
   16.5720   59.0820    9.9960 C   0  0  0  0  0
   17.7810   59.6260   10.7410 C   0  0  0  0  0
   15.6880   58.2360   10.9040 C   0  0  0  0  0
   16.5730   60.9790    8.2890 C   0  0  0  0  0
   17.4010   60.3370    7.6370 O   0  0  0  0  0
   14.4283   62.6375    8.9774 H   0  0  0  0  0
   15.8535   63.1317    9.9237 H   0  0  0  0  0
   15.3391   64.0973    8.5187 H   0  0  0  0  0
   17.4230   62.0993    6.3455 H   0  0  0  0  0
   16.5639   63.8140    4.9826 H   0  0  0  0  0
   16.3309   65.3376    6.7775 H   0  0  0  0  0
   14.2830   62.4799    6.3420 H   0  0  0  0  0
   14.5522   60.7470    4.5888 H   0  0  0  0  0
   15.9650   61.6141    3.9381 H   0  0  0  0  0
   16.0372   60.8862    5.5616 H   0  0  0  0  0
   13.5866   64.3272    4.8926 H   0  0  0  0  0
   13.1776   62.7102    4.1369 H   0  0  0  0  0
   15.1756   63.0605    2.5785 H   0  0  0  0  0
   14.2355   65.8624    3.2814 H   0  0  0  0  0
   16.3990   65.2108    1.3786 H   0  0  0  0  0
   14.8499   64.9401    0.5431 H   0  0  0  0  0
   15.2335   66.5464    1.2092 H   0  0  0  0  0
   18.5053   64.1406    5.4380 H   0  0  0  0  0
   20.2770   65.2397    7.6663 H   0  0  0  0  0
   22.1724   64.7883    6.1783 H   0  0  0  0  0
   21.0568   64.0142    5.0026 H   0  0  0  0  0
   21.5635   63.0814    7.8682 H   0  0  0  0  0
   20.4574   62.3139    6.7025 H   0  0  0  0  0
   22.2119   62.3145    6.3976 H   0  0  0  0  0
   19.4883   68.5026    4.6699 H   0  0  0  0  0
   19.9103   69.3839    6.1536 H   0  0  0  0  0
   17.9651   66.5499    7.8123 H   0  0  0  0  0
   19.4931   67.1412    8.5100 H   0  0  0  0  0
   18.2394   68.2992    8.0017 H   0  0  0  0  0
   17.7545   67.5850    3.6331 H   0  0  0  0  0
   17.5105   66.6062    5.1006 H   0  0  0  0  0
   16.1331   66.9651    4.0305 H   0  0  0  0  0
   15.4603   69.9913    5.8293 H   0  0  0  0  0
   14.3085   68.3013    3.6301 H   0  0  0  0  0
   15.3986   69.6854    3.2797 H   0  0  0  0  0
   12.9524   69.8763    3.2973 H   0  0  0  0  0
   11.8564   69.2379    5.0256 H   0  0  0  0  0
   12.8241   70.2098    6.1614 H   0  0  0  0  0
   11.7412   71.0147    4.9993 H   0  0  0  0  0
   14.7774   71.6971    5.1236 H   0  0  0  0  0
   14.6635   71.8728    3.3552 H   0  0  0  0  0
   13.2995   72.3655    4.3887 H   0  0  0  0  0
   14.9448   68.9345    7.8417 H   0  0  0  0  0
   14.1110   66.1439    8.0019 H   0  0  0  0  0
   13.8373   68.3648   10.0134 H   0  0  0  0  0
   12.2651   66.6029   10.4333 H   0  0  0  0  0
   13.5616   65.3885   10.3098 H   0  0  0  0  0
   13.5855   66.5854   11.6281 H   0  0  0  0  0
   15.9924   66.2218    9.6274 H   0  0  0  0  0
   16.1923   67.9690    9.3469 H   0  0  0  0  0
   15.8989   67.3595   10.9942 H   0  0  0  0  0
   12.8782   64.8115    6.9742 H   0  0  0  0  0
   12.5641   64.6663    8.7210 H   0  0  0  0  0
   11.3198   64.1688    7.5482 H   0  0  0  0  0
    9.8936   67.4211    7.3593 H   0  0  0  0  0
    8.7410   66.0047    5.9114 H   0  0  0  0  0
    9.8792   64.6178    6.2876 H   0  0  0  0  0
   11.6502   65.8943    5.2974 H   0  0  0  0  0
   10.6271   64.1982    3.9740 H   0  0  0  0  0
    9.3678   65.3300    3.4223 H   0  0  0  0  0
   11.0643   65.5835    2.9440 H   0  0  0  0  0
    9.4614   67.7906    4.4004 H   0  0  0  0  0
   10.8018   68.1530    5.5154 H   0  0  0  0  0
   11.1385   67.8053    3.8017 H   0  0  0  0  0
    7.6114   66.3761    7.6913 H   0  0  0  0  0
    7.4233   65.9420   10.4631 H   0  0  0  0  0
    5.5638   66.9991    9.1232 H   0  0  0  0  0
    5.3347   65.4789    8.2245 H   0  0  0  0  0
    4.9303   65.5587    9.9569 H   0  0  0  0  0
    6.2820   64.2279   11.6254 H   0  0  0  0  0
    5.9558   61.7135   10.2222 H   0  0  0  0  0
    5.6551   62.4416   13.1914 H   0  0  0  0  0
    4.3391   62.4284   11.9919 H   0  0  0  0  0
    5.1324   60.9044   12.4601 H   0  0  0  0  0
    6.3754   59.7332    9.8120 H   0  0  0  0  0
    7.5103   60.7674    8.9100 H   0  0  0  0  0
    7.9409   59.0780    9.2726 H   0  0  0  0  0
    9.5278   60.1011   12.3547 H   0  0  0  0  0
    9.4286   57.6824   12.3752 H   0  0  0  0  0
    8.1327   57.7563   11.0736 H   0  0  0  0  0
    6.7089   58.9962   12.7646 H   0  0  0  0  0
    6.4603   56.5743   12.2163 H   0  0  0  0  0
    7.6744   56.1737   13.4558 H   0  0  0  0  0
    6.1138   56.8847   13.9352 H   0  0  0  0  0
    8.8655   58.1218   14.6741 H   0  0  0  0  0
    8.4883   59.7950   14.1953 H   0  0  0  0  0
    7.2903   58.8358   15.0985 H   0  0  0  0  0
    9.6234   62.0685   10.0796 H   0  0  0  0  0
   10.7060   61.9190   11.4856 H   0  0  0  0  0
   11.3481   62.4834    9.9234 H   0  0  0  0  0
   11.9110   59.1568    8.7129 H   0  0  0  0  0
   12.6499   60.8301    7.1005 H   0  0  0  0  0
   11.7708   62.0910    8.0688 H   0  0  0  0  0
    9.6840   60.9669    7.6684 H   0  0  0  0  0
   10.5642   62.6263    5.9360 H   0  0  0  0  0
   11.3899   61.2954    5.0886 H   0  0  0  0  0
    9.6107   61.3619    5.1216 H   0  0  0  0  0
   11.1641   58.9367    6.0006 H   0  0  0  0  0
   10.3293   58.6512    7.5474 H   0  0  0  0  0
    9.3960   59.1210    6.1055 H   0  0  0  0  0
   13.9453   58.1278    8.1229 H   0  0  0  0  0
   13.8104   59.5200    7.0207 H   0  0  0  0  0
   15.4150   58.8895    7.4665 H   0  0  0  0  0
   15.7100   60.9713   10.3116 H   0  0  0  0  0
   16.8876   58.4265    9.1843 H   0  0  0  0  0
   18.3992   60.2044   10.0544 H   0  0  0  0  0
   17.4456   60.2660   11.5570 H   0  0  0  0  0
   18.3617   58.7961   11.1436 H   0  0  0  0  0
   15.3523   58.8397   11.7472 H   0  0  0  0  0
   14.8238   57.8830   10.3413 H   0  0  0  0  0
   16.2578   57.3822   11.2708 H   0  0  0  0  0
  1  2  1  0  0  0
  1  3  1  0  0  0
  1 84  1  0  0  0
  3  4  1  0  0  0
  3  6  1  0  0  0
  4  5  2  0  0  0
  4 14  1  0  0  0
  6  7  1  0  0  0
  6  8  1  0  0  0
  8  9  1  0  0  0
  8 10  1  0  0  0
 10 11  1  0  0  0
 11 12  2  0  0  0
 12 13  1  0  0  0
 14 15  1  0  0  0
 15 16  1  0  0  0
 15 18  1  0  0  0
 16 17  2  0  0  0
 16 20  1  0  0  0
 18 19  1  0  0  0
 20 21  1  0  0  0
 20 24  1  0  0  0
 21 22  1  0  0  0
 22 23  2  0  0  0
 22 25  1  0  0  0
 25 26  1  0  0  0
 25 27  1  0  0  0
 27 28  1  0  0  0
 27 32  1  0  0  0
 28 29  1  0  0  0
 29 30  1  0  0  0
 29 31  1  0  0  0
 32 33  2  0  0  0
 32 34  1  0  0  0
 34 35  1  0  0  0
 35 36  1  0  0  0
 35 38  1  0  0  0
 36 37  2  0  0  0
 36 41  1  0  0  0
 38 39  1  0  0  0
 38 40  1  0  0  0
 41 42  1  0  0  0
 41 43  1  0  0  0
 43 44  1  0  0  0
 43 48  1  0  0  0
 44 45  1  0  0  0
 45 46  1  0  0  0
 45 47  1  0  0  0
 48 49  2  0  0  0
 48 50  1  0  0  0
 50 51  1  0  0  0
 51 52  1  0  0  0
 51 54  1  0  0  0
 52 53  2  0  0  0
 52 55  1  0  0  0
 55 56  1  0  0  0
 56 57  1  0  0  0
 56 58  1  0  0  0
 58 59  2  0  0  0
 58 60  1  0  0  0
 60 61  1  0  0  0
 60 62  1  0  0  0
 62 63  1  0  0  0
 62 67  1  0  0  0
 63 64  1  0  0  0
 64 65  1  0  0  0
 64 66  1  0  0  0
 67 68  2  0  0  0
 67 69  1  0  0  0
 69 70  1  0  0  0
 69 71  1  0  0  0
 71 72  1  0  0  0
 71 76  1  0  0  0
 72 73  1  0  0  0
 73 74  1  0  0  0
 73 75  1  0  0  0
 76 77  2  0  0  0
 76 78  1  0  0  0
 78 79  1  0  0  0
 78 80  1  0  0  0
 80 81  1  0  0  0
 80 84  1  0  0  0
 81 82  1  0  0  0
 81 83  1  0  0  0
 84 85  2  0  0  0
  2 86  1  0  0  0
  2 87  1  0  0  0
  2 88  1  0  0  0
  3 89  1  0  0  0
  6 90  1  0  0  0
  7 91  1  0  0  0
  8 92  1  0  0  0
  9 93  1  0  0  0
  9 94  1  0  0  0
  9 95  1  0  0  0
 10 96  1  0  0  0
 10 97  1  0  0  0
 11 98  1  0  0  0
 12 99  1  0  0  0
 13100  1  0  0  0
 13101  1  0  0  0
 13102  1  0  0  0
 14103  1  0  0  0
 15104  1  0  0  0
 18105  1  0  0  0
 18106  1  0  0  0
 19107  1  0  0  0
 19108  1  0  0  0
 19109  1  0  0  0
 21110  1  0  0  0
 21111  1  0  0  0
 24112  1  0  0  0
 24113  1  0  0  0
 24114  1  0  0  0
 26115  1  0  0  0
 26116  1  0  0  0
 26117  1  0  0  0
 27118  1  0  0  0
 28119  1  0  0  0
 28120  1  0  0  0
 29121  1  0  0  0
 30122  1  0  0  0
 30123  1  0  0  0
 30124  1  0  0  0
 31125  1  0  0  0
 31126  1  0  0  0
 31127  1  0  0  0
 34128  1  0  0  0
 35129  1  0  0  0
 38130  1  0  0  0
 39131  1  0  0  0
 39132  1  0  0  0
 39133  1  0  0  0
 40134  1  0  0  0
 40135  1  0  0  0
 40136  1  0  0  0
 42137  1  0  0  0
 42138  1  0  0  0
 42139  1  0  0  0
 43140  1  0  0  0
 44141  1  0  0  0
 44142  1  0  0  0
 45143  1  0  0  0
 46144  1  0  0  0
 46145  1  0  0  0
 46146  1  0  0  0
 47147  1  0  0  0
 47148  1  0  0  0
 47149  1  0  0  0
 50150  1  0  0  0
 51151  1  0  0  0
 54152  1  0  0  0
 54153  1  0  0  0
 54154  1  0  0  0
 55155  1  0  0  0
 56156  1  0  0  0
 57157  1  0  0  0
 57158  1  0  0  0
 57159  1  0  0  0
 61160  1  0  0  0
 61161  1  0  0  0
 61162  1  0  0  0
 62163  1  0  0  0
 63164  1  0  0  0
 63165  1  0  0  0
 64166  1  0  0  0
 65167  1  0  0  0
 65168  1  0  0  0
 65169  1  0  0  0
 66170  1  0  0  0
 66171  1  0  0  0
 66172  1  0  0  0
 70173  1  0  0  0
 70174  1  0  0  0
 70175  1  0  0  0
 71176  1  0  0  0
 72177  1  0  0  0
 72178  1  0  0  0
 73179  1  0  0  0
 74180  1  0  0  0
 74181  1  0  0  0
 74182  1  0  0  0
 75183  1  0  0  0
 75184  1  0  0  0
 75185  1  0  0  0
 79186  1  0  0  0
 79187  1  0  0  0
 79188  1  0  0  0
 80189  1  0  0  0
 81190  1  0  0  0
 82191  1  0  0  0
 82192  1  0  0  0
 82193  1  0  0  0
 83194  1  0  0  0
 83195  1  0  0  0
 83196  1  0  0  0
M  END
$$$$
