### 
### Created by X-TOOL on Mon Sep 10 21:12:59 2018
### 

@<TRIPOS>MOLECULE
2wfj_ligand
  196   196     1     0     0
SMALL
GAST_HUCK


@<TRIPOS>ATOM
      1 N          16.2880   62.2700    8.0440 N.am      1 BMT        -0.2503
      2 CN         15.4190   63.0890    8.9250 C.3       1 BMT         0.0255
      3 CA         16.9650   62.9080    6.9150 C.3       1 BMT         0.1594
      4 C          18.0560   63.8450    7.4080 C.2       1 BMT         0.2067
      5 O          18.2410   64.1140    8.5930 O.2       1 BMT        -0.3943
      6 CB         16.0230   63.5980    5.9040 C.3       1 BMT         0.0994
      7 OG1        15.5720   64.8130    6.5120 O.3       1 BMT        -0.3867
      8 CG2        14.8710   62.7040    5.4520 C.3       1 BMT        -0.0069
      9 CD1        15.3950   61.3910    4.8400 C.3       1 BMT        -0.0583
     10 CD2        13.9570   63.4180    4.4190 C.3       1 BMT        -0.0313
     11 CE         14.6610   63.8330    3.1500 C.2       1 BMT        -0.0986
     12 CZ         14.6960   65.0770    2.6820 C.2       1 BMT        -0.1017
     13 CH         15.3410   65.4720    1.3580 C.3       1 BMT        -0.0486
     14 N          18.8160   64.3080    6.3950 N.am      1 ABA        -0.2636
     15 CA         20.0890   65.0530    6.6090 C.3       1 ABA         0.1309
     16 C          19.9630   66.3860    5.8480 C.2       1 ABA         0.2059
     17 O          20.4090   66.5080    4.7370 O.2       1 ABA        -0.3942
     18 CB         21.2480   64.2240    6.0550 C.3       1 ABA        -0.0152
     19 CG         21.3800   62.8840    6.8120 C.3       1 ABA        -0.0610
     20 N          19.3000   67.3950    6.4450 N.am      1 SAR        -0.2556
     21 CA         19.2200   68.6640    5.7140 C.3       1 SAR         0.1227
     22 C          17.7720   69.2110    5.8010 C.2       1 SAR         0.2032
     23 O          17.6080   70.2970    6.3340 O.2       1 SAR        -0.3945
     24 CN         18.7120   67.3430    7.7770 C.3       1 SAR         0.0252
     25 N          16.7890   68.5580    5.2020 N.am      1 MLE        -0.2531
     26 CN         17.0640   67.3530    4.4440 C.3       1 MLE         0.0254
     27 CA         15.4150   69.0250    5.3270 C.3       1 MLE         0.1336
     28 CB         14.6920   69.2560    3.9900 C.3       1 MLE        -0.0099
     29 CG         13.5170   70.2250    4.1620 C.3       1 MLE        -0.0425
     30 CD1        12.4100   70.1680    5.1540 C.3       1 MLE        -0.0625
     31 CD2        14.1080   71.6450    4.2650 C.3       1 MLE        -0.0625
     32 C          14.6280   67.9640    6.1040 C.2       1 MLE         0.2041
     33 O          14.1600   66.9520    5.5310 O.2       1 MLE        -0.3944
     34 N          14.5170   68.1180    7.4050 N.am      1 VAL        -0.2635
     35 CA         13.8010   67.1590    8.2500 C.3       1 VAL         0.1334
     36 C          12.2900   67.3370    7.9860 C.2       1 VAL         0.2064
     37 O          11.7980   68.4450    8.0290 O.2       1 VAL        -0.3942
     38 CB         14.1260   67.3570    9.7150 C.3       1 VAL        -0.0062
     39 CG1        13.3290   66.4180   10.5820 C.3       1 VAL        -0.0584
     40 CG2        15.6710   67.2160    9.9380 C.3       1 VAL        -0.0584
     41 N          11.5630   66.2390    7.7640 N.am      1 MLE        -0.2529
     42 CN         12.1170   64.8840    7.7510 C.3       1 MLE         0.0254
     43 CA         10.1390   66.3660    7.4800 C.3       1 MLE         0.1336
     44 CB          9.7580   65.6920    6.1480 C.3       1 MLE        -0.0099
     45 CG         10.6270   66.0870    4.9750 C.3       1 MLE        -0.0425
     46 CD1        10.4060   65.2400    3.7420 C.3       1 MLE        -0.0625
     47 CD2        10.4980   67.5640    4.6500 C.3       1 MLE        -0.0625
     48 C           9.3490   65.8190    8.6440 C.2       1 MLE         0.2041
     49 O           9.8130   65.2750    9.6210 O.2       1 MLE        -0.3944
     50 N           7.9900   65.9400    8.5320 N.am      1 ALA        -0.2640
     51 CA          7.0630   65.4820    9.5430 C.3       1 ALA         0.1282
     52 C           7.0340   63.9830    9.7480 C.2       1 ALA         0.2036
     53 O           7.4100   63.2460    8.8450 O.2       1 ALA        -0.3944
     54 CB          5.6140   65.9120    9.1850 C.3       1 ALA        -0.0244
     55 N           6.5250   63.5500   10.9030 N.am      1 DAL        -0.2640
     56 CA          6.3120   62.1570   11.1520 C.3       1 DAL         0.1284
     57 CB          5.2840   61.9690   12.2820 C.3       1 DAL        -0.0244
     58 C           7.6000   61.4820   11.6000 C.2       1 DAL         0.2059
     59 O           8.2020   61.9150   12.5750 O.2       1 DAL        -0.3942
     60 N           8.0460   60.3960   10.9160 N.am      1 MLE        -0.2529
     61 CN          7.4270   59.9650    9.6430 C.3       1 MLE         0.0254
     62 CA          9.1220   59.5760   11.4900 C.3       1 MLE         0.1338
     63 CB          8.5870   58.2260   11.9460 C.3       1 MLE        -0.0099
     64 CG          7.4950   58.2920   13.0370 C.3       1 MLE        -0.0425
     65 CD1         6.8910   56.8760   13.1710 C.3       1 MLE        -0.0625
     66 CD2         8.0760   58.7970   14.3440 C.3       1 MLE        -0.0625
     67 C          10.2350   59.3650   10.4490 C.2       1 MLE         0.2064
     68 O          10.5000   58.2280   10.0730 O.2       1 MLE        -0.3942
     69 N          10.9300   60.4390   10.0280 N.am      1 MLE        -0.2529
     70 CN         10.6330   61.8150   10.4030 C.3       1 MLE         0.0254
     71 CA         11.9890   60.1970    9.0290 C.3       1 MLE         0.1338
     72 CB         11.8130   61.0450    7.7650 C.3       1 MLE        -0.0099
     73 CG         10.5130   60.7230    7.0040 C.3       1 MLE        -0.0425
     74 CD1        10.5200   61.5660    5.6870 C.3       1 MLE        -0.0625
     75 CD2        10.3380   59.2520    6.6380 C.3       1 MLE        -0.0625
     76 C          13.3790   60.4350    9.6680 C.2       1 MLE         0.2064
     77 O          13.4880   61.0330   10.7210 O.2       1 MLE        -0.3942
     78 N          14.4400   59.9900    8.9760 N.am      1 MVA        -0.2526
     79 CN         14.4000   59.0710    7.8200 C.3       1 MVA         0.0254
     80 CA         15.8000   60.3020    9.4560 C.3       1 MVA         0.1359
     81 CB         16.5720   59.0820    9.9960 C.3       1 MVA        -0.0061
     82 CG1        17.7810   59.6260   10.7410 C.3       1 MVA        -0.0584
     83 CG2        15.6880   58.2360   10.9040 C.3       1 MVA        -0.0584
     84 C          16.5730   60.9790    8.2890 C.2       1 MVA         0.2067
     85 O          17.4010   60.3370    7.6370 O.2       1 MVA        -0.3942
     86 H1         15.3376   64.1069    8.5160 H         1 BMT         0.0488
     87 H2         15.8564   63.1329    9.9333 H         1 BMT         0.0488
     88 H3         14.4188   62.6344    8.9787 H         1 BMT         0.0488
     89 H4         17.4658   62.1010    6.3601 H         1 BMT         0.0828
     90 H5         16.6067   63.8544    5.0076 H         1 BMT         0.0646
     91 H6         14.9875   65.2662    5.9157 H         1 BMT         0.2101
     92 H7         14.2658   62.4584    6.3371 H         1 BMT         0.0345
     93 H8         14.5447   60.7687    4.5242 H         1 BMT         0.0235
     94 H9         15.9882   60.8478    5.5903 H         1 BMT         0.0235
     95 H10        16.0262   61.6189    3.9684 H         1 BMT         0.0235
     96 H11        13.5403   64.3192    4.8924 H         1 BMT         0.0391
     97 H12        13.1391   62.7330    4.1511 H         1 BMT         0.0391
     98 H13        15.1751   63.0612    2.5791 H         1 BMT         0.0450
     99 H14        14.2359   65.8617    3.2808 H         1 BMT         0.0447
    100 H15        15.2331   66.5562    1.2067 H         1 BMT         0.0353
    101 H16        14.8462   64.9359    0.5347 H         1 BMT         0.0353
    102 H17        16.4089   65.2090    1.3775 H         1 BMT         0.0353
    103 H18        18.5114   64.1439    5.4567 H         1 ABA         0.1883
    104 H19        20.2477   65.2430    7.6808 H         1 ABA         0.0800
    105 H20        22.1827   64.7933    6.1653 H         1 ABA         0.0310
    106 H21        21.0670   64.0191    4.9895 H         1 ABA         0.0310
    107 H22        22.2193   62.3083    6.3947 H         1 ABA         0.0232
    108 H23        20.4495   62.3076    6.7023 H         1 ABA         0.0232
    109 H24        21.5653   63.0818    7.8781 H         1 ABA         0.0232
    110 H25        19.4884   68.4992    4.6601 H         1 SAR         0.0765
    111 H26        19.9152   69.3903    6.1603 H         1 SAR         0.0765
    112 H27        18.8475   66.3360    8.1985 H         1 SAR         0.0488
    113 H28        17.6381   67.5722    7.7130 H         1 SAR         0.0488
    114 H29        19.2065   68.0814    8.4252 H         1 SAR         0.0488
    115 H30        18.1453   67.1516    4.4552 H         1 MLE         0.0488
    116 H31        16.7269   67.4880    3.4057 H         1 MLE         0.0488
    117 H32        16.5285   66.5052    4.8961 H         1 MLE         0.0488
    118 H33        15.4195   69.9712    5.8880 H         1 MLE         0.0802
    119 H34        14.3130   68.2939    3.6149 H         1 MLE         0.0315
    120 H35        15.4031   69.6779    3.2646 H         1 MLE         0.0315
    121 H36        12.9938   70.1532    3.1971 H         1 MLE         0.0298
    122 H37        11.7343   71.0221    4.9989 H         1 MLE         0.0232
    123 H38        12.8266   70.2101    6.1712 H         1 MLE         0.0232
    124 H39        11.8504   69.2298    5.0255 H         1 MLE         0.0232
    125 H40        14.9374   71.7497    3.5500 H         1 MLE         0.0232
    126 H41        14.4807   71.8139    5.2861 H         1 MLE         0.0232
    127 H42        13.3278   72.3847    4.0323 H         1 MLE         0.0232
    128 H43        14.9364   68.9185    7.8331 H         1 VAL         0.1883
    129 H44        14.0981   66.1390    7.9648 H         1 VAL         0.0803
    130 H45        13.8402   68.3828    9.9908 H         1 VAL         0.0343
    131 H46        13.5870   66.5860   11.6380 H         1 VAL         0.0234
    132 H47        13.5629   65.3786   10.3083 H         1 VAL         0.0234
    133 H48        12.2551   66.6037   10.4329 H         1 VAL         0.0234
    134 H49        16.2020   67.9219    9.2824 H         1 VAL         0.0234
    135 H50        15.9836   66.1886    9.7000 H         1 VAL         0.0234
    136 H51        15.9118   67.4387   10.9880 H         1 VAL         0.0234
    137 H52        13.1924   64.9254    7.9785 H         1 MLE         0.0488
    138 H53        11.9695   64.4371    6.7568 H         1 MLE         0.0488
    139 H54        11.6055   64.2714    8.5080 H         1 MLE         0.0488
    140 H55         9.9053   67.4367    7.3858 H         1 MLE         0.0802
    141 H56         8.7181   65.9616    5.9115 H         1 MLE         0.0315
    142 H57         9.8334   64.6026    6.2801 H         1 MLE         0.0315
    143 H58        11.6676   65.9179    5.2888 H         1 MLE         0.0298
    144 H59        11.0699   65.5857    2.9359 H         1 MLE         0.0232
    145 H60         9.3586   65.3299    3.4182 H         1 MLE         0.0232
    146 H61        10.6288   64.1883    3.9748 H         1 MLE         0.0232
    147 H62        10.6630   68.1559    5.5624 H         1 MLE         0.0232
    148 H63         9.4901   67.7667    4.2587 H         1 MLE         0.0232
    149 H64        11.2474   67.8398    3.8935 H         1 MLE         0.0232
    150 H65         7.6188   66.3676    7.7077 H         1 ALA         0.1883
    151 H66         7.3530   65.9527   10.4940 H         1 ALA         0.0797
    152 H67         4.9230   65.5560    9.9633 H         1 ALA         0.0277
    153 H68         5.3308   65.4755    8.2158 H         1 ALA         0.0277
    154 H69         5.5619   67.0090    9.1224 H         1 ALA         0.0277
    155 H70         6.2868   64.2146   11.6112 H         1 DAL         0.1883
    156 H71         5.9450   61.6798   10.2314 H         1 DAL         0.0797
    157 H72         5.1301   60.8949   12.4627 H         1 DAL         0.0277
    158 H73         4.3298   62.4322   11.9905 H         1 DAL         0.0277
    159 H74         5.6574   62.4454   13.2004 H         1 DAL         0.0277
    160 H75         6.6454   60.6830    9.3538 H         1 MLE         0.0488
    161 H76         6.9798   58.9683    9.7717 H         1 MLE         0.0488
    162 H77         8.1955   59.9234    8.8571 H         1 MLE         0.0488
    163 H78         9.5417   60.1029   12.3596 H         1 MLE         0.0802
    164 H79         9.4300   57.6407   12.3418 H         1 MLE         0.0315
    165 H80         8.1637   57.7129   11.0699 H         1 MLE         0.0315
    166 H81         6.7051   58.9882   12.7186 H         1 MLE         0.0298
    167 H82         6.1064   56.8835   13.9420 H         1 MLE         0.0232
    168 H83         7.6807   56.1662   13.4584 H         1 MLE         0.0232
    169 H84         6.4559   56.5703   12.2081 H         1 MLE         0.0232
    170 H85         8.4915   59.8046   14.1955 H         1 MLE         0.0232
    171 H86         8.8737   58.1171   14.6777 H         1 MLE         0.0232
    172 H87         7.2842   58.8356   15.1066 H         1 MLE         0.0232
    173 H88         9.8266   61.8252   11.1511 H         1 MLE         0.0488
    174 H89        10.3144   62.3771    9.5128 H         1 MLE         0.0488
    175 H90        11.5337   62.2817   10.8284 H         1 MLE         0.0488
    176 H91        11.9295   59.1406    8.7284 H         1 MLE         0.0802
    177 H92        12.6664   60.8596    7.0962 H         1 MLE         0.0315
    178 H93        11.7971   62.1063    8.0536 H         1 MLE         0.0315
    179 H94         9.6606   61.0241    7.6306 H         1 MLE         0.0298
    180 H95         9.6028   61.3608    5.1155 H         1 MLE         0.0232
    181 H96        11.3975   61.2939    5.0821 H         1 MLE         0.0232
    182 H97        10.5646   62.6363    5.9369 H         1 MLE         0.0232
    183 H98        10.3310   58.6444    7.5549 H         1 MLE         0.0232
    184 H99        11.1701   58.9331    5.9932 H         1 MLE         0.0232
    185 H100        9.3867   59.1181    6.1022 H         1 MLE         0.0232
    186 H101       13.3542   58.8933    7.5289 H         1 MVA         0.0488
    187 H102       14.8716   58.1159    8.0944 H         1 MVA         0.0488
    188 H103       14.9443   59.5196    6.9759 H         1 MVA         0.0488
    189 H104       15.7103   61.0238   10.2812 H         1 MVA         0.0804
    190 H105       16.9101   58.4582    9.1554 H         1 MVA         0.0343
    191 H106       18.3679   58.7893   11.1478 H         1 MVA         0.0234
    192 H107       17.4438   60.2721   11.5649 H         1 MVA         0.0234
    193 H108       18.4058   60.2099   10.0492 H         1 MVA         0.0234
    194 H109       14.8267   57.8613   10.3316 H         1 MVA         0.0234
    195 H110       15.3309   58.8501   11.7438 H         1 MVA         0.0234
    196 H111       16.2682   57.3858   11.2920 H         1 MVA         0.0234
@<TRIPOS>BOND
     1    1    2 1  
     2    1    3 1  
     3    1   84 am 
     4    3    4 1  
     5    3    6 1  
     6    4    5 2  
     7    4   14 am 
     8    6    7 1  
     9    6    8 1  
    10    8    9 1  
    11    8   10 1  
    12   10   11 1  
    13   11   12 2  
    14   12   13 1  
    15   14   15 1  
    16   15   16 1  
    17   15   18 1  
    18   16   17 2  
    19   16   20 am 
    20   18   19 1  
    21   20   21 1  
    22   20   24 1  
    23   21   22 1  
    24   22   23 2  
    25   22   25 am 
    26   25   26 1  
    27   25   27 1  
    28   27   28 1  
    29   27   32 1  
    30   28   29 1  
    31   29   30 1  
    32   29   31 1  
    33   32   33 2  
    34   32   34 am 
    35   34   35 1  
    36   35   36 1  
    37   35   38 1  
    38   36   37 2  
    39   36   41 am 
    40   38   39 1  
    41   38   40 1  
    42   41   42 1  
    43   41   43 1  
    44   43   44 1  
    45   43   48 1  
    46   44   45 1  
    47   45   46 1  
    48   45   47 1  
    49   48   49 2  
    50   48   50 am 
    51   50   51 1  
    52   51   52 1  
    53   51   54 1  
    54   52   53 2  
    55   52   55 am 
    56   55   56 1  
    57   56   57 1  
    58   56   58 1  
    59   58   59 2  
    60   58   60 am 
    61   60   61 1  
    62   60   62 1  
    63   62   63 1  
    64   62   67 1  
    65   63   64 1  
    66   64   65 1  
    67   64   66 1  
    68   67   68 2  
    69   67   69 am 
    70   69   70 1  
    71   69   71 1  
    72   71   72 1  
    73   71   76 1  
    74   72   73 1  
    75   73   74 1  
    76   73   75 1  
    77   76   77 2  
    78   76   78 am 
    79   78   79 1  
    80   78   80 1  
    81   80   81 1  
    82   80   84 1  
    83   81   82 1  
    84   81   83 1  
    85   84   85 2  
    86    2   86 1  
    87    2   87 1  
    88    2   88 1  
    89    3   89 1  
    90    6   90 1  
    91    7   91 1  
    92    8   92 1  
    93    9   93 1  
    94    9   94 1  
    95    9   95 1  
    96   10   96 1  
    97   10   97 1  
    98   11   98 1  
    99   12   99 1  
   100   13  100 1  
   101   13  101 1  
   102   13  102 1  
   103   14  103 1  
   104   15  104 1  
   105   18  105 1  
   106   18  106 1  
   107   19  107 1  
   108   19  108 1  
   109   19  109 1  
   110   21  110 1  
   111   21  111 1  
   112   24  112 1  
   113   24  113 1  
   114   24  114 1  
   115   26  115 1  
   116   26  116 1  
   117   26  117 1  
   118   27  118 1  
   119   28  119 1  
   120   28  120 1  
   121   29  121 1  
   122   30  122 1  
   123   30  123 1  
   124   30  124 1  
   125   31  125 1  
   126   31  126 1  
   127   31  127 1  
   128   34  128 1  
   129   35  129 1  
   130   38  130 1  
   131   39  131 1  
   132   39  132 1  
   133   39  133 1  
   134   40  134 1  
   135   40  135 1  
   136   40  136 1  
   137   42  137 1  
   138   42  138 1  
   139   42  139 1  
   140   43  140 1  
   141   44  141 1  
   142   44  142 1  
   143   45  143 1  
   144   46  144 1  
   145   46  145 1  
   146   46  146 1  
   147   47  147 1  
   148   47  148 1  
   149   47  149 1  
   150   50  150 1  
   151   51  151 1  
   152   54  152 1  
   153   54  153 1  
   154   54  154 1  
   155   55  155 1  
   156   56  156 1  
   157   57  157 1  
   158   57  158 1  
   159   57  159 1  
   160   61  160 1  
   161   61  161 1  
   162   61  162 1  
   163   62  163 1  
   164   63  164 1  
   165   63  165 1  
   166   64  166 1  
   167   65  167 1  
   168   65  168 1  
   169   65  169 1  
   170   66  170 1  
   171   66  171 1  
   172   66  172 1  
   173   70  173 1  
   174   70  174 1  
   175   70  175 1  
   176   71  176 1  
   177   72  177 1  
   178   72  178 1  
   179   73  179 1  
   180   74  180 1  
   181   74  181 1  
   182   74  182 1  
   183   75  183 1  
   184   75  184 1  
   185   75  185 1  
   186   79  186 1  
   187   79  187 1  
   188   79  188 1  
   189   80  189 1  
   190   81  190 1  
   191   82  191 1  
   192   82  192 1  
   193   82  193 1  
   194   83  194 1  
   195   83  195 1  
   196   83  196 1  
@<TRIPOS>SUBSTRUCTURE
     1 BMT         1

