5zxk_ligand
  -I-interpret- 

 27 26  0  0  0  0  0  0  0  0999 V2000
   44.5510  148.5310   59.7580 P   0  0  0  0  0
   43.8240  148.1580   58.5030 O   0  0  0  0  0
   43.8390  149.3050   60.8200 O   0  0  0  0  0
   45.2540  147.2570   60.4700 O   0  0  0  0  0
   46.3040  146.0470   60.0850 P   0  0  0  0  0
   45.4990  144.7680   60.3410 O   0  0  0  0  0
   46.6540  146.3490   58.6320 O   0  0  0  0  0
   47.5440  146.1130   61.0010 O   0  0  0  0  0
   46.7830  152.9770   60.2430 C   0  0  0  0  0
   47.7470  150.7850   59.5270 C   0  0  0  0  0
   46.7600  149.8780   60.1780 C   0  0  0  0  0
   45.8380  149.3210   59.2100 O   0  0  0  0  0
   47.7420  152.1190   59.4930 C   0  0  0  0  0
   48.8010  152.8600   58.6120 C   0  0  0  0  0
   49.4200  151.9960   57.6590 O   0  0  0  0  0
   44.4143  147.6674   57.9264 H   0  0  0  0  0
   45.3357  144.6771   61.2826 H   0  0  0  0  0
   47.2840  145.9178   61.9043 H   0  0  0  0  0
   45.7660  152.7458   59.9261 H   0  0  0  0  0
   46.8846  152.7853   61.3112 H   0  0  0  0  0
   46.9991  154.0256   60.0386 H   0  0  0  0  0
   48.5767  150.2980   59.0146 H   0  0  0  0  0
   46.1905  150.4524   60.9086 H   0  0  0  0  0
   47.3015  149.0594   60.6521 H   0  0  0  0  0
   49.5784  153.2442   59.2724 H   0  0  0  0  0
   48.2889  153.6519   58.0653 H   0  0  0  0  0
   50.0592  152.4945   57.1446 H   0  0  0  0  0
  1  2  1  0  0  0
  1  3  2  0  0  0
  1  4  1  0  0  0
 12  1  1  0  0  0
  4  5  1  0  0  0
  5  6  1  0  0  0
  5  7  2  0  0  0
  5  8  1  0  0  0
 13  9  1  0  0  0
 11 10  1  0  0  0
 10 13  2  0  0  0
 11 12  1  0  0  0
 13 14  1  0  0  0
 14 15  1  0  0  0
  2 16  1  0  0  0
  6 17  1  0  0  0
  8 18  1  0  0  0
  9 19  1  0  0  0
  9 20  1  0  0  0
  9 21  1  0  0  0
 10 22  1  0  0  0
 11 23  1  0  0  0
 11 24  1  0  0  0
 14 25  1  0  0  0
 14 26  1  0  0  0
 15 27  1  0  0  0
M  END
$$$$
