### 
### Created by X-TOOL on Mon Aug  2 16:12:30 2021
### 

@<TRIPOS>MOLECULE
5zxk_ligand
   24    23     1     0     0
SMALL
GAST_HUCK


@<TRIPOS>ATOM
      1 P13        44.5510  148.5310   59.7580 P.3       1 H6P         0.3288
      2 O14        43.8240  148.1580   58.5030 O.co2     1 H6P        -0.5555
      3 O15        43.8390  149.3050   60.8200 O.co2     1 H6P        -0.5555
      4 O16        45.2540  147.2570   60.4700 O.3       1 H6P        -0.1547
      5 P17        46.3040  146.0470   60.0850 P.3       1 H6P         0.2070
      6 O18        45.4990  144.7680   60.3410 O.co2     1 H6P        -0.5891
      7 O19        46.6540  146.3490   58.6320 O.co2     1 H6P        -0.5891
      8 O20        47.5440  146.1130   61.0010 O.co2     1 H6P        -0.5891
      9 C21        46.7830  152.9770   60.2430 C.3       1 H6P        -0.0381
     10 C27        47.7470  150.7850   59.5270 C.2       1 H6P        -0.0762
     11 C28        46.7600  149.8780   60.1780 C.3       1 H6P         0.0917
     12 O29        45.8380  149.3210   59.2100 O.3       1 H6P        -0.2411
     13 C30        47.7420  152.1190   59.4930 C.2       1 H6P        -0.0565
     14 C31        48.8010  152.8600   58.6120 C.3       1 H6P         0.0692
     15 O33        49.4200  151.9960   57.6590 O.3       1 H6P        -0.3840
     16 H1         46.0955  152.3409   60.8198 H         1 H6P         0.0376
     17 H2         46.2074  153.5901   59.5339 H         1 H6P         0.0376
     18 H3         47.3377  153.6337   60.9293 H         1 H6P         0.0376
     19 H4         48.5759  150.2984   59.0151 H         1 H6P         0.0269
     20 H5         46.1912  150.4469   60.9282 H         1 H6P         0.0696
     21 H6         47.2998  149.0568   60.6722 H         1 H6P         0.0696
     22 H7         49.5791  153.2748   59.2697 H         1 H6P         0.0705
     23 H8         48.3013  153.6787   58.0735 H         1 H6P         0.0705
     24 H9         48.7570  151.6374   57.0808 H         1 H6P         0.2125
@<TRIPOS>BOND
     1    1    2 ar 
     2    1    3 ar 
     3    1    4 1  
     4   12    1 1  
     5    4    5 1  
     6    5    6 ar 
     7    5    7 ar 
     8    5    8 ar 
     9   13    9 1  
    10   11   10 1  
    11   10   13 2  
    12   11   12 1  
    13   13   14 1  
    14   14   15 1  
    15    9   16 1  
    16    9   17 1  
    17    9   18 1  
    18   10   19 1  
    19   11   20 1  
    20   11   21 1  
    21   14   22 1  
    22   14   23 1  
    23   15   24 1  
@<TRIPOS>SUBSTRUCTURE
     1 H6P         1

