5vs6_ligand
  -I-interpret- 

 86 90  0  0  0  0  0  0  0  0999 V2000
   86.3230  -53.9590  148.6460 N   0  0  0  0  0
   96.4520  -52.9720  151.4630 N   0  0  0  0  0
   85.8770  -54.0850  150.0320 C   0  0  0  0  0
   85.4560  -54.1440  147.6380 C   0  0  0  0  0
   85.9640  -54.2700  146.2080 C   0  0  0  0  0
   85.5740  -55.6440  145.6370 C   0  0  0  0  0
   85.9210  -55.8310  144.1590 C   0  0  0  0  0
   85.5820  -57.4350  147.3400 C   0  0  0  0  0
   88.3230  -57.8350  146.9790 C   0  0  0  0  0
   87.7110  -53.5570  148.4410 C   0  0  0  0  0
   90.7340  -54.2300  152.5510 C   0  0  0  0  0
   95.2430  -53.5450  151.2570 C   0  0  0  0  0
   96.6520  -52.0200  152.3720 C   0  0  0  0  0
   97.9400  -52.0900  153.1530 C   0  0  0  0  0
  101.0960  -52.6530  152.6140 C   0  0  0  0  0
  104.3940  -51.6860  154.1190 C   0  0  0  0  0
  101.0860  -50.2800  153.0600 C   0  0  0  0  0
   90.4630  -55.0520  151.5170 N   0  0  0  0  0
   91.4490  -55.3840  150.5620 C   0  0  0  0  0
   91.2190  -56.1560  149.6000 O   0  0  0  0  0
   89.1240  -55.6090  151.4090 C   0  0  0  0  0
   86.2600  -58.4130  148.0790 C   0  0  0  0  0
   87.6250  -58.6170  147.8990 C   0  0  0  0  0
   87.6490  -56.8660  146.2280 C   0  0  0  0  0
   88.6100  -54.4940  149.2430 C   0  0  0  0  0
   92.9680  -53.8840  151.9170 C   0  0  0  0  0
   94.1980  -53.2920  152.1370 C   0  0  0  0  0
   88.2170  -54.6140  150.7090 C   0  0  0  0  0
   99.0500  -51.3820  152.3840 C   0  0  0  0  0
  102.3790  -52.8130  153.4210 C   0  0  0  0  0
  102.3440  -50.4540  153.9010 C   0  0  0  0  0
   95.0720  -54.3950  150.1600 C   0  0  0  0  0
   86.7740  -55.0840  150.7600 C   0  0  0  0  0
   93.8500  -55.0120  149.8870 C   0  0  0  0  0
   92.7850  -54.7790  150.7460 C   0  0  0  0  0
   86.2820  -56.6760  146.4120 C   0  0  0  0  0
   91.9340  -53.6660  152.7540 N   0  0  0  0  0
  100.3070  -51.5250  153.1390 N   0  3  0  0  0
  103.1450  -51.5610  153.3530 N   0  3  0  0  0
   88.3400  -53.3610  151.3840 O   0  0  0  0  0
   84.2650  -54.2180  147.8560 O   0  0  0  0  0
   95.8800  -51.0980  152.5690 O   0  0  0  0  0
   97.2427  -53.2825  150.8983 H   0  0  0  0  0
   84.8455  -54.4366  150.0536 H   0  0  0  0  0
   85.9357  -53.1144  150.5246 H   0  0  0  0  0
   87.0495  -54.1711  146.2007 H   0  0  0  0  0
   85.5185  -53.4854  145.5964 H   0  0  0  0  0
   84.4896  -55.7229  145.7143 H   0  0  0  0  0
   86.9977  -55.7278  144.0240 H   0  0  0  0  0
   85.6065  -56.8234  143.8360 H   0  0  0  0  0
   85.4052  -55.0746  143.5675 H   0  0  0  0  0
   84.5151  -57.2715  147.4921 H   0  0  0  0  0
   89.3951  -57.9790  146.8449 H   0  0  0  0  0
   87.8537  -52.5290  148.7740 H   0  0  0  0  0
   87.9628  -53.6156  147.3821 H   0  0  0  0  0
   89.9351  -54.0122  153.2599 H   0  0  0  0  0
   98.2146  -53.1343  153.3021 H   0  0  0  0  0
   97.8029  -51.6025  154.1182 H   0  0  0  0  0
  100.5082  -53.5677  152.6904 H   0  0  0  0  0
  101.3500  -52.4584  151.5720 H   0  0  0  0  0
  104.1595  -51.9048  155.1607 H   0  0  0  0  0
  104.9945  -52.4949  153.7028 H   0  0  0  0  0
  104.9505  -50.7507  154.0592 H   0  0  0  0  0
  101.3529  -50.0692  152.0244 H   0  0  0  0  0
  100.4962  -49.4436  153.4352 H   0  0  0  0  0
   88.7352  -55.8160  152.4060 H   0  0  0  0  0
   89.1607  -56.5342  150.8338 H   0  0  0  0  0
   85.7138  -59.0196  148.8014 H   0  0  0  0  0
   88.1453  -59.3833  148.4736 H   0  0  0  0  0
   88.1922  -56.2618  145.5013 H   0  0  0  0  0
   89.6198  -54.0850  149.2089 H   0  0  0  0  0
   88.5236  -55.4863  148.8003 H   0  0  0  0  0
   94.3464  -52.6332  152.9926 H   0  0  0  0  0
   98.8054  -50.3264  152.2654 H   0  0  0  0  0
   99.1581  -51.8256  151.3942 H   0  0  0  0  0
  102.9723  -53.6301  153.0106 H   0  0  0  0  0
  102.1350  -53.0391  154.4590 H   0  0  0  0  0
  102.0667  -50.6787  154.9309 H   0  0  0  0  0
  102.9285  -49.5342  153.8786 H   0  0  0  0  0
   95.9180  -54.5813  149.4984 H   0  0  0  0  0
   86.6953  -56.0575  150.2761 H   0  0  0  0  0
   86.4571  -55.1608  151.8001 H   0  0  0  0  0
   93.7348  -55.6617  149.0194 H   0  0  0  0  0
  100.0825  -51.7134  154.1160 H   0  0  0  0  0
  103.3695  -51.3686  152.3768 H   0  0  0  0  0
   87.7740  -52.7127  150.9586 H   0  0  0  0  0
  3  1  1  0  0  0
  1  4  1  0  0  0
 10  1  1  0  0  0
  2 12  1  0  0  0
 13  2  1  0  0  0
 33  3  1  0  0  0
  4  5  1  0  0  0
  4 41  2  0  0  0
  5  6  1  0  0  0
  6  7  1  0  0  0
  6 36  1  0  0  0
  8 22  4  0  0  0
 36  8  4  0  0  0
  9 23  4  0  0  0
 24  9  4  0  0  0
 25 10  1  0  0  0
 11 18  1  0  0  0
 37 11  2  0  0  0
 12 27  4  0  0  0
 12 32  4  0  0  0
 14 13  1  0  0  0
 13 42  2  0  0  0
 29 14  1  0  0  0
 30 15  1  0  0  0
 15 38  1  0  0  0
 39 16  1  0  0  0
 17 31  1  0  0  0
 38 17  1  0  0  0
 19 18  1  0  0  0
 18 21  1  0  0  0
 19 20  2  0  0  0
 35 19  1  0  0  0
 21 28  1  0  0  0
 22 23  4  0  0  0
 36 24  4  0  0  0
 28 25  1  0  0  0
 27 26  4  0  0  0
 26 35  4  0  0  0
 26 37  1  0  0  0
 28 33  1  0  0  0
 28 40  1  0  0  0
 38 29  1  0  0  0
 30 39  1  0  0  0
 31 39  1  0  0  0
 32 34  4  0  0  0
 34 35  4  0  0  0
  2 43  1  0  0  0
  3 44  1  0  0  0
  3 45  1  0  0  0
  5 46  1  0  0  0
  5 47  1  0  0  0
  6 48  1  0  0  0
  7 49  1  0  0  0
  7 50  1  0  0  0
  7 51  1  0  0  0
  8 52  1  0  0  0
  9 53  1  0  0  0
 10 54  1  0  0  0
 10 55  1  0  0  0
 11 56  1  0  0  0
 14 57  1  0  0  0
 14 58  1  0  0  0
 15 59  1  0  0  0
 15 60  1  0  0  0
 16 61  1  0  0  0
 16 62  1  0  0  0
 16 63  1  0  0  0
 17 64  1  0  0  0
 17 65  1  0  0  0
 21 66  1  0  0  0
 21 67  1  0  0  0
 22 68  1  0  0  0
 23 69  1  0  0  0
 24 70  1  0  0  0
 25 71  1  0  0  0
 25 72  1  0  0  0
 27 73  1  0  0  0
 29 74  1  0  0  0
 29 75  1  0  0  0
 30 76  1  0  0  0
 30 77  1  0  0  0
 31 78  1  0  0  0
 31 79  1  0  0  0
 32 80  1  0  0  0
 33 81  1  0  0  0
 33 82  1  0  0  0
 34 83  1  0  0  0
 38 84  1  0  0  0
 39 85  1  0  0  0
 40 86  1  0  0  0
M  END
$$$$
