### 
### Created by X-TOOL on Mon Sep 10 21:13:12 2018
### 

@<TRIPOS>MOLECULE
3wde_ligand
  159   162     1     0     0
SMALL
GAST_HUCK


@<TRIPOS>ATOM
      1 O         -27.3650   12.3950   -5.5210 O.2       1 WRP        -0.3940
      2 C         -26.2680   12.3130   -6.0150 C.2       1 WRP         0.2100
      3 CA        -25.2420   11.4190   -5.3120 C.3       1 WRP         0.1613
      4 CB        -25.8580    9.9870   -5.1620 C.3       1 WRP         0.1126
      5 CG        -25.9460    9.2320   -6.4750 C.2       1 WRP        -0.0135
      6 CD1       -27.1170    9.2290   -7.2270 C.2       1 WRP         0.0225
      7 NE1       -26.7830    8.4850   -8.3330 N.pl3     1 WRP        -0.2674
      8 C1        -27.8050    8.1410   -9.3990 C.3       1 WRP         0.0905
      9 C3        -29.0860    8.9190   -9.1280 C.3       1 WRP        -0.0310
     10 C4        -28.0610    6.6120   -9.3880 C.3       1 WRP         0.0834
     11 C5        -28.8460    6.1780   -8.1580 C.3       1 WRP        -0.0359
     12 O6        -28.8820    6.2140  -10.4630 O.3       1 WRP        -0.3889
     13 C2        -27.2880    8.5680  -10.7570 C.3       1 WRP        -0.0310
     14 CE2       -25.4860    8.0130   -8.3010 C.ar      1 WRP         0.0633
     15 CZ2       -24.7350    7.1990   -9.1740 C.ar      1 WRP        -0.0441
     16 CH2       -23.3930    6.8950   -8.8460 C.ar      1 WRP        -0.0768
     17 CZ3       -22.8220    7.3800   -7.6570 C.ar      1 WRP        -0.0792
     18 CE3       -23.5560    8.1840   -6.7550 C.ar      1 WRP        -0.0746
     19 CD2       -24.8990    8.5260   -7.1060 C.ar      1 WRP        -0.0188
     20 OB        -25.0560    9.2320   -4.2470 O.3       1 WRP        -0.3811
     21 N         -24.9370   11.9630   -3.9880 N.am      1 WRP        -0.2602
     22 N         -25.9690   12.9070   -7.1780 N.am      1 WLU        -0.2527
     23 CN        -27.0580   13.6200   -7.8550 C.3       1 WLU         0.0254
     24 CA        -24.6950   12.7770   -7.9190 C.3       1 WLU         0.1337
     25 CB        -24.8710   11.8010   -9.0930 C.3       1 WLU        -0.0076
     26 CG        -23.6080   11.5520   -9.9160 C.3       1 WLU        -0.0164
     27 CG1       -23.9300   10.7330  -11.1620 C.3       1 WLU         0.0470
     28 O4        -24.8620   11.4680  -11.9930 O.3       1 WLU        -0.3947
     29 CG2       -22.5220   10.8830   -9.0830 C.3       1 WLU        -0.0601
     30 C         -24.2160   14.1640   -8.3390 C.2       1 WLU         0.2041
     31 O         -24.2440   14.5050   -9.5130 O.2       1 WLU        -0.3944
     32 N         -23.7800   14.9110   -7.3950 N.am      1 ALA        -0.2640
     33 CA        -23.3300   16.2930   -7.6990 C.3       1 ALA         0.1282
     34 C         -22.0540   16.7140   -6.9820 C.2       1 ALA         0.2038
     35 O         -21.2850   17.4910   -7.5980 O.2       1 ALA        -0.3944
     36 CB        -24.4220   17.3310   -7.4370 C.3       1 ALA        -0.0244
     37 N         -21.8440   16.2590   -5.7690 N.am      1 WPA        -0.2597
     38 CA        -20.6690   16.6620   -5.0170 C.3       1 WPA         0.1669
     39 C         -20.1520   15.4530   -4.2380 C.2       1 WPA         0.2086
     40 CB        -21.0220   17.7630   -3.9810 C.3       1 WPA         0.1321
     41 OB        -21.8890   17.1890   -2.9770 O.3       1 WPA        -0.3626
     42 CB1       -21.8830   17.9180   -1.7200 C.3       1 WPA         0.0397
     43 CG        -21.5910   19.0080   -4.6230 C.ar      1 WPA        -0.0100
     44 CD1       -20.7310   19.9860   -5.1720 C.ar      1 WPA        -0.0576
     45 CE1       -21.2900   21.1350   -5.7530 C.ar      1 WPA        -0.0685
     46 CZ        -22.6660   21.3180   -5.7980 C.ar      1 WPA        -0.0687
     47 CE2       -23.5040   20.3720   -5.2720 C.ar      1 WPA        -0.0685
     48 CD2       -22.9680   19.2280   -4.6470 C.ar      1 WPA        -0.0576
     49 O         -20.7530   14.3560   -4.2300 O.2       1 WPA        -0.3941
     50 N         -19.0640   15.6550   -3.5390 N.am      1 VAL        -0.2632
     51 CA        -18.4760   14.6650   -2.5690 C.3       1 VAL         0.1334
     52 C         -19.1850   14.8160   -1.2190 C.2       1 VAL         0.2064
     53 O         -18.9710   15.8720   -0.6440 O.2       1 VAL        -0.3942
     54 CB        -16.9360   14.8680   -2.4740 C.3       1 VAL        -0.0062
     55 CG1       -16.3320   13.9380   -1.4450 C.3       1 VAL        -0.0584
     56 CG2       -16.3030   14.6810   -3.8690 C.3       1 VAL        -0.0584
     57 N         -20.0160   13.8790   -0.6840 N.am      1 MLE        -0.2529
     58 CN        -20.5810   14.1630    0.6490 C.3       1 MLE         0.0254
     59 CA        -20.4700   12.6440   -1.3340 C.3       1 MLE         0.1336
     60 CB        -20.0040   11.3540   -0.6320 C.3       1 MLE        -0.0099
     61 CG        -18.5440   10.9960   -0.7920 C.3       1 MLE        -0.0425
     62 CD1       -18.2880    9.8510    0.1910 C.3       1 MLE        -0.0625
     63 CD2       -18.2040   10.6350   -2.2230 C.3       1 MLE        -0.0625
     64 C         -21.9950   12.6560   -1.3700 C.2       1 MLE         0.2042
     65 O         -22.6660   11.8950   -0.6310 O.2       1 MLE        -0.3944
     66 C         -24.2570   13.0720   -3.8380 C.2       1 WVL         0.2056
     67 CA        -24.0050   13.5360   -2.4240 C.3       1 WVL         0.1365
     68 O         -23.7930   13.7140   -4.7820 O.2       1 WVL        -0.3942
     69 CB        -24.5930   14.9300   -2.1830 C.3       1 WVL         0.0026
     70 CG2       -24.3350   15.3710   -0.7390 C.3       1 WVL        -0.0549
     71 CG1       -26.0930   14.8480   -2.4530 C.2       1 WVL        -0.1020
     72 CD        -26.7470   15.4310   -3.4730 C.2       1 WVL        -0.0866
     73 CE1       -28.2290   15.1880   -3.6140 C.3       1 WVL        -0.0406
     74 CE2       -26.0820   16.2610   -4.5430 C.3       1 WVL        -0.0406
     75 N         -22.5540   13.4660   -2.2080 N.am      1 WVL        -0.2624
     76 H1        -24.3203   11.3680   -5.9101 H         1 WRP         0.0841
     77 H2        -26.8741   10.0889   -4.7532 H         1 WRP         0.0728
     78 H3        -28.0697    9.7027   -6.9947 H         1 WRP         0.0798
     79 H4        -29.8330    8.6748   -9.8976 H         1 WRP         0.0262
     80 H5        -28.8723    9.9977   -9.1537 H         1 WRP         0.0262
     81 H6        -29.4779    8.6464   -8.1370 H         1 WRP         0.0262
     82 H7        -27.0937    6.0899   -9.4296 H         1 WRP         0.0623
     83 H8        -29.0052    5.0900   -8.1897 H         1 WRP         0.0255
     84 H9        -29.8191    6.6907   -8.1443 H         1 WRP         0.0255
     85 H10       -28.2809    6.4396   -7.2512 H         1 WRP         0.0255
     86 H11       -29.7222    6.6524  -10.3975 H         1 WRP         0.2099
     87 H12       -28.0315    8.3171  -11.5279 H         1 WRP         0.0262
     88 H13       -26.3455    8.0432  -10.9721 H         1 WRP         0.0262
     89 H14       -27.1116    9.6537  -10.7574 H         1 WRP         0.0262
     90 H15       -25.1798    6.8117  -10.0835 H         1 WRP         0.0541
     91 H16       -22.8006    6.2833   -9.5168 H         1 WRP         0.0530
     92 H17       -21.7926    7.1313   -7.4256 H         1 WRP         0.0510
     93 H18       -23.1147    8.5299   -5.8273 H         1 WRP         0.0540
     94 H19       -24.9957    9.6981   -3.4214 H         1 WRP         0.2121
     95 H20       -25.2565   11.4746   -3.1760 H         1 WRP         0.1885
     96 H21       -27.9419   13.6458   -7.2007 H         1 WLU         0.0488
     97 H22       -27.3100   13.1006   -8.7913 H         1 WLU         0.0488
     98 H23       -26.7387   14.6482   -8.0805 H         1 WLU         0.0488
     99 H24       -23.9389   12.3516   -7.2428 H         1 WLU         0.0802
    100 H25       -25.6414   12.2086   -9.7640 H         1 WLU         0.0316
    101 H26       -25.2107   10.8364   -8.6878 H         1 WLU         0.0316
    102 H27       -23.2230   12.5286  -10.2446 H         1 WLU         0.0322
    103 H28       -24.3803    9.7744  -10.8649 H         1 WLU         0.0560
    104 H29       -23.0049   10.5443  -11.7265 H         1 WLU         0.0560
    105 H30       -25.0627   10.9582  -12.7690 H         1 WLU         0.2094
    106 H31       -22.3124   11.4956   -8.1938 H         1 WLU         0.0233
    107 H32       -21.6065   10.7849   -9.6848 H         1 WLU         0.0233
    108 H33       -22.8630    9.8855   -8.7689 H         1 WLU         0.0233
    109 H34       -23.7427   14.5654   -6.4574 H         1 ALA         0.1883
    110 H35       -23.1113   16.3148   -8.7768 H         1 ALA         0.0797
    111 H36       -24.0395   18.3341   -7.6768 H         1 ALA         0.0277
    112 H37       -24.7162   17.2944   -6.3777 H         1 ALA         0.0277
    113 H38       -25.2958   17.1113   -8.0680 H         1 ALA         0.0277
    114 H39       -22.5010   15.6272   -5.3577 H         1 WPA         0.1886
    115 H40       -19.8967   17.0318   -5.7076 H         1 WPA         0.0851
    116 H41       -20.0890   18.0626   -3.4813 H         1 WPA         0.0810
    117 H42       -22.5618   17.4262   -1.0077 H         1 WPA         0.0526
    118 H43       -22.2192   18.9509   -1.8935 H         1 WPA         0.0526
    119 H44       -20.8635   17.9287   -1.3072 H         1 WPA         0.0526
    120 H45       -19.6558   19.8508   -5.1448 H         1 WPA         0.0557
    121 H46       -20.6373   21.8916   -6.1733 H         1 WPA         0.0599
    122 H47       -23.0776   22.2127   -6.2510 H         1 WPA         0.0559
    123 H48       -24.5782   20.5025   -5.3360 H         1 WPA         0.0599
    124 H49       -23.6335   18.5112   -4.1798 H         1 WPA         0.0557
    125 H50       -18.5903   16.5277   -3.6575 H         1 VAL         0.1883
    126 H51       -18.6622   13.6475   -2.9431 H         1 VAL         0.0803
    127 H52       -16.7432   15.9007   -2.1480 H         1 VAL         0.0343
    128 H53       -15.2451   14.1006   -1.3970 H         1 VAL         0.0234
    129 H54       -16.5344   12.8950   -1.7298 H         1 VAL         0.0234
    130 H55       -16.7771   14.1422   -0.4601 H         1 VAL         0.0234
    131 H56       -16.7725   15.3759   -4.5808 H         1 VAL         0.0234
    132 H57       -16.4613   13.6466   -4.2079 H         1 VAL         0.0234
    133 H58       -15.2240   14.8873   -3.8127 H         1 VAL         0.0234
    134 H59       -20.1668   15.1086    1.0289 H         1 MLE         0.0488
    135 H60       -20.3222   13.3461    1.3386 H         1 MLE         0.0488
    136 H61       -21.6752   14.2462    0.5733 H         1 MLE         0.0488
    137 H62       -20.0814   12.6338   -2.3630 H         1 MLE         0.0802
    138 H63       -20.5995   10.5203   -1.0324 H         1 MLE         0.0315
    139 H64       -20.2060   11.4656    0.4435 H         1 MLE         0.0315
    140 H65       -17.9251   11.8594   -0.5063 H         1 MLE         0.0298
    141 H66       -17.2350    9.5398    0.1251 H         1 MLE         0.0232
    142 H67       -18.9382    9.0000   -0.0599 H         1 MLE         0.0232
    143 H68       -18.5067   10.1904    1.2142 H         1 MLE         0.0232
    144 H69       -18.4090   11.4955   -2.8768 H         1 MLE         0.0232
    145 H70       -18.8171    9.7788   -2.5408 H         1 MLE         0.0232
    146 H71       -17.1389   10.3686   -2.2908 H         1 MLE         0.0232
    147 H72       -24.4962   12.8416   -1.7264 H         1 WVL         0.0818
    148 H73       -24.1304   15.6533   -2.8706 H         1 WVL         0.0419
    149 H74       -24.7618   16.3722   -0.5796 H         1 WVL         0.0249
    150 H75       -23.2513   15.4005   -0.5526 H         1 WVL         0.0249
    151 H76       -24.8067   14.6571   -0.0477 H         1 WVL         0.0249
    152 H77       -26.6891   14.2628   -1.7544 H         1 WVL         0.0247
    153 H78       -28.6079   15.7323   -4.4916 H         1 WVL         0.0375
    154 H79       -28.7464   15.5433   -2.7107 H         1 WVL         0.0375
    155 H80       -28.4134   14.1112   -3.7427 H         1 WVL         0.0375
    156 H81       -25.0097   16.3585   -4.3179 H         1 WVL         0.0375
    157 H82       -26.5428   17.2594   -4.5720 H         1 WVL         0.0375
    158 H83       -26.2085   15.7703   -5.5193 H         1 WVL         0.0375
    159 H84       -21.9668   14.0780   -2.7378 H         1 WVL         0.1885
@<TRIPOS>BOND
     1    1    2 2  
     2    2    3 1  
     3    2   22 am 
     4    3    4 1  
     5    3   21 1  
     6    4    5 1  
     7    4   20 1  
     8    5    6 2  
     9    5   19 1  
    10    6    7 1  
    11    7    8 1  
    12    7   14 1  
    13    8    9 1  
    14    8   10 1  
    15    8   13 1  
    16   10   11 1  
    17   10   12 1  
    18   14   15 ar 
    19   14   19 ar 
    20   15   16 ar 
    21   16   17 ar 
    22   17   18 ar 
    23   18   19 ar 
    24   21   66 am 
    25   22   23 1  
    26   22   24 1  
    27   24   25 1  
    28   24   30 1  
    29   25   26 1  
    30   26   27 1  
    31   26   29 1  
    32   27   28 1  
    33   30   31 2  
    34   30   32 am 
    35   32   33 1  
    36   33   34 1  
    37   33   36 1  
    38   34   35 2  
    39   34   37 am 
    40   37   38 1  
    41   38   39 1  
    42   38   40 1  
    43   39   49 2  
    44   39   50 am 
    45   40   41 1  
    46   40   43 1  
    47   41   42 1  
    48   43   44 ar 
    49   43   48 ar 
    50   44   45 ar 
    51   45   46 ar 
    52   46   47 ar 
    53   47   48 ar 
    54   50   51 1  
    55   51   52 1  
    56   51   54 1  
    57   52   53 2  
    58   52   57 am 
    59   54   55 1  
    60   54   56 1  
    61   57   58 1  
    62   57   59 1  
    63   59   60 1  
    64   59   64 1  
    65   60   61 1  
    66   61   62 1  
    67   61   63 1  
    68   64   65 2  
    69   64   75 am 
    70   66   67 1  
    71   66   68 2  
    72   67   69 1  
    73   67   75 1  
    74   69   70 1  
    75   69   71 1  
    76   71   72 2  
    77   72   73 1  
    78   72   74 1  
    79    3   76 1  
    80    4   77 1  
    81    6   78 1  
    82    9   79 1  
    83    9   80 1  
    84    9   81 1  
    85   10   82 1  
    86   11   83 1  
    87   11   84 1  
    88   11   85 1  
    89   12   86 1  
    90   13   87 1  
    91   13   88 1  
    92   13   89 1  
    93   15   90 1  
    94   16   91 1  
    95   17   92 1  
    96   18   93 1  
    97   20   94 1  
    98   21   95 1  
    99   23   96 1  
   100   23   97 1  
   101   23   98 1  
   102   24   99 1  
   103   25  100 1  
   104   25  101 1  
   105   26  102 1  
   106   27  103 1  
   107   27  104 1  
   108   28  105 1  
   109   29  106 1  
   110   29  107 1  
   111   29  108 1  
   112   32  109 1  
   113   33  110 1  
   114   36  111 1  
   115   36  112 1  
   116   36  113 1  
   117   37  114 1  
   118   38  115 1  
   119   40  116 1  
   120   42  117 1  
   121   42  118 1  
   122   42  119 1  
   123   44  120 1  
   124   45  121 1  
   125   46  122 1  
   126   47  123 1  
   127   48  124 1  
   128   50  125 1  
   129   51  126 1  
   130   54  127 1  
   131   55  128 1  
   132   55  129 1  
   133   55  130 1  
   134   56  131 1  
   135   56  132 1  
   136   56  133 1  
   137   58  134 1  
   138   58  135 1  
   139   58  136 1  
   140   59  137 1  
   141   60  138 1  
   142   60  139 1  
   143   61  140 1  
   144   62  141 1  
   145   62  142 1  
   146   62  143 1  
   147   63  144 1  
   148   63  145 1  
   149   63  146 1  
   150   67  147 1  
   151   69  148 1  
   152   70  149 1  
   153   70  150 1  
   154   70  151 1  
   155   71  152 1  
   156   73  153 1  
   157   73  154 1  
   158   73  155 1  
   159   74  156 1  
   160   74  157 1  
   161   74  158 1  
   162   75  159 1  
@<TRIPOS>SUBSTRUCTURE
     1 WRP         1

