3wde_ligand
  -I-interpret- 

159162  0  0  0  0  0  0  0  0999 V2000
  -27.3650   12.3950   -5.5210 O   0  0  0  0  0
  -26.2680   12.3130   -6.0150 C   0  0  0  0  0
  -25.2420   11.4190   -5.3120 C   0  0  0  0  0
  -25.8580    9.9870   -5.1620 C   0  0  0  0  0
  -25.9460    9.2320   -6.4750 C   0  0  0  0  0
  -27.1170    9.2290   -7.2270 C   0  0  0  0  0
  -26.7830    8.4850   -8.3330 N   0  0  0  0  0
  -27.8050    8.1410   -9.3990 C   0  0  0  0  0
  -29.0860    8.9190   -9.1280 C   0  0  0  0  0
  -28.0610    6.6120   -9.3880 C   0  0  0  0  0
  -28.8460    6.1780   -8.1580 C   0  0  0  0  0
  -28.8820    6.2140  -10.4630 O   0  0  0  0  0
  -27.2880    8.5680  -10.7570 C   0  0  0  0  0
  -25.4860    8.0130   -8.3010 C   0  0  0  0  0
  -24.7350    7.1990   -9.1740 C   0  0  0  0  0
  -23.3930    6.8950   -8.8460 C   0  0  0  0  0
  -22.8220    7.3800   -7.6570 C   0  0  0  0  0
  -23.5560    8.1840   -6.7550 C   0  0  0  0  0
  -24.8990    8.5260   -7.1060 C   0  0  0  0  0
  -25.0560    9.2320   -4.2470 O   0  0  0  0  0
  -24.9370   11.9630   -3.9880 N   0  0  0  0  0
  -25.9690   12.9070   -7.1780 N   0  0  0  0  0
  -27.0580   13.6200   -7.8550 C   0  0  0  0  0
  -24.6950   12.7770   -7.9190 C   0  0  0  0  0
  -24.8710   11.8010   -9.0930 C   0  0  0  0  0
  -23.6080   11.5520   -9.9160 C   0  0  0  0  0
  -23.9300   10.7330  -11.1620 C   0  0  0  0  0
  -24.8620   11.4680  -11.9930 O   0  0  0  0  0
  -22.5220   10.8830   -9.0830 C   0  0  0  0  0
  -24.2160   14.1640   -8.3390 C   0  0  0  0  0
  -24.2440   14.5050   -9.5130 O   0  0  0  0  0
  -23.7800   14.9110   -7.3950 N   0  0  0  0  0
  -23.3300   16.2930   -7.6990 C   0  0  0  0  0
  -22.0540   16.7140   -6.9820 C   0  0  0  0  0
  -21.2850   17.4910   -7.5980 O   0  0  0  0  0
  -24.4220   17.3310   -7.4370 C   0  0  0  0  0
  -21.8440   16.2590   -5.7690 N   0  0  0  0  0
  -20.6690   16.6620   -5.0170 C   0  0  0  0  0
  -20.1520   15.4530   -4.2380 C   0  0  0  0  0
  -21.0220   17.7630   -3.9810 C   0  0  0  0  0
  -21.8890   17.1890   -2.9770 O   0  0  0  0  0
  -21.8830   17.9180   -1.7200 C   0  0  0  0  0
  -21.5910   19.0080   -4.6230 C   0  0  0  0  0
  -20.7310   19.9860   -5.1720 C   0  0  0  0  0
  -21.2900   21.1350   -5.7530 C   0  0  0  0  0
  -22.6660   21.3180   -5.7980 C   0  0  0  0  0
  -23.5040   20.3720   -5.2720 C   0  0  0  0  0
  -22.9680   19.2280   -4.6470 C   0  0  0  0  0
  -20.7530   14.3560   -4.2300 O   0  0  0  0  0
  -19.0640   15.6550   -3.5390 N   0  0  0  0  0
  -18.4760   14.6650   -2.5690 C   0  0  0  0  0
  -19.1850   14.8160   -1.2190 C   0  0  0  0  0
  -18.9710   15.8720   -0.6440 O   0  0  0  0  0
  -16.9360   14.8680   -2.4740 C   0  0  0  0  0
  -16.3320   13.9380   -1.4450 C   0  0  0  0  0
  -16.3030   14.6810   -3.8690 C   0  0  0  0  0
  -20.0160   13.8790   -0.6840 N   0  0  0  0  0
  -20.5810   14.1630    0.6490 C   0  0  0  0  0
  -20.4700   12.6440   -1.3340 C   0  0  0  0  0
  -20.0040   11.3540   -0.6320 C   0  0  0  0  0
  -18.5440   10.9960   -0.7920 C   0  0  0  0  0
  -18.2880    9.8510    0.1910 C   0  0  0  0  0
  -18.2040   10.6350   -2.2230 C   0  0  0  0  0
  -21.9950   12.6560   -1.3700 C   0  0  0  0  0
  -22.6660   11.8950   -0.6310 O   0  0  0  0  0
  -24.2570   13.0720   -3.8380 C   0  0  0  0  0
  -24.0050   13.5360   -2.4240 C   0  0  0  0  0
  -23.7930   13.7140   -4.7820 O   0  0  0  0  0
  -24.5930   14.9300   -2.1830 C   0  0  0  0  0
  -24.3350   15.3710   -0.7390 C   0  0  0  0  0
  -26.0930   14.8480   -2.4530 C   0  0  0  0  0
  -26.7470   15.4310   -3.4730 C   0  0  0  0  0
  -28.2290   15.1880   -3.6140 C   0  0  0  0  0
  -26.0820   16.2610   -4.5430 C   0  0  0  0  0
  -22.5540   13.4660   -2.2080 N   0  0  0  0  0
  -24.3220   11.3749   -5.8948 H   0  0  0  0  0
  -26.8768   10.1127   -4.7954 H   0  0  0  0  0
  -28.0705    9.7031   -6.9944 H   0  0  0  0  0
  -29.4733    8.6480   -8.1458 H   0  0  0  0  0
  -28.8729    9.9877   -9.1537 H   0  0  0  0  0
  -29.8254    8.6762   -9.8912 H   0  0  0  0  0
  -27.0674    6.1658   -9.4290 H   0  0  0  0  0
  -29.8129    6.6812   -8.1494 H   0  0  0  0  0
  -28.9968    5.0989   -8.1869 H   0  0  0  0  0
  -28.2884    6.4443   -7.2601 H   0  0  0  0  0
  -29.0191    5.2646  -10.4250 H   0  0  0  0  0
  -27.1135    9.6439  -10.7561 H   0  0  0  0  0
  -26.3541    8.0474  -10.9689 H   0  0  0  0  0
  -28.0256    8.3189  -11.5199 H   0  0  0  0  0
  -25.1823    6.8096  -10.0886 H   0  0  0  0  0
  -22.7973    6.2800   -9.5205 H   0  0  0  0  0
  -21.7869    7.1299   -7.4243 H   0  0  0  0  0
  -23.1123    8.5319   -5.8221 H   0  0  0  0  0
  -24.9951    9.7030   -3.4127 H   0  0  0  0  0
  -25.2629   11.4649   -3.1597 H   0  0  0  0  0
  -26.7403   14.6386   -8.0779 H   0  0  0  0  0
  -27.3067   13.1044   -8.7826 H   0  0  0  0  0
  -27.9332   13.6449   -7.2057 H   0  0  0  0  0
  -23.9164   12.3517   -7.2857 H   0  0  0  0  0
  -25.6042   12.2454   -9.7661 H   0  0  0  0  0
  -25.1637   10.8420   -8.6654 H   0  0  0  0  0
  -23.2214   12.5197  -10.2357 H   0  0  0  0  0
  -24.3755    9.7827  -10.8680 H   0  0  0  0  0
  -23.0134   10.5452  -11.7212 H   0  0  0  0  0
  -25.0648   10.9528  -12.7772 H   0  0  0  0  0
  -22.2647   11.5251   -8.2406 H   0  0  0  0  0
  -22.8879    9.9252   -8.7130 H   0  0  0  0  0
  -21.6391   10.7217   -9.7015 H   0  0  0  0  0
  -23.7419   14.5584   -6.4386 H   0  0  0  0  0
  -23.1043   16.2622   -8.7649 H   0  0  0  0  0
  -25.2872   17.1122   -8.0628 H   0  0  0  0  0
  -24.7126   17.2937   -6.3871 H   0  0  0  0  0
  -24.0418   18.3244   -7.6750 H   0  0  0  0  0
  -22.5142   15.6146   -5.3495 H   0  0  0  0  0
  -19.9267   17.0441   -5.7177 H   0  0  0  0  0
  -20.1087   18.1080   -3.4964 H   0  0  0  0  0
  -20.8723   17.9279   -1.3120 H   0  0  0  0  0
  -22.2163   18.9412   -1.8933 H   0  0  0  0  0
  -22.5560   17.4298   -1.0151 H   0  0  0  0  0
  -19.6499   19.8501   -5.1446 H   0  0  0  0  0
  -20.6337   21.8958   -6.1756 H   0  0  0  0  0
  -23.0799   22.2176   -6.2535 H   0  0  0  0  0
  -24.5842   20.5032   -5.3364 H   0  0  0  0  0
  -23.6372   18.5072   -4.1772 H   0  0  0  0  0
  -18.5808   16.5451   -3.6598 H   0  0  0  0  0
  -18.6332   13.6425   -2.9124 H   0  0  0  0  0
  -16.7248   15.8839   -2.1401 H   0  0  0  0  0
  -16.7739   14.1413   -0.4696 H   0  0  0  0  0
  -16.5333   12.9049   -1.7283 H   0  0  0  0  0
  -15.2551   14.1001   -1.3983 H   0  0  0  0  0
  -16.5150   13.6749   -4.2309 H   0  0  0  0  0
  -16.7239   15.4127   -4.5586 H   0  0  0  0  0
  -15.2246   14.8237   -3.7993 H   0  0  0  0  0
  -19.7705   14.2798    1.3684 H   0  0  0  0  0
  -21.1657   15.0819    0.6061 H   0  0  0  0  0
  -21.2228   13.3364    0.9538 H   0  0  0  0  0
  -20.0282   12.6302   -2.3304 H   0  0  0  0  0
  -20.5683   10.5397   -1.0865 H   0  0  0  0  0
  -20.1627   11.5139    0.4345 H   0  0  0  0  0
  -17.8952   11.8432   -0.5696 H   0  0  0  0  0
  -18.5051   10.1885    1.2044 H   0  0  0  0  0
  -18.9329    9.0085   -0.0587 H   0  0  0  0  0
  -17.2444    9.5435    0.1248 H   0  0  0  0  0
  -18.8020    9.7776   -2.5320 H   0  0  0  0  0
  -18.4209   11.4836   -2.8718 H   0  0  0  0  0
  -17.1453   10.3849   -2.2915 H   0  0  0  0  0
  -24.5076   12.8981   -1.6969 H   0  0  0  0  0
  -24.1266   15.6621   -2.8423 H   0  0  0  0  0
  -24.8028   14.6628   -0.0551 H   0  0  0  0  0
  -23.2609   15.3997   -0.5556 H   0  0  0  0  0
  -24.7583   16.3631   -0.5823 H   0  0  0  0  0
  -26.6897   14.2622   -1.7538 H   0  0  0  0  0
  -28.4104   14.1208   -3.7414 H   0  0  0  0  0
  -28.7405   15.5404   -2.7183 H   0  0  0  0  0
  -28.6033   15.7278   -4.4838 H   0  0  0  0  0
  -25.5843   17.1143   -4.0823 H   0  0  0  0  0
  -25.3478   15.6516   -5.0699 H   0  0  0  0  0
  -26.8351   16.6147   -5.2472 H   0  0  0  0  0
  -21.9551   14.0902   -2.7484 H   0  0  0  0  0
  1  2  2  0  0  0
  2  3  1  0  0  0
  2 22  1  0  0  0
  3  4  1  0  0  0
  3 21  1  0  0  0
  4  5  1  0  0  0
  4 20  1  0  0  0
  5  6  4  0  0  0
  5 19  4  0  0  0
  6  7  4  0  0  0
  7  8  1  0  0  0
  7 14  4  0  0  0
  8  9  1  0  0  0
  8 10  1  0  0  0
  8 13  1  0  0  0
 10 11  1  0  0  0
 10 12  1  0  0  0
 14 15  4  0  0  0
 14 19  4  0  0  0
 15 16  4  0  0  0
 16 17  4  0  0  0
 17 18  4  0  0  0
 18 19  4  0  0  0
 21 66  1  0  0  0
 22 23  1  0  0  0
 22 24  1  0  0  0
 24 25  1  0  0  0
 24 30  1  0  0  0
 25 26  1  0  0  0
 26 27  1  0  0  0
 26 29  1  0  0  0
 27 28  1  0  0  0
 30 31  2  0  0  0
 30 32  1  0  0  0
 32 33  1  0  0  0
 33 34  1  0  0  0
 33 36  1  0  0  0
 34 35  2  0  0  0
 34 37  1  0  0  0
 37 38  1  0  0  0
 38 39  1  0  0  0
 38 40  1  0  0  0
 39 49  2  0  0  0
 39 50  1  0  0  0
 40 41  1  0  0  0
 40 43  1  0  0  0
 41 42  1  0  0  0
 43 44  4  0  0  0
 43 48  4  0  0  0
 44 45  4  0  0  0
 45 46  4  0  0  0
 46 47  4  0  0  0
 47 48  4  0  0  0
 50 51  1  0  0  0
 51 52  1  0  0  0
 51 54  1  0  0  0
 52 53  2  0  0  0
 52 57  1  0  0  0
 54 55  1  0  0  0
 54 56  1  0  0  0
 57 58  1  0  0  0
 57 59  1  0  0  0
 59 60  1  0  0  0
 59 64  1  0  0  0
 60 61  1  0  0  0
 61 62  1  0  0  0
 61 63  1  0  0  0
 64 65  2  0  0  0
 64 75  1  0  0  0
 66 67  1  0  0  0
 66 68  2  0  0  0
 67 69  1  0  0  0
 67 75  1  0  0  0
 69 70  1  0  0  0
 69 71  1  0  0  0
 71 72  2  0  0  0
 72 73  1  0  0  0
 72 74  1  0  0  0
  3 76  1  0  0  0
  4 77  1  0  0  0
  6 78  1  0  0  0
  9 79  1  0  0  0
  9 80  1  0  0  0
  9 81  1  0  0  0
 10 82  1  0  0  0
 11 83  1  0  0  0
 11 84  1  0  0  0
 11 85  1  0  0  0
 12 86  1  0  0  0
 13 87  1  0  0  0
 13 88  1  0  0  0
 13 89  1  0  0  0
 15 90  1  0  0  0
 16 91  1  0  0  0
 17 92  1  0  0  0
 18 93  1  0  0  0
 20 94  1  0  0  0
 21 95  1  0  0  0
 23 96  1  0  0  0
 23 97  1  0  0  0
 23 98  1  0  0  0
 24 99  1  0  0  0
 25100  1  0  0  0
 25101  1  0  0  0
 26102  1  0  0  0
 27103  1  0  0  0
 27104  1  0  0  0
 28105  1  0  0  0
 29106  1  0  0  0
 29107  1  0  0  0
 29108  1  0  0  0
 32109  1  0  0  0
 33110  1  0  0  0
 36111  1  0  0  0
 36112  1  0  0  0
 36113  1  0  0  0
 37114  1  0  0  0
 38115  1  0  0  0
 40116  1  0  0  0
 42117  1  0  0  0
 42118  1  0  0  0
 42119  1  0  0  0
 44120  1  0  0  0
 45121  1  0  0  0
 46122  1  0  0  0
 47123  1  0  0  0
 48124  1  0  0  0
 50125  1  0  0  0
 51126  1  0  0  0
 54127  1  0  0  0
 55128  1  0  0  0
 55129  1  0  0  0
 55130  1  0  0  0
 56131  1  0  0  0
 56132  1  0  0  0
 56133  1  0  0  0
 58134  1  0  0  0
 58135  1  0  0  0
 58136  1  0  0  0
 59137  1  0  0  0
 60138  1  0  0  0
 60139  1  0  0  0
 61140  1  0  0  0
 62141  1  0  0  0
 62142  1  0  0  0
 62143  1  0  0  0
 63144  1  0  0  0
 63145  1  0  0  0
 63146  1  0  0  0
 67147  1  0  0  0
 69148  1  0  0  0
 70149  1  0  0  0
 70150  1  0  0  0
 70151  1  0  0  0
 71152  1  0  0  0
 73153  1  0  0  0
 73154  1  0  0  0
 73155  1  0  0  0
 74156  1  0  0  0
 74157  1  0  0  0
 74158  1  0  0  0
 75159  1  0  0  0
M  END
$$$$
