1kwq_ligand
  -I-interpret- 

 30 31  0  0  0  0  0  0  0  0999 V2000
   -6.0500    0.9850   16.7860 S   0  0  0  0  0
   -5.2920    2.2570   15.7850 C   0  0  0  0  0
   -4.0920    2.0470   15.1140 C   0  0  0  0  0
   -3.5130    3.1030   14.4010 C   0  0  0  0  0
   -4.1280    4.3520   14.3190 C   0  0  0  0  0
   -3.5760    5.3350   13.4460 N   0  0  0  0  0
   -3.7390    5.3400   12.1200 C   0  0  0  0  0
   -4.3620    4.5140   11.4390 O   0  0  0  0  0
   -3.0160    6.5160   11.5130 C   0  0  0  0  0
   -2.3660    7.2290   12.7130 C   0  0  0  0  0
   -2.8320    6.4740   13.9680 C   0  0  0  0  0
   -5.2590    4.6010   15.1190 C   0  0  0  0  0
   -5.7670    5.8480   15.3280 N   0  0  0  0  0
   -5.3480    6.4690   16.2870 O   0  0  0  0  0
   -6.6120    6.2640   14.5560 O   0  0  0  0  0
   -5.8810    3.5280   15.7500 C   0  0  0  0  0
   -5.5400   -0.3800   16.0660 N   0  0  0  0  0
   -7.4870    1.1090   16.6300 O   0  0  0  0  0
   -5.4840    1.0100   18.1030 O   0  0  0  0  0
   -3.6079    1.0709   15.1431 H   0  0  0  0  0
   -2.5589    2.9455   13.8979 H   0  0  0  0  0
   -3.6914    7.1723   10.9643 H   0  0  0  0  0
   -2.2781    6.2049   10.7735 H   0  0  0  0  0
   -2.6623    8.2772   12.7536 H   0  0  0  0  0
   -1.2791    7.2210   12.6318 H   0  0  0  0  0
   -1.9961    6.1657   14.5960 H   0  0  0  0  0
   -3.4418    7.0988   14.6205 H   0  0  0  0  0
   -6.8487    3.6797   16.2281 H   0  0  0  0  0
   -6.2101   -0.9919   15.6002 H   0  0  0  0  0
   -4.5499   -0.6247   16.0800 H   0  0  0  0  0
  1  2  1  0  0  0
  1 17  1  0  0  0
  1 18  2  0  0  0
  1 19  2  0  0  0
  2  3  4  0  0  0
  2 16  4  0  0  0
  3  4  4  0  0  0
  4  5  4  0  0  0
  5  6  1  0  0  0
  5 12  4  0  0  0
  6  7  1  0  0  0
  6 11  1  0  0  0
  7  8  2  0  0  0
  7  9  1  0  0  0
  9 10  1  0  0  0
 10 11  1  0  0  0
 12 13  1  0  0  0
 12 16  4  0  0  0
 13 14  2  0  0  0
 13 15  2  0  0  0
  3 20  1  0  0  0
  4 21  1  0  0  0
  9 22  1  0  0  0
  9 23  1  0  0  0
 10 24  1  0  0  0
 10 25  1  0  0  0
 11 26  1  0  0  0
 11 27  1  0  0  0
 16 28  1  0  0  0
 17 29  1  0  0  0
 17 30  1  0  0  0
M  END
$$$$
