4qem_ligand
  -I-interpret- 

 20 20  0  0  0  0  0  0  0  0999 V2000
    5.2640  -21.0250   -6.5830 C   0  0  0  0  0
    6.0020  -21.6020   -5.7290 O   0  0  0  0  0
    5.4940  -21.1250   -7.8480 O   0  0  0  0  0
    4.0780  -20.3040   -6.1040 C   0  0  0  0  0
    3.2870  -20.7450   -5.1330 C   0  0  0  0  0
    2.1240  -19.8870   -4.7600 C   0  0  0  0  0
    1.7780  -19.8190   -3.3970 C   0  0  0  0  0
    0.7060  -18.9680   -3.0110 C   0  0  0  0  0
   -0.0300  -18.2910   -4.0100 C   0  0  0  0  0
    0.2890  -18.3800   -5.3760 C   0  0  0  0  0
    1.4100  -19.1610   -5.7320 C   0  0  0  0  0
   -1.0370  -17.5000   -3.5620 O   0  0  0  0  0
    4.8342  -20.6237   -8.3327 H   0  0  0  0  0
    3.8326  -19.3511   -6.5729 H   0  0  0  0  0
    3.4787  -21.6928   -4.6299 H   0  0  0  0  0
    2.3194  -20.4053   -2.6545 H   0  0  0  0  0
    0.4551  -18.8394   -1.9581 H   0  0  0  0  0
   -0.3059  -17.8661   -6.1310 H   0  0  0  0  0
    1.7270  -19.2024   -6.7741 H   0  0  0  0  0
   -1.4743  -17.0863   -4.3098 H   0  0  0  0  0
  1  2  2  0  0  0
  1  3  1  0  0  0
  1  4  1  0  0  0
  4  5  2  0  0  0
  5  6  1  0  0  0
  6  7  4  0  0  0
  6 11  4  0  0  0
  7  8  4  0  0  0
  8  9  4  0  0  0
  9 10  4  0  0  0
  9 12  1  0  0  0
 10 11  4  0  0  0
  3 13  1  0  0  0
  4 14  1  0  0  0
  5 15  1  0  0  0
  7 16  1  0  0  0
  8 17  1  0  0  0
 10 18  1  0  0  0
 11 19  1  0  0  0
 12 20  1  0  0  0
M  END
$$$$
