4kb9_ligand
  -I-interpret- 

 87 91  0  0  0  0  0  0  0  0999 V2000
    8.1700   15.4470   14.8940 C   0  0  0  0  0
    9.5360   15.4690   14.6330 C   0  0  0  0  0
   10.2680   16.6460   14.8270 C   0  0  0  0  0
    9.6820   17.7440   15.4430 C   0  0  0  0  0
    8.3290   17.7360   15.6910 C   0  0  0  0  0
    7.5640   16.5960   15.4090 C   0  0  0  0  0
   10.6980   19.1080   15.9430 S   0  0  0  0  0
   11.7430   19.1870   14.9110 O   0  0  0  0  0
    9.7850   20.2740   16.1280 O   0  0  0  0  0
   11.3990   18.8580   17.4080 N   0  0  0  0  0
   10.4730   18.5830   18.4880 C   0  0  0  0  0
   10.7130   19.3510   19.7790 C   0  0  0  0  0
   10.7100   20.8650   19.6040 C   0  0  0  0  0
    9.6870   18.9810   20.8520 C   0  0  0  0  0
   12.6810   18.1710   17.4910 C   0  0  0  0  0
   13.8080   19.0930   17.9840 C   0  0  0  0  0
   14.9630   18.3070   18.3140 O   0  0  0  0  0
   14.1560   20.1960   16.9780 C   0  0  0  0  0
   15.0460   21.1590   17.6250 N   0  0  0  0  0
   14.7000   22.4390   17.7010 C   0  0  0  0  0
   13.6290   22.9770   17.4240 O   0  0  0  0  0
   15.7760   23.2150   18.1410 O   0  0  0  0  0
   15.5280   24.6100   18.1570 C   0  0  0  0  0
   16.4500   24.9100   20.4440 C   0  0  0  0  0
   17.6000   25.7420   19.9200 C   0  0  0  0  0
   17.8790   25.3880   18.4980 C   0  0  0  0  0
   18.5290   24.1500   18.3350 O   0  0  0  0  0
   18.3120   23.6260   17.0380 C   0  0  0  0  0
   17.3080   24.5490   16.3690 C   0  0  0  0  0
   16.7160   25.3420   17.5420 C   0  0  0  0  0
   14.8800   19.6670   15.7400 C   0  0  0  0  0
   16.5640   21.1690   14.5490 C   0  0  0  0  0
   16.8540   22.2290   13.6910 C   0  0  0  0  0
   15.8310   22.8820   13.0130 C   0  0  0  0  0
   14.5270   22.5170   13.2680 C   0  0  0  0  0
   14.2200   21.4840   14.1270 C   0  0  0  0  0
   15.2320   20.8070   14.7830 C   0  0  0  0  0
    7.5250   14.2600   14.7110 O   0  0  0  0  0
    6.1360   14.3490   14.9200 C   0  0  0  0  0
   19.5170   23.6540   16.2540 O   0  0  0  0  0
   19.5950   24.9820   15.7440 C   0  0  0  0  0
   18.1710   25.4240   15.5000 C   0  0  0  0  0
   15.2330   25.0720   19.5580 C   0  0  0  0  0
   10.0369   14.5687   14.2770 H   0  0  0  0  0
   11.3040   16.7011   14.4927 H   0  0  0  0  0
    7.8493   18.6210   16.1091 H   0  0  0  0  0
    6.4896   16.6057   15.5926 H   0  0  0  0  0
   10.5902   17.5272   18.7321 H   0  0  0  0  0
    9.4873   18.8817   18.1313 H   0  0  0  0  0
   11.7131   19.0539   20.0948 H   0  0  0  0  0
   11.4971   21.1503   18.9060 H   0  0  0  0  0
    9.7433   21.1824   19.2130 H   0  0  0  0  0
   10.8875   21.3413   20.5682 H   0  0  0  0  0
    8.6855   19.2160   20.4917 H   0  0  0  0  0
    9.7563   17.9146   21.0668 H   0  0  0  0  0
    9.8909   19.5497   21.7593 H   0  0  0  0  0
   12.9426   17.8226   16.4919 H   0  0  0  0  0
   12.5795   17.3517   18.2027 H   0  0  0  0  0
   13.4509   19.6047   18.8777 H   0  0  0  0  0
   15.6650   18.8852   18.6215 H   0  0  0  0  0
   13.2146   20.6440   16.6600 H   0  0  0  0  0
   15.9339   20.8473   18.0185 H   0  0  0  0  0
   14.6475   24.8393   17.5568 H   0  0  0  0  0
   16.2018   25.2430   21.4518 H   0  0  0  0  0
   16.7459   23.8610   20.4516 H   0  0  0  0  0
   18.4884   25.5442   20.5198 H   0  0  0  0  0
   17.3362   26.7978   19.9817 H   0  0  0  0  0
   18.5089   26.2397   18.2413 H   0  0  0  0  0
   17.9699   22.5936   17.1099 H   0  0  0  0  0
   16.5132   24.0896   15.7813 H   0  0  0  0  0
   16.3313   26.3232   17.2641 H   0  0  0  0  0
   14.2239   18.9664   15.2235 H   0  0  0  0  0
   15.8015   19.1779   16.0557 H   0  0  0  0  0
   17.3722   20.6236   15.0363 H   0  0  0  0  0
   17.8872   22.5470   13.5512 H   0  0  0  0  0
   16.0563   23.6685   12.2927 H   0  0  0  0  0
   13.7180   23.0589   12.7780 H   0  0  0  0  0
   13.1801   21.2006   14.2893 H   0  0  0  0  0
    5.9438   14.6761   15.9419 H   0  0  0  0  0
    5.7100   15.0685   14.2207 H   0  0  0  0  0
    5.6822   13.3712   14.7587 H   0  0  0  0  0
   20.1801   25.0163   14.8250 H   0  0  0  0  0
   20.0969   25.6448   16.4489 H   0  0  0  0  0
   18.0378   26.4775   15.7461 H   0  0  0  0  0
   17.9018   25.3230   14.4486 H   0  0  0  0  0
   14.4201   24.4695   19.9633 H   0  0  0  0  0
   14.9560   26.1259   19.5299 H   0  0  0  0  0
  2  1  4  0  0  0
  6  1  4  0  0  0
  1 38  1  0  0  0
  3  2  4  0  0  0
  4  3  4  0  0  0
  4  5  4  0  0  0
  7  4  1  0  0  0
  5  6  4  0  0  0
  7  8  2  0  0  0
  7  9  2  0  0  0
 10  7  1  0  0  0
 10 11  1  0  0  0
 15 10  1  0  0  0
 11 12  1  0  0  0
 12 13  1  0  0  0
 12 14  1  0  0  0
 16 15  1  0  0  0
 16 17  1  0  0  0
 18 16  1  0  0  0
 18 19  1  0  0  0
 31 18  1  0  0  0
 19 20  1  0  0  0
 20 21  2  0  0  0
 20 22  1  0  0  0
 22 23  1  0  0  0
 23 30  1  0  0  0
 23 43  1  0  0  0
 24 25  1  0  0  0
 43 24  1  0  0  0
 26 25  1  0  0  0
 26 27  1  0  0  0
 30 26  1  0  0  0
 28 27  1  0  0  0
 29 28  1  0  0  0
 28 40  1  0  0  0
 30 29  1  0  0  0
 29 42  1  0  0  0
 37 31  1  0  0  0
 32 33  4  0  0  0
 32 37  4  0  0  0
 33 34  4  0  0  0
 34 35  4  0  0  0
 35 36  4  0  0  0
 36 37  4  0  0  0
 38 39  1  0  0  0
 40 41  1  0  0  0
 41 42  1  0  0  0
  2 44  1  0  0  0
  3 45  1  0  0  0
  5 46  1  0  0  0
  6 47  1  0  0  0
 11 48  1  0  0  0
 11 49  1  0  0  0
 12 50  1  0  0  0
 13 51  1  0  0  0
 13 52  1  0  0  0
 13 53  1  0  0  0
 14 54  1  0  0  0
 14 55  1  0  0  0
 14 56  1  0  0  0
 15 57  1  0  0  0
 15 58  1  0  0  0
 16 59  1  0  0  0
 17 60  1  0  0  0
 18 61  1  0  0  0
 19 62  1  0  0  0
 23 63  1  0  0  0
 24 64  1  0  0  0
 24 65  1  0  0  0
 25 66  1  0  0  0
 25 67  1  0  0  0
 26 68  1  0  0  0
 28 69  1  0  0  0
 29 70  1  0  0  0
 30 71  1  0  0  0
 31 72  1  0  0  0
 31 73  1  0  0  0
 32 74  1  0  0  0
 33 75  1  0  0  0
 34 76  1  0  0  0
 35 77  1  0  0  0
 36 78  1  0  0  0
 39 79  1  0  0  0
 39 80  1  0  0  0
 39 81  1  0  0  0
 41 82  1  0  0  0
 41 83  1  0  0  0
 42 84  1  0  0  0
 42 85  1  0  0  0
 43 86  1  0  0  0
 43 87  1  0  0  0
M  END
$$$$
