1wdr_ligand
  -I-interpret- 

 45 46  0  0  0  0  0  0  0  0999 V2000
    1.0040   29.0760   22.0650 C   0  0  0  0  0
    1.7940   27.7970   21.7070 C   0  0  0  0  0
    3.2030   28.1500   21.2210 C   0  0  0  0  0
    3.0080   28.9350   19.9050 C   0  0  0  0  0
    2.1880   30.2240   20.2430 C   0  0  0  0  0
    1.8470   31.0510   18.9930 C   0  0  0  0  0
    1.7330   29.8190   23.0650 O   0  0  0  0  0
    1.9070   26.9510   22.8950 O   0  0  0  0  0
    3.8700   26.9030   20.8850 O   0  0  0  0  0
    4.3310   29.3240   19.4950 O   0  0  0  0  0
    0.9210   29.8420   20.8390 O   0  0  0  0  0
    1.0810   30.2610   18.0500 O   0  0  0  0  0
    0.6910   32.7760   25.8260 C   0  0  0  0  0
   -0.4190   31.7790   25.4540 C   0  0  0  0  0
    0.2690   30.5490   24.9090 C   0  0  0  0  0
    1.0510   30.9620   23.6390 C   0  0  0  0  0
    2.1840   31.8730   24.0970 C   0  0  0  0  0
    3.0410   32.4590   22.9990 C   0  0  0  0  0
    0.1300   34.0410   26.0500 O   0  0  0  0  0
   -0.9520   31.4040   26.7710 O   0  0  0  0  0
   -0.7720   29.6300   24.5420 O   0  0  0  0  0
    1.5270   33.0380   24.6550 O   0  0  0  0  0
    2.2560   33.0900   21.9490 O   0  0  0  0  0
    0.0141   28.8529   22.4630 H   0  0  0  0  0
    1.2628   27.2725   20.9128 H   0  0  0  0  0
    3.7715   28.7116   21.9623 H   0  0  0  0  0
    2.4949   28.3587   19.1351 H   0  0  0  0  0
    2.8071   30.8195   20.9140 H   0  0  0  0  0
    2.7745   31.3677   18.5160 H   0  0  0  0  0
    1.2538   31.9149   19.2929 H   0  0  0  0  0
    1.0289   26.7231   23.2089 H   0  0  0  0  0
    4.0068   26.3891   21.6843 H   0  0  0  0  0
    4.8433   28.5397   19.2850 H   0  0  0  0  0
    0.8784   30.7942   17.2778 H   0  0  0  0  0
    1.2234   32.3570   26.6799 H   0  0  0  0  0
   -1.1575   32.1606   24.7490 H   0  0  0  0  0
    0.9514   30.1030   25.6325 H   0  0  0  0  0
    0.3567   31.4106   22.9285 H   0  0  0  0  0
    2.8207   31.2722   24.7464 H   0  0  0  0  0
    3.6094   31.6454   22.5484 H   0  0  0  0  0
    3.6788   33.2226   23.4442 H   0  0  0  0  0
    0.8249   34.6614   26.2820 H   0  0  0  0  0
   -1.6656   30.7718   26.6580 H   0  0  0  0  0
   -0.3796   28.8284   24.1883 H   0  0  0  0  0
    2.8456   33.4444   21.2794 H   0  0  0  0  0
  1  2  1  0  0  0
  7  1  1  0  0  0
  1 11  1  0  0  0
  2  3  1  0  0  0
  2  8  1  0  0  0
  3  4  1  0  0  0
  3  9  1  0  0  0
  5  4  1  0  0  0
  4 10  1  0  0  0
  5  6  1  0  0  0
 11  5  1  0  0  0
  6 12  1  0  0  0
 16  7  1  0  0  0
 14 13  1  0  0  0
 13 19  1  0  0  0
 13 22  1  0  0  0
 15 14  1  0  0  0
 14 20  1  0  0  0
 15 16  1  0  0  0
 15 21  1  0  0  0
 16 17  1  0  0  0
 17 18  1  0  0  0
 17 22  1  0  0  0
 18 23  1  0  0  0
  1 24  1  0  0  0
  2 25  1  0  0  0
  3 26  1  0  0  0
  4 27  1  0  0  0
  5 28  1  0  0  0
  6 29  1  0  0  0
  6 30  1  0  0  0
  8 31  1  0  0  0
  9 32  1  0  0  0
 10 33  1  0  0  0
 12 34  1  0  0  0
 13 35  1  0  0  0
 14 36  1  0  0  0
 15 37  1  0  0  0
 16 38  1  0  0  0
 17 39  1  0  0  0
 18 40  1  0  0  0
 18 41  1  0  0  0
 19 42  1  0  0  0
 20 43  1  0  0  0
 21 44  1  0  0  0
 23 45  1  0  0  0
M  END
$$$$
