5f6v_ligand
  -I-interpret- 

 24 25  0  0  0  0  0  0  0  0999 V2000
   15.3940   11.4080  109.9170 C   0  0  0  0  0
   15.6760   10.1480  110.4230 C   0  0  0  0  0
   14.6420    9.2880  110.7620 C   0  0  0  0  0
   13.3170    9.6760  110.5950 C   0  0  0  0  0
   12.2720    8.6730  110.9920 C   0  0  0  0  0
   11.7530    6.3420  111.3190 C   0  0  0  0  0
   10.9850    9.0030  111.4180 C   0  0  0  0  0
   11.7530   11.3850  109.8920 O   0  0  0  0  0
   13.0420   10.9440  110.0790 C   0  0  0  0  0
   14.0780   11.8050  109.7450 C   0  0  0  0  0
   12.6450    7.3370  110.9530 C   0  0  0  0  0
   10.4700    6.6720  111.7300 C   0  0  0  0  0
   10.0910    8.0030  111.7790 C   0  0  0  0  0
   10.5610   10.3130  111.4800 O   0  0  0  0  0
   16.2069   12.0852  109.6549 H   0  0  0  0  0
   16.7112    9.8332  110.5544 H   0  0  0  0  0
   14.8697    8.3002  111.1625 H   0  0  0  0  0
   12.0604    5.2968  111.2839 H   0  0  0  0  0
   11.7695   12.2745  109.5313 H   0  0  0  0  0
   13.8559   12.7950  109.3468 H   0  0  0  0  0
   13.6508    7.0674  110.6309 H   0  0  0  0  0
    9.7655    5.8896  112.0123 H   0  0  0  0  0
    9.0845    8.2677  112.1030 H   0  0  0  0  0
    9.6541   10.3401  111.7936 H   0  0  0  0  0
  1  2  4  0  0  0
  1 10  4  0  0  0
  2  3  4  0  0  0
  3  4  4  0  0  0
  4  5  1  0  0  0
  4  9  4  0  0  0
  5  7  4  0  0  0
  5 11  4  0  0  0
 11  6  4  0  0  0
  6 12  4  0  0  0
  7 13  4  0  0  0
  7 14  1  0  0  0
  9  8  1  0  0  0
  9 10  4  0  0  0
 12 13  4  0  0  0
  1 15  1  0  0  0
  2 16  1  0  0  0
  3 17  1  0  0  0
  6 18  1  0  0  0
  8 19  1  0  0  0
 10 20  1  0  0  0
 11 21  1  0  0  0
 12 22  1  0  0  0
 13 23  1  0  0  0
 14 24  1  0  0  0
M  END
$$$$
