4ly1_ligand
  -I-interpret- 

 42 44  0  0  0  0  0  0  0  0999 V2000
   20.2870  -19.4630    0.7050 C   0  0  0  0  0
   25.8840  -16.7600   -0.8820 C   0  0  0  0  0
   25.5380  -18.0530   -0.4980 C   0  0  0  0  0
   21.7710  -17.8540   -0.3870 C   0  0  0  0  0
   24.1980  -18.4060   -0.3810 C   0  0  0  0  0
   23.1890  -17.4440   -0.5850 C   0  0  0  0  0
   23.5400  -16.1250   -0.9280 C   0  0  0  0  0
   24.8840  -15.7900   -1.0620 C   0  0  0  0  0
   29.2770  -15.4910   -2.0390 C   0  0  0  0  0
   27.7820  -15.6960   -2.0080 C   0  0  0  0  0
   27.0960  -15.1610   -2.8590 O   0  0  0  0  0
   27.2590  -16.4710   -1.0240 N   0  0  0  0  0
   20.8300  -17.2230   -0.8560 O   0  0  0  0  0
   21.5440  -18.9170    0.4090 N   0  0  0  0  0
   19.9600  -19.6350    2.0530 C   0  0  0  0  0
   18.7650  -20.2800    2.4170 C   0  0  0  0  0
   17.9140  -20.7440    1.4000 C   0  0  0  0  0
   18.2510  -20.6030    0.0580 C   0  0  0  0  0
   19.4360  -19.9560   -0.3170 C   0  0  0  0  0
   19.7610  -19.8120   -1.6940 N   0  0  0  0  0
   18.3920  -20.3570    3.8480 C   0  0  0  0  0
   17.1440  -20.3200    4.3590 C   0  0  0  0  0
   17.0860  -20.3240    5.7440 C   0  0  0  0  0
   18.2610  -20.3260    6.3740 C   0  0  0  0  0
   19.5470  -20.3220    5.1720 S   0  0  0  0  0
   26.3162  -18.7872   -0.2895 H   0  0  0  0  0
   23.9270  -19.4316   -0.1303 H   0  0  0  0  0
   22.7668  -15.3733   -1.0871 H   0  0  0  0  0
   25.1633  -14.7657   -1.3089 H   0  0  0  0  0
   29.6737  -15.8615   -2.9842 H   0  0  0  0  0
   29.4988  -14.4282   -1.9421 H   0  0  0  0  0
   29.7343  -16.0357   -1.2130 H   0  0  0  0  0
   27.9023  -16.8715   -0.3413 H   0  0  0  0  0
   22.3572  -19.3633    0.8331 H   0  0  0  0  0
   20.6349  -19.2672    2.8259 H   0  0  0  0  0
   16.9723  -21.2233    1.6676 H   0  0  0  0  0
   17.5867  -20.9998   -0.7097 H   0  0  0  0  0
   20.6251  -19.3443   -1.9679 H   0  0  0  0  0
   19.1300  -20.1764   -2.4078 H   0  0  0  0  0
   16.2524  -20.2894    3.7328 H   0  0  0  0  0
   16.1392  -20.3254    6.2841 H   0  0  0  0  0
   18.4020  -20.3295    7.4548 H   0  0  0  0  0
 14  1  1  0  0  0
  1 15  4  0  0  0
  1 19  4  0  0  0
  2  3  4  0  0  0
  2  8  4  0  0  0
 12  2  1  0  0  0
  3  5  4  0  0  0
  6  4  1  0  0  0
  4 13  2  0  0  0
  4 14  1  0  0  0
  5  6  4  0  0  0
  7  6  4  0  0  0
  8  7  4  0  0  0
 10  9  1  0  0  0
 10 11  2  0  0  0
 10 12  1  0  0  0
 15 16  4  0  0  0
 16 17  4  0  0  0
 16 21  1  0  0  0
 17 18  4  0  0  0
 18 19  4  0  0  0
 19 20  1  0  0  0
 21 22  4  0  0  0
 21 25  4  0  0  0
 22 23  4  0  0  0
 23 24  4  0  0  0
 24 25  4  0  0  0
  3 26  1  0  0  0
  5 27  1  0  0  0
  7 28  1  0  0  0
  8 29  1  0  0  0
  9 30  1  0  0  0
  9 31  1  0  0  0
  9 32  1  0  0  0
 12 33  1  0  0  0
 14 34  1  0  0  0
 15 35  1  0  0  0
 17 36  1  0  0  0
 18 37  1  0  0  0
 20 38  1  0  0  0
 20 39  1  0  0  0
 22 40  1  0  0  0
 23 41  1  0  0  0
 24 42  1  0  0  0
M  END
$$$$
