4x8u_ligand
  -I-interpret- 

 18 19  0  0  0  0  0  0  0  0999 V2000
    9.5280   34.7820   29.1230 C   0  0  0  0  0
    9.4010   34.4110   27.7720 C   0  0  0  0  0
    9.1780   36.1130   29.2330 N   0  0  0  0  0
    9.8970   33.8630   30.1000 C   0  0  0  0  0
    8.9740   35.5840   27.0640 C   0  0  0  0  0
    9.6220   33.0850   27.4180 C   0  0  0  0  0
    8.8310   36.5880   27.9840 C   0  0  0  0  0
   10.1030   32.5360   29.7280 C   0  0  0  0  0
    9.9520   32.1670   28.3990 C   0  0  0  0  0
    8.4150   38.0030   27.8630 C   0  0  0  0  0
   10.1280   30.4900   27.9580 Cl  0  0  0  0  0
    8.2460   38.4230   26.6330 O   0  0  0  0  0
    8.1910   38.6930   28.8590 O   0  0  0  0  0
   10.0226   34.1750   31.1368 H   0  0  0  0  0
    8.7962   35.6614   25.9914 H   0  0  0  0  0
    9.5361   32.7716   26.3776 H   0  0  0  0  0
   10.3808   31.7931   30.4757 H   0  0  0  0  0
    8.4809   37.7214   26.0213 H   0  0  0  0  0
  1  2  4  0  0  0
  1  3  4  0  0  0
  1  4  4  0  0  0
  2  5  4  0  0  0
  2  6  4  0  0  0
  3  7  4  0  0  0
  4  8  4  0  0  0
  5  7  4  0  0  0
  6  9  4  0  0  0
  7 10  1  0  0  0
  8  9  4  0  0  0
  9 11  1  0  0  0
 10 12  1  0  0  0
 10 13  2  0  0  0
  4 14  1  0  0  0
  5 15  1  0  0  0
  6 16  1  0  0  0
  8 17  1  0  0  0
 12 18  1  0  0  0
M  END
$$$$
