6gch_ligand
  -I-interpret- 

 32 32  0  0  0  0  0  0  0  0999 V2000
   36.5950   73.1230   87.8860 C   0  0  0  0  0
   35.7010   74.2350   88.1310 C   0  0  0  0  0
   34.7290   74.2040   88.8510 O   0  0  0  0  0
   36.2240   75.4220   87.5940 N   0  0  0  0  0
   36.0440   76.6950   87.1720 C   0  0  0  0  0
   35.9260   77.0700   85.8060 C   0  0  0  0  0
   34.7680   76.2830   85.2130 C   0  0  0  0  0
   37.0530   77.6620   87.9000 C   0  0  0  0  0
   35.6070   78.5220   85.8550 O   0  0  0  0  0
   35.0780   75.0580   85.1170 F   0  0  0  0  0
   34.3750   76.7120   84.1420 F   0  0  0  0  0
   33.7260   76.5410   85.9350 F   0  0  0  0  0
   37.1910   77.6250   89.4240 C   0  0  0  0  0
   38.3230   78.0130   90.0210 C   0  0  0  0  0
   38.4550   77.9640   91.3500 C   0  0  0  0  0
   37.4550   77.4850   92.1110 C   0  0  0  0  0
   36.3170   77.0840   91.5370 C   0  0  0  0  0
   36.2070   77.1340   90.2090 C   0  0  0  0  0
   37.0403   72.8022   88.8277 H   0  0  0  0  0
   36.0342   72.2974   87.4478 H   0  0  0  0  0
   37.3812   73.4352   87.1986 H   0  0  0  0  0
   37.2170   75.2349   87.4552 H   0  0  0  0  0
   34.9961   76.7911   87.4561 H   0  0  0  0  0
   36.8145   76.8762   85.2051 H   0  0  0  0  0
   36.6727   78.6610   87.6866 H   0  0  0  0  0
   38.0329   77.3583   87.5318 H   0  0  0  0  0
   36.3499   78.9991   86.2319 H   0  0  0  0  0
   39.1521   78.3754   89.4133 H   0  0  0  0  0
   39.3753   78.3131   91.8182 H   0  0  0  0  0
   37.5725   77.4241   93.1929 H   0  0  0  0  0
   35.4894   76.7208   92.1463 H   0  0  0  0  0
   35.2934   76.7668   89.7415 H   0  0  0  0  0
  1  2  1  0  0  0
  2  3  2  0  0  0
  2  4  1  0  0  0
  4  5  1  0  0  0
  5  6  1  0  0  0
  5  8  1  0  0  0
  6  7  1  0  0  0
  6  9  1  0  0  0
  7 10  1  0  0  0
  7 11  1  0  0  0
  7 12  1  0  0  0
  8 13  1  0  0  0
 13 14  4  0  0  0
 13 18  4  0  0  0
 14 15  4  0  0  0
 15 16  4  0  0  0
 16 17  4  0  0  0
 17 18  4  0  0  0
  1 19  1  0  0  0
  1 20  1  0  0  0
  1 21  1  0  0  0
  4 22  1  0  0  0
  5 23  1  0  0  0
  6 24  1  0  0  0
  8 25  1  0  0  0
  8 26  1  0  0  0
  9 27  1  0  0  0
 14 28  1  0  0  0
 15 29  1  0  0  0
 16 30  1  0  0  0
 17 31  1  0  0  0
 18 32  1  0  0  0
M  END
$$$$
