6o4w_ligand
  -I-interpret- 

 60 63  0  0  0  0  0  0  0  0999 V2000
   87.4180   89.9710   -1.9140 C   0  0  0  0  0
   88.6640   89.5910   -1.4210 C   0  0  0  0  0
   89.2820   88.4480   -1.9200 C   0  0  0  0  0
   88.6410   87.6790   -2.9300 C   0  0  0  0  0
   87.4170   88.0580   -3.4120 C   0  0  0  0  0
   86.7860   89.2210   -2.9050 C   0  0  0  0  0
   87.0300   87.1190   -4.4070 C   0  0  0  0  0
   88.0120   86.1330   -4.5200 C   0  0  0  0  0
   89.0210   86.4970   -3.6200 C   0  0  0  0  0
   87.5750   84.6700   -4.6770 C   0  0  0  0  0
   88.5290   83.7570   -5.6310 C   0  0  0  0  0
   89.8530   83.6620   -5.0650 C   0  0  0  0  0
   90.7310   82.6480   -5.8080 C   0  0  0  0  0
   90.0940   81.3380   -5.8820 N   0  3  0  0  0
   88.7370   81.3650   -6.3810 C   0  0  0  0  0
   87.8780   82.4390   -5.7160 C   0  0  0  0  0
   90.8010   80.4360   -6.2860 C   0  0  0  0  0
   91.1180   80.3750   -7.8000 C   0  0  0  0  0
   92.2520   81.0030   -8.3070 C   0  0  0  0  0
   92.5520   80.9480   -9.6620 C   0  0  0  0  0
   91.7300   80.2430  -10.5310 C   0  0  0  0  0
   90.6060   79.5970  -10.0350 C   0  0  0  0  0
   90.3120   79.6530   -8.6780 C   0  0  0  0  0
   85.8300   87.1630   -5.1240 O   0  0  0  0  0
   86.8240   91.1250   -1.3950 O   0  0  0  0  0
   85.4290   91.1070   -1.4080 C   0  0  0  0  0
   89.2600   90.3800   -0.4260 O   0  0  0  0  0
   90.5540   90.0090   -0.0500 C   0  0  0  0  0
   90.2559   88.1428   -1.5372 H   0  0  0  0  0
   85.8124   89.5275   -3.2874 H   0  0  0  0  0
   86.2246   87.2172   -5.1349 H   0  0  0  0  0
   88.4428   86.1120   -5.5210 H   0  0  0  0  0
   89.1731   85.6915   -2.9016 H   0  0  0  0  0
   89.9459   86.6788   -4.1673 H   0  0  0  0  0
   86.5905   84.6868   -5.1446 H   0  0  0  0  0
   87.6108   84.2252   -3.6825 H   0  0  0  0  0
   88.6480   84.1894   -6.6245 H   0  0  0  0  0
   89.7561   83.3321   -4.0306 H   0  0  0  0  0
   90.3258   84.6410   -5.1436 H   0  0  0  0  0
   91.6707   82.5437   -5.2655 H   0  0  0  0  0
   90.8915   83.0105   -6.8233 H   0  0  0  0  0
   89.9693   81.0664   -4.9068 H   0  0  0  0  0
   88.2845   80.3971   -6.1653 H   0  0  0  0  0
   88.7796   81.5869   -7.4473 H   0  0  0  0  0
   86.9815   82.5592   -6.3243 H   0  0  0  0  0
   87.6796   82.1094   -4.6961 H   0  0  0  0  0
   90.2492   79.5208   -6.0713 H   0  0  0  0  0
   91.7637   80.5851   -5.7971 H   0  0  0  0  0
   92.9136   81.5453   -7.6315 H   0  0  0  0  0
   93.4352   81.4597  -10.0443 H   0  0  0  0  0
   91.9655   80.1972  -11.5943 H   0  0  0  0  0
   89.9530   79.0450  -10.7110 H   0  0  0  0  0
   89.4388   79.1248   -8.2950 H   0  0  0  0  0
   85.3309   87.9404   -4.8630 H   0  0  0  0  0
   85.0778   91.0003   -2.4344 H   0  0  0  0  0
   85.0722   90.2675   -0.8114 H   0  0  0  0  0
   85.0510   92.0393   -0.9884 H   0  0  0  0  0
   90.5407   88.9896    0.3357 H   0  0  0  0  0
   91.2123   90.0622   -0.9171 H   0  0  0  0  0
   90.9146   90.6869    0.7237 H   0  0  0  0  0
  1  2  4  0  0  0
  1  6  4  0  0  0
  1 25  1  0  0  0
  2  3  4  0  0  0
  2 27  1  0  0  0
  3  4  4  0  0  0
  4  5  4  0  0  0
  4  9  1  0  0  0
  5  6  4  0  0  0
  5  7  1  0  0  0
  7  8  1  0  0  0
  7 24  1  0  0  0
  8  9  1  0  0  0
  8 10  1  0  0  0
 10 11  1  0  0  0
 11 12  1  0  0  0
 11 16  1  0  0  0
 12 13  1  0  0  0
 13 14  1  0  0  0
 14 15  1  0  0  0
 14 17  1  0  0  0
 15 16  1  0  0  0
 17 18  1  0  0  0
 18 19  4  0  0  0
 18 23  4  0  0  0
 19 20  4  0  0  0
 20 21  4  0  0  0
 21 22  4  0  0  0
 22 23  4  0  0  0
 25 26  1  0  0  0
 27 28  1  0  0  0
  3 29  1  0  0  0
  6 30  1  0  0  0
  7 31  1  0  0  0
  8 32  1  0  0  0
  9 33  1  0  0  0
  9 34  1  0  0  0
 10 35  1  0  0  0
 10 36  1  0  0  0
 11 37  1  0  0  0
 12 38  1  0  0  0
 12 39  1  0  0  0
 13 40  1  0  0  0
 13 41  1  0  0  0
 14 42  1  0  0  0
 15 43  1  0  0  0
 15 44  1  0  0  0
 16 45  1  0  0  0
 16 46  1  0  0  0
 17 47  1  0  0  0
 17 48  1  0  0  0
 19 49  1  0  0  0
 20 50  1  0  0  0
 21 51  1  0  0  0
 22 52  1  0  0  0
 23 53  1  0  0  0
 24 54  1  0  0  0
 26 55  1  0  0  0
 26 56  1  0  0  0
 26 57  1  0  0  0
 28 58  1  0  0  0
 28 59  1  0  0  0
 28 60  1  0  0  0
M  END
$$$$
