2xbj_ligand
  -I-interpret- 

 64 67  0  0  0  0  0  0  0  0999 V2000
   -5.6570   49.1970    8.3030 C   0  0  0  0  0
   -5.0930   49.7040    9.6490 C   0  0  0  0  0
   -6.0390   50.1640   10.7390 C   0  0  0  0  0
   -7.5380   50.1220   10.5200 C   0  0  0  0  0
   -8.0920   49.6180    9.1760 C   0  0  0  0  0
   -9.5140   49.5970    9.0270 N   0  0  0  0  0
  -10.0780   49.1710    7.7670 C   0  0  0  0  0
   -9.2180   48.6660    6.7030 N   0  0  0  0  0
   -7.8380   48.6950    6.8440 C   0  0  0  0  0
   -7.2020   49.1650    8.0990 C   0  0  0  0  0
   -7.2250   48.1390    5.6580 N   0  0  0  0  0
   -7.4610   47.3480    4.4390 C   0  0  0  0  0
   -6.3830   47.0240    3.4740 C   0  0  0  0  0
   -6.7070   45.6410    2.9860 C   0  0  0  0  0
   -8.1030   45.3460    3.4240 N   0  3  0  0  0
   -8.2530   46.1110    4.6940 C   0  0  0  0  0
   -6.2000   48.1170    2.4490 C   0  0  0  0  0
   -5.1380   47.7370    1.4370 C   0  0  0  0  0
   -7.5300   48.3100    1.7660 C   0  0  0  0  0
   -5.8590   49.2890    3.0840 O   0  0  0  0  0
  -11.5370   49.0530    7.5400 C   0  0  0  0  0
  -12.4270   49.2830    8.6090 C   0  0  0  0  0
  -13.8760   49.0610    8.4030 C   0  0  0  0  0
  -14.3410   48.6080    7.1160 C   0  0  0  0  0
  -13.3570   48.3480    5.9830 C   0  0  0  0  0
  -12.0100   48.5520    6.1740 C   0  0  0  0  0
  -13.7770   47.9330    4.8020 F   0  0  0  0  0
  -11.9090   49.7200    9.8140 O   0  0  0  0  0
   -5.6130   50.6330   11.9800 O   0  0  0  0  0
   -6.5600   50.6360   13.0110 C   0  0  0  0  0
   -3.7240   49.7410    9.8470 O   0  0  0  0  0
   -2.8890   49.3220    8.8110 C   0  0  0  0  0
   -5.3426   48.1552    8.2400 H   0  0  0  0  0
   -5.2889   49.9035    7.5590 H   0  0  0  0  0
   -5.0662   49.4281   10.7032 H   0  0  0  0  0
   -5.0486   50.0764   10.2922 H   0  0  0  0  0
   -7.8558   51.1630   10.5779 H   0  0  0  0  0
   -7.9058   49.4078   11.2567 H   0  0  0  0  0
   -6.2383   48.3972    5.6714 H   0  0  0  0  0
   -8.0050   48.1286    3.9071 H   0  0  0  0  0
   -5.3819   46.9975    3.9042 H   0  0  0  0  0
   -6.0092   44.9114    3.3969 H   0  0  0  0  0
   -6.6204   45.5824    1.9010 H   0  0  0  0  0
   -8.2642   44.3472    3.5535 H   0  0  0  0  0
   -8.7932   45.6196    2.7246 H   0  0  0  0  0
   -9.2942   46.3203    4.9394 H   0  0  0  0  0
   -7.9006   45.5568    5.5639 H   0  0  0  0  0
   -4.1902   47.5749    1.9503 H   0  0  0  0  0
   -5.4365   46.8221    0.9251 H   0  0  0  0  0
   -5.0261   48.5416    0.7102 H   0  0  0  0  0
   -7.8292   47.3781    1.2862 H   0  0  0  0  0
   -8.2783   48.5963    2.5050 H   0  0  0  0  0
   -7.4407   49.0946    1.0147 H   0  0  0  0  0
   -5.7429   49.9833    2.4312 H   0  0  0  0  0
  -14.5823   49.2378    9.2142 H   0  0  0  0  0
  -15.4070   48.4500    6.9521 H   0  0  0  0  0
  -11.2972   48.3614    5.3718 H   0  0  0  0  0
  -12.6230   49.8339   10.4455 H   0  0  0  0  0
   -7.4013   51.2687   12.7280 H   0  0  0  0  0
   -6.9108   49.6185   13.1833 H   0  0  0  0  0
   -6.1027   51.0231   13.9215 H   0  0  0  0  0
   -3.1073   48.2821    8.5681 H   0  0  0  0  0
   -3.0604   49.9451    7.9333 H   0  0  0  0  0
   -1.8491   49.4125    9.1250 H   0  0  0  0  0
  1  2  1  0  0  0
  1 10  1  0  0  0
  2  3  1  0  0  0
  2 31  1  0  0  0
  3  4  1  0  0  0
  3 29  1  0  0  0
  4  5  1  0  0  0
  5  6  4  0  0  0
  5 10  4  0  0  0
  6  7  4  0  0  0
  7  8  4  0  0  0
  7 21  1  0  0  0
  8  9  4  0  0  0
  9 10  4  0  0  0
  9 11  1  0  0  0
 11 12  1  0  0  0
 12 13  1  0  0  0
 12 16  1  0  0  0
 13 14  1  0  0  0
 13 17  1  0  0  0
 14 15  1  0  0  0
 15 16  1  0  0  0
 17 18  1  0  0  0
 17 19  1  0  0  0
 17 20  1  0  0  0
 21 22  4  0  0  0
 21 26  4  0  0  0
 22 23  4  0  0  0
 22 28  1  0  0  0
 23 24  4  0  0  0
 24 25  4  0  0  0
 25 26  4  0  0  0
 25 27  1  0  0  0
 29 30  1  0  0  0
 31 32  1  0  0  0
  1 33  1  0  0  0
  1 34  1  0  0  0
  2 35  1  0  0  0
  3 36  1  0  0  0
  4 37  1  0  0  0
  4 38  1  0  0  0
 11 39  1  0  0  0
 12 40  1  0  0  0
 13 41  1  0  0  0
 14 42  1  0  0  0
 14 43  1  0  0  0
 15 44  1  0  0  0
 15 45  1  0  0  0
 16 46  1  0  0  0
 16 47  1  0  0  0
 18 48  1  0  0  0
 18 49  1  0  0  0
 18 50  1  0  0  0
 19 51  1  0  0  0
 19 52  1  0  0  0
 19 53  1  0  0  0
 20 54  1  0  0  0
 23 55  1  0  0  0
 24 56  1  0  0  0
 26 57  1  0  0  0
 28 58  1  0  0  0
 30 59  1  0  0  0
 30 60  1  0  0  0
 30 61  1  0  0  0
 32 62  1  0  0  0
 32 63  1  0  0  0
 32 64  1  0  0  0
M  END
$$$$
