6fyk_ligand
  -I-interpret- 

 48 50  0  0  0  0  0  0  0  0999 V2000
   -5.9660   17.0530   30.5860 C   0  0  0  0  0
   -4.5780   17.1210   30.7660 C   0  0  0  0  0
   -6.2080   19.5110   30.1610 C   0  0  0  0  0
   -8.2840   20.6290   30.4790 C   0  0  0  0  0
   -8.8590   19.4290   30.8740 C   0  0  0  0  0
  -10.2750   19.8540   31.1600 C   0  0  0  0  0
  -11.3980   18.9790   31.6340 C   0  0  0  0  0
   -7.6360   13.1390   29.6960 C   0  0  0  0  0
   -7.8300   11.6080   29.8350 C   0  0  0  0  0
   -7.8990   11.1630   31.3200 C   0  0  0  0  0
   -9.0390   11.8330   32.1430 C   0  0  0  0  0
   -9.6370   10.7930   33.1270 C   0  0  0  0  0
   -8.5240   13.0700   32.9320 C   0  0  0  0  0
   -3.8310   15.9950   30.7950 N   0  0  0  0  0
   -4.3870   14.7750   30.6570 C   0  0  0  0  0
   -5.7690   14.6450   30.4630 C   0  0  0  0  0
   -6.5590   15.7950   30.4360 C   0  0  0  0  0
   -6.3660   13.3920   30.3150 O   0  0  0  0  0
   -6.7930   18.2880   30.5550 C   0  0  0  0  0
   -8.1440   18.2290   30.9260 C   0  0  0  0  0
   -6.9450   20.7050   30.1090 C   0  0  0  0  0
  -10.3640   21.1070   30.9360 N   0  0  0  0  0
   -9.1880   21.6230   30.5160 N   0  0  0  0  0
   -6.7030   10.9150   29.1800 N   0  3  0  0  0
   -4.0960   18.0915   30.8838 H   0  0  0  0  0
   -5.1526   19.5289   29.8890 H   0  0  0  0  0
  -11.5755   18.1900   30.9032 H   0  0  0  0  0
  -11.1308   18.5346   32.5927 H   0  0  0  0  0
  -12.3007   19.5790   31.7492 H   0  0  0  0  0
   -8.4423   13.6998   30.1686 H   0  0  0  0  0
   -7.6577   13.4630   28.6555 H   0  0  0  0  0
   -8.7761   11.3481   29.3602 H   0  0  0  0  0
   -6.9569   11.4543   31.7843 H   0  0  0  0  0
   -8.0918   10.0902   31.3228 H   0  0  0  0  0
   -9.8057   12.1780   31.4493 H   0  0  0  0  0
  -10.0382    9.9505   32.5636 H   0  0  0  0  0
   -8.8560   10.4418   33.8014 H   0  0  0  0  0
  -10.4354   11.2586   33.7048 H   0  0  0  0  0
   -7.7386   12.7588   33.6208 H   0  0  0  0  0
   -8.1256   13.8052   32.2328 H   0  0  0  0  0
   -9.3481   13.5100   33.4935 H   0  0  0  0  0
   -3.7588   13.8851   30.6965 H   0  0  0  0  0
   -7.6371   15.7131   30.2982 H   0  0  0  0  0
   -8.6123   17.2958   31.2387 H   0  0  0  0  0
   -6.4907   21.6446   29.7944 H   0  0  0  0  0
   -6.8273    9.9066   29.2695 H   0  0  0  0  0
   -6.6768   11.1692   28.1925 H   0  0  0  0  0
   -5.8290   11.1921   29.6270 H   0  0  0  0  0
  1  2  4  0  0  0
 17  1  4  0  0  0
  1 19  1  0  0  0
 14  2  4  0  0  0
 19  3  4  0  0  0
  3 21  4  0  0  0
  4  5  4  0  0  0
 21  4  4  0  0  0
  4 23  4  0  0  0
  5  6  4  0  0  0
  5 20  4  0  0  0
  6  7  1  0  0  0
  6 22  4  0  0  0
  8  9  1  0  0  0
 18  8  1  0  0  0
  9 10  1  0  0  0
  9 24  1  0  0  0
 10 11  1  0  0  0
 11 12  1  0  0  0
 11 13  1  0  0  0
 15 14  4  0  0  0
 16 15  4  0  0  0
 16 17  4  0  0  0
 16 18  1  0  0  0
 19 20  4  0  0  0
 22 23  4  0  0  0
  2 25  1  0  0  0
  3 26  1  0  0  0
  7 27  1  0  0  0
  7 28  1  0  0  0
  7 29  1  0  0  0
  8 30  1  0  0  0
  8 31  1  0  0  0
  9 32  1  0  0  0
 10 33  1  0  0  0
 10 34  1  0  0  0
 11 35  1  0  0  0
 12 36  1  0  0  0
 12 37  1  0  0  0
 12 38  1  0  0  0
 13 39  1  0  0  0
 13 40  1  0  0  0
 13 41  1  0  0  0
 15 42  1  0  0  0
 17 43  1  0  0  0
 20 44  1  0  0  0
 21 45  1  0  0  0
 24 46  1  0  0  0
 24 47  1  0  0  0
 24 48  1  0  0  0
M  END
$$$$
