4lh7_ligand
  -I-interpret- 

 24 25  0  0  0  0  0  0  0  0999 V2000
   21.4260   34.6200   19.9740 C   0  0  0  0  0
   20.7700   34.5320   18.7380 C   0  0  0  0  0
   20.0890   33.3150   18.5770 C   0  0  0  0  0
   19.3680   33.0530   17.3820 C   0  0  0  0  0
   19.3350   34.0390   16.4030 C   0  0  0  0  0
   19.9850   35.1760   16.5670 N   0  0  0  0  0
   20.6880   35.4620   17.6550 C   0  0  0  0  0
   21.3340   36.6710   17.7170 N   0  0  0  0  0
   18.6210   31.7790   17.2380 C   0  0  0  0  0
   18.9190   30.8240   17.9320 O   0  0  0  0  0
   17.5770   31.6500   16.3890 N   0  0  0  0  0
   20.3150   32.3070   19.9970 S   0  0  0  0  0
   21.2700   33.5490   20.7730 C   0  0  0  0  0
   21.7920   33.3540   22.1260 C   0  0  0  0  0
   21.4270   32.3560   22.7460 O   0  0  0  0  0
   22.5810   34.2780   22.7090 N   0  0  0  0  0
   22.0165   35.4887   20.2649 H   0  0  0  0  0
   18.7655   33.8713   15.4888 H   0  0  0  0  0
   21.8809   36.9153   18.5426 H   0  0  0  0  0
   21.2674   37.3254   16.9375 H   0  0  0  0  0
   17.0630   30.7702   16.3427 H   0  0  0  0  0
   17.3033   32.4325   15.7947 H   0  0  0  0  0
   22.8827   34.1544   23.6755 H   0  0  0  0  0
   22.8765   35.1009   22.1838 H   0  0  0  0  0
  1  2  4  0  0  0
  1 13  4  0  0  0
  2  3  4  0  0  0
  2  7  4  0  0  0
  3  4  4  0  0  0
  3 12  4  0  0  0
  4  5  4  0  0  0
  4  9  1  0  0  0
  5  6  4  0  0  0
  6  7  4  0  0  0
  7  8  1  0  0  0
  9 10  2  0  0  0
  9 11  1  0  0  0
 12 13  4  0  0  0
 13 14  1  0  0  0
 14 15  2  0  0  0
 14 16  1  0  0  0
  1 17  1  0  0  0
  5 18  1  0  0  0
  8 19  1  0  0  0
  8 20  1  0  0  0
 11 21  1  0  0  0
 11 22  1  0  0  0
 16 23  1  0  0  0
 16 24  1  0  0  0
M  END
$$$$
