1juq_ligand
  -I-interpret- 

 83 83  0  0  0  0  0  0  0  0999 V2000
   39.3150   15.9840   58.2230 N   0  3  0  0  0
   39.3480   15.1040   57.0560 C   0  0  0  0  0
   40.6320   14.2830   57.0740 C   0  0  0  0  0
   41.6230   14.6830   57.6910 O   0  0  0  0  0
   39.2940   15.9270   55.7610 C   0  0  0  0  0
   39.0290   15.0730   54.5310 C   0  0  0  0  0
   38.5680   13.9220   54.6850 O   0  0  0  0  0
   39.2690   15.5590   53.4060 O   0  0  0  0  0
   40.6110   13.1400   56.3930 N   0  0  0  0  0
   41.7770   12.2670   56.3300 C   0  0  0  0  0
   42.4170   12.2480   54.9450 C   0  0  0  0  0
   42.2310   13.1710   54.1480 O   0  0  0  0  0
   41.3950   10.8420   56.7360 C   0  0  0  0  0
   40.1120   10.3770   56.0830 C   0  0  0  0  0
   39.0260   10.7960   56.5430 O   0  0  0  0  0
   40.1940    9.6020   55.1060 O   0  0  0  0  0
   43.1730   11.1880   54.6710 N   0  0  0  0  0
   43.8620   11.0330   53.3950 C   0  0  0  0  0
   43.1120   10.0990   52.4540 C   0  0  0  0  0
   42.1940    9.3880   52.8640 O   0  0  0  0  0
   45.2720   10.4840   53.6270 C   0  0  0  0  0
   46.1090   11.3290   54.5360 C   0  0  0  0  0
   46.4120   12.6460   54.2610 N   0  0  0  0  0
   46.7080   11.0440   55.7170 C   0  0  0  0  0
   47.1610   13.1360   55.2330 C   0  0  0  0  0
   47.3550   12.1850   56.1290 N   0  0  0  0  0
   43.5190   10.1060   51.1870 N   0  0  0  0  0
   42.9060    9.2580   50.1690 C   0  0  0  0  0
   43.3330    7.8060   50.3890 C   0  0  0  0  0
   44.4690    7.5450   50.7950 O   0  0  0  0  0
   43.3370    9.7320   48.7770 C   0  0  0  0  0
   42.7930    8.9710   47.5670 C   0  0  0  0  0
   41.2740    8.9740   47.5950 C   0  0  0  0  0
   43.3160    9.6120   46.2860 C   0  0  0  0  0
   42.4220    6.8690   50.1220 N   0  0  0  0  0
   42.6920    5.4400   50.2970 C   0  0  0  0  0
   44.0800    5.0100   49.8440 C   0  0  0  0  0
   44.7690    5.8230   49.1950 O   0  0  0  0  0
   41.6560    4.6030   49.5430 C   0  0  0  0  0
   40.2970    4.3970   50.2050 C   0  0  0  0  0
   39.4170    3.5500   49.2920 C   0  0  0  0  0
   40.4870    3.7130   51.5560 C   0  0  0  0  0
   39.3516   15.4212   59.0729 H   0  0  0  0  0
   40.1173   16.6132   58.1957 H   0  0  0  0  0
   38.4531   16.5294   58.2118 H   0  0  0  0  0
   38.4822   14.4428   57.0929 H   0  0  0  0  0
   40.2632   16.4085   55.6307 H   0  0  0  0  0
   38.4764   16.6419   55.8536 H   0  0  0  0  0
   38.4581   13.7453   55.6222 H   0  0  0  0  0
   39.7586   12.8680   55.9032 H   0  0  0  0  0
   42.5111   12.6690   57.0282 H   0  0  0  0  0
   41.2465   10.8286   57.8158 H   0  0  0  0  0
   42.1958   10.1753   56.4159 H   0  0  0  0  0
   39.1980   11.3755   57.2888 H   0  0  0  0  0
   43.2741   10.4591   55.3773 H   0  0  0  0  0
   43.9117   12.0176   52.9300 H   0  0  0  0  0
   45.7722   10.4549   52.6590 H   0  0  0  0  0
   45.1663    9.5069   54.0983 H   0  0  0  0  0
   46.6820   10.0892   56.2422 H   0  0  0  0  0
   47.5522   14.1520   55.2864 H   0  0  0  0  0
   44.2845   10.7242   50.9183 H   0  0  0  0  0
   41.8205    9.3235   50.2434 H   0  0  0  0  0
   44.4181    9.5970   48.7446 H   0  0  0  0  0
   42.9502   10.7466   48.6816 H   0  0  0  0  0
   43.1320    7.9356   47.6013 H   0  0  0  0  0
   40.9278    8.4919   48.5092 H   0  0  0  0  0
   40.9134   10.0022   47.5659 H   0  0  0  0  0
   40.8949    8.4300   46.7299 H   0  0  0  0  0
   42.9876   10.6504   46.2405 H   0  0  0  0  0
   44.4053    9.5735   46.2805 H   0  0  0  0  0
   42.9276    9.0687   45.4246 H   0  0  0  0  0
   41.5042    7.1580   49.7837 H   0  0  0  0  0
   42.6321    5.2673   51.3716 H   0  0  0  0  0
   44.4624    4.0171   50.0805 H   0  0  0  0  0
   42.0921    3.6080   49.4543 H   0  0  0  0  0
   41.4530    5.1491   48.6218 H   0  0  0  0  0
   39.8116    5.3592   50.3683 H   0  0  0  0  0
   39.2861    4.0619   48.3386 H   0  0  0  0  0
   39.8931    2.5838   49.1247 H   0  0  0  0  0
   38.4450    3.4010   49.7623 H   0  0  0  0  0
   40.9697    2.7470   51.4080 H   0  0  0  0  0
   41.1113    4.3386   52.1939 H   0  0  0  0  0
   39.5152    3.5666   52.0275 H   0  0  0  0  0
  1  2  1  0  0  0
  2  3  1  0  0  0
  2  5  1  0  0  0
  3  4  2  0  0  0
  3  9  1  0  0  0
  5  6  1  0  0  0
  6  7  1  0  0  0
  6  8  2  0  0  0
  9 10  1  0  0  0
 10 11  1  0  0  0
 10 13  1  0  0  0
 11 12  2  0  0  0
 11 17  1  0  0  0
 13 14  1  0  0  0
 14 15  1  0  0  0
 14 16  2  0  0  0
 17 18  1  0  0  0
 18 19  1  0  0  0
 18 21  1  0  0  0
 19 20  2  0  0  0
 19 27  1  0  0  0
 21 22  1  0  0  0
 22 23  4  0  0  0
 22 24  4  0  0  0
 23 25  4  0  0  0
 24 26  4  0  0  0
 25 26  4  0  0  0
 27 28  1  0  0  0
 28 29  1  0  0  0
 28 31  1  0  0  0
 29 30  2  0  0  0
 29 35  1  0  0  0
 31 32  1  0  0  0
 32 33  1  0  0  0
 32 34  1  0  0  0
 35 36  1  0  0  0
 36 37  1  0  0  0
 36 39  1  0  0  0
 37 38  2  0  0  0
 39 40  1  0  0  0
 40 41  1  0  0  0
 40 42  1  0  0  0
  1 43  1  0  0  0
  1 44  1  0  0  0
  1 45  1  0  0  0
  2 46  1  0  0  0
  5 47  1  0  0  0
  5 48  1  0  0  0
  7 49  1  0  0  0
  9 50  1  0  0  0
 10 51  1  0  0  0
 13 52  1  0  0  0
 13 53  1  0  0  0
 15 54  1  0  0  0
 17 55  1  0  0  0
 18 56  1  0  0  0
 21 57  1  0  0  0
 21 58  1  0  0  0
 24 59  1  0  0  0
 25 60  1  0  0  0
 27 61  1  0  0  0
 28 62  1  0  0  0
 31 63  1  0  0  0
 31 64  1  0  0  0
 32 65  1  0  0  0
 33 66  1  0  0  0
 33 67  1  0  0  0
 33 68  1  0  0  0
 34 69  1  0  0  0
 34 70  1  0  0  0
 34 71  1  0  0  0
 35 72  1  0  0  0
 36 73  1  0  0  0
 37 74  1  0  0  0
 39 75  1  0  0  0
 39 76  1  0  0  0
 40 77  1  0  0  0
 41 78  1  0  0  0
 41 79  1  0  0  0
 41 80  1  0  0  0
 42 81  1  0  0  0
 42 82  1  0  0  0
 42 83  1  0  0  0
M  END
$$$$
