2p2a_ligand
  -I-interpret- 

 39 41  0  0  0  0  0  0  0  0999 V2000
    6.2430   24.4950   21.1910 C   0  0  0  0  0
    6.7110   24.7570   22.4500 C   0  0  0  0  0
    5.9630   24.1250   23.3920 O   0  0  0  0  0
    4.9180   23.4280   22.7300 N   0  0  0  0  0
    5.1460   23.6150   21.4410 C   0  0  0  0  0
    7.8360   25.5560   22.9010 C   0  0  0  0  0
    8.1300   25.8590   24.1860 N   0  0  0  0  0
    9.2230   26.5970   24.1300 N   0  0  0  0  0
    9.5500   26.7160   22.8530 N   0  0  0  0  0
    8.7220   26.0880   22.0520 N   0  0  0  0  0
   10.7240   27.4720   22.3690 C   0  0  0  0  0
   12.8200   29.6790   25.5030 C   0  0  0  0  0
   11.8710   30.3410   24.6690 C   0  0  0  0  0
   11.1880   29.6200   23.6480 C   0  0  0  0  0
   11.4470   28.2360   23.4550 C   0  0  0  0  0
   12.3950   27.5720   24.2900 C   0  0  0  0  0
   13.0830   28.2930   25.3120 C   0  0  0  0  0
    4.4410   23.0420   20.4570 O   0  0  0  0  0
    6.7410   24.9690   19.8580 C   0  0  0  0  0
    7.6010   23.9450   19.0990 C   0  0  0  0  0
    7.2410   23.8810   17.5740 C   0  0  0  0  0
    8.1980   24.0330   16.7720 O   0  0  0  0  0
    6.0330   23.6970   17.3110 O   0  0  0  0  0
    9.0810   24.2760   19.2250 N   0  3  0  0  0
    4.1573   22.8985   23.1559 H   0  0  0  0  0
   10.3646   28.2009   21.6426 H   0  0  0  0  0
   11.4280   26.7499   21.9555 H   0  0  0  0  0
   13.3420   30.2323   26.2837 H   0  0  0  0  0
   11.6678   31.4021   24.8135 H   0  0  0  0  0
   10.4646   30.1312   23.0128 H   0  0  0  0  0
   12.5945   26.5100   24.1468 H   0  0  0  0  0
   13.8088   27.7830   25.9454 H   0  0  0  0  0
    7.3701   25.8396   20.0432 H   0  0  0  0  0
    5.8642   25.1687   19.2421 H   0  0  0  0  0
    7.3900   22.9772   19.5538 H   0  0  0  0  0
    9.0119   24.1550   17.2662 H   0  0  0  0  0
    9.6278   23.5831   18.7138 H   0  0  0  0  0
    9.2552   25.2027   18.8361 H   0  0  0  0  0
    9.3484   24.2632   20.2092 H   0  0  0  0  0
  2  1  2  0  0  0
  1  5  1  0  0  0
  1 19  1  0  0  0
  2  3  1  0  0  0
  6  2  1  0  0  0
  3  4  1  0  0  0
  4  5  1  0  0  0
  5 18  2  0  0  0
  6  7  4  0  0  0
 10  6  4  0  0  0
  8  7  4  0  0  0
  9  8  4  0  0  0
  9 10  4  0  0  0
 11  9  1  0  0  0
 15 11  1  0  0  0
 13 12  4  0  0  0
 12 17  4  0  0  0
 14 13  4  0  0  0
 14 15  4  0  0  0
 15 16  4  0  0  0
 16 17  4  0  0  0
 19 20  1  0  0  0
 20 21  1  0  0  0
 20 24  1  0  0  0
 21 22  1  0  0  0
 21 23  2  0  0  0
  4 25  1  0  0  0
 11 26  1  0  0  0
 11 27  1  0  0  0
 12 28  1  0  0  0
 13 29  1  0  0  0
 14 30  1  0  0  0
 16 31  1  0  0  0
 17 32  1  0  0  0
 19 33  1  0  0  0
 19 34  1  0  0  0
 20 35  1  0  0  0
 22 36  1  0  0  0
 24 37  1  0  0  0
 24 38  1  0  0  0
 24 39  1  0  0  0
M  END
$$$$
