1oy7_ligand
  -I-interpret- 

 62 61  0  0  0  0  0  0  0  0999 V2000
   22.4370   48.7420   -7.8020 N   0  3  0  0  0
   22.8640   48.4000   -6.4240 C   0  0  0  0  0
   22.2130   47.0990   -5.9830 C   0  0  0  0  0
   21.1540   46.7250   -6.4890 O   0  0  0  0  0
   22.5220   49.5310   -5.4610 C   0  0  0  0  0
   22.8600   46.4010   -5.0570 N   0  0  0  0  0
   22.3240   45.1550   -4.5120 C   0  0  0  0  0
   22.3740   45.1810   -3.0010 C   0  0  0  0  0
   23.2350   45.8280   -2.4080 O   0  0  0  0  0
   23.0750   43.9260   -5.0440 C   0  0  0  0  0
   24.5400   44.1580   -5.3730 C   0  0  0  0  0
   25.4520   43.0520   -4.8600 C   0  0  0  0  0
   25.5070   42.8320   -3.6210 O   0  0  0  0  0
   26.1210   42.4080   -5.7050 O   0  0  0  0  0
   21.4340   44.4790   -2.3840 N   0  0  0  0  0
   21.3520   44.3870   -0.9350 C   0  0  0  0  0
   22.5870   43.6920   -0.3850 C   0  0  0  0  0
   23.1140   42.7760   -1.0080 O   0  0  0  0  0
   20.0920   43.6230   -0.5230 C   0  0  0  0  0
   20.2400   43.0280    0.8610 C   0  0  0  0  0
   18.9000   44.5460   -0.5770 C   0  0  0  0  0
   23.0690   44.1510    0.7640 N   0  0  0  0  0
   24.1310   43.4350    1.4590 C   0  0  0  0  0
   23.4990   42.4760    2.4670 C   0  0  0  0  0
   22.9010   42.9250    3.4550 O   0  0  0  0  0
   25.2050   44.3760    2.1060 C   0  0  0  0  0
   24.5800   45.4350    3.0180 C   0  0  0  0  0
   26.2700   43.5570    2.8470 C   0  0  0  0  0
   23.5858   41.2310    2.2938 O   0  0  0  0  0
   22.6740   47.9744   -8.4305 H   0  0  0  0  0
   21.4287   48.8955   -7.8160 H   0  0  0  0  0
   22.9156   49.5906   -8.1042 H   0  0  0  0  0
   23.9457   48.2657   -6.4153 H   0  0  0  0  0
   21.4412   49.6698   -5.4348 H   0  0  0  0  0
   22.8815   49.2783   -4.4635 H   0  0  0  0  0
   22.9996   50.4508   -5.7986 H   0  0  0  0  0
   23.7578   46.7445   -4.7158 H   0  0  0  0  0
   21.2872   45.0744   -4.8386 H   0  0  0  0  0
   22.5862   43.6384   -5.9748 H   0  0  0  0  0
   23.0459   43.1747   -4.2548 H   0  0  0  0  0
   24.8438   45.0871   -4.8908 H   0  0  0  0  0
   24.6343   44.1871   -6.4585 H   0  0  0  0  0
   24.9176   43.4360   -3.1634 H   0  0  0  0  0
   20.7419   43.9846   -2.9469 H   0  0  0  0  0
   21.3009   45.3948   -0.5229 H   0  0  0  0  0
   19.9417   42.7998   -1.2214 H   0  0  0  0  0
   21.0840   42.3383    0.8702 H   0  0  0  0  0
   20.4141   43.8269    1.5818 H   0  0  0  0  0
   19.3281   42.4919    1.1240 H   0  0  0  0  0
   19.0574   45.3810    0.1057 H   0  0  0  0  0
   18.7798   44.9231   -1.5926 H   0  0  0  0  0
   18.0045   43.9985   -0.2830 H   0  0  0  0  0
   22.6931   45.0111    1.1631 H   0  0  0  0  0
   24.6957   42.8619    0.7236 H   0  0  0  0  0
   25.6920   44.9156    1.2937 H   0  0  0  0  0
   23.8952   46.0537    2.4380 H   0  0  0  0  0
   24.0341   44.9430    3.8230 H   0  0  0  0  0
   25.3673   46.0596    3.4400 H   0  0  0  0  0
   25.7941   42.9720    3.6340 H   0  0  0  0  0
   26.7658   42.8875    2.1441 H   0  0  0  0  0
   27.0041   44.2318    3.2874 H   0  0  0  0  0
   24.0766   41.0546    1.4878 H   0  0  0  0  0
  1  2  1  0  0  0
  2  3  1  0  0  0
  2  5  1  0  0  0
  3  4  2  0  0  0
  3  6  1  0  0  0
  6  7  1  0  0  0
  7  8  1  0  0  0
  7 10  1  0  0  0
  8  9  2  0  0  0
  8 15  1  0  0  0
 10 11  1  0  0  0
 11 12  1  0  0  0
 12 13  1  0  0  0
 12 14  2  0  0  0
 15 16  1  0  0  0
 16 17  1  0  0  0
 16 19  1  0  0  0
 17 18  2  0  0  0
 17 22  1  0  0  0
 19 20  1  0  0  0
 19 21  1  0  0  0
 22 23  1  0  0  0
 23 24  1  0  0  0
 23 26  1  0  0  0
 24 25  2  0  0  0
 26 27  1  0  0  0
 26 28  1  0  0  0
 24 29  1  0  0  0
  1 30  1  0  0  0
  1 31  1  0  0  0
  1 32  1  0  0  0
  2 33  1  0  0  0
  5 34  1  0  0  0
  5 35  1  0  0  0
  5 36  1  0  0  0
  6 37  1  0  0  0
  7 38  1  0  0  0
 10 39  1  0  0  0
 10 40  1  0  0  0
 11 41  1  0  0  0
 11 42  1  0  0  0
 13 43  1  0  0  0
 15 44  1  0  0  0
 16 45  1  0  0  0
 19 46  1  0  0  0
 20 47  1  0  0  0
 20 48  1  0  0  0
 20 49  1  0  0  0
 21 50  1  0  0  0
 21 51  1  0  0  0
 21 52  1  0  0  0
 22 53  1  0  0  0
 23 54  1  0  0  0
 26 55  1  0  0  0
 27 56  1  0  0  0
 27 57  1  0  0  0
 27 58  1  0  0  0
 28 59  1  0  0  0
 28 60  1  0  0  0
 28 61  1  0  0  0
 29 62  1  0  0  0
M  END
$$$$
