3oxi_ligand
  -I-interpret- 

 29 30  0  0  0  0  0  0  0  0999 V2000
    1.8160   -1.6330  -29.3460 S   0  0  0  0  0
    1.0620   -2.8060  -31.5600 C   0  0  0  0  0
   -0.9070   -1.3110  -32.0950 N   0  0  0  0  0
   -1.3960    0.5210  -30.0000 O   0  0  0  0  0
    0.1590   -1.7480  -31.3770 C   0  0  0  0  0
    0.2060    1.0350  -28.5700 O   0  0  0  0  0
   -2.6190    1.2370  -34.2240 S   0  0  0  0  0
    0.4330   -0.9710  -30.1370 C   0  0  0  0  0
   -0.6620   -2.9490  -33.6310 O   0  0  0  0  0
    2.0100   -2.8640  -30.5450 C   0  0  0  0  0
   -0.3010    0.2010  -29.5950 C   0  0  0  0  0
   -0.5830    2.2240  -28.3940 C   0  0  0  0  0
   -1.2560   -1.9560  -33.2110 C   0  0  0  0  0
   -2.4540   -1.4610  -33.9770 C   0  0  0  0  0
   -3.0560   -0.2110  -33.4020 C   0  0  0  0  0
   -3.9130    0.0820  -32.3230 C   0  0  0  0  0
   -4.1860    1.4540  -32.1980 C   0  0  0  0  0
   -3.5620    2.2280  -33.1660 C   0  0  0  0  0
    1.0246   -3.5006  -32.3992 H   0  0  0  0  0
   -1.4370   -0.4967  -31.7846 H   0  0  0  0  0
    2.8002   -3.6138  -30.5083 H   0  0  0  0  0
   -0.5895    2.7950  -29.3225 H   0  0  0  0  0
   -1.6033    1.9457  -28.1300 H   0  0  0  0  0
   -0.1523    2.8296  -27.5966 H   0  0  0  0  0
   -3.2148   -2.2405  -33.9361 H   0  0  0  0  0
   -2.1236   -1.2303  -34.9898 H   0  0  0  0  0
   -4.3214   -0.6765  -31.6552 H   0  0  0  0  0
   -4.8244    1.8694  -31.4183 H   0  0  0  0  0
   -3.6536    3.3110  -33.2482 H   0  0  0  0  0
  8  1  4  0  0  0
  1 10  4  0  0  0
  5  2  4  0  0  0
  2 10  4  0  0  0
  3  5  1  0  0  0
 13  3  1  0  0  0
 11  4  2  0  0  0
  5  8  4  0  0  0
 11  6  1  0  0  0
  6 12  1  0  0  0
 15  7  4  0  0  0
  7 18  4  0  0  0
  8 11  1  0  0  0
 13  9  2  0  0  0
 14 13  1  0  0  0
 14 15  1  0  0  0
 15 16  4  0  0  0
 16 17  4  0  0  0
 17 18  4  0  0  0
  2 19  1  0  0  0
  3 20  1  0  0  0
 10 21  1  0  0  0
 12 22  1  0  0  0
 12 23  1  0  0  0
 12 24  1  0  0  0
 14 25  1  0  0  0
 14 26  1  0  0  0
 16 27  1  0  0  0
 17 28  1  0  0  0
 18 29  1  0  0  0
M  END
$$$$
