2ea2_ligand
  -I-interpret- 

 39 40  0  0  0  0  0  0  0  0999 V2000
   19.9380   34.1400   16.4480 C   0  0  0  0  0
   19.0920   33.5110   15.3240 C   0  0  0  0  0
   18.1750   32.4030   15.8190 C   0  0  0  0  0
   16.7760   32.6880   16.0440 C   0  0  0  0  0
   15.8790   31.6690   16.5100 C   0  0  0  0  0
   16.3490   30.3280   16.7710 C   0  0  0  0  0
   17.7540   30.0170   16.5550 C   0  0  0  0  0
   18.6610   31.0510   16.0750 C   0  0  0  0  0
   20.1560   30.7190   15.8360 C   0  0  0  0  0
   18.2950   28.6650   16.8110 C   0  0  0  0  0
   17.8230   27.6520   16.0710 O   0  0  0  0  0
   19.0990   28.4970   17.6750 O   0  0  0  0  0
   15.4730   29.3430   17.2220 N   0  0  0  0  0
   14.8530   29.1810   18.7260 S   0  0  0  0  0
   13.9540   28.0640   18.6920 O   0  0  0  0  0
   14.2850   30.4760   19.0650 O   0  0  0  0  0
   16.1930   28.8130   19.8010 C   0  0  0  0  0
   16.6840   27.4840   19.8840 C   0  0  0  0  0
   17.7690   27.1900   20.7450 C   0  0  0  0  0
   18.3340   28.2370   21.5030 C   0  0  0  0  0
   17.8560   29.5530   21.4310 C   0  0  0  0  0
   16.7760   29.8410   20.5710 C   0  0  0  0  0
   19.3510   27.9740   22.3150 F   0  0  0  0  0
   19.2774   34.5683   17.2019 H   0  0  0  0  0
   20.5624   33.3719   16.9043 H   0  0  0  0  0
   20.5704   34.9232   16.0301 H   0  0  0  0  0
   19.7773   33.0748   14.5972 H   0  0  0  0  0
   18.4655   34.2963   14.9010 H   0  0  0  0  0
   16.3962   33.6924   15.8569 H   0  0  0  0  0
   14.8281   31.9104   16.6693 H   0  0  0  0  0
   20.4046   30.9007   14.7904 H   0  0  0  0  0
   20.7738   31.3520   16.4730 H   0  0  0  0  0
   20.3373   29.6716   16.0772 H   0  0  0  0  0
   17.1898   27.9906   15.4338 H   0  0  0  0  0
   15.1862   28.6442   16.5366 H   0  0  0  0  0
   16.2281   26.6935   19.2879 H   0  0  0  0  0
   18.1597   26.1753   20.8206 H   0  0  0  0  0
   18.3119   30.3411   22.0303 H   0  0  0  0  0
   16.3916   30.8586   20.5013 H   0  0  0  0  0
  1  2  1  0  0  0
  2  3  1  0  0  0
  3  4  4  0  0  0
  3  8  4  0  0  0
  4  5  4  0  0  0
  5  6  4  0  0  0
  6  7  4  0  0  0
  6 13  1  0  0  0
  7  8  4  0  0  0
  7 10  1  0  0  0
  8  9  1  0  0  0
 10 11  1  0  0  0
 10 12  2  0  0  0
 13 14  1  0  0  0
 14 15  2  0  0  0
 14 16  2  0  0  0
 14 17  1  0  0  0
 17 18  4  0  0  0
 17 22  4  0  0  0
 18 19  4  0  0  0
 19 20  4  0  0  0
 20 21  4  0  0  0
 20 23  1  0  0  0
 21 22  4  0  0  0
  1 24  1  0  0  0
  1 25  1  0  0  0
  1 26  1  0  0  0
  2 27  1  0  0  0
  2 28  1  0  0  0
  4 29  1  0  0  0
  5 30  1  0  0  0
  9 31  1  0  0  0
  9 32  1  0  0  0
  9 33  1  0  0  0
 11 34  1  0  0  0
 13 35  1  0  0  0
 18 36  1  0  0  0
 19 37  1  0  0  0
 21 38  1  0  0  0
 22 39  1  0  0  0
M  END
$$$$
