2z4w_ligand
  -I-interpret- 

 67 66  0  0  0  0  0  0  0  0999 V2000
   28.1610   43.3360   14.3430 C   0  0  0  0  0
   26.7440   45.1400   15.6610 C   0  0  0  0  0
   36.5800   51.4700    8.6480 C   0  0  0  0  0
   34.4610   51.9500   10.1700 C   0  0  0  0  0
   30.6900   46.5570   10.1500 C   0  0  0  0  0
   30.1640   49.3820    8.4030 C   0  0  0  0  0
   26.5990   44.5690    6.6150 O   0  0  0  0  0
   31.3670   45.0940    5.3020 O   0  0  0  0  0
   26.4260   47.1580    6.5230 O   0  0  0  0  0
   27.0110   45.8300    4.4230 O   0  0  0  0  0
   29.3610   43.5150    5.2160 O   0  0  0  0  0
   29.4680   45.5580    3.6240 O   0  0  0  0  0
   27.7710   45.6650   13.4130 C   0  0  0  0  0
   34.3200   50.4530    8.1370 C   0  0  0  0  0
   28.6640   45.8140    8.8200 C   0  0  0  0  0
   30.5960   47.8280    6.4430 C   0  0  0  0  0
   28.4980   45.4630   12.2450 C   0  0  0  0  0
   32.9650   50.1690    8.2750 C   0  0  0  0  0
   29.4260   45.4930    7.7030 C   0  0  0  0  0
   29.2580   47.5220    6.2200 C   0  0  0  0  0
   28.2890   46.5800   11.2190 C   0  0  0  0  0
   32.6150   48.8840    7.5200 C   0  0  0  0  0
   27.5650   44.7420   14.4320 C   0  0  0  0  0
   35.0940   51.2670    8.9560 C   0  0  0  0  0
   29.1890   46.2910   10.0170 C   0  0  0  0  0
   31.1030   48.6690    7.4280 C   0  0  0  0  0
   28.9740   46.0220    6.3390 C   0  0  0  0  0
   27.1480   45.8100    6.0260 P   0  0  0  0  0
   29.9080   45.0190    5.0760 P   0  0  0  0  0
   27.7720   42.8333   13.4575 H   0  0  0  0  0
   29.2466   43.4066   14.2749 H   0  0  0  0  0
   27.8876   42.7698   15.2334 H   0  0  0  0  0
   27.2220   45.9843   16.1578 H   0  0  0  0  0
   25.7385   45.4222   15.3488 H   0  0  0  0  0
   26.6889   44.2959   16.3485 H   0  0  0  0  0
   37.0900   50.5070    8.6742 H   0  0  0  0  0
   36.6873   51.9126    7.6577 H   0  0  0  0  0
   37.0168   52.1343    9.3936 H   0  0  0  0  0
   33.6517   52.6005    9.8384 H   0  0  0  0  0
   34.0658   51.1922   10.8466 H   0  0  0  0  0
   35.2162   52.5422   10.6869 H   0  0  0  0  0
   31.2386   45.6316    9.9745 H   0  0  0  0  0
   30.9917   47.3045    9.4162 H   0  0  0  0  0
   30.9052   46.9237   11.1536 H   0  0  0  0  0
   29.4801   50.0214    7.8449 H   0  0  0  0  0
   29.5945   48.6413    8.9643 H   0  0  0  0  0
   30.7508   49.9895    9.0920 H   0  0  0  0  0
   26.8366   47.9148    6.0984 H   0  0  0  0  0
   27.3777   46.6490    4.0818 H   0  0  0  0  0
   28.4133   43.5049    5.0633 H   0  0  0  0  0
   28.5151   45.4862    3.5325 H   0  0  0  0  0
   27.3163   46.6471   13.5429 H   0  0  0  0  0
   34.8305   49.9862    7.2946 H   0  0  0  0  0
   27.5839   45.6835    8.7540 H   0  0  0  0  0
   31.3220   47.3608    5.7776 H   0  0  0  0  0
   29.1463   44.6028   12.0780 H   0  0  0  0  0
   32.2552   50.7740    8.8391 H   0  0  0  0  0
   29.3718   44.4074    7.6216 H   0  0  0  0  0
   30.3996   45.9503    7.8793 H   0  0  0  0  0
   29.0054   47.8335    5.2065 H   0  0  0  0  0
   28.6639   48.0384    6.9740 H   0  0  0  0  0
   28.5428   47.5457   11.6563 H   0  0  0  0  0
   27.2449   46.6156   10.9081 H   0  0  0  0  0
   33.0473   48.0419    8.0605 H   0  0  0  0  0
   33.0107   48.9643    6.5075 H   0  0  0  0  0
   27.4437   44.3326   13.4291 H   0  0  0  0  0
   35.0883   52.2512    8.4876 H   0  0  0  0  0
 23  1  1  0  0  0
 23  2  1  0  0  0
 24  3  1  0  0  0
 24  4  1  0  0  0
 25  5  1  0  0  0
 26  6  1  0  0  0
 28  7  2  0  0  0
 29  8  2  0  0  0
 28  9  1  0  0  0
 28 10  1  0  0  0
 29 11  1  0  0  0
 29 12  1  0  0  0
 17 13  2  0  0  0
 13 23  1  0  0  0
 18 14  2  0  0  0
 14 24  1  0  0  0
 19 15  1  0  0  0
 15 25  2  0  0  0
 20 16  1  0  0  0
 16 26  2  0  0  0
 21 17  1  0  0  0
 22 18  1  0  0  0
 27 19  1  0  0  0
 27 20  1  0  0  0
 25 21  1  0  0  0
 26 22  1  0  0  0
 27 28  1  0  0  0
 27 29  1  0  0  0
  1 30  1  0  0  0
  1 31  1  0  0  0
  1 32  1  0  0  0
  2 33  1  0  0  0
  2 34  1  0  0  0
  2 35  1  0  0  0
  3 36  1  0  0  0
  3 37  1  0  0  0
  3 38  1  0  0  0
  4 39  1  0  0  0
  4 40  1  0  0  0
  4 41  1  0  0  0
  5 42  1  0  0  0
  5 43  1  0  0  0
  5 44  1  0  0  0
  6 45  1  0  0  0
  6 46  1  0  0  0
  6 47  1  0  0  0
  9 48  1  0  0  0
 10 49  1  0  0  0
 11 50  1  0  0  0
 12 51  1  0  0  0
 13 52  1  0  0  0
 14 53  1  0  0  0
 15 54  1  0  0  0
 16 55  1  0  0  0
 17 56  1  0  0  0
 18 57  1  0  0  0
 19 58  1  0  0  0
 19 59  1  0  0  0
 20 60  1  0  0  0
 20 61  1  0  0  0
 21 62  1  0  0  0
 21 63  1  0  0  0
 22 64  1  0  0  0
 22 65  1  0  0  0
 23 66  1  0  0  0
 24 67  1  0  0  0
M  END
$$$$
