### 
### Created by X-TOOL on Mon Sep 10 21:12:58 2018
### 

@<TRIPOS>MOLECULE
2z4w_ligand
   63    62     1     0     0
SMALL
GAST_HUCK


@<TRIPOS>ATOM
      1 CAA        28.1610   43.3360   14.3430 C.3       1 749        -0.0558
      2 CAB        26.7440   45.1400   15.6610 C.3       1 749        -0.0558
      3 CAC        36.5800   51.4700    8.6480 C.3       1 749        -0.0558
      4 CAD        34.4610   51.9500   10.1700 C.3       1 749        -0.0558
      5 CAE        30.6900   46.5570   10.1500 C.3       1 749        -0.0391
      6 CAF        30.1640   49.3820    8.4030 C.3       1 749        -0.0391
      7 OAG        26.5990   44.5690    6.6150 O.co2     1 749        -0.5608
      8 OAH        31.3670   45.0940    5.3020 O.co2     1 749        -0.5608
      9 OAI        26.4260   47.1580    6.5230 O.co2     1 749        -0.5608
     10 OAJ        27.0110   45.8300    4.4230 O.co2     1 749        -0.5608
     11 OAK        29.3610   43.5150    5.2160 O.co2     1 749        -0.5608
     12 OAL        29.4680   45.5580    3.6240 O.co2     1 749        -0.5608
     13 CAM        27.7710   45.6650   13.4130 C.2       1 749        -0.0940
     14 CAN        34.3200   50.4530    8.1370 C.2       1 749        -0.0940
     15 CAO        28.6640   45.8140    8.8200 C.2       1 749        -0.1035
     16 CAP        30.5960   47.8280    6.4430 C.2       1 749        -0.1035
     17 CAQ        28.4980   45.4630   12.2450 C.2       1 749        -0.0889
     18 CAR        32.9650   50.1690    8.2750 C.2       1 749        -0.0889
     19 CAS        29.4260   45.4930    7.7030 C.3       1 749        -0.0094
     20 CAT        29.2580   47.5220    6.2200 C.3       1 749        -0.0094
     21 CAU        28.2890   46.5800   11.2190 C.3       1 749        -0.0126
     22 CAV        32.6150   48.8840    7.5200 C.3       1 749        -0.0126
     23 CAW        27.5650   44.7420   14.4320 C.3       1 749        -0.0297
     24 CAX        35.0940   51.2670    8.9560 C.3       1 749        -0.0297
     25 CAY        29.1890   46.2910   10.0170 C.2       1 749        -0.0762
     26 CAZ        31.1030   48.6690    7.4280 C.2       1 749        -0.0762
     27 CBA        28.9740   46.0220    6.3390 C.3       1 749         0.1170
     28 PBB        27.1480   45.8100    6.0260 P.3       1 749         0.0838
     29 PBC        29.9080   45.0190    5.0760 P.3       1 749         0.0838
     30 H1         27.8857   42.7636   15.2411 H         1 749         0.0252
     31 H2         29.2566   43.4058   14.2743 H         1 749         0.0252
     32 H3         27.7692   42.8275   13.4497 H         1 749         0.0252
     33 H4         26.3990   46.1787   15.5508 H         1 749         0.0252
     34 H5         27.3685   45.0548   16.5625 H         1 749         0.0252
     35 H6         25.8744   44.4727   15.7529 H         1 749         0.0252
     36 H7         37.0220   52.1403    9.3998 H         1 749         0.0252
     37 H8         36.6897   51.9167    7.6488 H         1 749         0.0252
     38 H9         37.0959   50.4989    8.6741 H         1 749         0.0252
     39 H10        33.3945   51.6860   10.2245 H         1 749         0.0252
     40 H11        34.5641   53.0408   10.0723 H         1 749         0.0252
     41 H12        34.9691   51.6142   11.0860 H         1 749         0.0252
     42 H13        31.1929   46.3002    9.2060 H         1 749         0.0375
     43 H14        31.1009   45.9412   10.9636 H         1 749         0.0375
     44 H15        30.8553   47.6208   10.3759 H         1 749         0.0375
     45 H16        29.1235   49.1032    8.1801 H         1 749         0.0375
     46 H17        30.2827   50.4704    8.2968 H         1 749         0.0375
     47 H18        30.4106   49.0850    9.4330 H         1 749         0.0375
     48 H19        27.3167   46.6462   13.5427 H         1 749         0.0461
     49 H20        34.8300   49.9866    7.2954 H         1 749         0.0461
     50 H21        27.5848   45.6836    8.7541 H         1 749         0.0252
     51 H22        31.3213   47.3613    5.7782 H         1 749         0.0252
     52 H23        29.1457   44.6036   12.0782 H         1 749         0.0465
     53 H24        32.2558   50.7734    8.8386 H         1 749         0.0465
     54 H25        29.4552   44.3956    7.6332 H         1 749         0.0376
     55 H26        30.4416   45.8763    7.8806 H         1 749         0.0376
     56 H27        28.9837   47.8541    5.2079 H         1 749         0.0376
     57 H28        28.6452   48.0572    6.9602 H         1 749         0.0376
     58 H29        28.5585   47.5498   11.6626 H         1 749         0.0532
     59 H30        27.2364   46.6023   10.9005 H         1 749         0.0532
     60 H31        33.0642   48.0289    8.0463 H         1 749         0.0532
     61 H32        33.0277   48.9461    6.5023 H         1 749         0.0532
     62 H33        26.6523   44.3889   13.9298 H         1 749         0.0420
     63 H34        34.8435   52.1378    8.3324 H         1 749         0.0420
@<TRIPOS>BOND
     1   23    1 1  
     2   23    2 1  
     3   24    3 1  
     4   24    4 1  
     5   25    5 1  
     6   26    6 1  
     7   28    7 ar 
     8   29    8 ar 
     9   28    9 ar 
    10   28   10 ar 
    11   29   11 ar 
    12   29   12 ar 
    13   17   13 2  
    14   13   23 1  
    15   18   14 2  
    16   14   24 1  
    17   19   15 1  
    18   15   25 2  
    19   20   16 1  
    20   16   26 2  
    21   21   17 1  
    22   22   18 1  
    23   27   19 1  
    24   27   20 1  
    25   25   21 1  
    26   26   22 1  
    27   27   28 1  
    28   27   29 1  
    29    1   30 1  
    30    1   31 1  
    31    1   32 1  
    32    2   33 1  
    33    2   34 1  
    34    2   35 1  
    35    3   36 1  
    36    3   37 1  
    37    3   38 1  
    38    4   39 1  
    39    4   40 1  
    40    4   41 1  
    41    5   42 1  
    42    5   43 1  
    43    5   44 1  
    44    6   45 1  
    45    6   46 1  
    46    6   47 1  
    47   13   48 1  
    48   14   49 1  
    49   15   50 1  
    50   16   51 1  
    51   17   52 1  
    52   18   53 1  
    53   19   54 1  
    54   19   55 1  
    55   20   56 1  
    56   20   57 1  
    57   21   58 1  
    58   21   59 1  
    59   22   60 1  
    60   22   61 1  
    61   23   62 1  
    62   24   63 1  
@<TRIPOS>SUBSTRUCTURE
     1 749         1

