4uxq_ligand
  -I-interpret- 

 68 72  0  0  0  0  0  0  0  0999 V2000
    2.9280   -0.9870    6.5170 N   0  0  0  0  0
   -1.1290   -3.2240   21.9190 N   0  3  0  0  0
    1.3100   -3.7980   10.0600 C   0  0  0  0  0
    0.5840   -4.4930   11.0730 C   0  0  0  0  0
   -0.1620   -5.6410   10.8280 C   0  0  0  0  0
   -0.8450   -6.2510   11.8660 C   0  0  0  0  0
   -0.7580   -5.7500   13.1510 C   0  0  0  0  0
    0.6510   -3.9710   12.3460 C   0  0  0  0  0
   -0.9380   -3.8660   16.9090 C   0  0  0  0  0
   -1.3280   -4.2080   19.2150 C   0  0  0  0  0
   -1.1570   -1.9670   18.3820 C   0  0  0  0  0
   -1.5710   -2.3360   20.8320 C   0  0  0  0  0
    0.3010   -3.0080   22.2200 C   0  0  0  0  0
    0.6500   -4.0100   23.2870 C   0  0  0  0  0
   -2.1180   -3.1550   23.0330 C   0  0  0  0  0
    5.3440   -1.4890    6.3130 C   0  0  0  0  0
    6.3430   -2.2080    6.8350 C   0  0  0  0  0
    5.9620   -3.0930    7.9470 C   0  0  0  0  0
    4.7760   -3.2550    8.4480 N   0  0  0  0  0
    3.8590   -2.4990    7.8560 N   0  0  0  0  0
    4.0460   -1.6050    6.8380 C   0  0  0  0  0
    1.9840   -1.5000    7.3660 C   0  0  0  0  0
    2.5460   -2.4440    8.1990 C   0  0  0  0  0
    1.9040   -3.2000    9.2090 C   0  0  0  0  0
   -0.0100   -4.6100   13.3690 C   0  0  0  0  0
   -0.2300   -6.2350    9.4570 C   0  0  0  0  0
    0.0990   -3.9680   14.6820 C   0  0  0  0  0
    0.9150   -3.0650   14.7990 O   0  0  0  0  0
   -0.7730   -4.4400   15.6350 N   0  0  0  0  0
   -1.1070   -4.7320   17.9640 C   0  0  0  0  0
   -1.3510   -2.8420   19.4390 C   0  0  0  0  0
   -0.9660   -2.4990   17.1180 C   0  0  0  0  0
   -1.1670   -0.4690   18.5630 C   0  0  0  0  0
   -0.9870    0.1800   17.3880 F   0  0  0  0  0
   -2.2980    0.0510   19.1430 F   0  0  0  0  0
   -0.1470   -0.0270   19.3390 F   0  0  0  0  0
   -1.6400   -3.9270   24.2580 C   0  0  0  0  0
    0.3200   -4.3240   25.6810 C   0  0  0  0  0
   -0.1920   -3.6560   24.4640 N   0  3  0  0  0
   -1.1346   -4.2096   21.6564 H   0  0  0  0  0
   -1.4554   -7.1322   11.6686 H   0  0  0  0  0
   -1.2698   -6.2450   13.9763 H   0  0  0  0  0
    1.2210   -3.0625   12.5403 H   0  0  0  0  0
   -1.4895   -4.8859   20.0532 H   0  0  0  0  0
   -0.9808   -1.4241   20.9229 H   0  0  0  0  0
   -2.6487   -2.2220   20.9493 H   0  0  0  0  0
    0.4860   -1.9882   22.5574 H   0  0  0  0  0
    0.9184   -3.1426   21.3318 H   0  0  0  0  0
    1.7113   -3.9753   23.5328 H   0  0  0  0  0
    0.4575   -5.0295   22.9529 H   0  0  0  0  0
   -3.0533   -3.5979   22.6906 H   0  0  0  0  0
   -2.2473   -2.1098   23.3140 H   0  0  0  0  0
    5.5366   -0.8128    5.4801 H   0  0  0  0  0
    7.3657   -2.1433    6.4637 H   0  0  0  0  0
    6.7638   -3.6764    8.3995 H   0  0  0  0  0
    0.9352   -1.2036    7.3811 H   0  0  0  0  0
   -0.6516   -5.5046    8.7665 H   0  0  0  0  0
    0.7734   -6.5084    9.1307 H   0  0  0  0  0
   -0.8612   -7.1234    9.4782 H   0  0  0  0  0
   -1.3361   -5.2584   15.4035 H   0  0  0  0  0
   -1.0665   -5.8105   17.8112 H   0  0  0  0  0
   -0.8350   -1.8266   16.2701 H   0  0  0  0  0
   -1.7967   -4.9947   24.1047 H   0  0  0  0  0
   -2.2027   -3.6097   25.1360 H   0  0  0  0  0
    0.2967   -5.4043   25.5380 H   0  0  0  0  0
    1.3450   -4.0027   25.8663 H   0  0  0  0  0
   -0.3059   -4.0553   26.5320 H   0  0  0  0  0
   -0.1198   -2.6460   24.5869 H   0  0  0  0  0
  1 21  4  0  0  0
 22  1  4  0  0  0
 12  2  1  0  0  0
  2 13  1  0  0  0
  2 15  1  0  0  0
  4  3  1  0  0  0
  3 24  3  0  0  0
  4  5  4  0  0  0
  8  4  4  0  0  0
  6  5  4  0  0  0
  5 26  1  0  0  0
  7  6  4  0  0  0
 25  7  4  0  0  0
 25  8  4  0  0  0
 29  9  1  0  0  0
  9 30  4  0  0  0
  9 32  4  0  0  0
 30 10  4  0  0  0
 10 31  4  0  0  0
 11 31  4  0  0  0
 32 11  4  0  0  0
 11 33  1  0  0  0
 31 12  1  0  0  0
 13 14  1  0  0  0
 14 39  1  0  0  0
 15 37  1  0  0  0
 16 17  4  0  0  0
 21 16  4  0  0  0
 18 17  4  0  0  0
 19 18  4  0  0  0
 20 19  4  0  0  0
 20 21  4  0  0  0
 23 20  4  0  0  0
 23 22  4  0  0  0
 24 23  1  0  0  0
 27 25  1  0  0  0
 27 28  2  0  0  0
 27 29  1  0  0  0
 33 34  1  0  0  0
 33 35  1  0  0  0
 33 36  1  0  0  0
 37 39  1  0  0  0
 39 38  1  0  0  0
  2 40  1  0  0  0
  6 41  1  0  0  0
  7 42  1  0  0  0
  8 43  1  0  0  0
 10 44  1  0  0  0
 12 45  1  0  0  0
 12 46  1  0  0  0
 13 47  1  0  0  0
 13 48  1  0  0  0
 14 49  1  0  0  0
 14 50  1  0  0  0
 15 51  1  0  0  0
 15 52  1  0  0  0
 16 53  1  0  0  0
 17 54  1  0  0  0
 18 55  1  0  0  0
 22 56  1  0  0  0
 26 57  1  0  0  0
 26 58  1  0  0  0
 26 59  1  0  0  0
 29 60  1  0  0  0
 30 61  1  0  0  0
 32 62  1  0  0  0
 37 63  1  0  0  0
 37 64  1  0  0  0
 38 65  1  0  0  0
 38 66  1  0  0  0
 38 67  1  0  0  0
 39 68  1  0  0  0
M  END
$$$$
