6g4n_ligand
  -I-interpret- 

 51 54  0  0  0  0  0  0  0  0999 V2000
   -9.4970    3.5330   51.9510 C   0  0  0  0  0
  -14.1890    5.0310   50.3680 C   0  0  0  0  0
  -13.4600    8.5070   53.3810 C   0  0  0  0  0
  -14.0120    9.5070   52.4330 C   0  0  0  0  0
  -12.9170   10.0680   51.5440 C   0  0  0  0  0
  -12.1280    8.9480   50.8210 C   0  0  0  0  0
  -14.0670    5.7320   55.3290 C   0  0  0  0  0
  -14.2330    4.5920   56.3950 C   0  0  0  0  0
  -15.1900    3.4180   56.0240 C   0  0  0  0  0
  -15.8650    3.4410   54.6420 C   0  0  0  0  0
  -14.9660    3.2490   53.4710 C   0  0  0  0  0
   -9.9750    3.3790   53.2550 C   0  0  0  0  0
  -14.1120    2.1270   53.4500 C   0  0  0  0  0
  -13.2610    1.9510   52.3730 C   0  0  0  0  0
  -13.2670    2.8960   51.3500 C   0  0  0  0  0
  -14.1490    4.0160   51.4300 C   0  0  0  0  0
  -10.8170    4.2920   53.8260 C   0  0  0  0  0
  -11.2240    5.4230   53.0950 C   0  0  0  0  0
  -10.7640    5.6150   51.7840 C   0  0  0  0  0
   -9.8820    4.6360   51.2280 C   0  0  0  0  0
  -12.1080    6.3860   53.6730 C   0  0  0  0  0
  -12.5260    7.4560   52.8760 C   0  0  0  0  0
  -12.0090    7.5990   51.5390 C   0  0  0  0  0
  -11.1350    6.7130   51.0100 N   0  0  0  0  0
  -12.6490    6.0780   54.9560 N   0  0  0  0  0
  -14.9720    4.1870   52.4770 N   0  0  0  0  0
  -13.7790    5.0470   49.1380 N   0  0  0  0  0
  -13.1620    3.9660   48.6570 O   0  0  0  0  0
  -12.4540    2.7890   50.2530 O   0  0  0  0  0
   -9.4930    2.0110   54.1680 Cl  0  0  0  0  0
   -8.8295    2.7900   51.5145 H   0  0  0  0  0
  -14.6609    5.9632   50.6785 H   0  0  0  0  0
  -13.7335    8.5392   54.4356 H   0  0  0  0  0
  -15.0610    9.7988   52.3822 H   0  0  0  0  0
  -12.7105   11.1320   51.4282 H   0  0  0  0  0
  -11.6764    9.1123   49.8427 H   0  0  0  0  0
  -14.4979    6.6311   55.7696 H   0  0  0  0  0
  -14.5468    5.3743   54.4180 H   0  0  0  0  0
  -14.6672    5.0658   57.2753 H   0  0  0  0  0
  -13.2451    4.1471   56.5143 H   0  0  0  0  0
  -16.0064    3.4736   56.7441 H   0  0  0  0  0
  -14.5642    2.5255   56.0239 H   0  0  0  0  0
  -16.3018    4.4336   54.5321 H   0  0  0  0  0
  -16.5647    2.6053   54.6300 H   0  0  0  0  0
  -14.1220    1.4089   54.2700 H   0  0  0  0  0
  -12.5974    1.0876   52.3262 H   0  0  0  0  0
  -11.1724    4.1440   54.8458 H   0  0  0  0  0
   -9.5086    4.7673   50.2124 H   0  0  0  0  0
  -11.9833    6.0942   55.7286 H   0  0  0  0  0
  -12.9165    4.1198   47.7417 H   0  0  0  0  0
  -12.6077    3.5347   49.6682 H   0  0  0  0  0
 12  1  4  0  0  0
 20  1  4  0  0  0
 16  2  1  0  0  0
  2 27  2  0  0  0
  3  4  4  0  0  0
 22  3  4  0  0  0
  4  5  4  0  0  0
  5  6  4  0  0  0
  6 23  4  0  0  0
  7  8  1  0  0  0
 25  7  1  0  0  0
  8  9  1  0  0  0
  9 10  1  0  0  0
 10 11  1  0  0  0
 11 13  4  0  0  0
 11 26  4  0  0  0
 17 12  4  0  0  0
 12 30  1  0  0  0
 13 14  4  0  0  0
 14 15  4  0  0  0
 16 15  4  0  0  0
 15 29  1  0  0  0
 26 16  4  0  0  0
 18 17  4  0  0  0
 18 19  4  0  0  0
 21 18  4  0  0  0
 19 20  4  0  0  0
 19 24  4  0  0  0
 21 22  4  0  0  0
 21 25  1  0  0  0
 22 23  4  0  0  0
 23 24  4  0  0  0
 27 28  1  0  0  0
  1 31  1  0  0  0
  2 32  1  0  0  0
  3 33  1  0  0  0
  4 34  1  0  0  0
  5 35  1  0  0  0
  6 36  1  0  0  0
  7 37  1  0  0  0
  7 38  1  0  0  0
  8 39  1  0  0  0
  8 40  1  0  0  0
  9 41  1  0  0  0
  9 42  1  0  0  0
 10 43  1  0  0  0
 10 44  1  0  0  0
 13 45  1  0  0  0
 14 46  1  0  0  0
 17 47  1  0  0  0
 20 48  1  0  0  0
 25 49  1  0  0  0
 28 50  1  0  0  0
 29 51  1  0  0  0
M  END
$$$$
