4xx9_ligand
  -I-interpret- 

 45 47  0  0  0  0  0  0  0  0999 V2000
  -13.1870   18.9980  -13.5710 C   0  0  0  0  0
  -14.2870   18.5730  -14.2270 C   0  0  0  0  0
  -15.2520   17.7700  -13.5680 C   0  0  0  0  0
  -15.0810   17.4340  -12.2240 C   0  0  0  0  0
  -13.9830   17.8640  -11.5550 C   0  0  0  0  0
  -13.0040   18.6560  -12.2190 C   0  0  0  0  0
  -11.8160   19.1330  -11.5160 O   0  0  0  0  0
  -10.7190   18.2020  -11.3910 C   0  0  0  0  0
  -12.1420   19.8570  -14.2910 C   0  0  0  0  0
  -13.7980   17.4650  -10.0600 C   0  0  0  0  0
   -9.5950   18.9320  -10.5530 C   0  0  0  0  0
   -8.6700   17.8320   -9.4650 S   0  0  0  0  0
   -9.4880   16.2280   -9.2490 C   0  0  0  0  0
   -8.9960   15.0940   -9.7610 N   0  0  0  0  0
   -9.8650   14.0850   -9.4160 C   0  0  0  0  0
  -10.9240   14.7020   -8.6830 C   0  0  0  0  0
  -10.6450   16.0380   -8.5980 N   0  0  0  0  0
   -9.8640   12.7200   -9.6660 C   0  0  0  0  0
  -10.9280   11.9510   -9.1520 C   0  0  0  0  0
  -11.9980   12.5730   -8.4260 C   0  0  0  0  0
  -12.0080   13.9270   -8.1850 C   0  0  0  0  0
   -7.7640   14.9740  -10.4850 C   0  0  0  0  0
   -6.6360   14.5710   -9.5070 C   0  0  0  0  0
   -5.4280   14.4500   -9.9300 O   0  0  0  0  0
   -6.8970   14.3380   -8.2600 O   0  0  0  0  0
  -14.4347   18.8490  -15.2711 H   0  0  0  0  0
  -16.1278   17.4149  -14.1111 H   0  0  0  0  0
  -15.8287   16.8271  -11.7134 H   0  0  0  0  0
  -10.3438   17.9107  -12.3721 H   0  0  0  0  0
  -11.0413   17.2873  -10.8935 H   0  0  0  0  0
  -11.7422   19.3041  -15.1410 H   0  0  0  0  0
  -12.6092   20.7772  -14.6417 H   0  0  0  0  0
  -11.3339   20.0985  -13.6005 H   0  0  0  0  0
  -14.6373   17.8448   -9.4774 H   0  0  0  0  0
  -13.7586   16.3789   -9.9774 H   0  0  0  0  0
  -12.8692   17.8933   -9.6832 H   0  0  0  0  0
  -10.0879   19.6730   -9.9237 H   0  0  0  0  0
   -8.8863   19.3595  -11.2623 H   0  0  0  0  0
   -9.0640   12.2560  -10.2429 H   0  0  0  0  0
  -10.9379   10.8722   -9.3078 H   0  0  0  0  0
  -12.8202   11.9595   -8.0577 H   0  0  0  0  0
  -12.8220   14.3923   -7.6291 H   0  0  0  0  0
   -7.5197   15.9283  -10.9516 H   0  0  0  0  0
   -7.8669   14.2125  -11.2581 H   0  0  0  0  0
   -7.8344   14.4697   -8.1004 H   0  0  0  0  0
  1  2  4  0  0  0
  1  6  4  0  0  0
  1  9  1  0  0  0
  2  3  4  0  0  0
  3  4  4  0  0  0
  4  5  4  0  0  0
  5  6  4  0  0  0
  5 10  1  0  0  0
  6  7  1  0  0  0
  7  8  1  0  0  0
  8 11  1  0  0  0
 11 12  1  0  0  0
 12 13  1  0  0  0
 13 14  4  0  0  0
 13 17  4  0  0  0
 14 15  4  0  0  0
 14 22  1  0  0  0
 15 16  4  0  0  0
 15 18  4  0  0  0
 16 17  4  0  0  0
 16 21  4  0  0  0
 18 19  4  0  0  0
 19 20  4  0  0  0
 20 21  4  0  0  0
 22 23  1  0  0  0
 23 24  2  0  0  0
 23 25  1  0  0  0
  2 26  1  0  0  0
  3 27  1  0  0  0
  4 28  1  0  0  0
  8 29  1  0  0  0
  8 30  1  0  0  0
  9 31  1  0  0  0
  9 32  1  0  0  0
  9 33  1  0  0  0
 10 34  1  0  0  0
 10 35  1  0  0  0
 10 36  1  0  0  0
 11 37  1  0  0  0
 11 38  1  0  0  0
 18 39  1  0  0  0
 19 40  1  0  0  0
 20 41  1  0  0  0
 21 42  1  0  0  0
 22 43  1  0  0  0
 22 44  1  0  0  0
 25 45  1  0  0  0
M  END
$$$$
