3wha_ligand
  -I-interpret- 

 46 49  0  0  0  0  0  0  0  0999 V2000
  -26.5560   22.8700  -23.6750 C   0  0  0  0  0
  -26.7140   22.3110  -19.9670 C   0  0  0  0  0
  -27.8930   22.6370  -24.0380 C   0  0  0  0  0
  -28.8560   22.3240  -23.0650 C   0  0  0  0  0
  -24.4550   23.0270  -20.6330 C   0  0  0  0  0
  -28.4670   22.2020  -21.7230 C   0  0  0  0  0
  -27.1300   22.4020  -21.3210 C   0  0  0  0  0
  -26.1750   22.7690  -22.3160 C   0  0  0  0  0
  -24.8480   23.0950  -21.9580 C   0  0  0  0  0
  -25.3670   22.6010  -19.6610 C   0  0  0  0  0
  -25.5720   23.2950  -24.6420 C   0  0  0  0  0
  -23.9160   23.4620  -22.9880 C   0  0  0  0  0
  -24.5610   24.1490  -24.1120 O   0  0  0  0  0
  -24.7540   22.4130  -18.0400 Cl  0  0  0  0  0
  -27.5970   21.9130  -18.9150 C   0  0  0  0  0
  -28.2150   20.7170  -19.0070 N   0  0  0  0  0
  -27.8440   22.7130  -17.8470 N   0  0  0  0  0
  -28.6850   22.3220  -16.8960 C   0  0  0  0  0
  -28.8510   23.1000  -15.8570 N   0  0  0  0  0
  -29.2720   21.1190  -16.9520 N   0  0  0  0  0
  -29.0710   20.3470  -18.0360 C   0  0  0  0  0
  -29.8560   18.8180  -18.0590 S   0  0  0  0  0
  -29.6370   18.3000  -19.8080 C   0  0  0  0  0
  -30.5730   19.0360  -20.7620 C   0  0  0  0  0
  -32.0290   18.5880  -20.5740 C   0  0  0  0  0
  -32.9830   19.3170  -21.4780 C   0  0  0  0  0
  -33.5080   18.7340  -22.4320 O   0  0  0  0  0
  -33.2150   20.5730  -21.1370 N   0  0  0  0  0
  -28.1860   22.6998  -25.0860 H   0  0  0  0  0
  -29.8976   22.1770  -23.3505 H   0  0  0  0  0
  -23.4401   23.3039  -20.3478 H   0  0  0  0  0
  -29.2156   21.9466  -20.9731 H   0  0  0  0  0
  -26.0998   23.8604  -25.4100 H   0  0  0  0  0
  -25.0742   22.3976  -25.0093 H   0  0  0  0  0
  -23.4603   22.5483  -23.3697 H   0  0  0  0  0
  -23.1853   24.1435  -22.5525 H   0  0  0  0  0
  -28.3409   23.9810  -15.7929 H   0  0  0  0  0
  -29.4905   22.8255  -15.1113 H   0  0  0  0  0
  -29.8629   17.2356  -19.8725 H   0  0  0  0  0
  -28.6125   18.5313  -20.0997 H   0  0  0  0  0
  -30.2710   18.8119  -21.7851 H   0  0  0  0  0
  -30.5097   20.1041  -20.5540 H   0  0  0  0  0
  -32.3144   18.8027  -19.5442 H   0  0  0  0  0
  -32.0857   17.5264  -20.8147 H   0  0  0  0  0
  -33.8711   21.1357  -21.6786 H   0  0  0  0  0
  -32.7379   20.9794  -20.3322 H   0  0  0  0  0
  3  1  4  0  0  0
  1  8  4  0  0  0
  1 11  1  0  0  0
  7  2  4  0  0  0
  2 10  4  0  0  0
  2 15  1  0  0  0
  4  3  4  0  0  0
  6  4  4  0  0  0
  5  9  4  0  0  0
 10  5  4  0  0  0
  6  7  4  0  0  0
  7  8  4  0  0  0
  8  9  4  0  0  0
  9 12  1  0  0  0
 10 14  1  0  0  0
 11 13  1  0  0  0
 12 13  1  0  0  0
 15 16  4  0  0  0
 15 17  4  0  0  0
 16 21  4  0  0  0
 17 18  4  0  0  0
 18 19  1  0  0  0
 18 20  4  0  0  0
 20 21  4  0  0  0
 21 22  1  0  0  0
 22 23  1  0  0  0
 23 24  1  0  0  0
 24 25  1  0  0  0
 25 26  1  0  0  0
 26 27  2  0  0  0
 26 28  1  0  0  0
  3 29  1  0  0  0
  4 30  1  0  0  0
  5 31  1  0  0  0
  6 32  1  0  0  0
 11 33  1  0  0  0
 11 34  1  0  0  0
 12 35  1  0  0  0
 12 36  1  0  0  0
 19 37  1  0  0  0
 19 38  1  0  0  0
 23 39  1  0  0  0
 23 40  1  0  0  0
 24 41  1  0  0  0
 24 42  1  0  0  0
 25 43  1  0  0  0
 25 44  1  0  0  0
 28 45  1  0  0  0
 28 46  1  0  0  0
M  END
$$$$
