5wqk_ligand
  -I-interpret- 

 36 38  0  0  0  0  0  0  0  0999 V2000
  -12.9510   -5.7470   14.6890 O   0  0  0  0  0
  -12.0360   -6.4570   14.2220 C   0  0  0  0  0
  -10.7330   -6.5810   14.9660 C   0  0  0  0  0
  -10.6830   -5.3890   16.2500 S   0  0  0  0  0
  -10.1470   -3.9670   15.4280 C   0  0  0  0  0
  -10.2680   -2.7500   15.9690 N   0  0  0  0  0
   -9.8760   -1.6460   15.3730 C   0  0  0  0  0
  -10.0930   -0.5160   15.8940 O   0  0  0  0  0
   -9.2890   -1.7600   14.1330 C   0  0  0  0  0
   -9.5530   -4.1070   14.2300 N   0  0  0  0  0
   -9.1420   -2.9980   13.5980 C   0  0  0  0  0
   -8.4220   -3.1240   12.3000 C   0  0  0  0  0
  -12.2210   -7.1240   12.8950 C   0  0  0  0  0
  -11.1190   -7.5100   12.1390 C   0  0  0  0  0
  -11.2380   -8.2050   10.9390 C   0  0  0  0  0
  -12.4850   -8.4770   10.3880 C   0  0  0  0  0
  -13.6530   -8.1600   11.0650 C   0  0  0  0  0
  -14.8850   -8.4870   10.5050 C   0  0  0  0  0
  -16.0110   -8.1550   11.2540 C   0  0  0  0  0
  -15.9800   -7.4510   12.4450 C   0  0  0  0  0
  -14.7800   -7.1380   13.0590 C   0  0  0  0  0
  -13.5920   -7.4400   12.3730 C   0  0  0  0  0
   -9.9034   -6.4125   14.2793 H   0  0  0  0  0
  -10.6503   -7.5806   15.3928 H   0  0  0  0  0
   -8.9500   -0.8757   13.5933 H   0  0  0  0  0
   -9.4190   -5.0288   13.8144 H   0  0  0  0  0
   -8.9467   -2.5483   11.5375 H   0  0  0  0  0
   -7.4069   -2.7427   12.4106 H   0  0  0  0  0
   -8.3875   -4.1729   12.0055 H   0  0  0  0  0
  -10.1222   -7.2581   12.5009 H   0  0  0  0  0
  -10.3388   -8.5415   10.4229 H   0  0  0  0  0
  -12.5457   -8.9476    9.4067 H   0  0  0  0  0
  -14.9638   -8.9759    9.5340 H   0  0  0  0  0
  -16.9833   -8.4713   10.8763 H   0  0  0  0  0
  -16.9162   -7.1379   12.9071 H   0  0  0  0  0
  -14.7574   -6.6718   14.0440 H   0  0  0  0  0
  1  2  2  0  0  0
  2  3  1  0  0  0
  2 13  1  0  0  0
  3  4  1  0  0  0
  4  5  1  0  0  0
  5  6  2  0  0  0
  5 10  1  0  0  0
  6  7  1  0  0  0
  7  8  2  0  0  0
  7  9  1  0  0  0
  9 11  2  0  0  0
 10 11  1  0  0  0
 11 12  1  0  0  0
 13 14  4  0  0  0
 13 22  4  0  0  0
 14 15  4  0  0  0
 15 16  4  0  0  0
 16 17  4  0  0  0
 17 18  4  0  0  0
 17 22  4  0  0  0
 18 19  4  0  0  0
 19 20  4  0  0  0
 20 21  4  0  0  0
 21 22  4  0  0  0
  3 23  1  0  0  0
  3 24  1  0  0  0
  9 25  1  0  0  0
 10 26  1  0  0  0
 12 27  1  0  0  0
 12 28  1  0  0  0
 12 29  1  0  0  0
 14 30  1  0  0  0
 15 31  1  0  0  0
 16 32  1  0  0  0
 18 33  1  0  0  0
 19 34  1  0  0  0
 20 35  1  0  0  0
 21 36  1  0  0  0
M  END
$$$$
