5l8c_ligand
  -I-interpret- 

 65 68  0  0  0  0  0  0  0  0999 V2000
   25.2240    8.0280   -7.1020 O   0  0  0  0  0
   25.8330    8.6870   -6.2890 C   0  0  0  0  0
   25.4570    9.9950   -6.0600 N   0  0  0  0  0
   24.5960   10.9200   -6.8400 C   0  0  0  0  0
   23.2200   11.0340   -6.1870 C   0  0  0  0  0
   24.5260   10.4840   -8.3040 C   0  0  0  0  0
   25.8250   10.6410   -4.9000 N   0  0  0  0  0
   26.8630    8.0160   -5.3900 C   0  0  0  0  0
   26.5960    8.4900   -3.9520 C   0  0  0  0  0
   25.3190    7.8390   -3.3840 C   0  0  0  0  0
   25.2050    6.3780   -3.7140 C   0  0  0  0  0
   25.7950    5.8260   -4.7530 C   0  0  0  0  0
   26.9720    6.4840   -5.4210 C   0  0  0  0  0
   26.4520    9.9950   -3.9760 C   0  0  0  0  0
   27.0780   10.8670   -2.9710 C   0  0  0  0  0
   27.1260   10.5100   -1.6240 C   0  0  0  0  0
   27.6240   11.3940   -0.6790 C   0  0  0  0  0
   27.5460   12.1150   -3.3600 C   0  0  0  0  0
   28.0290   13.0280   -2.4320 C   0  0  0  0  0
   28.0930   12.6520   -1.0840 C   0  0  0  0  0
   28.6840   13.5590   -0.2440 O   0  0  0  0  0
   29.2150   13.0790    0.9910 C   0  0  0  0  0
   28.3540   14.3860   -2.9440 C   0  0  0  0  0
   27.4560   15.4380   -2.7890 C   0  0  0  0  0
   27.6960   16.6690   -3.3680 C   0  0  0  0  0
   28.8510   16.8810   -4.1150 C   0  0  0  0  0
   29.7460   15.8300   -4.2850 C   0  0  0  0  0
   29.5030   14.6070   -3.7000 C   0  0  0  0  0
   29.1980   18.2110   -4.6770 C   0  0  0  0  0
   28.3240   18.9900   -5.0420 O   0  0  0  0  0
   30.4980   18.4960   -4.7320 N   0  0  0  0  0
   31.0390   19.3680   -5.7420 C   0  0  0  0  0
   32.1750   20.1400   -5.1380 C   0  0  0  0  0
   33.2860   20.0950   -5.6670 O   0  0  0  0  0
   31.9290   20.7880   -4.0070 N   0  0  0  0  0
   25.0352   11.9176   -6.8345 H   0  0  0  0  0
   22.6237   11.7708   -6.7252 H   0  0  0  0  0
   22.7213   10.0654   -6.2220 H   0  0  0  0  0
   23.3365   11.3468   -5.1494 H   0  0  0  0  0
   24.0454    9.5078   -8.3685 H   0  0  0  0  0
   23.9479   11.2132   -8.8717 H   0  0  0  0  0
   25.5349   10.4214   -8.7118 H   0  0  0  0  0
   27.8281    8.3237   -5.7924 H   0  0  0  0  0
   27.4250    8.1972   -3.3077 H   0  0  0  0  0
   24.4629    8.3466   -3.8285 H   0  0  0  0  0
   25.3550    7.9314   -2.2985 H   0  0  0  0  0
   24.6046    5.7443   -3.0614 H   0  0  0  0  0
   25.4245    4.8753   -5.1364 H   0  0  0  0  0
   27.8759    6.1941   -4.8854 H   0  0  0  0  0
   26.9979    6.1635   -6.4625 H   0  0  0  0  0
   26.7693    9.5285   -1.3115 H   0  0  0  0  0
   27.6508   11.1125    0.3737 H   0  0  0  0  0
   27.5340   12.3837   -4.4163 H   0  0  0  0  0
   28.4153   12.6268    1.5776 H   0  0  0  0  0
   29.9849   12.3343    0.7890 H   0  0  0  0  0
   29.6489   13.9107    1.5462 H   0  0  0  0  0
   26.5498   15.2883   -2.2020 H   0  0  0  0  0
   26.9773   17.4783   -3.2392 H   0  0  0  0  0
   30.6447   15.9750   -4.8845 H   0  0  0  0  0
   30.2220   13.7983   -3.8308 H   0  0  0  0  0
   31.1263   18.0860   -4.0410 H   0  0  0  0  0
   30.2685   20.0525   -6.0970 H   0  0  0  0  0
   31.3937   18.7828   -6.5904 H   0  0  0  0  0
   32.6816   21.2837   -3.5292 H   0  0  0  0  0
   30.9873   20.7906   -3.6151 H   0  0  0  0  0
  1  2  2  0  0  0
  2  3  1  0  0  0
  2  8  1  0  0  0
  3  4  1  0  0  0
  3  7  1  0  0  0
  4  5  1  0  0  0
  4  6  1  0  0  0
  7 14  2  0  0  0
  8  9  1  0  0  0
  8 13  1  0  0  0
  9 10  1  0  0  0
  9 14  1  0  0  0
 10 11  1  0  0  0
 11 12  2  0  0  0
 12 13  1  0  0  0
 14 15  1  0  0  0
 15 16  4  0  0  0
 15 18  4  0  0  0
 16 17  4  0  0  0
 17 20  4  0  0  0
 18 19  4  0  0  0
 19 20  4  0  0  0
 19 23  1  0  0  0
 20 21  1  0  0  0
 21 22  1  0  0  0
 23 24  4  0  0  0
 23 28  4  0  0  0
 24 25  4  0  0  0
 25 26  4  0  0  0
 26 27  4  0  0  0
 26 29  1  0  0  0
 27 28  4  0  0  0
 29 30  2  0  0  0
 29 31  1  0  0  0
 31 32  1  0  0  0
 32 33  1  0  0  0
 33 34  2  0  0  0
 33 35  1  0  0  0
  4 36  1  0  0  0
  5 37  1  0  0  0
  5 38  1  0  0  0
  5 39  1  0  0  0
  6 40  1  0  0  0
  6 41  1  0  0  0
  6 42  1  0  0  0
  8 43  1  0  0  0
  9 44  1  0  0  0
 10 45  1  0  0  0
 10 46  1  0  0  0
 11 47  1  0  0  0
 12 48  1  0  0  0
 13 49  1  0  0  0
 13 50  1  0  0  0
 16 51  1  0  0  0
 17 52  1  0  0  0
 18 53  1  0  0  0
 22 54  1  0  0  0
 22 55  1  0  0  0
 22 56  1  0  0  0
 24 57  1  0  0  0
 25 58  1  0  0  0
 27 59  1  0  0  0
 28 60  1  0  0  0
 31 61  1  0  0  0
 32 62  1  0  0  0
 32 63  1  0  0  0
 35 64  1  0  0  0
 35 65  1  0  0  0
M  END
$$$$
