### 
### Created by X-TOOL on Sun Sep  9 21:52:29 2018
### 

@<TRIPOS>MOLECULE
4wks_ligand
   10     9     1     0     0
SMALL
GAST_HUCK


@<TRIPOS>ATOM
      1 C12        24.7630   26.2380   -0.3680 C.3       1 NON        -0.0681
      2 C13        23.9430   26.6240    0.8820 C.3       1 NON        -0.0681
      3 B1         24.6110   26.2060    2.3560 B         1 NON         2.0000
      4 O2         26.0250   26.1700    2.5430 O.3       1 NON        -0.4105
      5 H          24.2271   26.5618   -1.2724 H         1 NON         0.0227
      6 H          24.9002   25.1469   -0.3940 H         1 NON         0.0227
      7 H          25.7459   26.7303   -0.3282 H         1 NON         0.0227
      8 H          23.1197   27.2919    0.5885 H         1 NON         0.0000
      9 H          24.5943   27.1398    1.6029 H         1 NON         0.0000
     10 H          26.2186   25.9138    3.4370 H         1 NON         0.2052
@<TRIPOS>BOND
     1    1    2 1  
     2    2    3 1  
     3    3    4 1  
     4    1    5 1  
     5    1    6 1  
     6    1    7 1  
     7    2    8 1  
     8    2    9 1  
     9    4   10 1  
@<TRIPOS>SUBSTRUCTURE
     1 NON         1

