4wks_ligand
  -I-interpret- 

 10  9  0  0  0  0  0  0  0  0999 V2000
   24.7630   26.2380   -0.3680 C   0  0  0  0  0
   23.9430   26.6240    0.8820 C   0  0  0  0  0
   24.6110   26.2060    2.3560 B   0  0  0  0  0
   26.0250   26.1700    2.5430 O   0  0  0  0  0
   25.7366   26.7264   -0.3273 H   0  0  0  0  0
   24.8983   25.1567   -0.3926 H   0  0  0  0  0
   24.2310   26.5593   -1.2634 H   0  0  0  0  0
   23.0004   26.0815    0.8087 H   0  0  0  0  0
   23.8710   27.7116    0.8765 H   0  0  0  0  0
   26.2207   25.9111    3.4465 H   0  0  0  0  0
  1  2  1  0  0  0
  2  3  1  0  0  0
  3  4  1  0  0  0
  1  5  1  0  0  0
  1  6  1  0  0  0
  1  7  1  0  0  0
  2  8  1  0  0  0
  2  9  1  0  0  0
  4 10  1  0  0  0
M  END
$$$$
