5muc_ligand
  -I-interpret- 

 23 23  0  0  0  0  0  0  0  0999 V2000
  -19.2950   -8.2950  -11.2880 O   0  0  0  0  0
  -20.8850   -6.4970  -11.5280 C   0  0  0  0  0
  -21.2840   -5.3280  -12.4220 C   0  0  0  0  0
  -22.0000   -7.3650  -11.3580 O   0  0  0  0  0
  -22.4260   -4.5110  -11.8680 C   0  0  0  0  0
  -20.1440   -4.4720  -12.5160 O   0  0  0  0  0
  -22.1360   -4.0270  -10.5650 O   0  0  0  0  0
  -19.7230   -7.2520  -12.1570 C   0  0  0  0  0
  -18.5590   -6.3170  -12.4480 C   0  0  0  0  0
  -17.9530   -5.8990  -11.2240 O   0  0  0  0  0
  -19.0590   -5.1030  -13.2070 C   0  0  0  0  0
  -20.0326   -8.8823  -11.1073 H   0  0  0  0  0
  -20.5733   -6.1213  -10.5534 H   0  0  0  0  0
  -21.6112   -5.7315  -13.3802 H   0  0  0  0  0
  -22.7257   -6.8779  -10.9609 H   0  0  0  0  0
  -23.3095   -5.1468  -11.8113 H   0  0  0  0  0
  -22.5897   -3.6568  -12.5249 H   0  0  0  0  0
  -22.8801   -3.5132  -10.2427 H   0  0  0  0  0
  -20.0652   -7.6799  -13.0993 H   0  0  0  0  0
  -17.8201   -6.8442  -13.0515 H   0  0  0  0  0
  -17.2199   -5.3097  -11.4161 H   0  0  0  0  0
  -18.2413   -4.3881  -13.2982 H   0  0  0  0  0
  -19.4107   -5.4254  -14.1870 H   0  0  0  0  0
  8  1  1  0  0  0
  2  3  1  0  0  0
  2  4  1  0  0  0
  2  8  1  0  0  0
  3  5  1  0  0  0
  3  6  1  0  0  0
  5  7  1  0  0  0
  6 11  1  0  0  0
  8  9  1  0  0  0
  9 10  1  0  0  0
  9 11  1  0  0  0
  1 12  1  0  0  0
  2 13  1  0  0  0
  3 14  1  0  0  0
  4 15  1  0  0  0
  5 16  1  0  0  0
  5 17  1  0  0  0
  7 18  1  0  0  0
  8 19  1  0  0  0
  9 20  1  0  0  0
 10 21  1  0  0  0
 11 22  1  0  0  0
 11 23  1  0  0  0
M  END
$$$$
