### 
### Created by X-TOOL on Mon Sep 10 21:13:18 2018
### 

@<TRIPOS>MOLECULE
4nzm_ligand
   47    47     1     0     0
SMALL
GAST_HUCK


@<TRIPOS>ATOM
      1 C1         -1.4100   19.9280   11.1850 C.3       1 0EJ         0.1557
      2 C2         -0.6090   20.0090    9.8700 C.3       1 0EJ         0.1556
      3 C3          0.8420   19.6990   10.1900 C.3       1 0EJ         0.1557
      4 C4          1.3980   20.7650   11.1540 C.3       1 0EJ         0.1556
      5 C5          0.5390   20.9030   12.4590 C.3       1 0EJ         0.1541
      6 C6         -0.9820   21.0190   12.1770 C.3       1 0EJ         0.1556
      7 O11        -2.8020   20.0250   10.9070 O.3       1 0EJ        -0.2668
      8 O12        -0.7040   21.3250    9.2750 O.3       1 0EJ        -0.2668
      9 O13         1.6180   19.6660    8.9750 O.3       1 0EJ        -0.2668
     10 O14         2.7470   20.4110   11.4820 O.3       1 0EJ        -0.2668
     11 O15         0.9750   22.0600   13.2010 O.3       1 0EJ        -0.2663
     12 O16        -1.7560   20.8990   13.4040 O.3       1 0EJ        -0.2668
     13 O21        -3.1380   17.4950   10.4280 O.co2     1 0EJ        -0.5537
     14 O22        -0.6430   20.2760    6.8650 O.co2     1 0EJ        -0.5537
     15 O23         0.5420   17.6900    7.6740 O.co2     1 0EJ        -0.5537
     16 O24         3.5330   22.8790   11.1680 O.co2     1 0EJ        -0.5537
     17 O25         1.6500   20.6060   14.8660 O.2       1 0EJ        -0.3688
     18 O26        -2.2530   23.3690   13.9840 O.co2     1 0EJ        -0.5537
     19 O31        -3.5620   18.4440   12.7830 O.co2     1 0EJ        -0.5537
     20 O32        -2.7520   21.4030    7.7300 O.co2     1 0EJ        -0.5537
     21 O33         2.4330   17.2220    9.3730 O.co2     1 0EJ        -0.5537
     22 O34         5.1050   21.0750   12.1500 O.co2     1 0EJ        -0.5537
     23 O36        -3.8980   22.1000   12.4850 O.co2     1 0EJ        -0.5537
     24 O41        -5.1770   19.0350   10.8490 O.co2     1 0EJ        -0.5537
     25 O42        -0.6410   22.8140    7.1770 O.co2     1 0EJ        -0.5537
     26 O43         2.9770   18.4080    7.1550 O.co2     1 0EJ        -0.5537
     27 O44         4.4720   21.0400    9.6470 O.co2     1 0EJ        -0.5537
     28 O45         3.8370   24.8990   15.5310 O.co2     1 0EJ        -0.5605
     29 O46        -3.8350   21.5490   14.9340 O.co2     1 0EJ        -0.5537
     30 O55         4.3840   22.7870   14.1970 O.co2     1 0EJ        -0.5605
     31 O65         2.7800   24.4880   13.1880 O.co2     1 0EJ        -0.5605
     32 PA1        -3.7650   18.7600   11.2070 P.3       1 0EJ         0.2013
     33 PA2        -1.1360   21.5410    7.7370 P.3       1 0EJ         0.2013
     34 PA3         1.9600   18.2560    8.2200 P.3       1 0EJ         0.2013
     35 PA4         3.9940   21.3370   11.0100 P.3       1 0EJ         0.2013
     36 CA5         1.4850   21.7480   14.4360 C.2       1 0EJ         0.2508
     37 PA6        -2.9820   21.9370   13.7920 P.3       1 0EJ         0.2013
     38 CB5         1.8750   22.9550   15.2930 C.3       1 0EJ         0.1197
     39 PB5         3.2060   23.8550   14.4600 P.3       1 0EJ         0.0791
     40 H          -1.2144   18.9495   11.6478 H         1 0EJ         0.0710
     41 H          -0.9991   19.2656    9.1592 H         1 0EJ         0.0710
     42 H           0.8996   18.7137   10.6756 H         1 0EJ         0.0710
     43 H           1.3976   21.7371   10.6391 H         1 0EJ         0.0710
     44 H           0.7049   20.0052   13.0725 H         1 0EJ         0.0711
     45 H          -1.1820   22.0044   11.7310 H         1 0EJ         0.0710
     46 H           2.2213   22.6120   16.2791 H         1 0EJ         0.0709
     47 H           1.0046   23.6156   15.4194 H         1 0EJ         0.0709
@<TRIPOS>BOND
     1    1    2 1  
     2    6    1 1  
     3    1    7 1  
     4    3    2 1  
     5    2    8 1  
     6    4    3 1  
     7    3    9 1  
     8    5    4 1  
     9    4   10 1  
    10    5    6 1  
    11   11    5 1  
    12    6   12 1  
    13    7   32 1  
    14    8   33 1  
    15    9   34 1  
    16   10   35 1  
    17   36   11 1  
    18   12   37 1  
    19   32   13 ar 
    20   33   14 ar 
    21   34   15 ar 
    22   35   16 ar 
    23   36   17 2  
    24   37   18 ar 
    25   32   19 ar 
    26   33   20 ar 
    27   34   21 ar 
    28   35   22 ar 
    29   37   23 ar 
    30   32   24 ar 
    31   33   25 ar 
    32   34   26 ar 
    33   35   27 ar 
    34   39   28 ar 
    35   37   29 ar 
    36   39   30 ar 
    37   39   31 ar 
    38   38   36 1  
    39   38   39 1  
    40    1   40 1  
    41    2   41 1  
    42    3   42 1  
    43    4   43 1  
    44    5   44 1  
    45    6   45 1  
    46   38   46 1  
    47   38   47 1  
@<TRIPOS>SUBSTRUCTURE
     1 0EJ         1

