4nzm_ligand
  -I-interpret- 

 59 59  0  0  0  0  0  0  0  0999 V2000
   -1.4100   19.9280   11.1850 C   0  0  0  0  0
   -0.6090   20.0090    9.8700 C   0  0  0  0  0
    0.8420   19.6990   10.1900 C   0  0  0  0  0
    1.3980   20.7650   11.1540 C   0  0  0  0  0
    0.5390   20.9030   12.4590 C   0  0  0  0  0
   -0.9820   21.0190   12.1770 C   0  0  0  0  0
   -2.8020   20.0250   10.9070 O   0  0  0  0  0
   -0.7040   21.3250    9.2750 O   0  0  0  0  0
    1.6180   19.6660    8.9750 O   0  0  0  0  0
    2.7470   20.4110   11.4820 O   0  0  0  0  0
    0.9750   22.0600   13.2010 O   0  0  0  0  0
   -1.7560   20.8990   13.4040 O   0  0  0  0  0
   -3.1380   17.4950   10.4280 O   0  0  0  0  0
   -0.6430   20.2760    6.8650 O   0  0  0  0  0
    0.5420   17.6900    7.6740 O   0  0  0  0  0
    3.5330   22.8790   11.1680 O   0  0  0  0  0
    1.6500   20.6060   14.8660 O   0  0  0  0  0
   -2.2530   23.3690   13.9840 O   0  0  0  0  0
   -3.5620   18.4440   12.7830 O   0  0  0  0  0
   -2.7520   21.4030    7.7300 O   0  0  0  0  0
    2.4330   17.2220    9.3730 O   0  0  0  0  0
    5.1050   21.0750   12.1500 O   0  0  0  0  0
   -3.8980   22.1000   12.4850 O   0  0  0  0  0
   -5.1770   19.0350   10.8490 O   0  0  0  0  0
   -0.6410   22.8140    7.1770 O   0  0  0  0  0
    2.9770   18.4080    7.1550 O   0  0  0  0  0
    4.4720   21.0400    9.6470 O   0  0  0  0  0
    3.8370   24.8990   15.5310 O   0  0  0  0  0
   -3.8350   21.5490   14.9340 O   0  0  0  0  0
    4.3840   22.7870   14.1970 O   0  0  0  0  0
    2.7800   24.4880   13.1880 O   0  0  0  0  0
   -3.7650   18.7600   11.2070 P   0  0  0  0  0
   -1.1360   21.5410    7.7370 P   0  0  0  0  0
    1.9600   18.2560    8.2200 P   0  0  0  0  0
    3.9940   21.3370   11.0100 P   0  0  0  0  0
    1.4850   21.7480   14.4360 C   0  0  0  0  0
   -2.9820   21.9370   13.7920 P   0  0  0  0  0
    1.8750   22.9550   15.2930 C   0  0  0  0  0
    3.2060   23.8550   14.4600 P   0  0  0  0  0
   -1.2013   18.9649   11.6509 H   0  0  0  0  0
   -1.0154   19.2939    9.1548 H   0  0  0  0  0
    0.9058   18.7219   10.6688 H   0  0  0  0  0
    1.3603   21.7347   10.6577 H   0  0  0  0  0
    0.6898   19.9907   13.0362 H   0  0  0  0  0
   -1.1747   22.0023   11.7480 H   0  0  0  0  0
   -2.2266   17.3709   10.7029 H   0  0  0  0  0
   -0.9819   19.4675    7.2562 H   0  0  0  0  0
   -0.0739   17.6132    8.4063 H   0  0  0  0  0
    3.2298   23.0308   12.0661 H   0  0  0  0  0
   -1.7171   23.5602   13.2108 H   0  0  0  0  0
   -2.6333   18.2742   12.9571 H   0  0  0  0  0
   -3.0013   20.5557    8.1062 H   0  0  0  0  0
    1.7468   17.1534   10.0409 H   0  0  0  0  0
    4.7349   21.2856   13.0104 H   0  0  0  0  0
   -3.3481   22.3522   11.7396 H   0  0  0  0  0
    4.0901   24.4255   16.3268 H   0  0  0  0  0
    4.6455   22.3889   15.0305 H   0  0  0  0  0
    2.2132   22.6186   16.2731 H   0  0  0  0  0
    1.0128   23.6088   15.4248 H   0  0  0  0  0
  1  2  1  0  0  0
  6  1  1  0  0  0
  1  7  1  0  0  0
  3  2  1  0  0  0
  2  8  1  0  0  0
  4  3  1  0  0  0
  3  9  1  0  0  0
  5  4  1  0  0  0
  4 10  1  0  0  0
  5  6  1  0  0  0
 11  5  1  0  0  0
  6 12  1  0  0  0
  7 32  1  0  0  0
  8 33  1  0  0  0
  9 34  1  0  0  0
 10 35  1  0  0  0
 36 11  1  0  0  0
 12 37  1  0  0  0
 32 13  1  0  0  0
 33 14  1  0  0  0
 34 15  1  0  0  0
 35 16  1  0  0  0
 36 17  2  0  0  0
 37 18  1  0  0  0
 32 19  1  0  0  0
 33 20  1  0  0  0
 34 21  1  0  0  0
 35 22  1  0  0  0
 37 23  1  0  0  0
 32 24  2  0  0  0
 33 25  2  0  0  0
 34 26  2  0  0  0
 35 27  2  0  0  0
 39 28  1  0  0  0
 37 29  2  0  0  0
 39 30  1  0  0  0
 39 31  2  0  0  0
 38 36  1  0  0  0
 38 39  1  0  0  0
  1 40  1  0  0  0
  2 41  1  0  0  0
  3 42  1  0  0  0
  4 43  1  0  0  0
  5 44  1  0  0  0
  6 45  1  0  0  0
 13 46  1  0  0  0
 14 47  1  0  0  0
 15 48  1  0  0  0
 16 49  1  0  0  0
 18 50  1  0  0  0
 19 51  1  0  0  0
 20 52  1  0  0  0
 21 53  1  0  0  0
 22 54  1  0  0  0
 23 55  1  0  0  0
 28 56  1  0  0  0
 30 57  1  0  0  0
 38 58  1  0  0  0
 38 59  1  0  0  0
M  END
$$$$
