4d3h_ligand
  -I-interpret- 

 68 74  0  0  0  0  0  0  0  0999 V2000
   -8.6740   -7.6270   -9.5220 P   0  0  0  0  0
   -7.8660   -8.4380   -8.5460 O   0  0  0  0  0
   -8.5830   -6.1760   -9.7150 O   0  0  0  0  0
   -8.1640   -8.2510  -10.9730 O   0  0  0  0  0
   -8.4350   -7.5750  -12.2030 C   0  0  0  0  0
   -7.8470   -8.4650  -13.3070 C   0  0  0  0  0
   -6.4110   -8.4720  -13.1270 O   0  0  0  0  0
   -8.2110   -9.9330  -13.2410 C   0  0  0  0  0
   -9.4360  -10.3220  -13.8800 O   0  0  0  0  0
   -6.9920  -10.6000  -13.8320 C   0  0  0  0  0
   -7.0400  -10.6410  -15.2680 O   0  0  0  0  0
   -5.8410   -9.7280  -13.4090 C   0  0  0  0  0
   -5.0680  -10.2110  -12.2020 N   0  0  0  0  0
   -5.2540   -9.8470  -10.8760 C   0  0  0  0  0
   -4.3550  -10.4400  -10.0480 N   0  0  0  0  0
   -3.6010  -11.2030  -10.8770 C   0  0  0  0  0
   -2.5000  -12.1310  -10.6650 C   0  0  0  0  0
   -2.0310  -12.3240   -9.4380 N   0  0  0  0  0
   -1.9730  -12.7500  -11.7450 N   0  0  0  0  0
   -2.4590  -12.5860  -12.9790 C   0  0  0  0  0
   -3.4740  -11.7790  -13.2530 N   0  0  0  0  0
   -4.0810  -11.0920  -12.2430 C   0  0  0  0  0
  -10.3120  -11.5040  -13.2780 P   0  0  0  0  0
   -9.5060  -12.7830  -13.0940 O   0  0  0  0  0
  -11.4380  -11.6380  -14.2240 O   0  0  0  0  0
  -10.6840  -10.9230  -11.8010 O   0  0  0  0  0
  -11.5540   -9.8000  -11.6600 C   0  0  0  0  0
  -11.8580   -9.5300  -10.2050 C   0  0  0  0  0
  -12.5020  -10.7040   -9.6760 O   0  0  0  0  0
  -10.6220   -9.3750   -9.3460 C   0  0  0  0  0
  -10.2070   -8.0590   -9.4850 O   0  0  0  0  0
  -11.1410   -9.7290   -7.9690 C   0  0  0  0  0
  -11.8060   -8.5990   -7.3300 O   0  0  0  0  0
  -12.1430  -10.8260   -8.2880 C   0  0  0  0  0
  -11.6240  -12.2080   -8.1860 N   0  0  0  0  0
  -10.7810  -12.8180   -9.0560 C   0  0  0  0  0
  -10.5030  -14.0960   -8.6860 N   0  0  0  0  0
  -11.1830  -14.3080   -7.5750 C   0  0  0  0  0
  -11.3520  -15.4460   -6.6350 C   0  0  0  0  0
  -10.7300  -16.6180   -6.8420 N   0  0  0  0  0
  -12.1310  -15.2420   -5.5580 N   0  0  0  0  0
  -12.7850  -14.0850   -5.3250 C   0  0  0  0  0
  -12.6950  -13.0260   -6.1450 N   0  0  0  0  0
  -11.9220  -13.0730   -7.2560 C   0  0  0  0  0
   -8.1152   -9.3624   -8.6163 H   0  0  0  0  0
   -7.9892   -6.5804  -12.2157 H   0  0  0  0  0
   -9.5049   -7.4222  -12.3444 H   0  0  0  0  0
   -8.2340   -8.0507  -14.2380 H   0  0  0  0  0
   -8.4369  -10.2318  -12.2174 H   0  0  0  0  0
   -6.9132  -11.6327  -13.4923 H   0  0  0  0  0
   -6.2493  -11.0714  -15.6013 H   0  0  0  0  0
   -5.1037   -9.7205  -14.2117 H   0  0  0  0  0
   -6.0325   -9.1634  -10.5374 H   0  0  0  0  0
   -2.4421  -11.8232   -8.6502 H   0  0  0  0  0
   -1.2596  -12.9731   -9.2831 H   0  0  0  0  0
   -1.9999  -13.1410  -13.7971 H   0  0  0  0  0
   -8.7943  -12.6244  -12.4696 H   0  0  0  0  0
  -12.4885  -10.0143  -12.1786 H   0  0  0  0  0
  -11.0645   -8.9230  -12.0835 H   0  0  0  0  0
  -12.4454   -8.6123  -10.1762 H   0  0  0  0  0
   -9.7564   -9.9912   -9.5893 H   0  0  0  0  0
  -10.3536  -10.0213   -7.2742 H   0  0  0  0  0
  -12.1198   -8.8629   -6.4620 H   0  0  0  0  0
  -12.9464  -10.6916   -7.5637 H   0  0  0  0  0
  -10.3743  -12.3396   -9.9470 H   0  0  0  0  0
  -10.1283  -16.7391   -7.6567 H   0  0  0  0  0
  -10.8592  -17.3871   -6.1846 H   0  0  0  0  0
  -13.4110  -14.0072   -4.4361 H   0  0  0  0  0
  1  2  1  0  0  0
  1  3  2  0  0  0
  1  4  1  0  0  0
  1 31  1  0  0  0
  4  5  1  0  0  0
  5  6  1  0  0  0
  6  7  1  0  0  0
  6  8  1  0  0  0
  7 12  1  0  0  0
  8  9  1  0  0  0
  8 10  1  0  0  0
  9 23  1  0  0  0
 10 11  1  0  0  0
 10 12  1  0  0  0
 12 13  1  0  0  0
 13 14  4  0  0  0
 13 22  4  0  0  0
 14 15  4  0  0  0
 15 16  4  0  0  0
 16 17  4  0  0  0
 16 22  4  0  0  0
 17 18  1  0  0  0
 17 19  4  0  0  0
 19 20  4  0  0  0
 20 21  4  0  0  0
 21 22  4  0  0  0
 23 24  1  0  0  0
 23 25  2  0  0  0
 23 26  1  0  0  0
 26 27  1  0  0  0
 27 28  1  0  0  0
 28 29  1  0  0  0
 28 30  1  0  0  0
 29 34  1  0  0  0
 30 31  1  0  0  0
 30 32  1  0  0  0
 32 33  1  0  0  0
 32 34  1  0  0  0
 34 35  1  0  0  0
 35 36  4  0  0  0
 35 44  4  0  0  0
 36 37  4  0  0  0
 37 38  4  0  0  0
 38 39  4  0  0  0
 38 44  4  0  0  0
 39 40  1  0  0  0
 39 41  4  0  0  0
 41 42  4  0  0  0
 42 43  4  0  0  0
 43 44  4  0  0  0
  2 45  1  0  0  0
  5 46  1  0  0  0
  5 47  1  0  0  0
  6 48  1  0  0  0
  8 49  1  0  0  0
 10 50  1  0  0  0
 11 51  1  0  0  0
 12 52  1  0  0  0
 14 53  1  0  0  0
 18 54  1  0  0  0
 18 55  1  0  0  0
 20 56  1  0  0  0
 24 57  1  0  0  0
 27 58  1  0  0  0
 27 59  1  0  0  0
 28 60  1  0  0  0
 30 61  1  0  0  0
 32 62  1  0  0  0
 33 63  1  0  0  0
 34 64  1  0  0  0
 36 65  1  0  0  0
 40 66  1  0  0  0
 40 67  1  0  0  0
 42 68  1  0  0  0
M  END
$$$$
