5cqx_ligand
  -I-interpret- 

250255  0  0  0  0  0  0  0  0999 V2000
   55.4770  -74.8880   18.4920 N   0  3  0  0  0
   56.6320  -74.6040   17.6420 C   0  0  0  0  0
   57.8880  -75.2490   18.2150 C   0  0  0  0  0
   58.0230  -75.3960   19.4320 O   0  0  0  0  0
   56.8520  -73.0940   17.5040 C   0  0  0  0  0
   55.6820  -72.3590   16.9280 C   0  0  0  0  0
   55.4070  -72.3380   15.5760 N   0  0  0  0  0
   54.7240  -71.6040   17.5190 C   0  0  0  0  0
   54.3230  -71.6110   15.3610 C   0  0  0  0  0
   53.8910  -71.1540   16.5230 N   0  0  0  0  0
   58.8020  -75.6390   17.3360 N   0  0  0  0  0
   60.0770  -76.1780   17.7750 C   0  0  0  0  0
   60.8560  -75.0490   18.4210 C   0  0  0  0  0
   60.6620  -73.8840   18.0790 O   0  0  0  0  0
   60.8660  -76.7280   16.5820 C   0  0  0  0  0
   61.1760  -75.6780   15.5190 C   0  0  0  0  0
   61.9840  -76.2300   14.3540 C   0  0  0  0  0
   62.4120  -77.4030   14.4240 O   0  0  0  0  0
   62.1880  -75.4860   13.3670 O   0  0  0  0  0
   61.7180  -75.3850   19.3710 N   0  0  0  0  0
   62.7240  -74.4360   19.8130 C   0  0  0  0  0
   63.7430  -74.3340   18.6860 C   0  0  0  0  0
   64.4820  -75.2820   18.4150 O   0  0  0  0  0
   63.3840  -74.8920   21.1110 C   0  0  0  0  0
   63.7490  -73.1890   18.0140 N   0  0  0  0  0
   64.5700  -72.9900   16.8270 C   0  0  0  0  0
   66.0450  -73.2380   17.0930 C   0  0  0  0  0
   66.6310  -72.6290   17.9880 O   0  0  0  0  0
   64.4080  -71.5640   16.2690 C   0  0  0  0  0
   62.9510  -71.3090   15.8660 C   0  0  0  0  0
   65.3630  -71.3420   15.1060 C   0  0  0  0  0
   62.3570  -72.3810   14.9710 C   0  0  0  0  0
   66.6370  -74.1280   16.3000 N   0  0  0  0  0
   68.0390  -74.4980   16.4410 C   0  0  0  0  0
   68.8750  -73.8880   15.3170 C   0  0  0  0  0
   68.6230  -74.1340   14.1350 O   0  0  0  0  0
   68.1700  -76.0240   16.4400 C   0  0  0  0  0
   69.6120  -76.4950   16.3660 C   0  0  0  0  0
   70.5290  -75.6800   16.5980 O   0  0  0  0  0
   69.8260  -77.6950   16.0860 O   0  0  0  0  0
   69.8690  -73.0910   15.6860 N   0  0  0  0  0
   70.6850  -72.4050   14.6850 C   0  0  0  0  0
   71.9660  -73.1530   14.3160 C   0  0  0  0  0
   72.8630  -72.5780   13.6970 O   0  0  0  0  0
   71.0190  -70.9860   15.1490 C   0  0  0  0  0
   69.8160  -70.1010   15.3000 C   0  0  0  0  0
   68.9920  -70.0070   16.3910 C   0  0  0  0  0
   69.3090  -69.1730   14.3350 C   0  0  0  0  0
   68.0020  -69.0760   16.1580 N   0  0  0  0  0
   68.1740  -68.5540   14.9020 C   0  0  0  0  0
   69.7020  -68.8080   13.0430 C   0  0  0  0  0
   67.4310  -67.5920   14.2210 C   0  0  0  0  0
   68.9630  -67.8540   12.3710 C   0  0  0  0  0
   67.8410  -67.2570   12.9610 C   0  0  0  0  0
   72.0620  -74.4250   14.6920 N   0  0  0  0  0
   73.2180  -75.2280   14.3150 C   0  0  0  0  0
   74.4890  -74.7960   15.0270 C   0  0  0  0  0
   74.4240  -74.2630   16.1370 O   0  0  0  0  0
   75.6460  -75.0120   14.4020 N   0  0  0  0  0
   76.9220  -74.6500   15.0340 C   0  0  0  0  0
   77.0240  -73.1390   15.2540 C   0  0  0  0  0
   76.7710  -72.3520   14.3340 O   0  0  0  0  0
   78.1130  -75.1490   14.2050 C   0  0  0  0  0
   79.4810  -74.9420   14.8600 C   0  0  0  0  0
   79.6410  -75.7390   16.1420 C   0  0  0  0  0
   78.7190  -75.6950   16.9810 O   0  0  0  0  0
   80.6880  -76.4020   16.3230 O   0  0  0  0  0
   77.3670  -72.7190   16.4830 N   0  0  0  0  0
   77.5510  -71.2790   16.6930 C   0  0  0  0  0
   78.6780  -70.7590   15.8250 C   0  0  0  0  0
   79.6680  -71.4690   15.5970 O   0  0  0  0  0
   77.9320  -71.1850   18.1760 C   0  0  0  0  0
   77.2480  -72.3660   18.7950 C   0  0  0  0  0
   77.3280  -73.4630   17.7550 C   0  0  0  0  0
   78.5280  -69.5310   15.3440 N   0  0  0  0  0
   79.4750  -68.9540   14.3960 C   0  0  0  0  0
   79.9890  -67.6110   14.8800 C   0  0  0  0  0
   79.2520  -66.8540   15.5190 O   0  0  0  0  0
   78.7990  -68.7620   13.0390 C   0  0  0  0  0
   78.2480  -70.0400   12.4260 C   0  0  0  0  0
   79.3250  -70.7810   11.6580 C   0  0  0  0  0
   79.8070  -69.9570   10.4750 C   0  0  0  0  0
   80.8090  -70.6900    9.6410 N   0  3  0  0  0
   81.2530  -67.3220   14.5750 N   0  0  0  0  0
   81.8190  -65.9980   14.7960 C   0  0  0  0  0
   81.7070  -65.6260   16.2750 C   0  0  0  0  0
   82.1930  -66.3560   17.1470 O   0  0  0  0  0
   81.0980  -64.9730   13.9040 C   0  0  0  0  0
   81.6810  -63.5730   14.0130 C   0  0  0  0  0
   82.9120  -63.4080   13.8410 O   0  0  0  0  0
   80.9000  -62.6320   14.2750 O   0  0  0  0  0
   81.0680  -64.4980   16.5620 N   0  0  0  0  0
   80.9790  -64.0260   17.9430 C   0  0  0  0  0
   79.7640  -64.5550   18.7080 C   0  0  0  0  0
   79.5250  -64.1410   19.8410 O   0  0  0  0  0
   81.0580  -62.4960   18.0170 C   0  0  0  0  0
   82.3980  -61.9360   17.5090 C   0  0  0  0  0
   82.4530  -60.4140   17.5870 C   0  0  0  0  0
   81.4610  -59.7640   16.6370 C   0  0  0  0  0
   81.7690  -60.0830   15.1960 N   0  3  0  0  0
   79.0070  -65.4740   18.1200 N   0  0  0  0  0
   77.9490  -66.1510   18.8840 C   0  0  0  0  0
   78.5870  -67.0380   19.9600 C   0  0  0  0  0
   79.4300  -67.8660   19.6540 O   0  0  0  0  0
   77.0750  -67.0050   17.9580 C   0  0  0  0  0
   76.4680  -66.2500   16.7900 C   0  0  0  0  0
   75.8150  -67.1780   15.7850 C   0  0  0  0  0
   75.2400  -66.6770   14.7950 O   0  0  0  0  0
   75.8760  -68.4130   15.9870 O   0  0  0  0  0
   78.2130  -66.8560   21.2270 N   0  0  0  0  0
   78.8090  -67.6880   22.2880 C   0  0  0  0  0
   78.0070  -68.9370   22.6290 C   0  0  0  0  0
   78.5220  -69.8530   23.2680 O   0  0  0  0  0
   79.1340  -66.8990   23.5820 C   0  0  0  0  0
   80.1150  -65.7490   23.2770 C   0  0  0  0  0
   77.8620  -66.3980   24.2690 C   0  0  0  0  0
   76.7500  -68.9610   22.2060 N   0  0  0  0  0
   75.8890  -70.1250   22.3970 C   0  0  0  0  0
   74.7210  -70.1010   21.4140 C   0  0  0  0  0
   73.8810  -70.9970   21.3880 O   0  0  0  0  0
   75.4050  -70.1980   23.8500 C   0  0  0  0  0
   74.5440  -69.0310   24.2960 C   0  0  0  0  0
   74.2460  -67.8870   23.5970 C   0  0  0  0  0
   73.8550  -68.9280   25.5460 C   0  0  0  0  0
   73.4200  -67.0740   24.3570 N   0  0  0  0  0
   73.1730  -67.6910   25.5470 C   0  0  0  0  0
   73.7670  -69.7580   26.6620 C   0  0  0  0  0
   72.3970  -67.2790   26.6410 C   0  0  0  0  0
   72.9990  -69.3380   27.7480 C   0  0  0  0  0
   72.3300  -68.1110   27.7260 C   0  0  0  0  0
   74.5740  -69.1850   20.6090 O   0  0  0  0  0
   55.3522  -75.8975   18.5678 H   0  0  0  0  0
   55.6335  -74.4930   19.4193 H   0  0  0  0  0
   54.6423  -74.4710   18.0799 H   0  0  0  0  0
   56.4299  -75.0223   16.6560 H   0  0  0  0  0
   57.6913  -72.9502   16.8236 H   0  0  0  0  0
   57.0211  -72.6988   18.5057 H   0  0  0  0  0
   54.6316  -71.3933   18.5844 H   0  0  0  0  0
   53.8643  -71.4213   14.3906 H   0  0  0  0  0
   58.6065  -75.5592   16.3381 H   0  0  0  0  0
   59.9147  -76.9932   18.4802 H   0  0  0  0  0
   60.2541  -77.4981   16.1123 H   0  0  0  0  0
   61.8177  -77.0991   16.9624 H   0  0  0  0  0
   61.7677  -74.8934   15.9906 H   0  0  0  0  0
   60.2269  -75.3171   15.1227 H   0  0  0  0  0
   61.7742  -74.6333   13.5195 H   0  0  0  0  0
   61.6742  -76.3128   19.7924 H   0  0  0  0  0
   62.2759  -73.4654   20.0255 H   0  0  0  0  0
   62.6267  -74.9833   21.8896 H   0  0  0  0  0
   63.8633  -75.8582   20.9535 H   0  0  0  0  0
   64.1318  -74.1591   21.4139 H   0  0  0  0  0
   63.1592  -72.4232   18.3396 H   0  0  0  0  0
   64.2183  -73.7188   16.0968 H   0  0  0  0  0
   64.6626  -70.8452   17.0478 H   0  0  0  0  0
   62.9310  -70.3744   15.3055 H   0  0  0  0  0
   62.3617  -71.2924   16.7828 H   0  0  0  0  0
   66.3888  -71.4767   15.4491 H   0  0  0  0  0
   65.1453  -72.0612   14.3164 H   0  0  0  0  0
   65.2369  -70.3297   14.7221 H   0  0  0  0  0
   62.9374  -72.4469   14.0508 H   0  0  0  0  0
   62.3835  -73.3401   15.4883 H   0  0  0  0  0
   61.3249  -72.1233   14.7334 H   0  0  0  0  0
   66.0865  -74.5691   15.5633 H   0  0  0  0  0
   68.4135  -74.1082   17.3875 H   0  0  0  0  0
   67.6514  -76.4015   15.5587 H   0  0  0  0  0
   67.7469  -76.3945   17.3737 H   0  0  0  0  0
   68.9891  -78.1437   15.9452 H   0  0  0  0  0
   70.0661  -72.9553   16.6775 H   0  0  0  0  0
   70.0801  -72.3675   13.7790 H   0  0  0  0  0
   71.6600  -70.5376   14.3900 H   0  0  0  0  0
   71.4895  -71.0661   16.1290 H   0  0  0  0  0
   69.1030  -70.5840   17.3090 H   0  0  0  0  0
   70.5735  -69.2670   12.5762 H   0  0  0  0  0
   66.5571  -67.1250   14.6752 H   0  0  0  0  0
   69.2579  -67.5603   11.3636 H   0  0  0  0  0
   67.2816  -66.5072   12.4015 H   0  0  0  0  0
   71.3180  -74.8432   15.2506 H   0  0  0  0  0
   73.3761  -75.1049   13.2436 H   0  0  0  0  0
   73.0129  -76.2616   14.5937 H   0  0  0  0  0
   75.6457  -75.4339   13.4733 H   0  0  0  0  0
   76.9522  -75.1396   16.0074 H   0  0  0  0  0
   78.1157  -74.5763   13.2776 H   0  0  0  0  0
   77.9822  -76.2235   14.0772 H   0  0  0  0  0
   79.5777  -73.8850   15.1079 H   0  0  0  0  0
   80.2435  -75.2793   14.1580 H   0  0  0  0  0
   81.2645  -76.3017   15.5620 H   0  0  0  0  0
   76.6688  -70.6918   16.4381 H   0  0  0  0  0
   77.6212  -70.2420   18.6258 H   0  0  0  0  0
   79.0110  -71.2022   18.3297 H   0  0  0  0  0
   76.2155  -72.1386   19.0601 H   0  0  0  0  0
   77.7254  -72.6625   19.7290 H   0  0  0  0  0
   78.1954  -74.1090   17.8911 H   0  0  0  0  0
   76.4894  -74.1571   17.8106 H   0  0  0  0  0
   77.7279  -68.9749   15.6457 H   0  0  0  0  0
   80.3160  -69.6415   14.3057 H   0  0  0  0  0
   79.5568  -68.3798   12.3551 H   0  0  0  0  0
   77.9540  -68.0913   13.1944 H   0  0  0  0  0
   77.4435  -69.7798   11.7381 H   0  0  0  0  0
   77.8833  -70.6835   13.2267 H   0  0  0  0  0
   78.9111  -71.7190   11.2880 H   0  0  0  0  0
   80.1676  -70.9665   12.3241 H   0  0  0  0  0
   80.2843  -69.0570   10.8627 H   0  0  0  0  0
   78.9451  -69.7319    9.8469 H   0  0  0  0  0
   81.1005  -70.0979    8.8633 H   0  0  0  0  0
   81.6198  -70.9246   10.2137 H   0  0  0  0  0
   80.3877  -71.5456    9.2792 H   0  0  0  0  0
   81.8433  -68.0508   14.1740 H   0  0  0  0  0
   82.8757  -65.9989   14.5285 H   0  0  0  0  0
   80.0584  -64.9250   14.2282 H   0  0  0  0  0
   81.2087  -65.2983   12.8696 H   0  0  0  0  0
   83.3238  -64.2543   13.6517 H   0  0  0  0  0
   80.6359  -63.9566   15.8133 H   0  0  0  0  0
   81.8487  -64.4457   18.4486 H   0  0  0  0  0
   80.9543  -62.2091   19.0634 H   0  0  0  0  0
   80.2685  -62.0924   17.3830 H   0  0  0  0  0
   82.5128  -62.2264   16.4647 H   0  0  0  0  0
   83.1932  -62.3367   18.1377 H   0  0  0  0  0
   83.4563  -60.0927   17.3072 H   0  0  0  0  0
   82.2006  -60.1137   18.6040 H   0  0  0  0  0
   81.5209  -58.6835   16.7678 H   0  0  0  0  0
   80.4669  -60.1476   16.8666 H   0  0  0  0  0
   81.0819  -59.6290   14.5942 H   0  0  0  0  0
   82.7024  -59.7423   14.9656 H   0  0  0  0  0
   81.7303  -61.0927   15.0568 H   0  0  0  0  0
   79.1594  -65.7099   17.1394 H   0  0  0  0  0
   77.3176  -65.3976   19.3550 H   0  0  0  0  0
   76.2470  -67.3809   18.5590 H   0  0  0  0  0
   77.7177  -67.7786   17.5377 H   0  0  0  0  0
   77.2677  -65.7100   16.2830 H   0  0  0  0  0
   75.7018  -65.5803   17.1807 H   0  0  0  0  0
   76.3599  -68.5798   16.7992 H   0  0  0  0  0
   77.5191  -66.1458   21.4605 H   0  0  0  0  0
   79.7491  -68.0182   21.8461 H   0  0  0  0  0
   79.6205  -67.5770   24.2833 H   0  0  0  0  0
   81.0386  -66.1596   22.8690 H   0  0  0  0  0
   79.6648  -65.0721   22.5509 H   0  0  0  0  0
   80.3326  -65.2053   24.1963 H   0  0  0  0  0
   77.3193  -65.7398   23.5905 H   0  0  0  0  0
   77.2335  -67.2488   24.5321 H   0  0  0  0  0
   78.1302  -65.8497   25.1721 H   0  0  0  0  0
   76.3728  -68.1403   21.7322 H   0  0  0  0  0
   76.4674  -71.0261   22.1932 H   0  0  0  0  0
   74.0946  -71.6538   22.0547 H   0  0  0  0  0
   76.2948  -70.1924   24.4796 H   0  0  0  0  0
   74.7897  -71.0939   23.9330 H   0  0  0  0  0
   74.6053  -67.6535   22.5948 H   0  0  0  0  0
   74.2875  -70.7154   26.6857 H   0  0  0  0  0
   71.8650  -66.3277   26.6274 H   0  0  0  0  0
   72.9193  -69.9767   28.6276 H   0  0  0  0  0
   71.7415  -67.8097   28.5926 H   0  0  0  0  0
  1  2  1  0  0  0
  2  3  1  0  0  0
  2  5  1  0  0  0
  3  4  2  0  0  0
  3 11  1  0  0  0
  5  6  1  0  0  0
  6  7  4  0  0  0
  6  8  4  0  0  0
  7  9  4  0  0  0
  8 10  4  0  0  0
  9 10  4  0  0  0
 11 12  1  0  0  0
 12 13  1  0  0  0
 12 15  1  0  0  0
 13 14  2  0  0  0
 13 20  1  0  0  0
 15 16  1  0  0  0
 16 17  1  0  0  0
 17 18  2  0  0  0
 17 19  1  0  0  0
 20 21  1  0  0  0
 21 22  1  0  0  0
 21 24  1  0  0  0
 22 23  2  0  0  0
 22 25  1  0  0  0
 25 26  1  0  0  0
 26 27  1  0  0  0
 26 29  1  0  0  0
 27 28  2  0  0  0
 27 33  1  0  0  0
 29 30  1  0  0  0
 29 31  1  0  0  0
 30 32  1  0  0  0
 33 34  1  0  0  0
 34 35  1  0  0  0
 34 37  1  0  0  0
 35 36  2  0  0  0
 35 41  1  0  0  0
 37 38  1  0  0  0
 38 39  2  0  0  0
 38 40  1  0  0  0
 41 42  1  0  0  0
 42 43  1  0  0  0
 42 45  1  0  0  0
 43 44  2  0  0  0
 43 55  1  0  0  0
 45 46  1  0  0  0
 46 47  4  0  0  0
 46 48  4  0  0  0
 47 49  4  0  0  0
 48 50  4  0  0  0
 48 51  4  0  0  0
 49 50  4  0  0  0
 50 52  4  0  0  0
 51 53  4  0  0  0
 52 54  4  0  0  0
 53 54  4  0  0  0
 55 56  1  0  0  0
 56 57  1  0  0  0
 57 58  2  0  0  0
 57 59  1  0  0  0
 59 60  1  0  0  0
 60 61  1  0  0  0
 60 63  1  0  0  0
 61 62  2  0  0  0
 61 68  1  0  0  0
 63 64  1  0  0  0
 64 65  1  0  0  0
 65 66  2  0  0  0
 65 67  1  0  0  0
 68 69  1  0  0  0
 68 74  1  0  0  0
 69 70  1  0  0  0
 69 72  1  0  0  0
 70 71  2  0  0  0
 70 75  1  0  0  0
 72 73  1  0  0  0
 73 74  1  0  0  0
 75 76  1  0  0  0
 76 77  1  0  0  0
 76 79  1  0  0  0
 77 78  2  0  0  0
 77 84  1  0  0  0
 79 80  1  0  0  0
 80 81  1  0  0  0
 81 82  1  0  0  0
 82 83  1  0  0  0
 84 85  1  0  0  0
 85 86  1  0  0  0
 85 88  1  0  0  0
 86 87  2  0  0  0
 86 92  1  0  0  0
 88 89  1  0  0  0
 89 90  1  0  0  0
 89 91  2  0  0  0
 92 93  1  0  0  0
 93 94  1  0  0  0
 93 96  1  0  0  0
 94 95  2  0  0  0
 94101  1  0  0  0
 96 97  1  0  0  0
 97 98  1  0  0  0
 98 99  1  0  0  0
 99100  1  0  0  0
101102  1  0  0  0
102103  1  0  0  0
102105  1  0  0  0
103104  2  0  0  0
103110  1  0  0  0
105106  1  0  0  0
106107  1  0  0  0
107108  2  0  0  0
107109  1  0  0  0
110111  1  0  0  0
111112  1  0  0  0
111114  1  0  0  0
112113  2  0  0  0
112117  1  0  0  0
114115  1  0  0  0
114116  1  0  0  0
117118  1  0  0  0
118119  1  0  0  0
118121  1  0  0  0
119120  1  0  0  0
119131  2  0  0  0
121122  1  0  0  0
122123  4  0  0  0
122124  4  0  0  0
123125  4  0  0  0
124126  4  0  0  0
124127  4  0  0  0
125126  4  0  0  0
126128  4  0  0  0
127129  4  0  0  0
128130  4  0  0  0
129130  4  0  0  0
  1132  1  0  0  0
  1133  1  0  0  0
  1134  1  0  0  0
  2135  1  0  0  0
  5136  1  0  0  0
  5137  1  0  0  0
  8138  1  0  0  0
  9139  1  0  0  0
 11140  1  0  0  0
 12141  1  0  0  0
 15142  1  0  0  0
 15143  1  0  0  0
 16144  1  0  0  0
 16145  1  0  0  0
 19146  1  0  0  0
 20147  1  0  0  0
 21148  1  0  0  0
 24149  1  0  0  0
 24150  1  0  0  0
 24151  1  0  0  0
 25152  1  0  0  0
 26153  1  0  0  0
 29154  1  0  0  0
 30155  1  0  0  0
 30156  1  0  0  0
 31157  1  0  0  0
 31158  1  0  0  0
 31159  1  0  0  0
 32160  1  0  0  0
 32161  1  0  0  0
 32162  1  0  0  0
 33163  1  0  0  0
 34164  1  0  0  0
 37165  1  0  0  0
 37166  1  0  0  0
 40167  1  0  0  0
 41168  1  0  0  0
 42169  1  0  0  0
 45170  1  0  0  0
 45171  1  0  0  0
 47172  1  0  0  0
 51173  1  0  0  0
 52174  1  0  0  0
 53175  1  0  0  0
 54176  1  0  0  0
 55177  1  0  0  0
 56178  1  0  0  0
 56179  1  0  0  0
 59180  1  0  0  0
 60181  1  0  0  0
 63182  1  0  0  0
 63183  1  0  0  0
 64184  1  0  0  0
 64185  1  0  0  0
 67186  1  0  0  0
 69187  1  0  0  0
 72188  1  0  0  0
 72189  1  0  0  0
 73190  1  0  0  0
 73191  1  0  0  0
 74192  1  0  0  0
 74193  1  0  0  0
 75194  1  0  0  0
 76195  1  0  0  0
 79196  1  0  0  0
 79197  1  0  0  0
 80198  1  0  0  0
 80199  1  0  0  0
 81200  1  0  0  0
 81201  1  0  0  0
 82202  1  0  0  0
 82203  1  0  0  0
 83204  1  0  0  0
 83205  1  0  0  0
 83206  1  0  0  0
 84207  1  0  0  0
 85208  1  0  0  0
 88209  1  0  0  0
 88210  1  0  0  0
 90211  1  0  0  0
 92212  1  0  0  0
 93213  1  0  0  0
 96214  1  0  0  0
 96215  1  0  0  0
 97216  1  0  0  0
 97217  1  0  0  0
 98218  1  0  0  0
 98219  1  0  0  0
 99220  1  0  0  0
 99221  1  0  0  0
100222  1  0  0  0
100223  1  0  0  0
100224  1  0  0  0
101225  1  0  0  0
102226  1  0  0  0
105227  1  0  0  0
105228  1  0  0  0
106229  1  0  0  0
106230  1  0  0  0
109231  1  0  0  0
110232  1  0  0  0
111233  1  0  0  0
114234  1  0  0  0
115235  1  0  0  0
115236  1  0  0  0
115237  1  0  0  0
116238  1  0  0  0
116239  1  0  0  0
116240  1  0  0  0
117241  1  0  0  0
118242  1  0  0  0
120243  1  0  0  0
121244  1  0  0  0
121245  1  0  0  0
123246  1  0  0  0
127247  1  0  0  0
128248  1  0  0  0
129249  1  0  0  0
130250  1  0  0  0
M  END
$$$$
