### 
### Created by X-TOOL on Mon Sep 10 21:13:27 2018
### 

@<TRIPOS>MOLECULE
5cqx_ligand
  247   252     1     0     0
SMALL
GAST_HUCK


@<TRIPOS>ATOM
      1 N          55.4770  -74.8880   18.4920 N.4       1 HIS         0.2390
      2 CA         56.6320  -74.6040   17.6420 C.3       1 HIS         0.0708
      3 C          57.8880  -75.2490   18.2150 C.2       1 HIS         0.2282
      4 O          58.0230  -75.3960   19.4320 O.2       1 HIS        -0.3906
      5 CB         56.8520  -73.0940   17.5040 C.3       1 HIS         0.0347
      6 CG         55.6820  -72.3590   16.9280 C.2       1 HIS         0.0005
      7 ND1        55.4070  -72.3380   15.5760 N.2       1 HIS        -0.3251
      8 CD2        54.7240  -71.6040   17.5190 C.2       1 HIS         0.0293
      9 CE1        54.3230  -71.6110   15.3610 C.2       1 HIS         0.0907
     10 NE2        53.8910  -71.1540   16.5230 N.pl3     1 HIS        -0.2752
     11 N          58.8020  -75.6390   17.3360 N.am      1 GLU        -0.2608
     12 CA         60.0770  -76.1780   17.7750 C.3       1 GLU         0.1326
     13 C          60.8560  -75.0490   18.4210 C.2       1 GLU         0.2040
     14 O          60.6620  -73.8840   18.0790 O.2       1 GLU        -0.3944
     15 CB         60.8660  -76.7280   16.5820 C.3       1 GLU        -0.0008
     16 CG         61.1760  -75.6780   15.5190 C.3       1 GLU         0.0044
     17 CD         61.9840  -76.2300   14.3540 C.2       1 GLU         0.0350
     18 OE1        62.4120  -77.4030   14.4240 O.co2     1 GLU        -0.5690
     19 OE2        62.1880  -75.4860   13.3670 O.co2     1 GLU        -0.5690
     20 N          61.7180  -75.3850   19.3710 N.am      1 ASN        -0.2640
     21 CA         62.7240  -74.4360   19.8130 C.3       1 ASN         0.1282
     22 C          63.7430  -74.3340   18.6860 C.2       1 ASN         0.2036
     23 O          64.4820  -75.2820   18.4150 O.2       1 ASN        -0.3944
     24 CB         63.3840  -74.8920   21.1110 C.3       1 ASN        -0.0244
     25 N          63.7490  -73.1890   18.0140 N.am      1 ILE        -0.2635
     26 CA         64.5700  -72.9900   16.8270 C.3       1 ILE         0.1335
     27 C          66.0450  -73.2380   17.0930 C.2       1 ILE         0.2042
     28 O          66.6310  -72.6290   17.9880 O.2       1 ILE        -0.3944
     29 CB         64.4080  -71.5640   16.2690 C.3       1 ILE        -0.0037
     30 CG1        62.9510  -71.3090   15.8660 C.3       1 ILE        -0.0491
     31 CG2        65.3630  -71.3420   15.1060 C.3       1 ILE        -0.0582
     32 CD1        62.3570  -72.3810   14.9710 C.3       1 ILE        -0.0648
     33 N          66.6370  -74.1280   16.3000 N.am      1 ASP        -0.2622
     34 CA         68.0390  -74.4980   16.4410 C.3       1 ASP         0.1423
     35 C          68.8750  -73.8880   15.3170 C.2       1 ASP         0.2057
     36 O          68.6230  -74.1340   14.1350 O.2       1 ASP        -0.3943
     37 CB         68.1700  -76.0240   16.4400 C.3       1 ASP         0.0406
     38 CG         69.6120  -76.4950   16.3660 C.2       1 ASP         0.0393
     39 OD1        70.5290  -75.6800   16.5980 O.co2     1 ASP        -0.5688
     40 OD2        69.8260  -77.6950   16.0860 O.co2     1 ASP        -0.5688
     41 N          69.8690  -73.0910   15.6860 N.am      1 TRP        -0.2626
     42 CA         70.6850  -72.4050   14.6850 C.3       1 TRP         0.1352
     43 C          71.9660  -73.1530   14.3160 C.2       1 TRP         0.2050
     44 O          72.8630  -72.5780   13.6970 O.2       1 TRP        -0.3943
     45 CB         71.0190  -70.9860   15.1490 C.3       1 TRP         0.0042
     46 CG         69.8160  -70.1010   15.3000 C.2       1 TRP        -0.0418
     47 CD1        68.9920  -70.0070   16.3910 C.2       1 TRP         0.0167
     48 CD2        69.3090  -69.1730   14.3350 C.ar      1 TRP        -0.0214
     49 NE1        68.0020  -69.0760   16.1580 N.pl3     1 TRP        -0.2890
     50 CE2        68.1740  -68.5540   14.9020 C.ar      1 TRP         0.0603
     51 CE3        69.7020  -68.8080   13.0430 C.ar      1 TRP        -0.0747
     52 CZ2        67.4310  -67.5920   14.2210 C.ar      1 TRP        -0.0443
     53 CZ3        68.9630  -67.8540   12.3710 C.ar      1 TRP        -0.0792
     54 CH2        67.8410  -67.2570   12.9610 C.ar      1 TRP        -0.0768
     55 N          72.0620  -74.4250   14.6920 N.am      1 GLY        -0.2663
     56 CA         73.2180  -75.2280   14.3150 C.3       1 GLY         0.1201
     57 C          74.4890  -74.7960   15.0270 C.2       1 GLY         0.2007
     58 O          74.4240  -74.2630   16.1370 O.2       1 GLY        -0.3947
     59 N          75.6460  -75.0120   14.4020 N.am      1 GLU        -0.2638
     60 CA         76.9220  -74.6500   15.0340 C.3       1 GLU         0.1326
     61 C          77.0240  -73.1390   15.2540 C.2       1 GLU         0.2065
     62 O          76.7710  -72.3520   14.3340 O.2       1 GLU        -0.3942
     63 CB         78.1130  -75.1490   14.2050 C.3       1 GLU        -0.0008
     64 CG         79.4810  -74.9420   14.8600 C.3       1 GLU         0.0044
     65 CD         79.6410  -75.7390   16.1420 C.2       1 GLU         0.0350
     66 OE1        78.7190  -75.6950   16.9810 O.co2     1 GLU        -0.5690
     67 OE2        80.6880  -76.4020   16.3230 O.co2     1 GLU        -0.5690
     68 N          77.3670  -72.7190   16.4830 N.am      1 PRO        -0.2498
     69 CA         77.5510  -71.2790   16.6930 C.3       1 PRO         0.1338
     70 C          78.6780  -70.7590   15.8250 C.2       1 PRO         0.2041
     71 O          79.6680  -71.4690   15.5970 O.2       1 PRO        -0.3944
     72 CB         77.9320  -71.1850   18.1760 C.3       1 PRO        -0.0104
     73 CG         77.2480  -72.3660   18.7950 C.3       1 PRO        -0.0281
     74 CD         77.3280  -73.4630   17.7550 C.3       1 PRO         0.0369
     75 N          78.5280  -69.5310   15.3440 N.am      1 LYS        -0.2637
     76 CA         79.4750  -68.9540   14.3960 C.3       1 LYS         0.1310
     77 C          79.9890  -67.6110   14.8800 C.2       1 LYS         0.2040
     78 O          79.2520  -66.8540   15.5190 O.2       1 LYS        -0.3944
     79 CB         78.7990  -68.7620   13.0390 C.3       1 LYS        -0.0122
     80 CG         78.2480  -70.0400   12.4260 C.3       1 LYS        -0.0440
     81 CD         79.3250  -70.7810   11.6580 C.3       1 LYS        -0.0124
     82 CE         79.8070  -69.9570   10.4750 C.3       1 LYS        -0.0354
     83 NZ         80.8090  -70.6900    9.6410 N.4       1 LYS         0.2185
     84 N          81.2530  -67.3220   14.5750 N.am      1 ASP        -0.2622
     85 CA         81.8190  -65.9980   14.7960 C.3       1 ASP         0.1423
     86 C          81.7070  -65.6260   16.2750 C.2       1 ASP         0.2056
     87 O          82.1930  -66.3560   17.1470 O.2       1 ASP        -0.3943
     88 CB         81.0980  -64.9730   13.9040 C.3       1 ASP         0.0406
     89 CG         81.6810  -63.5730   14.0130 C.2       1 ASP         0.0393
     90 OD1        82.9120  -63.4080   13.8410 O.co2     1 ASP        -0.5688
     91 OD2        80.9000  -62.6320   14.2750 O.co2     1 ASP        -0.5688
     92 N          81.0680  -64.4980   16.5620 N.am      1 LYS        -0.2636
     93 CA         80.9790  -64.0260   17.9430 C.3       1 LYS         0.1310
     94 C          79.7640  -64.5550   18.7080 C.2       1 LYS         0.2039
     95 O          79.5250  -64.1410   19.8410 O.2       1 LYS        -0.3944
     96 CB         81.0580  -62.4960   18.0170 C.3       1 LYS        -0.0122
     97 CG         82.3980  -61.9360   17.5090 C.3       1 LYS        -0.0440
     98 CD         82.4530  -60.4140   17.5870 C.3       1 LYS        -0.0124
     99 CE         81.4610  -59.7640   16.6370 C.3       1 LYS        -0.0354
    100 NZ         81.7690  -60.0830   15.1960 N.4       1 LYS         0.2185
    101 N          79.0070  -65.4740   18.1200 N.am      1 GLU        -0.2636
    102 CA         77.9490  -66.1510   18.8840 C.3       1 GLU         0.1325
    103 C          78.5870  -67.0380   19.9600 C.2       1 GLU         0.2040
    104 O          79.4300  -67.8660   19.6540 O.2       1 GLU        -0.3944
    105 CB         77.0750  -67.0050   17.9580 C.3       1 GLU        -0.0008
    106 CG         76.4680  -66.2500   16.7900 C.3       1 GLU         0.0044
    107 CD         75.8150  -67.1780   15.7850 C.2       1 GLU         0.0350
    108 OE1        75.2400  -66.6770   14.7950 O.co2     1 GLU        -0.5690
    109 OE2        75.8760  -68.4130   15.9870 O.co2     1 GLU        -0.5690
    110 N          78.2130  -66.8560   21.2270 N.am      1 VAL        -0.2635
    111 CA         78.8090  -67.6880   22.2880 C.3       1 VAL         0.1332
    112 C          78.0070  -68.9370   22.6290 C.2       1 VAL         0.2037
    113 O          78.5220  -69.8530   23.2680 O.2       1 VAL        -0.3944
    114 CB         79.1340  -66.8990   23.5820 C.3       1 VAL        -0.0063
    115 CG1        80.1150  -65.7490   23.2770 C.3       1 VAL        -0.0584
    116 CG2        77.8620  -66.3980   24.2690 C.3       1 VAL        -0.0584
    117 N          76.7500  -68.9610   22.2060 N.am      1 TRP        -0.2684
    118 CA         75.8890  -70.1250   22.3970 C.3       1 TRP         0.0986
    119 C          74.7210  -70.1010   21.4140 C.2       1 TRP         0.0613
    120 O          73.8810  -70.9970   21.3880 O.co2     1 TRP        -0.5665
    121 CB         75.4050  -70.1980   23.8500 C.3       1 TRP        -0.0013
    122 CG         74.5440  -69.0310   24.2960 C.2       1 TRP        -0.0424
    123 CD1        74.2460  -67.8870   23.5970 C.2       1 TRP         0.0166
    124 CD2        73.8550  -68.9280   25.5460 C.ar      1 TRP        -0.0214
    125 NE1        73.4200  -67.0740   24.3570 N.pl3     1 TRP        -0.2891
    126 CE2        73.1730  -67.6910   25.5470 C.ar      1 TRP         0.0603
    127 CE3        73.7670  -69.7580   26.6620 C.ar      1 TRP        -0.0747
    128 CZ2        72.3970  -67.2790   26.6410 C.ar      1 TRP        -0.0443
    129 CZ3        72.9990  -69.3380   27.7480 C.ar      1 TRP        -0.0792
    130 CH2        72.3300  -68.1110   27.7260 C.ar      1 TRP        -0.0768
    131 OXT        74.5740  -69.1850   20.6090 O.co2     1 TRP        -0.5665
    132 H1         54.6561  -74.4547   18.0991 H         1 HIS         0.2016
    133 H2         55.6413  -74.5203   19.4160 H         1 HIS         0.2016
    134 H3         55.3372  -75.8847   18.5469 H         1 HIS         0.2016
    135 H4         56.4419  -75.0250   16.6437 H         1 HIS         0.1116
    136 H5         57.7205  -72.9292   16.8493 H         1 HIS         0.0453
    137 H6         57.0619  -72.6822   18.5022 H         1 HIS         0.0453
    138 H7         54.6317  -71.3935   18.5835 H         1 HIS         0.0729
    139 H8         53.8647  -71.4215   14.3915 H         1 HIS         0.1199
    140 H9         53.0632  -70.5567   16.6602 H         1 HIS         0.2361
    141 H10        58.6103  -75.5607   16.3577 H         1 GLU         0.1885
    142 H11        59.9089  -76.9839   18.5046 H         1 GLU         0.0801
    143 H12        60.2768  -77.5314   16.1159 H         1 GLU         0.0330
    144 H13        61.8167  -77.1385   16.9531 H         1 GLU         0.0330
    145 H14        61.7482  -74.8637   15.9874 H         1 GLU         0.0433
    146 H15        60.2262  -75.2822   15.1301 H         1 GLU         0.0433
    147 H16        61.6750  -76.2946   19.7842 H         1 ASN         0.1883
    148 H17        62.2575  -73.4540   19.9806 H         1 ASN         0.0797
    149 H18        64.1389  -74.1531   21.4177 H         1 ASN         0.0277
    150 H19        63.8682  -75.8670   20.9533 H         1 ASN         0.0277
    151 H20        62.6207  -74.9845   21.8977 H         1 ASN         0.0277
    152 H21        63.1708  -72.4382   18.3332 H         1 ILE         0.1883
    153 H22        64.2323  -73.7049   16.0623 H         1 ILE         0.0803
    154 H23        64.6697  -70.8507   17.0644 H         1 ILE         0.0345
    155 H24        62.9037  -70.3485   15.3320 H         1 ILE         0.0267
    156 H25        62.3449  -71.2495   16.7820 H         1 ILE         0.0267
    157 H26        66.3943  -71.5348   15.4365 H         1 ILE         0.0235
    158 H27        65.2786  -70.3028   14.7555 H         1 ILE         0.0235
    159 H28        65.1068  -72.0279   14.2851 H         1 ILE         0.0235
    160 H29        61.3153  -72.1220   14.7305 H         1 ILE         0.0230
    161 H30        62.3831  -73.3495   15.4919 H         1 ILE         0.0230
    162 H31        62.9419  -72.4485   14.0418 H         1 ILE         0.0230
    163 H32        66.0973  -74.5605   15.5777 H         1 ASP         0.1884
    164 H33        68.4107  -74.1121   17.4017 H         1 ASP         0.0819
    165 H34        67.6261  -76.4221   15.5707 H         1 ASP         0.0478
    166 H35        67.7204  -76.4152   17.3645 H         1 ASP         0.0478
    167 H36        70.0622  -72.9580   16.6581 H         1 TRP         0.1884
    168 H37        70.0788  -72.3271   13.7705 H         1 TRP         0.0815
    169 H38        71.6952  -70.5296   14.4112 H         1 TRP         0.0397
    170 H39        71.5275  -71.0497   16.1223 H         1 TRP         0.0397
    171 H40        69.1029  -70.5835   17.3082 H         1 TRP         0.0795
    172 H41        67.2560  -68.8156   16.8188 H         1 TRP         0.2216
    173 H42        70.5687  -69.2645   12.5788 H         1 TRP         0.0540
    174 H43        66.5619  -67.1275   14.6728 H         1 TRP         0.0541
    175 H44        69.2563  -67.5619   11.3691 H         1 TRP         0.0510
    176 H45        67.2847  -66.5114   12.4046 H         1 TRP         0.0530
    177 H46        71.3326  -74.8350   15.2396 H         1 GLY         0.1881
    178 H47        73.3731  -75.1341   13.2301 H         1 GLY         0.0763
    179 H48        73.0136  -76.2791   14.5666 H         1 GLY         0.0763
    180 H49        75.6457  -75.4256   13.4915 H         1 GLU         0.1883
    181 H50        76.9622  -75.1407   16.0177 H         1 GLU         0.0801
    182 H51        78.1092  -74.6143   13.2437 H         1 GLU         0.0330
    183 H52        77.9785  -76.2260   14.0261 H         1 GLU         0.0330
    184 H53        79.6025  -73.8736   15.0919 H         1 GLU         0.0433
    185 H54        80.2619  -75.2545   14.1512 H         1 GLU         0.0433
    186 H55        76.6265  -70.7220   16.4810 H         1 PRO         0.0802
    187 H56        77.5666  -70.2453   18.6159 H         1 PRO         0.0313
    188 H57        79.0223  -71.2510   18.3057 H         1 PRO         0.0313
    189 H58        76.1988  -72.1276   19.0238 H         1 PRO         0.0287
    190 H59        77.7643  -72.6708   19.7172 H         1 PRO         0.0287
    191 H60        78.2383  -74.0662   17.8872 H         1 PRO         0.0524
    192 H61        76.4447  -74.1168   17.8026 H         1 PRO         0.0524
    193 H62        77.7436  -68.9858   15.6398 H         1 LYS         0.1883
    194 H63        80.3255  -69.6423   14.2829 H         1 LYS         0.0800
    195 H64        79.5378  -68.3374   12.3434 H         1 LYS         0.0312
    196 H65        77.9663  -68.0546   13.1663 H         1 LYS         0.0312
    197 H66        77.4271  -69.7852   11.7395 H         1 LYS         0.0269
    198 H67        77.8670  -70.6889   13.2283 H         1 LYS         0.0269
    199 H68        78.9158  -71.7338   11.2911 H         1 LYS         0.0317
    200 H69        80.1739  -70.9804   12.3285 H         1 LYS         0.0317
    201 H70        80.2697  -69.0333   10.8528 H         1 LYS         0.0813
    202 H71        78.9416  -69.7027    9.8454 H         1 LYS         0.0813
    203 H72        81.0978  -70.1058    8.8720 H         1 LYS         0.1994
    204 H73        80.3937  -71.5358    9.2829 H         1 LYS         0.1994
    205 H74        81.6108  -70.9224   10.2060 H         1 LYS         0.1994
    206 H75        81.8317  -68.0365   14.1819 H         1 ASP         0.1884
    207 H76        82.8836  -66.0153   14.5196 H         1 ASP         0.0819
    208 H77        80.0391  -64.9352   14.1995 H         1 ASP         0.0478
    209 H78        81.1751  -65.3038   12.8578 H         1 ASP         0.0478
    210 H79        80.6444  -63.9672   15.8280 H         1 LYS         0.1883
    211 H80        81.8665  -64.4177   18.4616 H         1 LYS         0.0800
    212 H81        80.9248  -62.1887   19.0648 H         1 LYS         0.0312
    213 H82        80.2474  -62.0735   17.4051 H         1 LYS         0.0312
    214 H83        82.5356  -62.2422   16.4615 H         1 LYS         0.0269
    215 H84        83.2110  -62.3517   18.1224 H         1 LYS         0.0269
    216 H85        83.4679  -60.0805   17.3249 H         1 LYS         0.0317
    217 H86        82.2184  -60.1014   18.6152 H         1 LYS         0.0317
    218 H87        81.4986  -58.6734   16.7754 H         1 LYS         0.0813
    219 H88        80.4507  -60.1291   16.8737 H         1 LYS         0.0813
    220 H89        81.0906  -59.6348   14.6003 H         1 LYS         0.1994
    221 H90        81.7310  -61.0807   15.0572 H         1 LYS         0.1994
    222 H91        82.6913  -59.7468   14.9671 H         1 LYS         0.1994
    223 H92        79.1564  -65.7053   17.1587 H         1 GLU         0.1883
    224 H93        77.3175  -65.3925   19.3697 H         1 GLU         0.0801
    225 H94        76.2549  -67.4298   18.5555 H         1 GLU         0.0330
    226 H95        77.6952  -67.8193   17.5552 H         1 GLU         0.0330
    227 H96        77.2627  -65.6825   16.2837 H         1 GLU         0.0433
    228 H97        75.7083  -65.5537   17.1747 H         1 GLU         0.0433
    229 H98        77.5327  -66.1597   21.4559 H         1 VAL         0.1883
    230 H99        79.7710  -68.0381   21.8856 H         1 VAL         0.0802
    231 H100       79.6343  -67.5884   24.2780 H         1 VAL         0.0343
    232 H101       80.3354  -65.1995   24.2041 H         1 VAL         0.0234
    233 H102       79.6618  -65.0651   22.5443 H         1 VAL         0.0234
    234 H103       81.0476  -66.1621   22.8652 H         1 VAL         0.0234
    235 H104       77.1931  -67.2485   24.4673 H         1 VAL         0.0234
    236 H105       77.3522  -65.6754   23.6148 H         1 VAL         0.0234
    237 H106       78.1261  -65.9101   25.2188 H         1 VAL         0.0234
    238 H107       76.3801  -68.1564   21.7415 H         1 TRP         0.1876
    239 H108       76.4836  -71.0275   22.1924 H         1 TRP         0.0741
    240 H109       76.2892  -70.2394   24.5030 H         1 TRP         0.0390
    241 H110       74.8180  -71.1206   23.9687 H         1 TRP         0.0390
    242 H111       74.6049  -67.6537   22.5957 H         1 TRP         0.0795
    243 H112       73.0533  -66.1553   24.0700 H         1 TRP         0.2216
    244 H113       74.2846  -70.7102   26.6856 H         1 TRP         0.0540
    245 H114       71.8679  -66.3330   26.6275 H         1 TRP         0.0541
    246 H115       72.9198  -69.9732   28.6228 H         1 TRP         0.0510
    247 H116       71.7447  -67.8114   28.5878 H         1 TRP         0.0530
@<TRIPOS>BOND
     1    1    2 1  
     2    2    3 1  
     3    2    5 1  
     4    3    4 2  
     5    3   11 am 
     6    5    6 1  
     7    6    7 1  
     8    6    8 2  
     9    7    9 2  
    10    8   10 1  
    11    9   10 1  
    12   11   12 1  
    13   12   13 1  
    14   12   15 1  
    15   13   14 2  
    16   13   20 am 
    17   15   16 1  
    18   16   17 1  
    19   17   18 ar 
    20   17   19 ar 
    21   20   21 1  
    22   21   22 1  
    23   21   24 1  
    24   22   23 2  
    25   22   25 am 
    26   25   26 1  
    27   26   27 1  
    28   26   29 1  
    29   27   28 2  
    30   27   33 am 
    31   29   30 1  
    32   29   31 1  
    33   30   32 1  
    34   33   34 1  
    35   34   35 1  
    36   34   37 1  
    37   35   36 2  
    38   35   41 am 
    39   37   38 1  
    40   38   39 ar 
    41   38   40 ar 
    42   41   42 1  
    43   42   43 1  
    44   42   45 1  
    45   43   44 2  
    46   43   55 am 
    47   45   46 1  
    48   46   47 2  
    49   46   48 1  
    50   47   49 1  
    51   48   50 ar 
    52   48   51 ar 
    53   49   50 1  
    54   50   52 ar 
    55   51   53 ar 
    56   52   54 ar 
    57   53   54 ar 
    58   55   56 1  
    59   56   57 1  
    60   57   58 2  
    61   57   59 am 
    62   59   60 1  
    63   60   61 1  
    64   60   63 1  
    65   61   62 2  
    66   61   68 am 
    67   63   64 1  
    68   64   65 1  
    69   65   66 ar 
    70   65   67 ar 
    71   68   69 1  
    72   68   74 1  
    73   69   70 1  
    74   69   72 1  
    75   70   71 2  
    76   70   75 am 
    77   72   73 1  
    78   73   74 1  
    79   75   76 1  
    80   76   77 1  
    81   76   79 1  
    82   77   78 2  
    83   77   84 am 
    84   79   80 1  
    85   80   81 1  
    86   81   82 1  
    87   82   83 1  
    88   84   85 1  
    89   85   86 1  
    90   85   88 1  
    91   86   87 2  
    92   86   92 am 
    93   88   89 1  
    94   89   90 ar 
    95   89   91 ar 
    96   92   93 1  
    97   93   94 1  
    98   93   96 1  
    99   94   95 2  
   100   94  101 am 
   101   96   97 1  
   102   97   98 1  
   103   98   99 1  
   104   99  100 1  
   105  101  102 1  
   106  102  103 1  
   107  102  105 1  
   108  103  104 2  
   109  103  110 am 
   110  105  106 1  
   111  106  107 1  
   112  107  108 ar 
   113  107  109 ar 
   114  110  111 1  
   115  111  112 1  
   116  111  114 1  
   117  112  113 2  
   118  112  117 am 
   119  114  115 1  
   120  114  116 1  
   121  117  118 1  
   122  118  119 1  
   123  118  121 1  
   124  119  120 ar 
   125  119  131 ar 
   126  121  122 1  
   127  122  123 2  
   128  122  124 1  
   129  123  125 1  
   130  124  126 ar 
   131  124  127 ar 
   132  125  126 1  
   133  126  128 ar 
   134  127  129 ar 
   135  128  130 ar 
   136  129  130 ar 
   137    1  132 1  
   138    1  133 1  
   139    1  134 1  
   140    2  135 1  
   141    5  136 1  
   142    5  137 1  
   143    8  138 1  
   144    9  139 1  
   145   10  140 1  
   146   11  141 1  
   147   12  142 1  
   148   15  143 1  
   149   15  144 1  
   150   16  145 1  
   151   16  146 1  
   152   20  147 1  
   153   21  148 1  
   154   24  149 1  
   155   24  150 1  
   156   24  151 1  
   157   25  152 1  
   158   26  153 1  
   159   29  154 1  
   160   30  155 1  
   161   30  156 1  
   162   31  157 1  
   163   31  158 1  
   164   31  159 1  
   165   32  160 1  
   166   32  161 1  
   167   32  162 1  
   168   33  163 1  
   169   34  164 1  
   170   37  165 1  
   171   37  166 1  
   172   41  167 1  
   173   42  168 1  
   174   45  169 1  
   175   45  170 1  
   176   47  171 1  
   177   49  172 1  
   178   51  173 1  
   179   52  174 1  
   180   53  175 1  
   181   54  176 1  
   182   55  177 1  
   183   56  178 1  
   184   56  179 1  
   185   59  180 1  
   186   60  181 1  
   187   63  182 1  
   188   63  183 1  
   189   64  184 1  
   190   64  185 1  
   191   69  186 1  
   192   72  187 1  
   193   72  188 1  
   194   73  189 1  
   195   73  190 1  
   196   74  191 1  
   197   74  192 1  
   198   75  193 1  
   199   76  194 1  
   200   79  195 1  
   201   79  196 1  
   202   80  197 1  
   203   80  198 1  
   204   81  199 1  
   205   81  200 1  
   206   82  201 1  
   207   82  202 1  
   208   83  203 1  
   209   83  204 1  
   210   83  205 1  
   211   84  206 1  
   212   85  207 1  
   213   88  208 1  
   214   88  209 1  
   215   92  210 1  
   216   93  211 1  
   217   96  212 1  
   218   96  213 1  
   219   97  214 1  
   220   97  215 1  
   221   98  216 1  
   222   98  217 1  
   223   99  218 1  
   224   99  219 1  
   225  100  220 1  
   226  100  221 1  
   227  100  222 1  
   228  101  223 1  
   229  102  224 1  
   230  105  225 1  
   231  105  226 1  
   232  106  227 1  
   233  106  228 1  
   234  110  229 1  
   235  111  230 1  
   236  114  231 1  
   237  115  232 1  
   238  115  233 1  
   239  115  234 1  
   240  116  235 1  
   241  116  236 1  
   242  116  237 1  
   243  117  238 1  
   244  118  239 1  
   245  121  240 1  
   246  121  241 1  
   247  123  242 1  
   248  125  243 1  
   249  127  244 1  
   250  128  245 1  
   251  129  246 1  
   252  130  247 1  
@<TRIPOS>SUBSTRUCTURE
     1 HIS         1

