2g9q_ligand
  -I-interpret- 

 21 21  0  0  0  0  0  0  0  0999 V2000
   31.1450   20.9550   25.4890 O   0  0  0  0  0
   32.5080   21.3430   25.7380 C   0  0  0  0  0
   32.7700   22.7760   25.2790 C   0  0  0  0  0
   33.1520   22.7920   23.9180 O   0  0  0  0  0
   33.9500   23.2260   26.1610 C   0  0  0  0  0
   34.0930   22.1650   27.1970 N   0  3  0  0  0
   32.7660   21.5110   27.2460 C   0  0  0  0  0
   32.8110   20.1940   28.0390 C   0  0  0  0  0
   33.7580   19.2940   27.4420 O   0  0  0  0  0
   31.0090   20.8567   24.5438 H   0  0  0  0  0
   33.1054   20.5789   25.2407 H   0  0  0  0  0
   31.8944   23.4188   25.3698 H   0  0  0  0  0
   32.4116   22.5105   23.3757 H   0  0  0  0  0
   33.7664   24.2025   26.6093 H   0  0  0  0  0
   34.8639   23.3442   25.5789 H   0  0  0  0  0
   34.3627   22.5495   28.1024 H   0  0  0  0  0
   34.8357   21.5047   26.9671 H   0  0  0  0  0
   31.9768   22.0561   27.7637 H   0  0  0  0  0
   31.8227   19.7344   28.0277 H   0  0  0  0  0
   33.1125   20.4032   29.0654 H   0  0  0  0  0
   33.7795   18.4754   27.9430 H   0  0  0  0  0
  1  2  1  0  0  0
  2  3  1  0  0  0
  2  7  1  0  0  0
  3  4  1  0  0  0
  3  5  1  0  0  0
  5  6  1  0  0  0
  6  7  1  0  0  0
  7  8  1  0  0  0
  8  9  1  0  0  0
  1 10  1  0  0  0
  2 11  1  0  0  0
  3 12  1  0  0  0
  4 13  1  0  0  0
  5 14  1  0  0  0
  5 15  1  0  0  0
  6 16  1  0  0  0
  6 17  1  0  0  0
  7 18  1  0  0  0
  8 19  1  0  0  0
  8 20  1  0  0  0
  9 21  1  0  0  0
M  END
$$$$
