5vqe_ligand
  -I-interpret- 

 22 22  0  0  0  0  0  0  0  0999 V2000
   42.4100   64.4770   61.6060 C   0  0  0  0  0
   43.5190   63.9820   60.6220 C   0  0  0  0  0
   44.7890   63.6480   61.4600 C   0  0  0  0  0
   45.1780   64.9060   62.2960 C   0  0  0  0  0
   43.9550   65.2920   63.1960 C   0  0  0  0  0
   44.2560   66.6080   64.0180 C   0  0  0  0  0
   45.8460   63.4340   60.5620 O   0  0  0  0  0
   46.2160   64.5290   63.1610 O   0  0  0  0  0
   42.8550   65.5840   62.3510 O   0  0  0  0  0
   44.6880   67.5970   63.1270 O   0  0  0  0  0
   43.1080   62.8630   59.9860 F   0  0  0  0  0
   42.1662   63.6675   62.2940 H   0  0  0  0  0
   41.5356   64.7738   61.0268 H   0  0  0  0  0
   43.7299   64.7535   59.8815 H   0  0  0  0  0
   44.6027   62.7843   62.0983 H   0  0  0  0  0
   45.4666   65.7307   61.6443 H   0  0  0  0  0
   43.7513   64.4644   63.8755 H   0  0  0  0  0
   45.0281   66.4140   64.7625 H   0  0  0  0  0
   43.3550   66.9393   64.5343 H   0  0  0  0  0
   45.6536   62.6650   60.0205 H   0  0  0  0  0
   46.9877   64.2839   62.6453 H   0  0  0  0  0
   44.8751   68.4038   63.6124 H   0  0  0  0  0
  1  2  1  0  0  0
  1  9  1  0  0  0
  2  3  1  0  0  0
  2 11  1  0  0  0
  3  4  1  0  0  0
  3  7  1  0  0  0
  4  5  1  0  0  0
  4  8  1  0  0  0
  5  6  1  0  0  0
  5  9  1  0  0  0
  6 10  1  0  0  0
  1 12  1  0  0  0
  1 13  1  0  0  0
  2 14  1  0  0  0
  3 15  1  0  0  0
  4 16  1  0  0  0
  5 17  1  0  0  0
  6 18  1  0  0  0
  6 19  1  0  0  0
  7 20  1  0  0  0
  8 21  1  0  0  0
 10 22  1  0  0  0
M  END
$$$$
