6u5y_ligand
  -I-interpret- 

 47 49  0  0  0  0  0  0  0  0999 V2000
   -4.8090   -4.7220   -2.7600 C   0  0  0  0  0
   -2.8150   -7.7010   -1.5960 C   0  0  0  0  0
   -8.7240   -6.8880   -5.6140 C   0  0  0  0  0
   -7.1980   -7.3940   -4.1600 C   0  0  0  0  0
   -5.0320   -2.9550    2.5430 C   0  0  0  0  0
   -6.2820   -3.2160    2.0080 C   0  0  0  0  0
   -6.5340   -3.0620    0.6610 C   0  0  0  0  0
   -5.5020   -2.6410   -0.1790 C   0  0  0  0  0
   -4.2500   -2.3870    0.3390 C   0  0  0  0  0
   -4.0450   -2.5580    1.6930 C   0  0  0  0  0
   -4.9740   -7.5140   -2.8550 C   0  0  0  0  0
   -3.8820   -6.9040   -2.2080 C   0  0  0  0  0
   -3.8070   -5.4960   -2.1830 C   0  0  0  0  0
   -5.8840   -5.3410   -3.3790 C   0  0  0  0  0
   -5.9970   -6.7380   -3.4340 C   0  0  0  0  0
   -1.9320   -9.8350   -0.7240 C   0  0  0  0  0
   -7.2140   -7.2260   -5.7130 C   0  0  0  0  0
   -8.5330   -6.5870   -4.0970 C   0  0  0  0  0
   -7.3760   -8.8150   -3.7940 C   0  0  0  0  0
   -4.6850   -3.3200   -2.7320 N   0  0  0  0  0
   -3.0010   -9.0290   -1.3360 N   0  0  0  0  0
   -7.5430   -9.9140   -3.5360 N   0  0  0  0  0
   -3.2450   -2.0000   -0.5020 O   0  0  0  0  0
   -7.1390   -2.8480   -2.2060 O   0  0  0  0  0
   -5.5250   -1.0480   -2.2360 O   0  0  0  0  0
   -2.7640   -4.8090   -1.5820 O   0  0  0  0  0
   -1.7140   -7.2180   -1.3130 O   0  0  0  0  0
   -5.8120   -2.3990   -1.9220 S   0  0  0  0  0
   -7.6670   -3.7740    3.1410 Br  0  0  0  0  0
   -2.5070   -2.2740    2.3710 Cl  0  0  0  0  0
   -9.4745   -7.6057   -5.9454 H   0  0  0  0  0
   -9.1686   -6.1432   -6.2741 H   0  0  0  0  0
   -4.8438   -3.0639    3.6111 H   0  0  0  0  0
   -7.5258   -3.2663    0.2577 H   0  0  0  0  0
   -5.0283   -8.6013   -2.9084 H   0  0  0  0  0
   -6.6608   -4.7267   -3.8343 H   0  0  0  0  0
   -1.0536   -9.8212   -1.3693 H   0  0  0  0  0
   -1.6758   -9.4172    0.2496 H   0  0  0  0  0
   -2.2778  -10.8613   -0.6007 H   0  0  0  0  0
   -6.5190   -6.5505   -6.2118 H   0  0  0  0  0
   -6.8586   -8.0219   -6.3674 H   0  0  0  0  0
   -9.3077   -6.8346   -3.3713 H   0  0  0  0  0
   -8.5568   -5.5654   -3.7176 H   0  0  0  0  0
   -3.9044   -2.8678   -3.2081 H   0  0  0  0  0
   -3.8919   -9.4677   -1.5689 H   0  0  0  0  0
   -2.4410   -1.8622    0.0041 H   0  0  0  0  0
   -2.1350   -5.4374   -1.2199 H   0  0  0  0  0
  1 13  4  0  0  0
  1 14  4  0  0  0
 20  1  1  0  0  0
 12  2  1  0  0  0
  2 21  1  0  0  0
  2 27  2  0  0  0
 17  3  1  0  0  0
 18  3  1  0  0  0
 15  4  1  0  0  0
  4 17  1  0  0  0
  4 18  1  0  0  0
  4 19  1  0  0  0
  6  5  4  0  0  0
 10  5  4  0  0  0
  7  6  4  0  0  0
  6 29  1  0  0  0
  8  7  4  0  0  0
  8  9  4  0  0  0
 28  8  1  0  0  0
  9 10  4  0  0  0
  9 23  1  0  0  0
 10 30  1  0  0  0
 12 11  4  0  0  0
 15 11  4  0  0  0
 13 12  4  0  0  0
 13 26  1  0  0  0
 14 15  4  0  0  0
 21 16  1  0  0  0
 19 22  3  0  0  0
 20 28  1  0  0  0
 28 24  2  0  0  0
 28 25  2  0  0  0
  3 31  1  0  0  0
  3 32  1  0  0  0
  5 33  1  0  0  0
  7 34  1  0  0  0
 11 35  1  0  0  0
 14 36  1  0  0  0
 16 37  1  0  0  0
 16 38  1  0  0  0
 16 39  1  0  0  0
 17 40  1  0  0  0
 17 41  1  0  0  0
 18 42  1  0  0  0
 18 43  1  0  0  0
 20 44  1  0  0  0
 21 45  1  0  0  0
 23 46  1  0  0  0
 26 47  1  0  0  0
M  END
$$$$
