5n0d_ligand
  -I-interpret- 

 50 53  0  0  0  0  0  0  0  0999 V2000
   -4.5230    3.2400   13.6140 C   0  0  0  0  0
   -4.6560    2.1870   14.5160 C   0  0  0  0  0
   -5.5350    2.3240   15.5850 C   0  0  0  0  0
   -5.9210    0.9610   16.6670 S   0  0  0  0  0
   -7.3500    0.8830   16.6690 O   0  0  0  0  0
   -5.2600    1.1700   17.9190 O   0  0  0  0  0
   -5.3770   -0.3960   16.0110 N   0  0  0  0  0
   -6.2480    3.5030   15.7650 C   0  0  0  0  0
   -6.0920    4.5540   14.8680 C   0  0  0  0  0
   -5.2450    4.4150   13.7770 C   0  0  0  0  0
   -5.1400    5.4730   12.7140 C   0  0  0  0  0
   -6.2640    5.8060   12.3820 O   0  0  0  0  0
   -3.9880    6.0150   12.3030 N   0  0  0  0  0
   -3.8560    6.8470   11.0980 C   0  0  0  0  0
   -3.2450    6.0130    9.9840 C   0  0  0  0  0
   -1.9670    5.3590   10.4200 C   0  0  0  0  0
   -1.0110    4.9610    9.4940 C   0  0  0  0  0
    0.1570    4.3090    9.8740 C   0  0  0  0  0
    1.1350    3.9330    8.9920 O   0  0  0  0  0
    0.3670    4.0410   11.2210 C   0  0  0  0  0
    1.5780    3.4950   11.5560 O   0  0  0  0  0
   -0.5860    4.4240   12.1590 C   0  0  0  0  0
   -1.7420    5.0900   11.7690 C   0  0  0  0  0
   -2.6910    5.5740   12.8820 C   0  0  0  0  0
   -2.1000    6.7680   13.6300 C   0  0  0  0  0
   -2.5450    7.0650   14.9330 C   0  0  0  0  0
   -2.0600    8.1690   15.6230 C   0  0  0  0  0
   -1.1220    8.9990   15.0430 C   0  0  0  0  0
   -0.6800    8.7320   13.7640 C   0  0  0  0  0
   -1.1690    7.6270   13.0580 C   0  0  0  0  0
   -3.8426    3.1404   12.7683 H   0  0  0  0  0
   -4.0805    1.2705   14.3861 H   0  0  0  0  0
   -6.0345   -1.1078   15.6925 H   0  0  0  0  0
   -4.3733   -0.5479   15.9119 H   0  0  0  0  0
   -6.9297    3.6040   16.6095 H   0  0  0  0  0
   -6.6347    5.4868   15.0215 H   0  0  0  0  0
   -3.2144    7.7021   11.3107 H   0  0  0  0  0
   -4.8380    7.2069   10.7909 H   0  0  0  0  0
   -3.0255    6.6704    9.1427 H   0  0  0  0  0
   -3.9547    5.2326    9.7096 H   0  0  0  0  0
   -1.1816    5.1661    8.4372 H   0  0  0  0  0
    1.8466    3.5009    9.4701 H   0  0  0  0  0
    1.6123    3.3532   12.5049 H   0  0  0  0  0
   -0.4242    4.1990   13.2132 H   0  0  0  0  0
   -2.8344    4.7362   13.5644 H   0  0  0  0  0
   -3.2823    6.4178   15.4080 H   0  0  0  0  0
   -2.4225    8.3811   16.6288 H   0  0  0  0  0
   -0.7340    9.8578   15.5908 H   0  0  0  0  0
    0.0566    9.3873   13.2991 H   0  0  0  0  0
   -0.8146    7.4373   12.0448 H   0  0  0  0  0
  1  2  4  0  0  0
  1 10  4  0  0  0
  2  3  4  0  0  0
  3  4  1  0  0  0
  3  8  4  0  0  0
  4  5  2  0  0  0
  4  6  2  0  0  0
  4  7  1  0  0  0
  8  9  4  0  0  0
  9 10  4  0  0  0
 10 11  1  0  0  0
 11 12  2  0  0  0
 11 13  1  0  0  0
 13 14  1  0  0  0
 13 24  1  0  0  0
 14 15  1  0  0  0
 15 16  1  0  0  0
 16 17  4  0  0  0
 16 23  4  0  0  0
 17 18  4  0  0  0
 18 19  1  0  0  0
 18 20  4  0  0  0
 20 21  1  0  0  0
 20 22  4  0  0  0
 22 23  4  0  0  0
 23 24  1  0  0  0
 24 25  1  0  0  0
 25 26  4  0  0  0
 25 30  4  0  0  0
 26 27  4  0  0  0
 27 28  4  0  0  0
 28 29  4  0  0  0
 29 30  4  0  0  0
  1 31  1  0  0  0
  2 32  1  0  0  0
  7 33  1  0  0  0
  7 34  1  0  0  0
  8 35  1  0  0  0
  9 36  1  0  0  0
 14 37  1  0  0  0
 14 38  1  0  0  0
 15 39  1  0  0  0
 15 40  1  0  0  0
 17 41  1  0  0  0
 19 42  1  0  0  0
 21 43  1  0  0  0
 22 44  1  0  0  0
 24 45  1  0  0  0
 26 46  1  0  0  0
 27 47  1  0  0  0
 28 48  1  0  0  0
 29 49  1  0  0  0
 30 50  1  0  0  0
M  END
$$$$
