5vc4_ligand
  -I-interpret- 

 67 70  0  0  0  0  0  0  0  0999 V2000
   -4.1190    7.5390    9.2500 C   0  0  0  0  0
   -1.1650   -2.0110   11.3820 O   0  0  0  0  0
   -9.0110    9.8990   10.7140 C   0  0  0  0  0
   -2.6510    1.4260   15.0750 N   0  0  0  0  0
   -4.0530   -1.6740   12.1760 Cl  0  0  0  0  0
    0.9020    0.0850   10.8210 Cl  0  0  0  0  0
   -3.2470    2.3200   14.6710 C   0  0  0  0  0
   -4.7960    3.9540   15.1120 C   0  0  0  0  0
   -6.3200    6.6290   13.2040 C   0  0  0  0  0
   -4.6510    5.5410   11.2150 C   0  0  0  0  0
   -8.9630    9.7670   12.2610 C   0  0  0  0  0
   -7.9310    8.7200   12.7480 C   0  0  0  0  0
  -10.6360   12.9340    7.5090 C   0  0  0  0  0
  -10.2060   12.0860   10.3830 C   0  0  0  0  0
  -10.5530   10.2020    8.7910 C   0  0  0  0  0
  -11.4850   12.7620    9.8310 C   0  0  0  0  0
  -11.8300   10.8980    8.2680 C   0  0  0  0  0
   -5.5430    5.0110   14.7400 N   0  0  0  0  0
   -2.9970    3.2570   11.9150 N   0  0  0  0  0
   -5.4520    7.1920    9.6670 O   0  0  0  0  0
   -7.1130    8.2740   11.6450 O   0  0  0  0  0
   -1.6020   -0.7150   11.5060 C   0  0  0  0  0
   -2.9360   -0.4340   11.8730 C   0  0  0  0  0
   -1.1570    1.6900   11.3930 C   0  0  0  0  0
   -3.9240    3.3330   14.1970 C   0  0  0  0  0
   -2.4900    1.9860   11.7620 C   0  0  0  0  0
   -5.4700    6.6520   10.9230 C   0  0  0  0  0
   -6.3090    7.1990   11.9200 C   0  0  0  0  0
   -3.8400    3.8290   12.8510 C   0  0  0  0  0
   -5.5010    5.5250   13.4910 C   0  0  0  0  0
   -4.6460    4.9540   12.5050 C   0  0  0  0  0
  -10.2350   10.5990   10.2020 N   0  3  0  0  0
   -3.3670    0.9010   11.9880 C   0  0  0  0  0
  -11.6820   12.3750    8.4060 N   0  3  0  0  0
   -0.5600   -2.5380   12.5830 C   0  0  0  0  0
   -0.7120    0.3590   11.2650 C   0  0  0  0  0
   -3.7019    8.2704    9.9423 H   0  0  0  0  0
   -3.4964    6.6443    9.2461 H   0  0  0  0  0
   -4.1526    7.9642    8.2469 H   0  0  0  0  0
   -9.0184    8.8897   10.3024 H   0  0  0  0  0
   -8.1479   10.4923   10.4121 H   0  0  0  0  0
   -4.8670    3.5753   16.1316 H   0  0  0  0  0
   -6.9650    7.0442   13.9784 H   0  0  0  0  0
   -4.0114    5.1271   10.4354 H   0  0  0  0  0
   -9.9480    9.4432   12.5971 H   0  0  0  0  0
   -8.6706   10.7351   12.6677 H   0  0  0  0  0
   -8.4615    7.8649   13.1668 H   0  0  0  0  0
   -7.2917    9.1749   13.5046 H   0  0  0  0  0
  -10.6546   14.0224    7.5654 H   0  0  0  0  0
   -9.6578   12.5693    7.8223 H   0  0  0  0  0
  -10.8317   12.6186    6.4841 H   0  0  0  0  0
  -10.1414   12.2985   11.4501 H   0  0  0  0  0
   -9.3491   12.4795    9.8361 H   0  0  0  0  0
   -9.7182   10.4998    8.1566 H   0  0  0  0  0
  -10.7183    9.1248    8.7689 H   0  0  0  0  0
  -11.3802   13.8447    9.9003 H   0  0  0  0  0
  -12.3460   12.4383   10.4158 H   0  0  0  0  0
  -12.6901   10.5630    8.8477 H   0  0  0  0  0
  -11.9787   10.6439    7.2185 H   0  0  0  0  0
   -2.6890    3.9080   11.1927 H   0  0  0  0  0
   -0.4606    2.5070   11.2040 H   0  0  0  0  0
  -11.0027   10.2773   10.7915 H   0  0  0  0  0
   -4.4034    1.1031   12.2582 H   0  0  0  0  0
  -12.5573   12.7970    8.0960 H   0  0  0  0  0
    0.3029   -1.9285   12.8512 H   0  0  0  0  0
   -1.2876   -2.5168   13.3943 H   0  0  0  0  0
   -0.2403   -3.5651   12.4067 H   0  0  0  0  0
 20  1  1  0  0  0
 22  2  1  0  0  0
  2 35  1  0  0  0
 11  3  1  0  0  0
  3 32  1  0  0  0
  7  4  3  0  0  0
 23  5  1  0  0  0
 36  6  1  0  0  0
 25  7  1  0  0  0
 18  8  4  0  0  0
  8 25  4  0  0  0
 28  9  4  0  0  0
  9 30  4  0  0  0
 27 10  4  0  0  0
 10 31  4  0  0  0
 12 11  1  0  0  0
 21 12  1  0  0  0
 34 13  1  0  0  0
 14 16  1  0  0  0
 32 14  1  0  0  0
 15 17  1  0  0  0
 32 15  1  0  0  0
 16 34  1  0  0  0
 17 34  1  0  0  0
 30 18  4  0  0  0
 19 26  1  0  0  0
 29 19  1  0  0  0
 27 20  1  0  0  0
 28 21  1  0  0  0
 23 22  4  0  0  0
 36 22  4  0  0  0
 33 23  4  0  0  0
 26 24  4  0  0  0
 24 36  4  0  0  0
 25 29  4  0  0  0
 26 33  4  0  0  0
 27 28  4  0  0  0
 29 31  4  0  0  0
 30 31  4  0  0  0
  1 37  1  0  0  0
  1 38  1  0  0  0
  1 39  1  0  0  0
  3 40  1  0  0  0
  3 41  1  0  0  0
  8 42  1  0  0  0
  9 43  1  0  0  0
 10 44  1  0  0  0
 11 45  1  0  0  0
 11 46  1  0  0  0
 12 47  1  0  0  0
 12 48  1  0  0  0
 13 49  1  0  0  0
 13 50  1  0  0  0
 13 51  1  0  0  0
 14 52  1  0  0  0
 14 53  1  0  0  0
 15 54  1  0  0  0
 15 55  1  0  0  0
 16 56  1  0  0  0
 16 57  1  0  0  0
 17 58  1  0  0  0
 17 59  1  0  0  0
 19 60  1  0  0  0
 24 61  1  0  0  0
 32 62  1  0  0  0
 33 63  1  0  0  0
 34 64  1  0  0  0
 35 65  1  0  0  0
 35 66  1  0  0  0
 35 67  1  0  0  0
M  END
$$$$
