3gqz_ligand
  -I-interpret- 

 31 32  0  0  0  0  0  0  0  0999 V2000
  -37.1580   13.5970   16.4040 O   0  0  0  0  0
  -36.9260   13.6420   17.6020 C   0  0  0  0  0
  -37.7020   14.5660   18.4960 C   0  0  0  0  0
  -35.8430   12.7700   18.1740 C   0  0  0  0  0
  -35.5760   12.7760   19.5440 C   0  0  0  0  0
  -34.5690   11.9670   20.0620 C   0  0  0  0  0
  -35.0950   11.9500   17.3260 C   0  0  0  0  0
  -34.0860   11.1390   17.8410 C   0  0  0  0  0
  -33.8260   11.1500   19.2110 C   0  0  0  0  0
  -32.8160   10.3450   19.7500 N   0  0  0  0  0
  -32.9860    9.0460   19.9330 C   0  0  0  0  0
  -33.9690    8.3770   19.6320 O   0  0  0  0  0
  -31.5480   10.9320   20.1440 C   0  0  0  0  0
  -30.7960    9.6770   20.6010 C   0  0  0  0  0
  -31.7540    8.4810   20.5950 C   0  0  0  0  0
  -30.1750    9.8910   21.9570 C   0  0  0  0  0
  -30.0970   11.0500   22.4210 O   0  0  0  0  0
  -29.7250    8.8930   22.5690 O   0  0  0  0  0
  -37.5579   15.5948   18.1660 H   0  0  0  0  0
  -38.7610   14.3124   18.4471 H   0  0  0  0  0
  -37.3484   14.4591   19.5215 H   0  0  0  0  0
  -36.1569   13.4151   20.2090 H   0  0  0  0  0
  -34.3614   11.9721   21.1320 H   0  0  0  0  0
  -35.3018   11.9446   16.2558 H   0  0  0  0  0
  -33.5035   10.5000   17.1773 H   0  0  0  0  0
  -31.6308   11.7068   20.9062 H   0  0  0  0  0
  -31.0479   11.4904   19.3527 H   0  0  0  0  0
  -29.9808    9.4681   19.9083 H   0  0  0  0  0
  -31.3494    7.6149   20.0714 H   0  0  0  0  0
  -31.9498    8.0881   21.5927 H   0  0  0  0  0
  -29.8825    8.1020   22.0484 H   0  0  0  0  0
  1  2  2  0  0  0
  2  3  1  0  0  0
  2  4  1  0  0  0
  4  5  4  0  0  0
  4  7  4  0  0  0
  5  6  4  0  0  0
  6  9  4  0  0  0
  7  8  4  0  0  0
  8  9  4  0  0  0
  9 10  1  0  0  0
 10 11  1  0  0  0
 10 13  1  0  0  0
 11 12  2  0  0  0
 11 15  1  0  0  0
 13 14  1  0  0  0
 14 15  1  0  0  0
 14 16  1  0  0  0
 16 17  2  0  0  0
 16 18  1  0  0  0
  3 19  1  0  0  0
  3 20  1  0  0  0
  3 21  1  0  0  0
  5 22  1  0  0  0
  6 23  1  0  0  0
  7 24  1  0  0  0
  8 25  1  0  0  0
 13 26  1  0  0  0
 13 27  1  0  0  0
 14 28  1  0  0  0
 15 29  1  0  0  0
 15 30  1  0  0  0
 18 31  1  0  0  0
M  END
$$$$
