4zom_ligand
  -I-interpret- 

 65 69  0  0  0  0  0  0  0  0999 V2000
   45.7510  169.7330   -0.0140 C   0  0  0  0  0
   44.1660  171.2850    1.0590 C   0  0  0  0  0
   45.0540  175.5440    1.3240 O   0  0  0  0  0
   43.8680  175.6190    1.3190 C   0  0  0  0  0
   43.3020  177.0740    1.3520 C   0  0  0  0  0
   42.9860  174.5910    1.2500 N   0  0  0  0  0
   43.2940  173.2520    1.1270 C   0  0  0  0  0
   44.4670  172.5720    1.1630 C   0  0  0  0  0
   42.2430  172.4410    0.9090 N   0  0  0  0  0
   42.8960  171.2220    0.8410 N   0  0  0  0  0
   42.0850  170.0280    0.5950 C   0  0  0  0  0
   41.6390  170.2380   -0.7620 C   0  0  0  0  0
   40.8630  170.0450    1.5410 C   0  0  0  0  0
   45.0980  170.0870    1.0860 C   0  0  0  0  0
   46.6190  168.6390   -0.0900 C   0  0  0  0  0
   47.1440  168.3170   -1.3010 N   0  0  0  0  0
   47.3720  166.9080   -1.7410 C   0  0  0  0  0
   48.0670  167.1650   -3.1370 C   0  0  0  0  0
   49.3610  167.9930   -2.9640 C   0  0  0  0  0
   48.0660  168.6340   -3.4630 C   0  0  0  0  0
   47.2250  169.3310   -2.4010 C   0  0  0  0  0
   45.2280  169.4000    2.2600 C   0  0  0  0  0
   46.0360  168.2430    2.2610 C   0  0  0  0  0
   46.7540  167.8320    1.1040 C   0  0  0  0  0
   47.6460  166.8320    1.2360 N   0  0  0  0  0
   49.0340  167.1640    1.0260 C   0  0  0  0  0
   47.1840  165.6640    1.5740 C   0  0  0  0  0
   45.9640  165.3900    1.4460 O   0  0  0  0  0
   48.1790  164.6800    2.1380 C   0  0  0  0  0
   48.6030  164.6310    3.5550 C   0  0  0  0  0
   48.0040  165.4570    4.4060 F   0  0  0  0  0
   49.5260  163.7000    3.9790 C   0  0  0  0  0
   50.1440  162.8440    3.0520 C   0  0  0  0  0
   49.7940  162.8460    1.7310 C   0  0  0  0  0
   48.8230  163.7360    1.2950 C   0  0  0  0  0
   48.3350  163.9100   -0.3760 Cl  0  0  0  0  0
   45.6017  170.3313   -0.9128 H   0  0  0  0  0
   43.6447  177.5754    2.2571 H   0  0  0  0  0
   43.6550  177.6197    0.4770 H   0  0  0  0  0
   42.2126  177.0389    1.3448 H   0  0  0  0  0
   41.9959  174.8321    1.2934 H   0  0  0  0  0
   45.4645  173.0008    1.2589 H   0  0  0  0  0
   42.6133  169.0872    0.7497 H   0  0  0  0  0
   41.0639  171.1624   -0.8151 H   0  0  0  0  0
   42.5045  170.3087   -1.4207 H   0  0  0  0  0
   41.0130  169.4009   -1.0710 H   0  0  0  0  0
   41.2061  170.0499    2.5756 H   0  0  0  0  0
   40.2693  170.9388    1.3495 H   0  0  0  0  0
   40.2548  169.1582    1.3628 H   0  0  0  0  0
   46.4683  166.3008   -1.7930 H   0  0  0  0  0
   47.9628  166.3097   -1.0473 H   0  0  0  0  0
   47.7981  166.2501   -3.6649 H   0  0  0  0  0
   50.4174  167.9449   -3.2280 H   0  0  0  0  0
   50.1403  168.1679   -2.2222 H   0  0  0  0  0
   47.8623  169.2800   -4.3170 H   0  0  0  0  0
   47.6640  170.2725   -2.0709 H   0  0  0  0  0
   46.2433  169.6259   -2.7716 H   0  0  0  0  0
   44.7238  169.7349    3.1665 H   0  0  0  0  0
   46.1118  167.6491    3.1718 H   0  0  0  0  0
   49.1659  167.5449    0.0133 H   0  0  0  0  0
   49.3368  167.9258    1.7444 H   0  0  0  0  0
   49.6444  166.2713    1.1622 H   0  0  0  0  0
   49.7776  163.6273    5.0371 H   0  0  0  0  0
   50.9217  162.1616    3.3949 H   0  0  0  0  0
   50.2701  162.1593    1.0310 H   0  0  0  0  0
 14  1  4  0  0  0
  1 15  4  0  0  0
  8  2  4  0  0  0
  2 10  4  0  0  0
  2 14  1  0  0  0
  4  3  2  0  0  0
  4  5  1  0  0  0
  6  4  1  0  0  0
  7  6  1  0  0  0
  7  8  4  0  0  0
  7  9  4  0  0  0
  9 10  4  0  0  0
 10 11  1  0  0  0
 11 12  1  0  0  0
 11 13  1  0  0  0
 14 22  4  0  0  0
 15 16  1  0  0  0
 15 24  4  0  0  0
 16 17  1  0  0  0
 16 21  1  0  0  0
 17 18  1  0  0  0
 18 19  1  0  0  0
 18 20  1  0  0  0
 19 20  1  0  0  0
 20 21  1  0  0  0
 22 23  4  0  0  0
 23 24  4  0  0  0
 24 25  1  0  0  0
 25 26  1  0  0  0
 25 27  1  0  0  0
 27 28  2  0  0  0
 27 29  1  0  0  0
 29 30  4  0  0  0
 29 35  4  0  0  0
 30 31  1  0  0  0
 30 32  4  0  0  0
 32 33  4  0  0  0
 33 34  4  0  0  0
 34 35  4  0  0  0
 35 36  1  0  0  0
  1 37  1  0  0  0
  5 38  1  0  0  0
  5 39  1  0  0  0
  5 40  1  0  0  0
  6 41  1  0  0  0
  8 42  1  0  0  0
 11 43  1  0  0  0
 12 44  1  0  0  0
 12 45  1  0  0  0
 12 46  1  0  0  0
 13 47  1  0  0  0
 13 48  1  0  0  0
 13 49  1  0  0  0
 17 50  1  0  0  0
 17 51  1  0  0  0
 18 52  1  0  0  0
 19 53  1  0  0  0
 19 54  1  0  0  0
 20 55  1  0  0  0
 21 56  1  0  0  0
 21 57  1  0  0  0
 22 58  1  0  0  0
 23 59  1  0  0  0
 26 60  1  0  0  0
 26 61  1  0  0  0
 26 62  1  0  0  0
 32 63  1  0  0  0
 33 64  1  0  0  0
 34 65  1  0  0  0
M  END
$$$$
