### 
### Created by X-TOOL on Mon Sep 10 21:12:50 2018
### 

@<TRIPOS>MOLECULE
1me7_ligand
   32    33     1     0     0
SMALL
GAST_HUCK


@<TRIPOS>ATOM
      1 P          67.9570   55.3270   15.0290 P.3       1 RVP         0.2008
      2 O1P        67.6050   55.2900   13.5810 O.co2     1 RVP        -0.5537
      3 O2P        68.7780   54.1180   15.3490 O.co2     1 RVP        -0.5537
      4 O3P        68.7380   56.6180   15.4120 O.co2     1 RVP        -0.5537
      5 O5         66.7120   55.3560   16.0190 O.3       1 RVP        -0.2734
      6 C5         65.7430   54.3150   15.9530 C.3       1 RVP         0.1072
      7 C4         64.6780   54.5090   16.9890 C.3       1 RVP         0.1184
      8 O4         63.9380   55.7210   16.5760 O.3       1 RVP        -0.3342
      9 C3         63.5770   53.4750   17.1690 C.3       1 RVP         0.1151
     10 O3         63.9780   52.3190   17.8810 O.3       1 RVP        -0.3864
     11 C2         62.5040   54.2690   17.8410 C.3       1 RVP         0.1414
     12 O2         62.6530   54.3520   19.2400 O.3       1 RVP        -0.3834
     13 C1         62.6060   55.6090   17.1060 C.3       1 RVP         0.2177
     14 N9         61.6370   55.7460   15.9500 N.pl3     1 RVP        -0.1389
     15 C8         61.0760   54.8330   15.0700 C.2       1 RVP         0.1355
     16 N7         60.2850   55.3830   14.2140 N.2       1 RVP        -0.2689
     17 C5         60.2850   56.7130   14.4930 C.2       1 RVP         0.1768
     18 C6         59.5860   57.8200   13.8580 C.2       1 RVP         0.2242
     19 O6         58.8240   57.7520   12.8980 O.2       1 RVP        -0.3823
     20 N1         59.8480   59.1090   14.4510 N.am      1 RVP        -0.2984
     21 N4         61.1190   56.9760   15.5750 N.2       1 RVP        -0.1583
     22 H1         66.2402   53.3488   16.1243 H         1 RVP         0.0639
     23 H2         65.2795   54.3172   14.9554 H         1 RVP         0.0639
     24 H3         65.1755   54.6544   17.9592 H         1 RVP         0.0650
     25 H4         63.2224   53.1415   16.1826 H         1 RVP         0.0648
     26 H5         64.2712   52.5691   18.7493 H         1 RVP         0.2100
     27 H6         61.5228   53.8130   17.6431 H         1 RVP         0.0679
     28 H7         62.6339   53.4780   19.6118 H         1 RVP         0.2101
     29 H8         62.4178   56.4211   17.8237 H         1 RVP         0.1031
     30 H9         61.2820   53.7641   15.0991 H         1 RVP         0.1376
     31 H10        59.4106   59.9282   14.0801 H         1 RVP         0.1810
     32 H11        60.4669   59.1832   15.2329 H         1 RVP         0.1810
@<TRIPOS>BOND
     1    1    2 ar 
     2    1    3 ar 
     3    1    4 ar 
     4    1    5 1  
     5    5    6 1  
     6    6    7 1  
     7    7    8 1  
     8    7    9 1  
     9    8   13 1  
    10    9   10 1  
    11    9   11 1  
    12   11   12 1  
    13   11   13 1  
    14   13   14 1  
    15   14   15 1  
    16   14   21 1  
    17   15   16 2  
    18   16   17 1  
    19   17   18 1  
    20   17   21 2  
    21   18   19 2  
    22   18   20 am 
    23    6   22 1  
    24    6   23 1  
    25    7   24 1  
    26    9   25 1  
    27   10   26 1  
    28   11   27 1  
    29   12   28 1  
    30   13   29 1  
    31   15   30 1  
    32   20   31 1  
    33   20   32 1  
@<TRIPOS>SUBSTRUCTURE
     1 RVP         1

