4hs6_ligand
  -I-interpret- 

191193  0  0  0  0  0  0  0  0999 V2000
   47.6840   30.4200  -13.5990 N   0  3  0  0  0
   46.9130   29.3060  -13.0020 C   0  0  0  0  0
   47.8730   28.1520  -12.6790 C   0  0  0  0  0
   48.7170   27.7790  -13.5040 O   0  0  0  0  0
   45.7760   28.8950  -13.9570 C   0  0  0  0  0
   46.1290   28.9320  -15.4760 C   0  0  0  0  0
   46.1680   30.3340  -16.1240 C   0  0  0  0  0
   46.8760   31.2220  -15.6660 O   0  0  0  0  0
   45.4380   30.5040  -17.2330 N   0  0  0  0  0
   47.7680   27.6220  -11.4620 N   0  0  0  0  0
   48.5910   26.4860  -11.0460 C   0  0  0  0  0
   48.1450   25.2290  -11.7870 C   0  0  0  0  0
   46.9920   25.1130  -12.2140 O   0  0  0  0  0
   48.4920   26.2540   -9.5320 C   0  0  0  0  0
   48.9850   27.3930   -8.6320 C   0  0  0  0  0
   48.5950   27.1480   -7.1760 C   0  0  0  0  0
   50.4960   27.5670   -8.7550 C   0  0  0  0  0
   49.0890   24.3000  -11.9340 N   0  0  0  0  0
   48.8820   23.0150  -12.6030 C   0  0  0  0  0
   49.0240   21.9200  -11.5560 C   0  0  0  0  0
   49.8990   22.0040  -10.6990 O   0  0  0  0  0
   49.9600   22.7740  -13.6870 C   0  0  0  0  0
   50.0400   23.9510  -14.6620 C   0  0  0  0  0
   49.7020   21.4840  -14.4430 C   0  0  0  0  0
   48.7960   24.1760  -15.4370 C   0  0  0  0  0
   48.1910   20.8800  -11.6390 N   0  0  0  0  0
   48.3070   19.7560  -10.7190 C   0  0  0  0  0
   49.0220   18.5660  -11.3690 C   0  0  0  0  0
   48.6970   18.1620  -12.4890 O   0  0  0  0  0
   46.9310   19.3410  -10.1970 C   0  0  0  0  0
   47.0200   18.4450   -8.9780 C   0  0  0  0  0
   47.1170   17.2100   -9.1080 O   0  0  0  0  0
   47.0170   19.0500   -7.7780 N   0  0  0  0  0
   50.0080   18.0250  -10.6550 N   0  0  0  0  0
   50.7040   16.7920  -11.0590 C   0  0  0  0  0
   50.8040   15.8920   -9.8300 C   0  0  0  0  0
   51.2900   16.3120   -8.7830 O   0  0  0  0  0
   52.1160   17.0950  -11.6120 C   0  0  0  0  0
   52.0070   17.9390  -12.7680 O   0  0  0  0  0
   52.8310   15.8130  -12.0100 C   0  0  0  0  0
   50.2860   14.6670   -9.9420 N   0  0  0  0  0
   50.3760   13.6790   -8.8690 C   0  0  0  0  0
   49.8410   14.2020   -7.5350 C   0  0  0  0  0
   50.3420   13.8590   -6.4700 O   0  0  0  0  0
   51.8250   13.1900   -8.7150 C   0  0  0  0  0
   51.9340   11.9310   -7.8690 C   0  0  0  0  0
   51.0870   11.0340   -7.9510 O   0  0  0  0  0
   52.9710   11.8650   -7.0370 N   0  0  0  0  0
   48.8040   15.0390   -7.6080 N   0  0  0  0  0
   48.0880   15.4990   -6.4240 C   0  0  0  0  0
   48.4780   16.8810   -5.9360 C   0  0  0  0  0
   47.7420   17.4600   -5.1440 O   0  0  0  0  0
   49.6170   17.3960   -6.3790 N   0  0  0  0  0
   50.1150   18.6840   -5.8820 C   0  0  0  0  0
   50.0720   19.7700   -6.9470 C   0  0  0  0  0
   50.3750   19.5330   -8.1190 O   0  0  0  0  0
   51.5210   18.5120   -5.3220 C   0  0  0  0  0
   51.4670   17.7200   -4.1510 O   0  0  0  0  0
   49.6930   20.9740   -6.5230 N   0  0  0  0  0
   49.6020   22.1150   -7.4200 C   0  0  0  0  0
   50.9430   22.8350   -7.4520 C   0  0  0  0  0
   51.5740   22.9950   -6.4090 O   0  0  0  0  0
   48.4850   23.0620   -6.9620 C   0  0  0  0  0
   47.1100   22.4350   -6.9940 C   0  0  0  0  0
   46.4810   21.8030   -5.9660 C   0  0  0  0  0
   46.2000   22.3980   -8.1030 C   0  0  0  0  0
   45.2380   21.3620   -6.3610 N   0  0  0  0  0
   45.0450   21.7030   -7.6740 C   0  0  0  0  0
   46.2520   22.8620   -9.4220 C   0  0  0  0  0
   43.9450   21.4780   -8.5150 C   0  0  0  0  0
   45.1580   22.6380  -10.2510 C   0  0  0  0  0
   44.0290   21.9430   -9.8020 C   0  0  0  0  0
   51.3730   23.2250   -8.6540 N   0  0  0  0  0
   52.6700   23.8770   -8.8610 C   0  0  0  0  0
   52.5870   24.8870   -9.9940 C   0  0  0  0  0
   51.6260   24.9100  -10.7520 O   0  0  0  0  0
   53.7530   22.8290   -9.1710 C   0  0  0  0  0
   53.4050   21.9240  -10.3120 C   0  0  0  0  0
   53.8530   22.1420  -11.5970 N   0  0  0  0  0
   52.6530   20.7980  -10.3610 C   0  0  0  0  0
   53.3990   21.1840  -12.3820 C   0  0  0  0  0
   52.6670   20.3580  -11.6610 N   0  0  0  0  0
   53.6150   25.7230  -10.1120 N   0  0  0  0  0
   53.6470   26.6970  -11.1900 C   0  0  0  0  0
   53.9060   25.9930  -12.5250 C   0  0  0  0  0
   54.6930   25.0510  -12.5830 O   0  0  0  0  0
   54.7110   27.7850  -10.9380 C   0  0  0  0  0
   54.3630   28.5740   -9.6700 C   0  0  0  0  0
   54.8130   28.7250  -12.1320 C   0  0  0  0  0
   53.0410   29.3130   -9.7400 C   0  0  0  0  0
   53.2030   26.4490  -13.5660 N   0  0  0  0  0
   53.4150   26.0560  -14.9750 C   0  0  0  0  0
   52.1700   26.3320  -15.8160 C   0  0  0  0  0
   52.2610   26.5059  -17.0606 O   0  0  0  0  0
   53.8370   24.5850  -15.1460 C   0  0  0  0  0
   55.3160   24.4340  -15.4810 C   0  0  0  0  0
   55.7890   24.9540  -16.4930 O   0  0  0  0  0
   56.0470   23.7130  -14.6360 N   0  0  0  0  0
   51.0409   26.3863  -15.2595 O   0  0  0  0  0
   48.4358   30.6899  -12.9647 H   0  0  0  0  0
   48.0803   30.1188  -14.4893 H   0  0  0  0  0
   47.0652   31.2161  -13.7529 H   0  0  0  0  0
   46.4436   29.6119  -12.0670 H   0  0  0  0  0
   44.9702   29.6137  -13.8079 H   0  0  0  0  0
   45.5307   27.8597  -13.7203 H   0  0  0  0  0
   45.3422   28.3782  -15.9882 H   0  0  0  0  0
   47.1350   28.5225  -15.5681 H   0  0  0  0  0
   45.4600   31.3966  -17.7262 H   0  0  0  0  0
   44.8598   29.7410  -17.5849 H   0  0  0  0  0
   47.0972   28.0178  -10.8034 H   0  0  0  0  0
   49.6293   26.7103  -11.2905 H   0  0  0  0  0
   49.1324   25.3990   -9.3151 H   0  0  0  0  0
   47.4308   26.1344   -9.3136 H   0  0  0  0  0
   48.5036   28.3125   -8.9649 H   0  0  0  0  0
   47.5097   27.0846   -7.0976 H   0  0  0  0  0
   49.0405   26.2138   -6.8341 H   0  0  0  0  0
   48.9575   27.9714   -6.5606 H   0  0  0  0  0
   50.9923   26.6434   -8.4569 H   0  0  0  0  0
   50.7506   27.8005   -9.7888 H   0  0  0  0  0
   50.8207   28.3810   -8.1068 H   0  0  0  0  0
   50.0156   24.4973  -11.5559 H   0  0  0  0  0
   47.8984   23.0121  -13.0728 H   0  0  0  0  0
   50.9184   22.6862  -13.1752 H   0  0  0  0  0
   50.8309   23.7257  -15.3774 H   0  0  0  0  0
   50.2205   24.8491  -14.0713 H   0  0  0  0  0
   49.7170   20.6464  -13.7456 H   0  0  0  0  0
   48.7273   21.5373  -14.9279 H   0  0  0  0  0
   50.4771   21.3448  -15.1967 H   0  0  0  0  0
   48.5688   23.2858  -16.0235 H   0  0  0  0  0
   47.9740   24.3803  -14.7510 H   0  0  0  0  0
   48.9340   25.0268  -16.1043 H   0  0  0  0  0
   47.4646   20.8721  -12.3550 H   0  0  0  0  0
   48.9138   20.0828   -9.8745 H   0  0  0  0  0
   46.4247   18.7859  -10.9867 H   0  0  0  0  0
   46.3924   20.2448   -9.9120 H   0  0  0  0  0
   47.0963   18.4942   -6.9264 H   0  0  0  0  0
   46.9354   20.0650   -7.7188 H   0  0  0  0  0
   50.2933   18.4851   -9.7905 H   0  0  0  0  0
   50.1453   16.3018  -11.8563 H   0  0  0  0  0
   52.6886   17.5925  -10.8292 H   0  0  0  0  0
   52.8843   18.1261  -13.1100 H   0  0  0  0  0
   52.9274   15.1665  -11.1378 H   0  0  0  0  0
   52.2549   15.3015  -12.7811 H   0  0  0  0  0
   53.8213   16.0555  -12.3954 H   0  0  0  0  0
   49.8104   14.4113  -10.8073 H   0  0  0  0  0
   49.7398   12.8411   -9.1541 H   0  0  0  0  0
   52.3923   13.9769   -8.2179 H   0  0  0  0  0
   52.2072   12.9587   -9.7093 H   0  0  0  0  0
   53.0903   11.0508   -6.4344 H   0  0  0  0  0
   53.6463   12.6287   -7.0021 H   0  0  0  0  0
   48.5016   15.3686   -8.5247 H   0  0  0  0  0
   48.3277   14.8023   -5.6207 H   0  0  0  0  0
   47.0328   15.5463   -6.6929 H   0  0  0  0  0
   50.1573   16.8871   -7.0786 H   0  0  0  0  0
   49.4525   19.0142   -5.0819 H   0  0  0  0  0
   51.9389   19.4895   -5.0812 H   0  0  0  0  0
   52.1509   18.0216   -6.0642 H   0  0  0  0  0
   52.3532   17.6117   -3.7982 H   0  0  0  0  0
   49.4592   21.0999   -5.5382 H   0  0  0  0  0
   49.3597   21.7714   -8.4257 H   0  0  0  0  0
   48.4738   23.9099   -7.6468 H   0  0  0  0  0
   48.6942   23.3390   -5.9287 H   0  0  0  0  0
   46.9020   21.6653   -4.9701 H   0  0  0  0  0
   47.1319   23.3882   -9.7922 H   0  0  0  0  0
   43.0580   20.9539   -8.1591 H   0  0  0  0  0
   45.1803   23.0125  -11.2744 H   0  0  0  0  0
   43.2008   21.7681  -10.4887 H   0  0  0  0  0
   50.7737   23.0625   -9.4632 H   0  0  0  0  0
   52.9377   24.4021   -7.9441 H   0  0  0  0  0
   53.8675   22.2061   -8.2839 H   0  0  0  0  0
   54.6591   23.3683   -9.4471 H   0  0  0  0  0
   52.1342   20.3294   -9.5247 H   0  0  0  0  0
   53.5964   21.0908  -13.4499 H   0  0  0  0  0
   54.3839   25.6802   -9.4431 H   0  0  0  0  0
   52.6756   27.1899  -11.2287 H   0  0  0  0  0
   55.6775   27.3000  -10.8010 H   0  0  0  0  0
   55.1430   29.3231   -9.5335 H   0  0  0  0  0
   54.2861   27.8545   -8.8549 H   0  0  0  0  0
   55.0935   28.1556  -13.0181 H   0  0  0  0  0
   53.8489   29.2058  -12.2976 H   0  0  0  0  0
   55.5693   29.4839  -11.9317 H   0  0  0  0  0
   53.0682   30.0265  -10.5636 H   0  0  0  0  0
   52.2347   28.5980   -9.9035 H   0  0  0  0  0
   52.8730   29.8440   -8.8030 H   0  0  0  0  0
   52.4611   27.1218  -13.3729 H   0  0  0  0  0
   54.2427   26.6713  -15.3278 H   0  0  0  0  0
   53.1807   26.4338  -17.3262 H   0  0  0  0  0
   53.2619   24.1651  -15.9712 H   0  0  0  0  0
   53.6530   24.0717  -14.2022 H   0  0  0  0  0
   57.0415   23.5722  -14.8138 H   0  0  0  0  0
   55.6133   23.3007  -13.8100 H   0  0  0  0  0
  1  2  1  0  0  0
  2  3  1  0  0  0
  2  5  1  0  0  0
  3  4  2  0  0  0
  3 10  1  0  0  0
  5  6  1  0  0  0
  6  7  1  0  0  0
  7  8  2  0  0  0
  7  9  1  0  0  0
 10 11  1  0  0  0
 11 12  1  0  0  0
 11 14  1  0  0  0
 12 13  2  0  0  0
 12 18  1  0  0  0
 14 15  1  0  0  0
 15 16  1  0  0  0
 15 17  1  0  0  0
 18 19  1  0  0  0
 19 20  1  0  0  0
 19 22  1  0  0  0
 20 21  2  0  0  0
 20 26  1  0  0  0
 22 23  1  0  0  0
 22 24  1  0  0  0
 23 25  1  0  0  0
 26 27  1  0  0  0
 27 28  1  0  0  0
 27 30  1  0  0  0
 28 29  2  0  0  0
 28 34  1  0  0  0
 30 31  1  0  0  0
 31 32  2  0  0  0
 31 33  1  0  0  0
 34 35  1  0  0  0
 35 36  1  0  0  0
 35 38  1  0  0  0
 36 37  2  0  0  0
 36 41  1  0  0  0
 38 39  1  0  0  0
 38 40  1  0  0  0
 41 42  1  0  0  0
 42 43  1  0  0  0
 42 45  1  0  0  0
 43 44  2  0  0  0
 43 49  1  0  0  0
 45 46  1  0  0  0
 46 47  2  0  0  0
 46 48  1  0  0  0
 49 50  1  0  0  0
 50 51  1  0  0  0
 51 52  2  0  0  0
 51 53  1  0  0  0
 53 54  1  0  0  0
 54 55  1  0  0  0
 54 57  1  0  0  0
 55 56  2  0  0  0
 55 59  1  0  0  0
 57 58  1  0  0  0
 59 60  1  0  0  0
 60 61  1  0  0  0
 60 63  1  0  0  0
 61 62  2  0  0  0
 61 73  1  0  0  0
 63 64  1  0  0  0
 64 65  4  0  0  0
 64 66  4  0  0  0
 65 67  4  0  0  0
 66 68  4  0  0  0
 66 69  4  0  0  0
 67 68  4  0  0  0
 68 70  4  0  0  0
 69 71  4  0  0  0
 70 72  4  0  0  0
 71 72  4  0  0  0
 73 74  1  0  0  0
 74 75  1  0  0  0
 74 77  1  0  0  0
 75 76  2  0  0  0
 75 83  1  0  0  0
 77 78  1  0  0  0
 78 79  4  0  0  0
 78 80  4  0  0  0
 79 81  4  0  0  0
 80 82  4  0  0  0
 81 82  4  0  0  0
 83 84  1  0  0  0
 84 85  1  0  0  0
 84 87  1  0  0  0
 85 86  2  0  0  0
 85 91  1  0  0  0
 87 88  1  0  0  0
 87 89  1  0  0  0
 88 90  1  0  0  0
 91 92  1  0  0  0
 92 93  1  0  0  0
 92 95  1  0  0  0
 93 94  1  0  0  0
 95 96  1  0  0  0
 96 97  2  0  0  0
 96 98  1  0  0  0
 93 99  2  0  0  0
  1100  1  0  0  0
  1101  1  0  0  0
  1102  1  0  0  0
  2103  1  0  0  0
  5104  1  0  0  0
  5105  1  0  0  0
  6106  1  0  0  0
  6107  1  0  0  0
  9108  1  0  0  0
  9109  1  0  0  0
 10110  1  0  0  0
 11111  1  0  0  0
 14112  1  0  0  0
 14113  1  0  0  0
 15114  1  0  0  0
 16115  1  0  0  0
 16116  1  0  0  0
 16117  1  0  0  0
 17118  1  0  0  0
 17119  1  0  0  0
 17120  1  0  0  0
 18121  1  0  0  0
 19122  1  0  0  0
 22123  1  0  0  0
 23124  1  0  0  0
 23125  1  0  0  0
 24126  1  0  0  0
 24127  1  0  0  0
 24128  1  0  0  0
 25129  1  0  0  0
 25130  1  0  0  0
 25131  1  0  0  0
 26132  1  0  0  0
 27133  1  0  0  0
 30134  1  0  0  0
 30135  1  0  0  0
 33136  1  0  0  0
 33137  1  0  0  0
 34138  1  0  0  0
 35139  1  0  0  0
 38140  1  0  0  0
 39141  1  0  0  0
 40142  1  0  0  0
 40143  1  0  0  0
 40144  1  0  0  0
 41145  1  0  0  0
 42146  1  0  0  0
 45147  1  0  0  0
 45148  1  0  0  0
 48149  1  0  0  0
 48150  1  0  0  0
 49151  1  0  0  0
 50152  1  0  0  0
 50153  1  0  0  0
 53154  1  0  0  0
 54155  1  0  0  0
 57156  1  0  0  0
 57157  1  0  0  0
 58158  1  0  0  0
 59159  1  0  0  0
 60160  1  0  0  0
 63161  1  0  0  0
 63162  1  0  0  0
 65163  1  0  0  0
 69164  1  0  0  0
 70165  1  0  0  0
 71166  1  0  0  0
 72167  1  0  0  0
 73168  1  0  0  0
 74169  1  0  0  0
 77170  1  0  0  0
 77171  1  0  0  0
 80172  1  0  0  0
 81173  1  0  0  0
 83174  1  0  0  0
 84175  1  0  0  0
 87176  1  0  0  0
 88177  1  0  0  0
 88178  1  0  0  0
 89179  1  0  0  0
 89180  1  0  0  0
 89181  1  0  0  0
 90182  1  0  0  0
 90183  1  0  0  0
 90184  1  0  0  0
 91185  1  0  0  0
 92186  1  0  0  0
 94187  1  0  0  0
 95188  1  0  0  0
 95189  1  0  0  0
 98190  1  0  0  0
 98191  1  0  0  0
M  END
$$$$
