### 
### Created by X-TOOL on Mon Sep 10 21:13:13 2018
### 

@<TRIPOS>MOLECULE
4hs6_ligand
  192   194     1     0     0
SMALL
GAST_HUCK


@<TRIPOS>ATOM
      1 N          47.6840   30.4200  -13.5990 N.4       1 GLN         0.2380
      2 CA         46.9130   29.3060  -13.0020 C.3       1 GLN         0.0671
      3 C          47.8730   28.1520  -12.6790 C.2       1 GLN         0.2269
      4 O          48.7170   27.7790  -13.5040 O.2       1 GLN        -0.3907
      5 CB         45.7760   28.8950  -13.9570 C.3       1 GLN         0.0247
      6 CG         46.1290   28.9320  -15.4760 C.3       1 GLN         0.0443
      7 CD         46.1680   30.3340  -16.1240 C.2       1 GLN         0.1738
      8 OE1        46.8760   31.2220  -15.6660 O.2       1 GLN        -0.3973
      9 NE2        45.4380   30.5040  -17.2330 N.am      1 GLN        -0.3009
     10 N          47.7680   27.6220  -11.4620 N.am      1 LEU        -0.2610
     11 CA         48.5910   26.4860  -11.0460 C.3       1 LEU         0.1313
     12 C          48.1450   25.2290  -11.7870 C.2       1 LEU         0.2039
     13 O          46.9920   25.1130  -12.2140 O.2       1 LEU        -0.3944
     14 CB         48.4920   26.2540   -9.5320 C.3       1 LEU        -0.0101
     15 CG         48.9850   27.3930   -8.6320 C.3       1 LEU        -0.0425
     16 CD1        48.5950   27.1480   -7.1760 C.3       1 LEU        -0.0625
     17 CD2        50.4960   27.5670   -8.7550 C.3       1 LEU        -0.0625
     18 N          49.0890   24.3000  -11.9340 N.am      1 ILE        -0.2635
     19 CA         48.8820   23.0150  -12.6030 C.3       1 ILE         0.1335
     20 C          49.0240   21.9200  -11.5560 C.2       1 ILE         0.2043
     21 O          49.8990   22.0040  -10.6990 O.2       1 ILE        -0.3944
     22 CB         49.9600   22.7740  -13.6870 C.3       1 ILE        -0.0037
     23 CG1        50.0400   23.9510  -14.6620 C.3       1 ILE        -0.0491
     24 CG2        49.7020   21.4840  -14.4430 C.3       1 ILE        -0.0582
     25 CD1        48.7960   24.1760  -15.4370 C.3       1 ILE        -0.0648
     26 N          48.1910   20.8800  -11.6390 N.am      1 ASN        -0.2616
     27 CA         48.3070   19.7560  -10.7190 C.3       1 ASN         0.1476
     28 C          49.0220   18.5660  -11.3690 C.2       1 ASN         0.2063
     29 O          48.6970   18.1620  -12.4890 O.2       1 ASN        -0.3942
     30 CB         46.9310   19.3410  -10.1970 C.3       1 ASN         0.0773
     31 CG         47.0200   18.4450   -8.9780 C.2       1 ASN         0.1780
     32 OD1        47.1170   17.2100   -9.1080 O.2       1 ASN        -0.3970
     33 ND2        47.0170   19.0500   -7.7780 N.am      1 ASN        -0.3007
     34 N          50.0080   18.0250  -10.6550 N.am      1 THR        -0.2612
     35 CA         50.7040   16.7920  -11.0590 C.3       1 THR         0.1565
     36 C          50.8040   15.8920   -9.8300 C.2       1 THR         0.2066
     37 O          51.2900   16.3120   -8.7830 O.2       1 THR        -0.3943
     38 CB         52.1160   17.0950  -11.6120 C.3       1 THR         0.0924
     39 OG1        52.0070   17.9390  -12.7680 O.3       1 THR        -0.3874
     40 CG2        52.8310   15.8130  -12.0100 C.3       1 THR        -0.0346
     41 N          50.2860   14.6670   -9.9420 N.am      1 ASN        -0.2615
     42 CA         50.3760   13.6790   -8.8690 C.3       1 ASN         0.1476
     43 C          49.8410   14.2020   -7.5350 C.2       1 ASN         0.2061
     44 O          50.3420   13.8590   -6.4700 O.2       1 ASN        -0.3942
     45 CB         51.8250   13.1900   -8.7150 C.3       1 ASN         0.0773
     46 CG         51.9340   11.9310   -7.8690 C.2       1 ASN         0.1780
     47 OD1        51.0870   11.0340   -7.9510 O.2       1 ASN        -0.3970
     48 ND2        52.9710   11.8650   -7.0370 N.am      1 ASN        -0.3007
     49 N          48.8040   15.0390   -7.6080 N.am      1 GLY        -0.2663
     50 CA         48.0880   15.4990   -6.4240 C.3       1 GLY         0.1201
     51 C          48.4780   16.8810   -5.9360 C.2       1 GLY         0.2008
     52 O          47.7420   17.4600   -5.1440 O.2       1 GLY        -0.3947
     53 N          49.6170   17.3960   -6.3790 N.am      1 SER        -0.2618
     54 CA         50.1150   18.6840   -5.8820 C.3       1 SER         0.1539
     55 C          50.0720   19.7700   -6.9470 C.2       1 SER         0.2063
     56 O          50.3750   19.5330   -8.1190 O.2       1 SER        -0.3943
     57 CB         51.5210   18.5120   -5.3220 C.3       1 SER         0.0843
     58 OG         51.4670   17.7200   -4.1510 O.3       1 SER        -0.3903
     59 N          49.6930   20.9740   -6.5230 N.am      1 TRP        -0.2626
     60 CA         49.6020   22.1150   -7.4200 C.3       1 TRP         0.1352
     61 C          50.9430   22.8350   -7.4520 C.2       1 TRP         0.2053
     62 O          51.5740   22.9950   -6.4090 O.2       1 TRP        -0.3942
     63 CB         48.4850   23.0620   -6.9620 C.3       1 TRP         0.0042
     64 CG         47.1100   22.4350   -6.9940 C.2       1 TRP        -0.0418
     65 CD1        46.4810   21.8030   -5.9660 C.2       1 TRP         0.0167
     66 CD2        46.2000   22.3980   -8.1030 C.ar      1 TRP        -0.0214
     67 NE1        45.2380   21.3620   -6.3610 N.pl3     1 TRP        -0.2890
     68 CE2        45.0450   21.7030   -7.6740 C.ar      1 TRP         0.0603
     69 CE3        46.2520   22.8620   -9.4220 C.ar      1 TRP        -0.0747
     70 CZ2        43.9450   21.4780   -8.5150 C.ar      1 TRP        -0.0443
     71 CZ3        45.1580   22.6380  -10.2510 C.ar      1 TRP        -0.0792
     72 CH2        44.0290   21.9430   -9.8020 C.ar      1 TRP        -0.0768
     73 N          51.3730   23.2250   -8.6540 N.am      1 HIS        -0.2624
     74 CA         52.6700   23.8770   -8.8610 C.3       1 HIS         0.1369
     75 C          52.5870   24.8870   -9.9940 C.2       1 HIS         0.2054
     76 O          51.6260   24.9100  -10.7520 O.2       1 HIS        -0.3942
     77 CB         53.7530   22.8290   -9.1710 C.3       1 HIS         0.0145
     78 CG         53.4050   21.9240  -10.3120 C.2       1 HIS        -0.0027
     79 ND1        53.8530   22.1420  -11.5970 N.2       1 HIS        -0.3252
     80 CD2        52.6530   20.7980  -10.3610 C.2       1 HIS         0.0291
     81 CE1        53.3990   21.1840  -12.3820 C.2       1 HIS         0.0907
     82 NE2        52.6670   20.3580  -11.6610 N.pl3     1 HIS        -0.2752
     83 N          53.6150   25.7230  -10.1120 N.am      1 ILE        -0.2634
     84 CA         53.6470   26.6970  -11.1900 C.3       1 ILE         0.1335
     85 C          53.9060   25.9930  -12.5250 C.2       1 ILE         0.2037
     86 O          54.6930   25.0510  -12.5830 O.2       1 ILE        -0.3944
     87 CB         54.7110   27.7850  -10.9380 C.3       1 ILE        -0.0037
     88 CG1        54.3630   28.5740   -9.6700 C.3       1 ILE        -0.0491
     89 CG2        54.8130   28.7250  -12.1320 C.3       1 ILE        -0.0582
     90 CD1        53.0410   29.3130   -9.7400 C.3       1 ILE        -0.0648
     91 N          53.2030   26.4490  -13.5660 N.am      1 ASN        -0.2674
     92 CA         53.4150   26.0560  -14.9750 C.3       1 ASN         0.1110
     93 C          52.1700   26.3320  -15.8160 C.2       1 ASN         0.0624
     94 O          52.2610   26.5059  -17.0606 O.co2     1 ASN        -0.5665
     95 CB         53.8370   24.5850  -15.1460 C.3       1 ASN         0.0718
     96 CG         55.3160   24.4340  -15.4810 C.2       1 ASN         0.1774
     97 OD1        55.7890   24.9540  -16.4930 O.2       1 ASN        -0.3971
     98 ND2        56.0470   23.7130  -14.6360 N.am      1 ASN        -0.3007
     99 O          51.0409   26.3863  -15.2595 O.co2     1 ASN        -0.5665
    100 H1         47.0608   31.1825  -13.8143 H         1 GLN         0.2015
    101 H2         48.1320   30.1033  -14.4446 H         1 GLN         0.2015
    102 H3         48.3840   30.7328  -12.9446 H         1 GLN         0.2015
    103 H4         46.4603   29.6503  -12.0604 H         1 GLN         0.1100
    104 H5         44.9292   29.5767  -13.7891 H         1 GLN         0.0370
    105 H6         45.4754   27.8676  -13.7038 H         1 GLN         0.0370
    106 H7         45.3774   28.3336  -16.0117 H         1 GLN         0.0506
    107 H8         47.1210   28.4739  -15.6031 H         1 GLN         0.0506
    108 H9         45.4271   31.3917  -17.6932 H         1 GLN         0.1814
    109 H10        44.9035   29.7433  -17.6013 H         1 GLN         0.1814
    110 H11        47.1103   28.0100  -10.8163 H         1 LEU         0.1884
    111 H12        49.6395   26.6988  -11.3018 H         1 LEU         0.0800
    112 H13        49.0835   25.3583   -9.2917 H         1 LEU         0.0315
    113 H14        47.4346   26.0709   -9.2903 H         1 LEU         0.0315
    114 H15        48.5033   28.3243   -8.9646 H         1 LEU         0.0298
    115 H16        48.9603   27.9784   -6.5539 H         1 LEU         0.0232
    116 H17        49.0440   26.2054   -6.8297 H         1 LEU         0.0232
    117 H18        47.4998   27.0838   -7.0955 H         1 LEU         0.0232
    118 H19        50.7603   27.7424   -9.8083 H         1 LEU         0.0232
    119 H20        51.0002   26.6573   -8.3971 H         1 LEU         0.0232
    120 H21        50.8167   28.4268   -8.1485 H         1 LEU         0.0232
    121 H22        49.9974   24.4934  -11.5633 H         1 ILE         0.1883
    122 H23        47.8810   22.9868  -13.0581 H         1 ILE         0.0803
    123 H24        50.9325   22.6838  -13.1810 H         1 ILE         0.0345
    124 H25        50.8591   23.7586  -15.3705 H         1 ILE         0.0267
    125 H26        50.2592   24.8627  -14.0869 H         1 ILE         0.0267
    126 H27        49.6468   20.6469  -13.7316 H         1 ILE         0.0235
    127 H28        50.5211   21.3063  -15.1553 H         1 ILE         0.0235
    128 H29        48.7510   21.5635  -14.9901 H         1 ILE         0.0235
    129 H30        48.9340   25.0344  -16.1108 H         1 ILE         0.0230
    130 H31        47.9656   24.3823  -14.7458 H         1 ILE         0.0230
    131 H32        48.5656   23.2782  -16.0294 H         1 ILE         0.0230
    132 H33        47.4789   20.8723  -12.3410 H         1 ASN         0.1885
    133 H34        48.9115   20.0842   -9.8606 H         1 ASN         0.0826
    134 H35        46.3993   18.8007  -10.9941 H         1 ASN         0.0551
    135 H36        46.3673   20.2467   -9.9289 H         1 ASN         0.0551
    136 H37        47.0739   18.5036   -6.9424 H         1 ASN         0.1814
    137 H38        46.9579   20.0466   -7.7206 H         1 ASN         0.1814
    138 H39        50.2877   18.4761   -9.8075 H         1 THR         0.1884
    139 H40        50.1191   16.2843  -11.8401 H         1 THR         0.0826
    140 H41        52.7020   17.6096  -10.8363 H         1 THR         0.0639
    141 H42        51.4938   17.4970  -13.4341 H         1 THR         0.2101
    142 H43        53.8307   16.0564  -12.3991 H         1 THR         0.0257
    143 H44        52.2506   15.2958  -12.7882 H         1 THR         0.0257
    144 H45        52.9290   15.1596  -11.1305 H         1 THR         0.0257
    145 H46        49.8197   14.4164  -10.7904 H         1 ASN         0.1885
    146 H47        49.7561   12.8178   -9.1587 H         1 ASN         0.0826
    147 H48        52.4161   13.9860   -8.2386 H         1 ASN         0.0551
    148 H49        52.2329   12.9785   -9.7144 H         1 ASN         0.0551
    149 H50        53.0950   11.0611   -6.4553 H         1 ASN         0.1814
    150 H51        53.6261   12.6193   -6.9937 H         1 ASN         0.1814
    151 H52        48.5075   15.3622   -8.5067 H         1 GLY         0.1881
    152 H53        48.2785   14.7835   -5.6105 H         1 GLY         0.0763
    153 H54        47.0133   15.5105   -6.6581 H         1 GLY         0.0763
    154 H55        50.1467   16.8971   -7.0649 H         1 SER         0.1884
    155 H56        49.4587   19.0027   -5.0588 H         1 SER         0.0823
    156 H57        51.9423   19.4985   -5.0786 H         1 SER         0.0606
    157 H58        52.1563   18.0166   -6.0710 H         1 SER         0.0606
    158 H59        50.9180   18.1488   -3.5050 H         1 SER         0.2097
    159 H60        49.4638   21.0975   -5.5575 H         1 TRP         0.1884
    160 H61        49.3664   21.7564   -8.4328 H         1 TRP         0.0815
    161 H62        48.4817   23.9414   -7.6228 H         1 TRP         0.0397
    162 H63        48.6988   23.3791   -5.9306 H         1 TRP         0.0397
    163 H64        46.9016   21.6654   -4.9710 H         1 TRP         0.0795
    164 H65        44.5638   20.8584   -5.7670 H         1 TRP         0.2216
    165 H66        47.1270   23.3853   -9.7902 H         1 TRP         0.0540
    166 H67        43.0629   20.9568   -8.1611 H         1 TRP         0.0541
    167 H68        45.1802   23.0104  -11.2688 H         1 TRP         0.0510
    168 H69        43.2053   21.7691  -10.4849 H         1 TRP         0.0530
    169 H70        50.7854   23.0657   -9.4473 H         1 HIS         0.1885
    170 H71        52.9465   24.4068   -7.9375 H         1 HIS         0.0817
    171 H72        53.9069   22.2125   -8.2731 H         1 HIS         0.0420
    172 H73        54.6862   23.3564   -9.4181 H         1 HIS         0.0420
    173 H74        52.1346   20.3298   -9.5255 H         1 HIS         0.0729
    174 H75        53.5962   21.0909  -13.4489 H         1 HIS         0.1199
    175 H76        52.1846   19.5197  -12.0152 H         1 HIS         0.2361
    176 H77        54.3688   25.6810   -9.4562 H         1 ILE         0.1883
    177 H78        52.6631   27.1862  -11.2404 H         1 ILE         0.0803
    178 H79        55.6857   27.2961  -10.7930 H         1 ILE         0.0345
    179 H80        55.1606   29.3104   -9.4923 H         1 ILE         0.0267
    180 H81        54.3198   27.8694   -8.8264 H         1 ILE         0.0267
    181 H82        55.0628   28.1466  -13.0337 H         1 ILE         0.0235
    182 H83        55.5996   29.4709  -11.9453 H         1 ILE         0.0235
    183 H84        53.8503   29.2363  -12.2794 H         1 ILE         0.0235
    184 H85        52.8703   29.8493   -8.7949 H         1 ILE         0.0230
    185 H86        52.2264   28.5925   -9.9049 H         1 ILE         0.0230
    186 H87        53.0672   30.0334  -10.5708 H         1 ILE         0.0230
    187 H88        52.4756   27.1086  -13.3766 H         1 ASN         0.1877
    188 H89        54.2321   26.6803  -15.3657 H         1 ASN         0.0752
    189 H90        53.2446   24.1409  -15.9595 H         1 ASN         0.0544
    190 H91        53.6319   24.0484  -14.2079 H         1 ASN         0.0544
    191 H92        57.0235   23.5809  -14.8066 H         1 ASN         0.1814
    192 H93        55.6203   23.3028  -13.8300 H         1 ASN         0.1814
@<TRIPOS>BOND
     1    1    2 1  
     2    2    3 1  
     3    2    5 1  
     4    3    4 2  
     5    3   10 am 
     6    5    6 1  
     7    6    7 1  
     8    7    8 2  
     9    7    9 am 
    10   10   11 1  
    11   11   12 1  
    12   11   14 1  
    13   12   13 2  
    14   12   18 am 
    15   14   15 1  
    16   15   16 1  
    17   15   17 1  
    18   18   19 1  
    19   19   20 1  
    20   19   22 1  
    21   20   21 2  
    22   20   26 am 
    23   22   23 1  
    24   22   24 1  
    25   23   25 1  
    26   26   27 1  
    27   27   28 1  
    28   27   30 1  
    29   28   29 2  
    30   28   34 am 
    31   30   31 1  
    32   31   32 2  
    33   31   33 am 
    34   34   35 1  
    35   35   36 1  
    36   35   38 1  
    37   36   37 2  
    38   36   41 am 
    39   38   39 1  
    40   38   40 1  
    41   41   42 1  
    42   42   43 1  
    43   42   45 1  
    44   43   44 2  
    45   43   49 am 
    46   45   46 1  
    47   46   47 2  
    48   46   48 am 
    49   49   50 1  
    50   50   51 1  
    51   51   52 2  
    52   51   53 am 
    53   53   54 1  
    54   54   55 1  
    55   54   57 1  
    56   55   56 2  
    57   55   59 am 
    58   57   58 1  
    59   59   60 1  
    60   60   61 1  
    61   60   63 1  
    62   61   62 2  
    63   61   73 am 
    64   63   64 1  
    65   64   65 2  
    66   64   66 1  
    67   65   67 1  
    68   66   68 ar 
    69   66   69 ar 
    70   67   68 1  
    71   68   70 ar 
    72   69   71 ar 
    73   70   72 ar 
    74   71   72 ar 
    75   73   74 1  
    76   74   75 1  
    77   74   77 1  
    78   75   76 2  
    79   75   83 am 
    80   77   78 1  
    81   78   79 1  
    82   78   80 2  
    83   79   81 2  
    84   80   82 1  
    85   81   82 1  
    86   83   84 1  
    87   84   85 1  
    88   84   87 1  
    89   85   86 2  
    90   85   91 am 
    91   87   88 1  
    92   87   89 1  
    93   88   90 1  
    94   91   92 1  
    95   92   93 1  
    96   92   95 1  
    97   93   94 ar 
    98   95   96 1  
    99   96   97 2  
   100   96   98 am 
   101   93   99 ar 
   102    1  100 1  
   103    1  101 1  
   104    1  102 1  
   105    2  103 1  
   106    5  104 1  
   107    5  105 1  
   108    6  106 1  
   109    6  107 1  
   110    9  108 1  
   111    9  109 1  
   112   10  110 1  
   113   11  111 1  
   114   14  112 1  
   115   14  113 1  
   116   15  114 1  
   117   16  115 1  
   118   16  116 1  
   119   16  117 1  
   120   17  118 1  
   121   17  119 1  
   122   17  120 1  
   123   18  121 1  
   124   19  122 1  
   125   22  123 1  
   126   23  124 1  
   127   23  125 1  
   128   24  126 1  
   129   24  127 1  
   130   24  128 1  
   131   25  129 1  
   132   25  130 1  
   133   25  131 1  
   134   26  132 1  
   135   27  133 1  
   136   30  134 1  
   137   30  135 1  
   138   33  136 1  
   139   33  137 1  
   140   34  138 1  
   141   35  139 1  
   142   38  140 1  
   143   39  141 1  
   144   40  142 1  
   145   40  143 1  
   146   40  144 1  
   147   41  145 1  
   148   42  146 1  
   149   45  147 1  
   150   45  148 1  
   151   48  149 1  
   152   48  150 1  
   153   49  151 1  
   154   50  152 1  
   155   50  153 1  
   156   53  154 1  
   157   54  155 1  
   158   57  156 1  
   159   57  157 1  
   160   58  158 1  
   161   59  159 1  
   162   60  160 1  
   163   63  161 1  
   164   63  162 1  
   165   65  163 1  
   166   67  164 1  
   167   69  165 1  
   168   70  166 1  
   169   71  167 1  
   170   72  168 1  
   171   73  169 1  
   172   74  170 1  
   173   77  171 1  
   174   77  172 1  
   175   80  173 1  
   176   81  174 1  
   177   82  175 1  
   178   83  176 1  
   179   84  177 1  
   180   87  178 1  
   181   88  179 1  
   182   88  180 1  
   183   89  181 1  
   184   89  182 1  
   185   89  183 1  
   186   90  184 1  
   187   90  185 1  
   188   90  186 1  
   189   91  187 1  
   190   92  188 1  
   191   95  189 1  
   192   95  190 1  
   193   98  191 1  
   194   98  192 1  
@<TRIPOS>SUBSTRUCTURE
     1 GLN         1

