6e6v_ligand
  -I-interpret- 

 19 19  0  0  0  0  0  0  0  0999 V2000
  -18.1040   16.5630   16.5580 O   0  0  0  0  0
  -18.1450   16.5840   15.3140 C   0  0  0  0  0
  -17.2620   15.9340   14.6490 O   0  0  0  0  0
  -19.2090   17.3430   14.7960 C   0  0  0  0  0
  -19.9110   18.0770   15.7780 N   0  0  0  0  0
  -21.0350   18.8720   15.4580 C   0  0  0  0  0
  -21.7290   19.6060   16.4920 C   0  0  0  0  0
  -21.4560   18.9300   14.1210 C   0  0  0  0  0
  -20.7980   18.2050   13.1200 C   0  0  0  0  0
  -21.2470   18.3060   11.9540 O   0  0  0  0  0
  -19.6670   17.4190   13.4720 C   0  0  0  0  0
  -19.0320   16.7030   12.5220 O   0  0  0  0  0
  -17.4242   16.0458   13.7094 H   0  0  0  0  0
  -21.6979   20.6712   16.2629 H   0  0  0  0  0
  -22.7659   19.2731   16.5385 H   0  0  0  0  0
  -21.2446   19.4252   17.4516 H   0  0  0  0  0
  -22.3116   19.5513   13.8564 H   0  0  0  0  0
  -19.7238   18.4720   13.7480 H   0  0  0  0  0
  -18.2955   16.2310   12.9174 H   0  0  0  0  0
  1  2  2  0  0  0
  2  3  1  0  0  0
  2  4  1  0  0  0
  4  5  2  0  0  0
  4 11  1  0  0  0
  5  6  1  0  0  0
  6  7  1  0  0  0
  6  8  2  0  0  0
  8  9  1  0  0  0
  9 10  2  0  0  0
  9 11  1  0  0  0
 11 12  1  0  0  0
  3 13  1  0  0  0
  7 14  1  0  0  0
  7 15  1  0  0  0
  7 16  1  0  0  0
  8 17  1  0  0  0
 11 18  1  0  0  0
 12 19  1  0  0  0
M  END
$$$$
