5nk8_ligand
  -I-interpret- 

 68 71  0  0  0  0  0  0  0  0999 V2000
  115.7400   12.5190   43.2040 C   0  0  0  0  0
  114.7080   11.9680   42.2840 C   0  0  0  0  0
  114.4000   13.0390   41.2820 C   0  0  0  0  0
  113.4310   11.7480   43.1010 C   0  0  0  0  0
  115.1220   10.8560   41.4310 N   0  3  0  0  0
  114.2950    9.9060   41.3570 O   0  0  0  0  0
  116.5600   10.4900   41.3690 C   0  0  0  0  0
  117.0360   11.1010   40.0860 C   0  0  0  0  0
  116.8200    8.9870   41.3060 C   0  0  0  0  0
  117.3950   11.0510   42.4460 C   0  0  0  0  0
  117.1270   12.4490   42.6780 C   0  0  0  0  0
  118.1110   12.9880   43.6260 N   0  0  0  0  0
  118.9720   13.9800   43.3420 C   0  0  0  0  0
  119.0310   14.4460   42.2360 O   0  0  0  0  0
  119.9040   14.3160   44.3520 C   0  0  0  0  0
  121.2620   14.4630   44.1110 C   0  0  0  0  0
  119.5090   14.4750   45.6400 C   0  0  0  0  0
  120.4100   14.7320   46.6460 C   0  0  0  0  0
  121.7490   14.8540   46.3650 C   0  0  0  0  0
  122.2020   14.7330   45.0900 C   0  0  0  0  0
  123.4930   14.8270   44.7760 N   0  0  0  0  0
  124.4900   15.2960   45.5170 C   0  0  0  0  0
  124.4720   15.9330   47.0910 S   0  0  0  0  0
  125.7490   15.3640   45.1100 N   0  0  0  0  0
  126.6000   15.8710   46.0020 C   0  0  0  0  0
  126.0600   16.2710   47.1560 C   0  0  0  0  0
  126.6830   16.7970   48.2360 C   0  0  0  0  0
  126.0110   16.9280   49.2110 O   0  0  0  0  0
  128.0020   17.0910   48.2090 N   0  0  0  0  0
  128.6070   17.5920   49.2820 C   0  0  0  0  0
  128.9200   16.7380   50.3140 C   0  0  0  0  0
  128.6190   15.1570   50.2200 Cl  0  0  0  0  0
  129.5510   17.1960   51.4610 C   0  0  0  0  0
  129.8560   18.5340   51.5840 C   0  0  0  0  0
  129.5310   19.3740   50.5320 C   0  0  0  0  0
  128.9010   18.9570   49.3790 C   0  0  0  0  0
  128.5970   19.8990   48.3790 C   0  0  0  0  0
  115.7113   11.9198   44.1141 H   0  0  0  0  0
  115.5064   13.5731   43.3538 H   0  0  0  0  0
  115.2952   13.2590   40.7004 H   0  0  0  0  0
  113.6082   12.6952   40.6165 H   0  0  0  0  0
  114.0734   13.9390   41.8029 H   0  0  0  0  0
  112.5973   11.5572   42.4253 H   0  0  0  0  0
  113.5673   10.8925   43.7626 H   0  0  0  0  0
  113.2230   12.6383   43.6944 H   0  0  0  0  0
  118.1024   10.9091   39.9673 H   0  0  0  0  0
  116.4911   10.6604   39.2511 H   0  0  0  0  0
  116.8595   12.1763   40.1097 H   0  0  0  0  0
  116.2766    8.5606   40.4628 H   0  0  0  0  0
  117.8879    8.8093   41.1790 H   0  0  0  0  0
  116.4805    8.5217   42.2314 H   0  0  0  0  0
  118.4392   10.9525   42.1492 H   0  0  0  0  0
  117.1710   10.5078   43.3641 H   0  0  0  0  0
  117.2115   13.0489   41.7718 H   0  0  0  0  0
  118.1429   12.5827   44.5615 H   0  0  0  0  0
  121.6115   14.3591   43.0838 H   0  0  0  0  0
  118.4495   14.3969   45.8837 H   0  0  0  0  0
  120.0598   14.8396   47.6726 H   0  0  0  0  0
  122.4546   15.0497   47.1725 H   0  0  0  0  0
  123.7489   14.4958   43.8458 H   0  0  0  0  0
  127.6683   15.9538   45.8022 H   0  0  0  0  0
  128.5386   16.9270   47.3572 H   0  0  0  0  0
  129.8044   16.5008   52.2613 H   0  0  0  0  0
  130.3385   18.9197   52.4821 H   0  0  0  0  0
  129.7891   20.4292   50.6212 H   0  0  0  0  0
  129.1075   19.6246   47.4559 H   0  0  0  0  0
  127.5203   19.9129   48.2099 H   0  0  0  0  0
  128.9285   20.8867   48.6992 H   0  0  0  0  0
  1  2  1  0  0  0
  1 11  1  0  0  0
  2  3  1  0  0  0
  2  4  1  0  0  0
  2  5  1  0  0  0
  5  6  2  0  0  0
  5  7  1  0  0  0
  7  8  1  0  0  0
  7  9  1  0  0  0
  7 10  1  0  0  0
 10 11  1  0  0  0
 11 12  1  0  0  0
 12 13  1  0  0  0
 13 14  2  0  0  0
 13 15  1  0  0  0
 15 16  4  0  0  0
 15 17  4  0  0  0
 16 20  4  0  0  0
 17 18  4  0  0  0
 18 19  4  0  0  0
 19 20  4  0  0  0
 20 21  1  0  0  0
 21 22  1  0  0  0
 22 23  4  0  0  0
 22 24  4  0  0  0
 23 26  4  0  0  0
 24 25  4  0  0  0
 25 26  4  0  0  0
 26 27  1  0  0  0
 27 28  2  0  0  0
 27 29  1  0  0  0
 29 30  1  0  0  0
 30 31  4  0  0  0
 30 36  4  0  0  0
 31 32  1  0  0  0
 31 33  4  0  0  0
 33 34  4  0  0  0
 34 35  4  0  0  0
 35 36  4  0  0  0
 36 37  1  0  0  0
  1 38  1  0  0  0
  1 39  1  0  0  0
  3 40  1  0  0  0
  3 41  1  0  0  0
  3 42  1  0  0  0
  4 43  1  0  0  0
  4 44  1  0  0  0
  4 45  1  0  0  0
  8 46  1  0  0  0
  8 47  1  0  0  0
  8 48  1  0  0  0
  9 49  1  0  0  0
  9 50  1  0  0  0
  9 51  1  0  0  0
 10 52  1  0  0  0
 10 53  1  0  0  0
 11 54  1  0  0  0
 12 55  1  0  0  0
 16 56  1  0  0  0
 17 57  1  0  0  0
 18 58  1  0  0  0
 19 59  1  0  0  0
 21 60  1  0  0  0
 25 61  1  0  0  0
 29 62  1  0  0  0
 33 63  1  0  0  0
 34 64  1  0  0  0
 35 65  1  0  0  0
 37 66  1  0  0  0
 37 67  1  0  0  0
 37 68  1  0  0  0
M  END
$$$$
