4k9g_ligand
  -I-interpret- 

 29 30  0  0  0  0  0  0  0  0999 V2000
   34.5310  -30.5580   31.3510 O   0  0  0  0  0
   34.1960  -29.7720   30.2950 C   0  0  0  0  0
   33.2380  -28.7810   30.4540 C   0  0  0  0  0
   32.7030  -28.5270   31.6640 F   0  0  0  0  0
   32.8570  -28.0140   29.3630 C   0  0  0  0  0
   33.4430  -28.2370   28.1230 C   0  0  0  0  0
   34.4070  -29.2240   27.9580 C   0  0  0  0  0
   34.7820  -29.9930   29.0550 C   0  0  0  0  0
   33.0550  -27.3900   27.0930 C   0  0  0  0  0
   31.8610  -26.7980   27.0250 N   0  0  0  0  0
   31.7720  -25.9480   25.9000 O   0  0  0  0  0
   33.1200  -25.7340   25.4720 C   0  0  0  0  0
   33.8270  -27.0420   25.8200 C   0  0  0  0  0
   33.1930  -25.4340   23.9740 C   0  0  0  0  0
   32.4350  -24.1400   23.6750 C   0  0  0  0  0
   31.3320  -23.9400   24.1850 O   0  0  0  0  0
   33.0630  -23.0940   22.7520 C   0  0  0  0  0
   35.2019  -31.1885   31.0790 H   0  0  0  0  0
   32.0999  -27.2383   29.4780 H   0  0  0  0  0
   34.8631  -29.3934   26.9826 H   0  0  0  0  0
   35.5373  -30.7706   28.9413 H   0  0  0  0  0
   33.5798  -24.8711   25.9538 H   0  0  0  0  0
   33.8014  -27.8035   25.0405 H   0  0  0  0  0
   34.9077  -26.9661   25.9403 H   0  0  0  0  0
   32.7427  -26.2555   23.4168 H   0  0  0  0  0
   34.2356  -25.3210   23.6767 H   0  0  0  0  0
   32.4081  -22.9256   21.8971 H   0  0  0  0  0
   33.1952  -22.1608   23.2994 H   0  0  0  0  0
   34.0316  -23.4530   22.4041 H   0  0  0  0  0
  1  2  1  0  0  0
  2  3  4  0  0  0
  2  8  4  0  0  0
  3  4  1  0  0  0
  3  5  4  0  0  0
  5  6  4  0  0  0
  6  7  4  0  0  0
  6  9  1  0  0  0
  7  8  4  0  0  0
  9 10  2  0  0  0
  9 13  1  0  0  0
 10 11  1  0  0  0
 11 12  1  0  0  0
 12 13  1  0  0  0
 12 14  1  0  0  0
 14 15  1  0  0  0
 15 16  2  0  0  0
 15 17  1  0  0  0
  1 18  1  0  0  0
  5 19  1  0  0  0
  7 20  1  0  0  0
  8 21  1  0  0  0
 12 22  1  0  0  0
 13 23  1  0  0  0
 13 24  1  0  0  0
 14 25  1  0  0  0
 14 26  1  0  0  0
 17 27  1  0  0  0
 17 28  1  0  0  0
 17 29  1  0  0  0
M  END
$$$$
