5a3o_ligand
  -I-interpret- 

 44 45  0  0  0  0  0  0  0  0999 V2000
  -18.6480  -11.6050   21.4630 C   0  0  0  0  0
  -18.0870  -10.7670   20.3080 C   0  0  0  0  0
  -17.4030  -11.5810   19.2280 C   0  0  0  0  0
  -16.3730  -12.5020   19.8220 C   0  0  0  0  0
  -17.1100  -13.3610   20.8540 C   0  0  0  0  0
  -16.2280  -14.3910   21.5240 C   0  0  0  0  0
  -20.5280  -12.9430   21.9860 C   0  0  0  0  0
  -19.7620  -12.3380   20.9270 O   0  0  0  0  0
  -17.1390   -9.8370   20.7920 O   0  0  0  0  0
  -16.7400  -10.7040   18.3030 O   0  0  0  0  0
  -15.7600  -13.2640   18.7790 O   0  0  0  0  0
  -17.6290  -12.5110   21.9030 O   0  0  0  0  0
  -16.9310  -16.1360   23.0740 C   0  0  0  0  0
  -17.1520  -15.4250   22.0000 N   0  0  0  0  0
  -15.9600  -15.9060   23.7940 O   0  0  0  0  0
  -17.8480  -17.2250   23.4370 C   0  0  0  0  0
  -17.5210  -18.0380   24.4700 C   0  0  0  0  0
  -18.2630  -19.2840   24.8150 C   0  0  0  0  0
  -17.8420  -20.0280   25.9260 C   0  0  0  0  0
  -18.5480  -21.1790   26.2900 C   0  0  0  0  0
  -19.6640  -21.5430   25.5460 C   0  0  0  0  0
  -20.0840  -20.7890   24.4740 C   0  0  0  0  0
  -19.3960  -19.6480   24.1120 C   0  0  0  0  0
  -18.9594  -10.9905   22.3077 H   0  0  0  0  0
  -18.9559  -10.2778   19.8678 H   0  0  0  0  0
  -18.1665  -12.1689   18.7185 H   0  0  0  0  0
  -15.5606  -11.9715   20.3186 H   0  0  0  0  0
  -17.8946  -13.8809   20.3042 H   0  0  0  0  0
  -15.6483  -13.9590   22.3398 H   0  0  0  0  0
  -15.4851  -14.7966   20.8372 H   0  0  0  0  0
  -19.8919  -13.6272   22.5476 H   0  0  0  0  0
  -20.9035  -12.1653   22.6510 H   0  0  0  0  0
  -21.3662  -13.4928   21.5580 H   0  0  0  0  0
  -17.5401   -9.3020   21.4808 H   0  0  0  0  0
  -17.3828  -10.1072   17.9128 H   0  0  0  0  0
  -15.3170  -12.6702   18.1684 H   0  0  0  0  0
  -18.0057  -15.5972   21.4690 H   0  0  0  0  0
  -18.7754  -17.3761   22.8846 H   0  0  0  0  0
  -16.6641  -17.7648   25.0857 H   0  0  0  0  0
  -16.9718  -19.7121   26.5013 H   0  0  0  0  0
  -18.2288  -21.7797   27.1417 H   0  0  0  0  0
  -20.2170  -22.4425   25.8166 H   0  0  0  0  0
  -20.9641  -21.0941   23.9080 H   0  0  0  0  0
  -19.7438  -19.0387   23.2778 H   0  0  0  0  0
  1  2  1  0  0  0
  1  8  1  0  0  0
  1 12  1  0  0  0
  2  3  1  0  0  0
  2  9  1  0  0  0
  3  4  1  0  0  0
  3 10  1  0  0  0
  4  5  1  0  0  0
  4 11  1  0  0  0
  5  6  1  0  0  0
  5 12  1  0  0  0
  6 14  1  0  0  0
  8  7  1  0  0  0
 14 13  1  0  0  0
 13 15  2  0  0  0
 13 16  1  0  0  0
 16 17  2  0  0  0
 17 18  1  0  0  0
 18 19  4  0  0  0
 18 23  4  0  0  0
 19 20  4  0  0  0
 20 21  4  0  0  0
 21 22  4  0  0  0
 22 23  4  0  0  0
  1 24  1  0  0  0
  2 25  1  0  0  0
  3 26  1  0  0  0
  4 27  1  0  0  0
  5 28  1  0  0  0
  6 29  1  0  0  0
  6 30  1  0  0  0
  7 31  1  0  0  0
  7 32  1  0  0  0
  7 33  1  0  0  0
  9 34  1  0  0  0
 10 35  1  0  0  0
 11 36  1  0  0  0
 14 37  1  0  0  0
 16 38  1  0  0  0
 17 39  1  0  0  0
 19 40  1  0  0  0
 20 41  1  0  0  0
 21 42  1  0  0  0
 22 43  1  0  0  0
 23 44  1  0  0  0
M  END
$$$$
