### 
### Created by X-TOOL on Mon Sep 10 21:13:08 2018
### 

@<TRIPOS>MOLECULE
3p23_ligand
   39    41     1     0     0
SMALL
GAST_HUCK


@<TRIPOS>ATOM
      1 PB         26.5150  -38.3010   49.8430 P.3       1 ADP         0.2069
      2 O1B        27.5150  -37.4440   50.5770 O.co2     1 ADP        -0.5891
      3 O2B        26.2560  -37.8210   48.4330 O.co2     1 ADP        -0.5891
      4 O3B        26.6950  -39.7960   49.9860 O.co2     1 ADP        -0.5891
      5 PA         23.7290  -38.0780   49.8470 P.3       1 ADP         0.3276
      6 O1A        23.7460  -37.0540   48.7390 O.co2     1 ADP        -0.5556
      7 O2A        22.6200  -38.0880   50.8700 O.co2     1 ADP        -0.5556
      8 O3A        25.1380  -38.0010   50.6200 O.3       1 ADP        -0.1548
      9 O5'        23.7650  -39.5500   49.1980 O.3       1 ADP        -0.2436
     10 C5'        23.8170  -40.6930   50.0480 C.3       1 ADP         0.1132
     11 C4'        23.8840  -41.9820   49.2340 C.3       1 ADP         0.1189
     12 O4'        22.6870  -42.1570   48.4740 O.3       1 ADP        -0.3364
     13 C3'        25.0300  -41.9990   48.2320 C.3       1 ADP         0.1149
     14 O3'        26.1810  -42.6720   48.7530 O.3       1 ADP        -0.3864
     15 C2'        24.4830  -42.7480   47.0350 C.3       1 ADP         0.1385
     16 O2'        25.0150  -44.0750   47.0190 O.3       1 ADP        -0.3836
     17 C1'        22.9760  -42.8000   47.2300 C.3       1 ADP         0.2010
     18 N9         22.3400  -42.0730   46.1040 N.pl3     1 ADP        -0.1919
     19 C8         22.2210  -40.7350   46.0020 C.2       1 ADP         0.1123
     20 N7         21.6010  -40.3860   44.8480 N.2       1 ADP        -0.2958
     21 C5         21.3170  -41.5210   44.1860 C.ar      1 ADP         0.1045
     22 C6         20.6680  -41.8680   42.9010 C.ar      1 ADP         0.1298
     23 N6         20.1890  -40.9000   42.0820 N.pl3     1 ADP        -0.3152
     24 N1         20.5700  -43.1790   42.5810 N.ar      1 ADP        -0.2698
     25 C2         21.0410  -44.1450   43.3910 C.ar      1 ADP         0.0533
     26 N3         21.6410  -43.8990   44.5690 N.ar      1 ADP        -0.2714
     27 C4         21.8060  -42.6310   45.0140 C.ar      1 ADP         0.1613
     28 H          22.9149  -40.7137   50.6595 H         1 ADP         0.0648
     29 H          24.7110  -40.6257   50.6680 H         1 ADP         0.0648
     30 H          24.0280  -42.7757   49.9671 H         1 ADP         0.0651
     31 H          25.3583  -40.9890   47.9866 H         1 ADP         0.0648
     32 H          25.9511  -43.5798   48.9645 H         1 ADP         0.2100
     33 H          24.7499  -42.2639   46.0956 H         1 ADP         0.0676
     34 H          25.9724  -44.0341   46.9613 H         1 ADP         0.2101
     35 H          22.5978  -43.8221   47.2481 H         1 ADP         0.0996
     36 H          22.5766  -40.0258   46.7495 H         1 ADP         0.1349
     37 H          20.2734  -39.9189   42.3481 H         1 ADP         0.1820
     38 H          19.7441  -41.1526   41.1996 H         1 ADP         0.1820
     39 H          20.9302  -45.1824   43.0753 H         1 ADP         0.0996
@<TRIPOS>BOND
     1    1    2 ar 
     2    1    3 ar 
     3    1    4 ar 
     4    8    1 1  
     5    5    6 ar 
     6    5    7 ar 
     7    5    8 1  
     8    5    9 1  
     9    9   10 1  
    10   10   11 1  
    11   11   12 1  
    12   11   13 1  
    13   12   17 1  
    14   13   14 1  
    15   13   15 1  
    16   15   16 1  
    17   15   17 1  
    18   17   18 1  
    19   18   19 1  
    20   18   27 1  
    21   19   20 2  
    22   20   21 1  
    23   21   22 ar 
    24   21   27 ar 
    25   22   23 1  
    26   22   24 ar 
    27   24   25 ar 
    28   25   26 ar 
    29   26   27 ar 
    30   10   28 1  
    31   10   29 1  
    32   11   30 1  
    33   13   31 1  
    34   14   32 1  
    35   15   33 1  
    36   16   34 1  
    37   17   35 1  
    38   19   36 1  
    39   23   37 1  
    40   23   38 1  
    41   25   39 1  
@<TRIPOS>SUBSTRUCTURE
     1 ADP         1

