3p23_ligand
  -I-interpret- 

 42 44  0  0  0  0  0  0  0  0999 V2000
   26.5150  -38.3010   49.8430 P   0  0  0  0  0
   27.5150  -37.4440   50.5770 O   0  0  0  0  0
   26.2560  -37.8210   48.4330 O   0  0  0  0  0
   26.6950  -39.7960   49.9860 O   0  0  0  0  0
   23.7290  -38.0780   49.8470 P   0  0  0  0  0
   23.7460  -37.0540   48.7390 O   0  0  0  0  0
   22.6200  -38.0880   50.8700 O   0  0  0  0  0
   25.1380  -38.0010   50.6200 O   0  0  0  0  0
   23.7650  -39.5500   49.1980 O   0  0  0  0  0
   23.8170  -40.6930   50.0480 C   0  0  0  0  0
   23.8840  -41.9820   49.2340 C   0  0  0  0  0
   22.6870  -42.1570   48.4740 O   0  0  0  0  0
   25.0300  -41.9990   48.2320 C   0  0  0  0  0
   26.1810  -42.6720   48.7530 O   0  0  0  0  0
   24.4830  -42.7480   47.0350 C   0  0  0  0  0
   25.0150  -44.0750   47.0190 O   0  0  0  0  0
   22.9760  -42.8000   47.2300 C   0  0  0  0  0
   22.3400  -42.0730   46.1040 N   0  0  0  0  0
   22.2210  -40.7350   46.0020 C   0  0  0  0  0
   21.6010  -40.3860   44.8480 N   0  0  0  0  0
   21.3170  -41.5210   44.1860 C   0  0  0  0  0
   20.6680  -41.8680   42.9010 C   0  0  0  0  0
   20.1890  -40.9000   42.0820 N   0  0  0  0  0
   20.5700  -43.1790   42.5810 N   0  0  0  0  0
   21.0410  -44.1450   43.3910 C   0  0  0  0  0
   21.6410  -43.8990   44.5690 N   0  0  0  0  0
   21.8060  -42.6310   45.0140 C   0  0  0  0  0
   25.6151  -38.3987   48.0121 H   0  0  0  0  0
   26.0130  -40.2487   49.4845 H   0  0  0  0  0
   24.5176  -37.1956   48.1857 H   0  0  0  0  0
   22.9149  -40.7137   50.6595 H   0  0  0  0  0
   24.7110  -40.6257   50.6680 H   0  0  0  0  0
   24.0280  -42.7757   49.9671 H   0  0  0  0  0
   25.3583  -40.9890   47.9866 H   0  0  0  0  0
   26.8806  -42.6627   48.0956 H   0  0  0  0  0
   24.7499  -42.2639   46.0956 H   0  0  0  0  0
   24.6675  -44.5487   46.2598 H   0  0  0  0  0
   22.5978  -43.8221   47.2481 H   0  0  0  0  0
   22.5766  -40.0258   46.7495 H   0  0  0  0  0
   20.2734  -39.9189   42.3481 H   0  0  0  0  0
   19.7441  -41.1526   41.1996 H   0  0  0  0  0
   20.9302  -45.1824   43.0753 H   0  0  0  0  0
  1  2  2  0  0  0
  1  3  1  0  0  0
  1  4  1  0  0  0
  8  1  1  0  0  0
  5  6  1  0  0  0
  5  7  2  0  0  0
  5  8  1  0  0  0
  5  9  1  0  0  0
  9 10  1  0  0  0
 10 11  1  0  0  0
 11 12  1  0  0  0
 11 13  1  0  0  0
 12 17  1  0  0  0
 13 14  1  0  0  0
 13 15  1  0  0  0
 15 16  1  0  0  0
 15 17  1  0  0  0
 17 18  1  0  0  0
 18 19  4  0  0  0
 18 27  4  0  0  0
 19 20  4  0  0  0
 20 21  4  0  0  0
 21 22  4  0  0  0
 21 27  4  0  0  0
 22 23  1  0  0  0
 22 24  4  0  0  0
 24 25  4  0  0  0
 25 26  4  0  0  0
 26 27  4  0  0  0
  3 28  1  0  0  0
  4 29  1  0  0  0
  6 30  1  0  0  0
 10 31  1  0  0  0
 10 32  1  0  0  0
 11 33  1  0  0  0
 13 34  1  0  0  0
 14 35  1  0  0  0
 15 36  1  0  0  0
 16 37  1  0  0  0
 17 38  1  0  0  0
 19 39  1  0  0  0
 23 40  1  0  0  0
 23 41  1  0  0  0
 25 42  1  0  0  0
M  END
$$$$
