3zo1_ligand
  -I-interpret- 

 40 43  0  0  0  0  0  0  0  0999 V2000
  -32.3810  -10.2550   -0.9710 C   0  0  0  0  0
  -31.1970  -10.3640   -1.5410 N   0  0  0  0  0
  -33.4020  -10.1150   -1.8520 N   0  0  0  0  0
  -32.8440  -10.1360   -3.0970 C   0  0  0  0  0
  -33.4770  -10.0450   -4.2810 N   0  0  0  0  0
  -32.6710  -10.0780   -5.3450 C   0  0  0  0  0
  -31.4760  -10.2820   -2.8980 C   0  0  0  0  0
  -30.7730  -10.2910   -4.1550 C   0  0  0  0  0
  -31.3390  -10.1800   -5.3810 N   0  0  0  0  0
  -29.3670  -10.4550   -4.2170 N   0  0  0  0  0
  -28.4850  -10.4360   -3.0410 C   0  0  0  0  0
  -27.6170   -9.1900   -2.9510 C   0  0  0  0  0
  -26.7390   -9.0050   -4.2000 C   0  0  0  0  0
  -27.7000   -9.0460   -5.4020 C   0  0  0  0  0
  -28.6120  -10.2670   -5.4650 C   0  0  0  0  0
  -26.1230   -7.6110   -4.2100 N   0  3  0  0  0
  -25.0080   -7.3980   -3.2730 C   0  0  0  0  0
  -23.9120   -8.4190   -3.4770 C   0  0  0  0  0
  -24.4450   -9.8430   -3.3920 C   0  0  0  0  0
  -25.6220  -10.0610   -4.3490 C   0  0  0  0  0
  -32.5256  -10.2756    0.1092 H   0  0  0  0  0
  -33.1657  -10.0130   -6.3141 H   0  0  0  0  0
  -27.8177  -11.2943   -3.1190 H   0  0  0  0  0
  -29.1203  -10.4564   -2.1555 H   0  0  0  0  0
  -26.9610   -9.2944   -2.0868 H   0  0  0  0  0
  -28.2733   -8.3239   -2.8655 H   0  0  0  0  0
  -27.0792   -9.0733   -6.2975 H   0  0  0  0  0
  -28.3495   -8.1752   -5.3125 H   0  0  0  0  0
  -29.3251  -10.1186   -6.2759 H   0  0  0  0  0
  -27.9911  -11.1486   -5.6241 H   0  0  0  0  0
  -26.8625   -6.9668   -3.9296 H   0  0  0  0  0
  -25.7439   -7.4698   -5.1464 H   0  0  0  0  0
  -25.3874   -7.4966   -2.2559 H   0  0  0  0  0
  -24.5931   -6.4055   -3.4491 H   0  0  0  0  0
  -23.1669   -8.2840   -2.6929 H   0  0  0  0  0
  -23.4853   -8.2709   -4.4690 H   0  0  0  0  0
  -24.7905  -10.0219   -2.3738 H   0  0  0  0  0
  -23.6439  -10.5283   -3.6687 H   0  0  0  0  0
  -25.2359   -9.9889   -5.3658 H   0  0  0  0  0
  -26.0569  -11.0334   -4.1181 H   0  0  0  0  0
  1  2  4  0  0  0
  1  3  4  0  0  0
  2  7  4  0  0  0
  3  4  4  0  0  0
  4  5  4  0  0  0
  4  7  4  0  0  0
  5  6  4  0  0  0
  6  9  4  0  0  0
  7  8  4  0  0  0
  8  9  4  0  0  0
  8 10  1  0  0  0
 10 11  1  0  0  0
 10 15  1  0  0  0
 11 12  1  0  0  0
 12 13  1  0  0  0
 13 14  1  0  0  0
 13 16  1  0  0  0
 13 20  1  0  0  0
 14 15  1  0  0  0
 16 17  1  0  0  0
 17 18  1  0  0  0
 18 19  1  0  0  0
 19 20  1  0  0  0
  1 21  1  0  0  0
  6 22  1  0  0  0
 11 23  1  0  0  0
 11 24  1  0  0  0
 12 25  1  0  0  0
 12 26  1  0  0  0
 14 27  1  0  0  0
 14 28  1  0  0  0
 15 29  1  0  0  0
 15 30  1  0  0  0
 16 31  1  0  0  0
 16 32  1  0  0  0
 17 33  1  0  0  0
 17 34  1  0  0  0
 18 35  1  0  0  0
 18 36  1  0  0  0
 19 37  1  0  0  0
 19 38  1  0  0  0
 20 39  1  0  0  0
 20 40  1  0  0  0
M  END
$$$$
