5vii_ligand
  -I-interpret- 

 44 45  0  0  0  0  0  0  0  0999 V2000
  -21.0100   16.1800  -12.2430 N   0  3  0  0  0
  -20.5020   16.8130  -11.0390 C   0  0  0  0  0
  -19.7150   18.0700  -11.4010 C   0  0  0  0  0
  -20.5600   19.1700  -11.7580 C   0  0  0  0  0
  -21.3620   19.6820  -10.5070 C   0  0  0  0  0
  -20.6870   20.8210  -10.1650 C   0  0  0  0  0
  -19.8910   21.3520  -11.2600 N   0  0  0  0  0
  -19.6250   20.3310  -12.0700 N   0  3  0  0  0
  -18.5200   20.2990  -12.9670 C   0  0  0  0  0
  -18.5190   19.4920  -14.2540 C   0  0  0  0  0
  -17.2510   19.5200  -15.0790 C   0  0  0  0  0
  -16.0640   20.3440  -14.6070 C   0  0  0  0  0
  -14.7610   20.4230  -15.3770 C   0  0  0  0  0
  -13.6400   20.4390  -14.3350 C   0  0  0  0  0
  -13.5190   19.0970  -13.5900 C   0  0  0  0  0
  -13.5590   18.0610  -14.4880 F   0  0  0  0  0
  -16.1060   21.1360  -13.3230 C   0  0  0  0  0
  -17.3510   21.1230  -12.4940 C   0  0  0  0  0
  -20.7690   21.5410   -8.8380 C   0  0  0  0  0
  -21.6930   21.2240   -8.0150 O   0  0  0  0  0
  -19.9110   22.4420   -8.6200 O   0  0  0  0  0
  -19.5140   15.9110  -10.3030 C   0  0  0  0  0
  -19.2920   14.7460  -10.7180 O   0  0  0  0  0
  -18.9200   16.3300   -9.2670 O   0  0  0  0  0
  -21.6648   16.8099  -12.7065 H   0  0  0  0  0
  -20.2331   15.9732  -12.8707 H   0  0  0  0  0
  -21.4878   15.3137  -11.9946 H   0  0  0  0  0
  -21.3693   17.0299  -10.4155 H   0  0  0  0  0
  -19.0897   17.8359  -12.2626 H   0  0  0  0  0
  -19.1353   18.3645  -10.5262 H   0  0  0  0  0
  -21.2257   18.8628  -12.5645 H   0  0  0  0  0
  -22.2373   19.2398  -10.0311 H   0  0  0  0  0
  -19.3914   18.9193  -14.5686 H   0  0  0  0  0
  -17.1890   18.9521  -16.0073 H   0  0  0  0  0
  -14.7288   21.3180  -15.9983 H   0  0  0  0  0
  -14.6544   19.5734  -16.0515 H   0  0  0  0  0
  -13.8684   21.2137  -13.6031 H   0  0  0  0  0
  -12.6989   20.6257  -14.8523 H   0  0  0  0  0
  -14.3479   18.9982  -12.8891 H   0  0  0  0  0
  -12.5727   19.0690  -13.0499 H   0  0  0  0  0
  -15.2376   21.7118  -13.0029 H   0  0  0  0  0
  -17.4110   21.6965  -11.5690 H   0  0  0  0  0
  -22.2249   20.5178   -8.3892 H   0  0  0  0  0
  -19.1961   17.2309   -9.0835 H   0  0  0  0  0
  1  2  1  0  0  0
  2  3  1  0  0  0
  2 22  1  0  0  0
  3  4  1  0  0  0
  4  5  1  0  0  0
  4  8  1  0  0  0
  5  6  2  0  0  0
  6  7  1  0  0  0
  6 19  1  0  0  0
  7  8  2  0  0  0
  8  9  1  0  0  0
  9 10  4  0  0  0
  9 18  4  0  0  0
 10 11  4  0  0  0
 11 12  4  0  0  0
 12 13  1  0  0  0
 12 17  4  0  0  0
 13 14  1  0  0  0
 14 15  1  0  0  0
 15 16  1  0  0  0
 17 18  4  0  0  0
 19 20  1  0  0  0
 19 21  2  0  0  0
 22 23  2  0  0  0
 22 24  1  0  0  0
  1 25  1  0  0  0
  1 26  1  0  0  0
  1 27  1  0  0  0
  2 28  1  0  0  0
  3 29  1  0  0  0
  3 30  1  0  0  0
  4 31  1  0  0  0
  5 32  1  0  0  0
 10 33  1  0  0  0
 11 34  1  0  0  0
 13 35  1  0  0  0
 13 36  1  0  0  0
 14 37  1  0  0  0
 14 38  1  0  0  0
 15 39  1  0  0  0
 15 40  1  0  0  0
 17 41  1  0  0  0
 18 42  1  0  0  0
 20 43  1  0  0  0
 24 44  1  0  0  0
M  END
$$$$
