5bpp_ligand
  -I-interpret- 

 33 33  0  0  0  0  0  0  0  0999 V2000
   34.8570   91.6880    0.7220 C   0  0  0  0  0
   33.7950   90.7920    0.1340 C   0  0  0  0  0
   32.4760   91.0380    0.3660 C   0  0  0  0  0
   31.4690   90.2010   -0.1100 C   0  0  0  0  0
   31.7240   89.0950   -0.8890 C   0  0  0  0  0
   33.0730   88.8550   -1.1650 C   0  0  0  0  0
   34.0920   89.6880   -0.6530 C   0  0  0  0  0
   35.2050   91.3150    2.1620 C   0  0  0  0  0
   36.3040   90.8450    2.5540 O   0  0  0  0  0
   34.1560   91.2470    2.9080 N   0  0  0  0  0
   33.1370   90.4690    2.3840 O   0  0  0  0  0
   30.6950   88.2900   -1.3770 O   0  0  0  0  0
   29.3180   88.7430   -1.5800 C   0  0  0  0  0
   28.1400   87.8420   -1.1760 C   0  0  0  0  0
   27.9220   87.5570    0.3290 C   0  0  0  0  0
   26.4870   87.1700    0.6760 C   0  0  0  0  0
   34.4740   92.7085    0.7220 H   0  0  0  0  0
   35.7589   91.5809    0.1194 H   0  0  0  0  0
   32.1985   91.9197    0.9437 H   0  0  0  0  0
   30.4348   90.4318    0.1454 H   0  0  0  0  0
   33.3450   88.0046   -1.7903 H   0  0  0  0  0
   35.1331   89.4592   -0.8806 H   0  0  0  0  0
   34.0827   91.7247    3.8062 H   0  0  0  0  0
   32.3937   90.4658    2.9915 H   0  0  0  0  0
   29.2229   88.8446   -2.6611 H   0  0  0  0  0
   29.2230   89.6177   -0.9366 H   0  0  0  0  0
   28.3524   86.8717   -1.6250 H   0  0  0  0  0
   27.2459   88.3741   -1.5008 H   0  0  0  0  0
   28.1538   88.4732    0.8721 H   0  0  0  0  0
   28.5614   86.7164    0.5984 H   0  0  0  0  0
   25.8155   87.9821    0.3973 H   0  0  0  0  0
   26.2134   86.2671    0.1301 H   0  0  0  0  0
   26.4108   86.9854    1.7476 H   0  0  0  0  0
  1  2  1  0  0  0
  1  8  1  0  0  0
  2  3  4  0  0  0
  2  7  4  0  0  0
  3  4  4  0  0  0
  4  5  4  0  0  0
  5  6  4  0  0  0
  5 12  1  0  0  0
  6  7  4  0  0  0
  8  9  2  0  0  0
  8 10  1  0  0  0
 10 11  1  0  0  0
 12 13  1  0  0  0
 13 14  1  0  0  0
 14 15  1  0  0  0
 15 16  1  0  0  0
  1 17  1  0  0  0
  1 18  1  0  0  0
  3 19  1  0  0  0
  4 20  1  0  0  0
  6 21  1  0  0  0
  7 22  1  0  0  0
 10 23  1  0  0  0
 11 24  1  0  0  0
 13 25  1  0  0  0
 13 26  1  0  0  0
 14 27  1  0  0  0
 14 28  1  0  0  0
 15 29  1  0  0  0
 15 30  1  0  0  0
 16 31  1  0  0  0
 16 32  1  0  0  0
 16 33  1  0  0  0
M  END
$$$$
