4lkq_ligand
  -I-interpret- 

 15 16  0  0  0  0  0  0  0  0999 V2000
    2.8330   15.0380   41.9400 N   0  0  0  0  0
    3.4240   14.0610   42.6520 C   0  0  0  0  0
    3.5250   14.1120   44.0120 N   0  0  0  0  0
    4.1170   13.1170   44.7420 C   0  0  0  0  0
    4.2210   13.2160   46.5140 S   0  0  0  0  0
    4.6560   12.0130   44.1540 N   0  0  0  0  0
    4.5750   11.9270   42.8030 C   0  0  0  0  0
    4.9900   10.9810   41.9380 N   0  0  0  0  0
    4.6720   11.3500   40.6970 N   0  0  0  0  0
    4.0420   12.5480   40.7130 C   0  0  0  0  0
    3.9680   12.9360   42.0430 C   0  0  0  0  0
    2.4421   15.8509   42.4161 H   0  0  0  0  0
    2.7759   14.9656   40.9242 H   0  0  0  0  0
    4.8362   12.1335   46.9816 H   0  0  0  0  0
    3.6667   13.0993   39.8508 H   0  0  0  0  0
  1  2  1  0  0  0
  2  3  4  0  0  0
  2 11  4  0  0  0
  3  4  4  0  0  0
  4  5  1  0  0  0
  4  6  4  0  0  0
  6  7  4  0  0  0
  7  8  4  0  0  0
  7 11  4  0  0  0
  8  9  4  0  0  0
  9 10  4  0  0  0
 10 11  4  0  0  0
  1 12  1  0  0  0
  1 13  1  0  0  0
  5 14  1  0  0  0
 10 15  1  0  0  0
M  END
$$$$
