4c1g_ligand
  -I-interpret- 

 29 29  0  0  0  0  0  0  0  0999 V2000
   10.0620   -7.9830  -18.2640 O   0  0  0  0  0
   11.0630   -7.4990  -18.8780 C   0  0  0  0  0
   11.1250   -6.3260  -19.2530 O   0  0  0  0  0
   12.1810   -8.3770  -19.1430 C   0  0  0  0  0
   12.9800   -7.7270  -20.2260 C   0  0  0  0  0
   13.7280   -6.6540  -19.5330 C   0  0  0  0  0
   13.7780   -7.0700  -18.0970 C   0  0  0  0  0
   13.0490   -8.3050  -18.0200 N   0  0  0  0  0
   13.1840   -9.2850  -16.9560 C   0  0  0  0  0
   12.5340  -10.2890  -16.9800 O   0  0  0  0  0
   14.1550   -9.0470  -15.8480 C   0  0  0  0  0
   15.3690   -9.9170  -16.1210 C   0  0  0  0  0
   13.5440   -9.4400  -14.5360 C   0  0  0  0  0
   11.9150   -8.6680  -14.3390 S   0  0  0  0  0
   10.2251   -8.9085  -18.0680 H   0  0  0  0  0
   11.8374   -9.3856  -19.3727 H   0  0  0  0  0
   12.3489   -7.3378  -21.0250 H   0  0  0  0  0
   13.6430   -8.4323  -20.7272 H   0  0  0  0  0
   13.2427   -5.6854  -19.6529 H   0  0  0  0  0
   14.7277   -6.5293  -19.9491 H   0  0  0  0  0
   13.3398   -6.3106  -17.4494 H   0  0  0  0  0
   14.8059   -7.1952  -17.7567 H   0  0  0  0  0
   14.4289   -7.9932  -15.7978 H   0  0  0  0  0
   15.0657  -10.9636  -16.1479 H   0  0  0  0  0
   15.8052   -9.6391  -17.0805 H   0  0  0  0  0
   16.1045   -9.7707  -15.3300 H   0  0  0  0  0
   14.1946   -9.1061  -13.7277 H   0  0  0  0  0
   13.4284  -10.5235  -14.5091 H   0  0  0  0  0
   11.3930   -9.0300  -13.1705 H   0  0  0  0  0
  1  2  1  0  0  0
  2  3  2  0  0  0
  2  4  1  0  0  0
  4  5  1  0  0  0
  4  8  1  0  0  0
  5  6  1  0  0  0
  6  7  1  0  0  0
  7  8  1  0  0  0
  8  9  1  0  0  0
  9 10  2  0  0  0
  9 11  1  0  0  0
 11 12  1  0  0  0
 11 13  1  0  0  0
 13 14  1  0  0  0
  1 15  1  0  0  0
  4 16  1  0  0  0
  5 17  1  0  0  0
  5 18  1  0  0  0
  6 19  1  0  0  0
  6 20  1  0  0  0
  7 21  1  0  0  0
  7 22  1  0  0  0
 11 23  1  0  0  0
 12 24  1  0  0  0
 12 25  1  0  0  0
 12 26  1  0  0  0
 13 27  1  0  0  0
 13 28  1  0  0  0
 14 29  1  0  0  0
M  END
$$$$
