4xtp_ligand
  -I-interpret- 

 42 42  0  0  0  0  0  0  0  0999 V2000
  -19.3050  -27.4830  -37.6970 O   0  0  0  0  0
  -20.5350  -27.6840  -37.7780 C   0  0  0  0  0
  -21.0450  -28.2440  -38.7700 O   0  0  0  0  0
  -21.4150  -27.2450  -36.6550 C   0  0  0  0  0
  -22.7670  -27.7230  -36.8780 N   0  3  0  0  0
  -20.9170  -27.8560  -35.3580 C   0  0  0  0  0
  -21.6850  -27.3360  -34.2750 O   0  0  0  0  0
  -21.1430  -27.7020  -33.0070 C   0  0  0  0  0
  -22.0220  -27.1270  -31.9010 C   0  0  0  0  0
  -23.3990  -27.5550  -32.0550 N   0  0  0  0  0
  -24.2020  -27.7410  -31.0120 C   0  0  0  0  0
  -25.6370  -27.9350  -31.3630 C   0  0  0  0  0
  -23.8060  -27.7540  -29.8590 O   0  0  0  0  0
  -21.9870  -25.6010  -31.9110 C   0  0  0  0  0
  -22.6310  -25.0740  -30.7470 O   0  0  0  0  0
  -20.5620  -25.1040  -31.9530 C   0  0  0  0  0
  -19.9430  -25.3780  -30.6850 O   0  0  0  0  0
  -19.7670  -25.7880  -33.0610 C   0  0  0  0  0
  -19.8080  -27.2040  -32.8760 O   0  0  0  0  0
  -18.3190  -25.3290  -33.0590 C   0  0  0  0  0
  -17.5210  -26.2530  -33.8200 O   0  0  0  0  0
  -19.1076  -27.0441  -36.8663 H   0  0  0  0  0
  -21.4002  -26.1565  -36.6005 H   0  0  0  0  0
  -23.1276  -27.3267  -37.7459 H   0  0  0  0  0
  -22.7598  -28.7408  -36.9447 H   0  0  0  0  0
  -23.3605  -27.4363  -36.0995 H   0  0  0  0  0
  -19.8652  -27.6083  -35.2150 H   0  0  0  0  0
  -21.0241  -28.9400  -35.3974 H   0  0  0  0  0
  -21.1173  -28.7888  -32.9272 H   0  0  0  0  0
  -21.6265  -27.4969  -30.9550 H   0  0  0  0  0
  -23.7631  -27.7186  -32.9937 H   0  0  0  0  0
  -25.9687  -28.9097  -31.0051 H   0  0  0  0  0
  -26.2334  -27.1522  -30.8944 H   0  0  0  0  0
  -25.7550  -27.8846  -32.4454 H   0  0  0  0  0
  -22.5162  -25.2614  -32.8014 H   0  0  0  0  0
  -22.5988  -24.1149  -30.7715 H   0  0  0  0  0
  -20.5707  -24.0331  -32.1562 H   0  0  0  0  0
  -19.0352  -25.0661  -30.6993 H   0  0  0  0  0
  -20.2169  -25.5196  -34.0168 H   0  0  0  0  0
  -17.9516  -25.2912  -32.0335 H   0  0  0  0  0
  -18.2519  -24.3374  -33.5065 H   0  0  0  0  0
  -16.6063  -25.9615  -33.8177 H   0  0  0  0  0
  1  2  1  0  0  0
  2  3  2  0  0  0
  2  4  1  0  0  0
  4  5  1  0  0  0
  4  6  1  0  0  0
  6  7  1  0  0  0
  7  8  1  0  0  0
  8  9  1  0  0  0
  8 19  1  0  0  0
  9 10  1  0  0  0
  9 14  1  0  0  0
 10 11  1  0  0  0
 11 12  1  0  0  0
 11 13  2  0  0  0
 14 15  1  0  0  0
 14 16  1  0  0  0
 16 17  1  0  0  0
 16 18  1  0  0  0
 18 19  1  0  0  0
 18 20  1  0  0  0
 20 21  1  0  0  0
  1 22  1  0  0  0
  4 23  1  0  0  0
  5 24  1  0  0  0
  5 25  1  0  0  0
  5 26  1  0  0  0
  6 27  1  0  0  0
  6 28  1  0  0  0
  8 29  1  0  0  0
  9 30  1  0  0  0
 10 31  1  0  0  0
 12 32  1  0  0  0
 12 33  1  0  0  0
 12 34  1  0  0  0
 14 35  1  0  0  0
 15 36  1  0  0  0
 16 37  1  0  0  0
 17 38  1  0  0  0
 18 39  1  0  0  0
 20 40  1  0  0  0
 20 41  1  0  0  0
 21 42  1  0  0  0
M  END
$$$$
