3g4i_ligand
  -I-interpret- 

 41 44  0  0  0  0  0  0  0  0999 V2000
   22.5110   -1.3240   34.6220 C   0  0  0  0  0
   22.4680   -2.3810   33.7660 C   0  0  0  0  0
   22.5330   -3.7720   34.3510 C   0  0  0  0  0
   22.6670   -2.8330   36.5500 C   0  0  0  0  0
   22.6100   -1.5580   36.0770 C   0  0  0  0  0
   22.3910   -4.6890   31.9970 C   0  0  0  0  0
   25.7760   -8.7430   32.6360 O   0  0  0  0  0
   24.9730   -9.1890   33.4010 N   0  0  0  0  0
   25.1210  -10.4680   33.7810 O   0  0  0  0  0
   23.8740   -8.4150   33.8750 C   0  0  0  0  0
   23.7120   -7.1110   33.4770 C   0  0  0  0  0
   22.8410   -8.9990   34.7970 C   0  0  0  0  0
   21.7830   -8.2720   35.2220 C   0  0  0  0  0
   21.6200   -6.8500   34.7830 C   0  0  0  0  0
   22.5530   -6.3010   33.9440 C   0  0  0  0  0
   22.4900   -4.9170   33.4590 N   0  0  0  0  0
   22.6260   -3.9390   35.6500 N   0  0  0  0  0
   22.3550   -5.6570   31.2290 O   0  0  0  0  0
   22.3490   -3.3360   31.4350 N   0  0  0  0  0
   22.3750   -2.1890   32.2930 C   0  0  0  0  0
   22.3380   -1.0260   31.7870 O   0  0  0  0  0
   22.2500   -3.1620   29.9550 C   0  0  0  0  0
   20.8820   -3.5660   29.4500 C   0  0  0  0  0
   20.6260   -4.6480   28.6710 C   0  0  0  0  0
   19.2210   -4.9050   28.2730 C   0  0  0  0  0
   18.2720   -4.1070   28.6930 N   0  0  0  0  0
   18.5380   -2.9720   29.5220 C   0  0  0  0  0
   19.7840   -2.6880   29.9130 C   0  0  0  0  0
   22.4724   -0.3060   34.2344 H   0  0  0  0  0
   22.7444   -3.0100   37.6227 H   0  0  0  0  0
   22.6372   -0.7151   36.7675 H   0  0  0  0  0
   24.4447   -6.6607   32.8073 H   0  0  0  0  0
   22.9469  -10.0313   35.1305 H   0  0  0  0  0
   21.0461   -8.7230   35.8867 H   0  0  0  0  0
   20.7704   -6.2597   35.1264 H   0  0  0  0  0
   22.9989   -3.7945   29.4783 H   0  0  0  0  0
   22.4143   -2.1115   29.7153 H   0  0  0  0  0
   21.4302   -5.3088   28.3474 H   0  0  0  0  0
   18.9795   -5.7542   27.6338 H   0  0  0  0  0
   17.7149   -2.3313   29.8385 H   0  0  0  0  0
   19.9865   -1.8317   30.5564 H   0  0  0  0  0
  2  1  4  0  0  0
  1  5  4  0  0  0
  3  2  4  0  0  0
  2 20  1  0  0  0
 16  3  1  0  0  0
  3 17  4  0  0  0
  4  5  4  0  0  0
 17  4  4  0  0  0
 16  6  1  0  0  0
  6 18  2  0  0  0
  6 19  1  0  0  0
  8  7  2  0  0  0
  8  9  2  0  0  0
 10  8  1  0  0  0
 11 10  4  0  0  0
 10 12  4  0  0  0
 15 11  4  0  0  0
 13 12  4  0  0  0
 14 13  4  0  0  0
 15 14  4  0  0  0
 15 16  1  0  0  0
 19 20  1  0  0  0
 19 22  1  0  0  0
 20 21  2  0  0  0
 22 23  1  0  0  0
 23 24  4  0  0  0
 23 28  4  0  0  0
 24 25  4  0  0  0
 25 26  4  0  0  0
 26 27  4  0  0  0
 27 28  4  0  0  0
  1 29  1  0  0  0
  4 30  1  0  0  0
  5 31  1  0  0  0
 11 32  1  0  0  0
 12 33  1  0  0  0
 13 34  1  0  0  0
 14 35  1  0  0  0
 22 36  1  0  0  0
 22 37  1  0  0  0
 24 38  1  0  0  0
 25 39  1  0  0  0
 27 40  1  0  0  0
 28 41  1  0  0  0
M  END
$$$$
