5fap_ligand
  -I-interpret- 

 45 46  0  0  0  0  0  0  0  0999 V2000
   12.7750    0.3250   21.5250 O   0  0  0  0  0
   13.4870    0.7150   22.6490 S   0  0  0  0  0
   13.1230   -0.0070   23.7940 O   0  0  0  0  0
   14.8230    0.8590   22.4890 O   0  0  0  0  0
   12.8260    2.1190   22.6880 O   0  0  0  0  0
   12.5010    2.5700   23.8320 N   0  3  0  0  0
   11.7340    3.6580   23.7600 C   0  0  0  0  0
   10.4500    3.3710   22.9890 C   0  0  0  0  0
   10.5250    3.6890   21.4970 C   0  0  0  0  0
   12.4060    4.9720   23.4060 C   0  0  0  0  0
   12.4910    4.9790   21.9650 N   0  0  0  0  0
   13.7050    4.9230   21.3430 C   0  0  0  0  0
   13.6860    4.8150   20.2070 O   0  0  0  0  0
   11.2100    4.9850   21.2350 C   0  0  0  0  0
   10.1920    6.0680   21.5910 C   0  0  0  0  0
   10.4840    7.0000   22.3030 O   0  0  0  0  0
    8.9560    5.9310   21.1440 N   0  0  0  0  0
    8.4380    6.5020   20.0070 N   0  0  0  0  0
    8.0860    7.7660   19.8350 C   0  0  0  0  0
    8.6530    8.4680   19.0240 O   0  0  0  0  0
    6.9010    8.2530   20.5920 C   0  0  0  0  0
    6.7930    9.7470   20.9790 C   0  0  0  0  0
    5.3660    9.7320   20.5090 N   0  3  0  0  0
    5.6940    8.5330   19.6660 C   0  0  0  0  0
   13.6416    0.2985   24.5419 H   0  0  0  0  0
   13.3584    2.8244   24.3224 H   0  0  0  0  0
   11.9698    1.8449   24.3141 H   0  0  0  0  0
   11.4676    3.8676   24.7959 H   0  0  0  0  0
    9.6734    4.0076   23.4129 H   0  0  0  0  0
   10.2553    2.3023   23.0787 H   0  0  0  0  0
    9.5075    3.7580   21.1122 H   0  0  0  0  0
   11.0946    2.8983   21.0088 H   0  0  0  0  0
   13.3902    5.0567   23.8668 H   0  0  0  0  0
   11.8403    5.8257   23.7791 H   0  0  0  0  0
   14.6402    4.9783   21.9002 H   0  0  0  0  0
   11.5038    5.1743   20.2026 H   0  0  0  0  0
    8.3275    5.3463   21.6950 H   0  0  0  0  0
    8.3105    5.8829   19.2064 H   0  0  0  0  0
    6.9504    7.5006   21.3791 H   0  0  0  0  0
    7.5010   10.4766   20.5859 H   0  0  0  0  0
    7.0441   10.0809   21.9857 H   0  0  0  0  0
    4.9443   10.5627   20.0937 H   0  0  0  0  0
    4.5962    9.7054   21.1777 H   0  0  0  0  0
    4.9458    7.7628   19.4788 H   0  0  0  0  0
    5.8298    8.6303   18.5889 H   0  0  0  0  0
  1  2  2  0  0  0
  2  3  1  0  0  0
  2  4  2  0  0  0
  2  5  1  0  0  0
  5  6  1  0  0  0
  6  7  1  0  0  0
  7  8  1  0  0  0
  7 10  1  0  0  0
  8  9  1  0  0  0
  9 14  1  0  0  0
 10 11  1  0  0  0
 11 12  1  0  0  0
 11 14  1  0  0  0
 12 13  2  0  0  0
 14 15  1  0  0  0
 15 16  2  0  0  0
 15 17  1  0  0  0
 17 18  1  0  0  0
 18 19  1  0  0  0
 19 20  2  0  0  0
 19 21  1  0  0  0
 21 22  1  0  0  0
 21 24  1  0  0  0
 22 23  1  0  0  0
 23 24  1  0  0  0
  3 25  1  0  0  0
  6 26  1  0  0  0
  6 27  1  0  0  0
  7 28  1  0  0  0
  8 29  1  0  0  0
  8 30  1  0  0  0
  9 31  1  0  0  0
  9 32  1  0  0  0
 10 33  1  0  0  0
 10 34  1  0  0  0
 12 35  1  0  0  0
 14 36  1  0  0  0
 17 37  1  0  0  0
 18 38  1  0  0  0
 21 39  1  0  0  0
 22 40  1  0  0  0
 22 41  1  0  0  0
 23 42  1  0  0  0
 23 43  1  0  0  0
 24 44  1  0  0  0
 24 45  1  0  0  0
M  END
$$$$
