6uf0_ligand
  -I-interpret- 

 67 70  0  0  0  0  0  0  0  0999 V2000
  -11.0750  -27.0590   -9.7440 C   0  0  0  0  0
  -16.2260  -29.4870  -13.0090 C   0  0  0  0  0
  -11.9400  -27.5750   -8.7930 C   0  0  0  0  0
  -12.2780  -26.8060   -7.6690 C   0  0  0  0  0
  -11.7400  -25.5260   -7.5200 C   0  0  0  0  0
  -10.5520  -25.7960   -9.5380 C   0  0  0  0  0
  -12.2400  -22.2330  -11.9730 C   0  0  0  0  0
  -14.3670  -27.7920   -7.1410 C   0  0  0  0  0
   -8.4720  -26.0660  -11.1340 O   0  0  0  0  0
   -9.4810  -25.0770  -10.7960 S   0  0  0  0  0
  -10.6510  -24.2780  -11.9780 N   0  0  0  0  0
  -10.8190  -22.8220  -12.0270 C   0  0  0  0  0
  -13.1840  -22.6340  -11.2590 O   0  0  0  0  0
  -12.4720  -21.2560  -12.6950 O   0  0  0  0  0
  -11.5610  -25.0500  -12.9180 C   0  0  0  0  0
  -12.8510  -25.2270  -12.6230 N   0  0  0  0  0
  -13.7120  -25.9350  -13.3760 C   0  0  0  0  0
  -13.2520  -26.5120  -14.5470 C   0  0  0  0  0
  -14.0740  -27.4090  -15.3630 N   0  0  0  0  0
  -14.5390  -27.0500  -16.6810 C   0  0  0  0  0
  -15.8680  -26.4050  -16.9050 C   0  0  0  0  0
  -16.8610  -26.5630  -15.9980 F   0  0  0  0  0
  -15.5690  -25.1060  -17.0970 F   0  0  0  0  0
  -16.2630  -26.9850  -18.0290 F   0  0  0  0  0
  -14.1330  -29.1480  -14.7380 S   0  0  0  0  0
  -12.8420  -29.7500  -14.4670 O   0  0  0  0  0
  -14.8540  -29.3910  -13.0920 C   0  0  0  0  0
  -16.8080  -29.6600  -11.7610 C   0  0  0  0  0
  -16.0050  -29.7640  -10.6400 C   0  0  0  0  0
  -16.6470  -29.9410   -9.4030 O   0  0  0  0  0
  -17.2180  -28.7590   -8.8730 C   0  0  0  0  0
  -14.6240  -29.6420  -10.7440 C   0  0  0  0  0
  -14.0230  -29.4690  -11.9860 C   0  0  0  0  0
  -14.8320  -29.8670  -15.7920 O   0  0  0  0  0
  -11.8830  -26.3650  -14.9020 C   0  0  0  0  0
  -11.0440  -25.6010  -14.1000 C   0  0  0  0  0
   -9.7040  -25.4410  -14.4190 C   0  0  0  0  0
   -9.2280  -26.0370  -15.5750 C   0  0  0  0  0
  -10.0530  -26.7750  -16.3880 C   0  0  0  0  0
  -11.3780  -26.9440  -16.0600 C   0  0  0  0  0
  -10.8690  -25.0210   -8.4610 C   0  0  0  0  0
  -13.1370  -27.3060   -6.6710 O   0  0  0  0  0
   -8.5610  -24.0890  -10.2560 O   0  0  0  0  0
  -10.8134  -27.6342  -10.6322 H   0  0  0  0  0
  -16.8423  -29.4282  -13.9061 H   0  0  0  0  0
  -12.3565  -28.5746   -8.9173 H   0  0  0  0  0
  -12.0108  -24.9224   -6.6537 H   0  0  0  0  0
  -14.9047  -26.9891   -7.6453 H   0  0  0  0  0
  -14.1900  -28.6083   -7.8413 H   0  0  0  0  0
  -14.9581  -28.1547   -6.3001 H   0  0  0  0  0
  -10.3272  -22.4520  -11.1274 H   0  0  0  0  0
  -10.4294  -22.5269  -13.0013 H   0  0  0  0  0
  -12.8950  -23.3907  -10.7437 H   0  0  0  0  0
  -14.7516  -26.0520  -13.0700 H   0  0  0  0  0
  -14.6316  -28.0096  -17.1896 H   0  0  0  0  0
  -13.8281  -26.2897  -17.0046 H   0  0  0  0  0
  -17.8924  -29.7136  -11.6649 H   0  0  0  0  0
  -16.4362  -28.0139   -8.7254 H   0  0  0  0  0
  -17.9628  -28.3731   -9.5690 H   0  0  0  0  0
  -17.6931  -28.9831   -7.9179 H   0  0  0  0  0
  -14.0080  -29.6822   -9.8456 H   0  0  0  0  0
  -12.9399  -29.3975  -12.0857 H   0  0  0  0  0
   -9.0420  -24.8608  -13.7762 H   0  0  0  0  0
   -8.1786  -25.9181  -15.8447 H   0  0  0  0  0
   -9.6563  -27.2284  -17.2964 H   0  0  0  0  0
  -12.0304  -27.5307  -16.7068 H   0  0  0  0  0
  -10.4427  -24.0243   -8.3473 H   0  0  0  0  0
  1  3  4  0  0  0
  6  1  4  0  0  0
 27  2  4  0  0  0
  2 28  4  0  0  0
  3  4  4  0  0  0
  5  4  4  0  0  0
  4 42  1  0  0  0
 41  5  4  0  0  0
 10  6  1  0  0  0
  6 41  4  0  0  0
 12  7  1  0  0  0
  7 13  1  0  0  0
  7 14  2  0  0  0
 42  8  1  0  0  0
 10  9  2  0  0  0
 11 10  1  0  0  0
 10 43  2  0  0  0
 11 12  1  0  0  0
 15 11  1  0  0  0
 16 15  4  0  0  0
 15 36  4  0  0  0
 17 16  4  0  0  0
 18 17  4  0  0  0
 19 18  1  0  0  0
 18 35  4  0  0  0
 19 20  1  0  0  0
 25 19  1  0  0  0
 20 21  1  0  0  0
 21 22  1  0  0  0
 21 23  1  0  0  0
 21 24  1  0  0  0
 25 26  2  0  0  0
 25 27  1  0  0  0
 25 34  2  0  0  0
 27 33  4  0  0  0
 28 29  4  0  0  0
 29 30  1  0  0  0
 29 32  4  0  0  0
 30 31  1  0  0  0
 32 33  4  0  0  0
 35 36  4  0  0  0
 35 40  4  0  0  0
 36 37  4  0  0  0
 37 38  4  0  0  0
 38 39  4  0  0  0
 39 40  4  0  0  0
  1 44  1  0  0  0
  2 45  1  0  0  0
  3 46  1  0  0  0
  5 47  1  0  0  0
  8 48  1  0  0  0
  8 49  1  0  0  0
  8 50  1  0  0  0
 12 51  1  0  0  0
 12 52  1  0  0  0
 13 53  1  0  0  0
 17 54  1  0  0  0
 20 55  1  0  0  0
 20 56  1  0  0  0
 28 57  1  0  0  0
 31 58  1  0  0  0
 31 59  1  0  0  0
 31 60  1  0  0  0
 32 61  1  0  0  0
 33 62  1  0  0  0
 37 63  1  0  0  0
 38 64  1  0  0  0
 39 65  1  0  0  0
 40 66  1  0  0  0
 41 67  1  0  0  0
M  END
$$$$
