5k0j_ligand
  -I-interpret- 

 39 42  0  0  0  0  0  0  0  0999 V2000
   17.2860  -19.8100   12.8800 C   0  0  0  0  0
   16.2130  -20.8300   12.6410 C   0  0  0  0  0
   11.3660  -20.1050   11.3930 C   0  0  0  0  0
   10.3850  -19.0380   11.4610 C   0  0  0  0  0
   10.4470  -17.7550   12.2160 C   0  0  0  0  0
   12.6740  -20.0690   12.1070 C   0  0  0  0  0
   13.8400  -20.6840   11.7120 C   0  0  0  0  0
   16.5600  -21.9830   11.7610 C   0  0  0  0  0
   17.0580  -21.7480   10.4860 C   0  0  0  0  0
   17.3580  -22.8140    9.6490 C   0  0  0  0  0
   17.1510  -24.1150   10.1000 C   0  0  0  0  0
   16.6390  -24.3520   11.3760 C   0  0  0  0  0
   16.3370  -23.2800   12.2110 C   0  0  0  0  0
   17.0870  -26.4510    9.6770 C   0  0  0  0  0
   16.9220  -20.7690   13.9570 C   0  0  0  0  0
   10.8410  -21.2240   10.4520 S   0  0  0  0  0
    9.1740  -19.4640   10.5810 N   0  0  0  0  0
    9.4300  -20.7420   10.0090 C   0  0  0  0  0
    8.4690  -21.4450    9.1030 C   0  0  0  0  0
   12.9120  -19.4250   13.2850 N   0  0  0  0  0
   14.2290  -19.6150   13.6130 N   0  0  0  0  0
   14.7950  -20.3850   12.6640 C   0  0  0  0  0
   17.4520  -25.1770    9.2780 O   0  0  0  0  0
   17.8906  -18.9757   12.5244 H   0  0  0  0  0
   10.5459  -17.9659   13.2808 H   0  0  0  0  0
   11.3068  -17.1769   11.8775 H   0  0  0  0  0
    9.5335  -17.1869   12.0401 H   0  0  0  0  0
   13.9827  -21.2913   10.8182 H   0  0  0  0  0
   17.2135  -20.7254   10.1422 H   0  0  0  0  0
   17.7517  -22.6344    8.6486 H   0  0  0  0  0
   16.4759  -25.3740   11.7182 H   0  0  0  0  0
   15.9301  -23.4552   13.2069 H   0  0  0  0  0
   17.5731  -26.6871   10.6236 H   0  0  0  0  0
   16.0051  -26.4953    9.8017 H   0  0  0  0  0
   17.3964  -27.1704    8.9189 H   0  0  0  0  0
   17.0665  -21.1498   14.9681 H   0  0  0  0  0
    8.9318  -21.5903    8.1269 H   0  0  0  0  0
    8.2098  -22.4132    9.5313 H   0  0  0  0  0
    7.5678  -20.8419    8.9931 H   0  0  0  0  0
  2  1  1  0  0  0
 15  1  2  0  0  0
  2  8  1  0  0  0
  2 15  1  0  0  0
 22  2  1  0  0  0
  3  4  4  0  0  0
  6  3  1  0  0  0
  3 16  4  0  0  0
  4  5  1  0  0  0
  4 17  4  0  0  0
  7  6  4  0  0  0
  6 20  4  0  0  0
  7 22  4  0  0  0
  8  9  4  0  0  0
  8 13  4  0  0  0
  9 10  4  0  0  0
 10 11  4  0  0  0
 11 12  4  0  0  0
 11 23  1  0  0  0
 12 13  4  0  0  0
 23 14  1  0  0  0
 16 18  4  0  0  0
 17 18  4  0  0  0
 18 19  1  0  0  0
 20 21  4  0  0  0
 21 22  4  0  0  0
  1 24  1  0  0  0
  5 25  1  0  0  0
  5 26  1  0  0  0
  5 27  1  0  0  0
  7 28  1  0  0  0
  9 29  1  0  0  0
 10 30  1  0  0  0
 12 31  1  0  0  0
 13 32  1  0  0  0
 14 33  1  0  0  0
 14 34  1  0  0  0
 14 35  1  0  0  0
 15 36  1  0  0  0
 19 37  1  0  0  0
 19 38  1  0  0  0
 19 39  1  0  0  0
M  END
$$$$
