4w9s_ligand
  -I-interpret- 

 26 28  0  0  0  0  0  0  0  0999 V2000
    9.0120   19.7740   -8.5830 O   0  0  0  0  0
    9.6970   20.5830   -9.4680 C   0  0  0  0  0
   10.0240   20.1430  -10.7210 C   0  0  0  0  0
   10.7070   20.9520  -11.5710 N   0  0  0  0  0
   11.0740   22.1630  -11.1140 C   0  0  0  0  0
   11.7870   23.1480  -11.9880 C   0  0  0  0  0
   12.4580   24.2190  -11.4050 C   0  0  0  0  0
   13.0610   25.1660  -12.2320 C   0  0  0  0  0
   12.9420   25.0430  -13.6110 C   0  0  0  0  0
   12.2550   23.9910  -14.1850 C   0  0  0  0  0
   11.6490   23.0430  -13.3730 C   0  0  0  0  0
   13.5820   26.0810  -14.4900 C   0  0  0  0  0
   13.2410   26.4140  -15.7440 N   0  0  0  0  0
   14.0750   27.3980  -16.1170 N   0  0  0  0  0
   14.8940   27.6880  -15.1020 N   0  0  0  0  0
   14.5610   26.8710  -14.0910 N   0  0  0  0  0
   10.7530   22.6340   -9.9040 N   0  0  0  0  0
   10.1040   21.8570   -9.0480 C   0  0  0  0  0
    9.8770   22.2810   -7.9500 O   0  0  0  0  0
    8.8723   20.2482   -7.7601 H   0  0  0  0  0
    9.7357   19.1407  -11.0379 H   0  0  0  0  0
   10.9332   20.6531  -12.5196 H   0  0  0  0  0
   12.5112   24.3158  -10.3206 H   0  0  0  0  0
   13.6209   25.9957  -11.8004 H   0  0  0  0  0
   12.1893   23.9061  -15.2697 H   0  0  0  0  0
   11.0731   22.2276  -13.8106 H   0  0  0  0  0
  1  2  1  0  0  0
  2  3  2  0  0  0
  2 18  1  0  0  0
  3  4  1  0  0  0
  4  5  1  0  0  0
  5  6  1  0  0  0
  5 17  2  0  0  0
  6  7  4  0  0  0
  6 11  4  0  0  0
  7  8  4  0  0  0
  8  9  4  0  0  0
  9 10  4  0  0  0
  9 12  1  0  0  0
 10 11  4  0  0  0
 12 13  4  0  0  0
 12 16  4  0  0  0
 13 14  4  0  0  0
 14 15  4  0  0  0
 15 16  4  0  0  0
 17 18  1  0  0  0
 18 19  2  0  0  0
  1 20  1  0  0  0
  3 21  1  0  0  0
  4 22  1  0  0  0
  7 23  1  0  0  0
  8 24  1  0  0  0
 10 25  1  0  0  0
 11 26  1  0  0  0
M  END
$$$$
