1qtn_ligand
  -I-interpret- 

 70 69  0  0  0  0  0  0  0  0999 V2000
   -7.1860   31.9810   48.8980 C   0  0  0  0  0
   -6.4440   32.7670   48.3130 O   0  0  0  0  0
   -7.2140   31.9300   50.4170 C   0  0  0  0  0
   -7.9530   31.1000   48.2840 N   0  0  0  0  0
   -8.0240   31.0360   46.8130 C   0  0  0  0  0
   -8.6890   32.2830   46.2700 C   0  0  0  0  0
   -9.5050   32.9260   46.9180 O   0  0  0  0  0
   -8.8720   29.7980   46.4210 C   0  0  0  0  0
   -8.4730   29.2540   45.0490 C   0  0  0  0  0
  -10.3420   30.0660   46.5310 C   0  0  0  0  0
   -9.3150   28.0830   44.6370 C   0  0  0  0  0
   -8.2360   32.7080   45.0950 N   0  0  0  0  0
   -8.7310   33.9090   44.4360 C   0  0  0  0  0
   -9.2620   33.5640   43.0380 C   0  0  0  0  0
   -8.9140   32.4840   42.5100 O   0  0  0  0  0
   -7.6150   34.9550   44.3190 C   0  0  0  0  0
   -7.0860   35.3600   45.7050 C   0  0  0  0  0
   -6.0700   36.4480   45.6790 C   0  0  0  0  0
   -5.6130   36.9390   44.6390 O   0  0  0  0  0
   -5.7090   36.9300   46.8300 O   0  0  0  0  0
  -10.0650   34.4230   42.4790 N   0  0  0  0  0
  -10.5910   34.2090   41.1470 C   0  0  0  0  0
   -9.9040   35.1120   40.1380 C   0  0  0  0  0
   -9.5160   36.2340   40.4330 O   0  0  0  0  0
  -12.1090   34.4360   41.0830 C   0  0  0  0  0
  -12.4350   35.7250   41.5660 O   0  0  0  0  0
  -12.8520   33.4120   41.8780 C   0  0  0  0  0
  -10.5950   35.9080   37.0360 C   0  0  0  0  0
   -9.7940   34.6170   38.9100 N   0  0  0  0  0
  -10.2860   36.7480   35.9590 O   0  0  0  0  0
   -9.3830   35.4420   37.7790 C   0  0  0  0  0
   -8.4780   34.5900   36.8380 C   0  0  0  0  0
   -7.0470   34.5390   37.3480 C   0  0  0  0  0
   -6.6410   35.3890   38.1580 O   0  0  0  0  0
   -6.2830   33.6170   36.9380 O   0  0  0  0  0
  -11.7890   35.4080   37.5700 O   0  0  0  0  0
   -6.2218   31.6748   50.7890 H   0  0  0  0  0
   -7.5101   32.9040   50.8066 H   0  0  0  0  0
   -7.9302   31.1748   50.7408 H   0  0  0  0  0
   -8.5087   30.4493   48.8392 H   0  0  0  0  0
   -7.0185   30.9622   46.3986 H   0  0  0  0  0
   -8.6526   29.0120   47.1436 H   0  0  0  0  0
   -7.4358   28.9233   45.1038 H   0  0  0  0  0
   -8.6139   30.0478   44.3154 H   0  0  0  0  0
  -10.6329   30.8021   45.7816 H   0  0  0  0  0
  -10.8923   29.1398   46.3652 H   0  0  0  0  0
  -10.5665   30.4504   47.5260 H   0  0  0  0  0
   -9.2012   27.2808   45.3662 H   0  0  0  0  0
  -10.3606   28.3875   44.5902 H   0  0  0  0  0
   -8.9930   27.7327   43.6563 H   0  0  0  0  0
   -7.5059   32.1666   44.6320 H   0  0  0  0  0
   -9.5414   34.3218   45.0368 H   0  0  0  0  0
   -8.0179   35.8406   43.8277 H   0  0  0  0  0
   -6.7940   34.5255   43.7448 H   0  0  0  0  0
   -6.6041   34.4813   46.1337 H   0  0  0  0  0
   -7.9368   35.7292   46.2777 H   0  0  0  0  0
   -6.1484   36.4436   47.5314 H   0  0  0  0  0
  -10.3293   35.2650   42.9905 H   0  0  0  0  0
  -10.3893   33.1674   40.8970 H   0  0  0  0  0
  -12.4063   34.3468   40.0381 H   0  0  0  0  0
  -13.3855   35.8519   41.5198 H   0  0  0  0  0
  -12.6348   32.4195   41.4831 H   0  0  0  0  0
  -12.5390   33.4661   42.9207 H   0  0  0  0  0
  -13.9223   33.6060   41.8081 H   0  0  0  0  0
  -10.0031   33.6310   38.7533 H   0  0  0  0  0
   -9.3344   36.8634   35.9074 H   0  0  0  0  0
   -8.8278   36.3111   38.1319 H   0  0  0  0  0
   -8.4782   35.0469   35.8484 H   0  0  0  0  0
   -8.8712   33.5740   36.8040 H   0  0  0  0  0
   -6.7612   33.0568   36.3222 H   0  0  0  0  0
  1  2  2  0  0  0
  1  3  1  0  0  0
  4  1  1  0  0  0
  5  4  1  0  0  0
  6  5  1  0  0  0
  5  8  1  0  0  0
  6  7  2  0  0  0
 12  6  1  0  0  0
  8  9  1  0  0  0
  8 10  1  0  0  0
  9 11  1  0  0  0
 13 12  1  0  0  0
 14 13  1  0  0  0
 13 16  1  0  0  0
 14 15  2  0  0  0
 21 14  1  0  0  0
 16 17  1  0  0  0
 17 18  1  0  0  0
 18 19  2  0  0  0
 18 20  1  0  0  0
 22 21  1  0  0  0
 23 22  1  0  0  0
 22 25  1  0  0  0
 23 24  2  0  0  0
 29 23  1  0  0  0
 25 26  1  0  0  0
 25 27  1  0  0  0
 28 30  1  0  0  0
 31 28  1  0  0  0
 28 36  2  0  0  0
 29 31  1  0  0  0
 31 32  1  0  0  0
 32 33  1  0  0  0
 33 34  2  0  0  0
 33 35  1  0  0  0
  3 37  1  0  0  0
  3 38  1  0  0  0
  3 39  1  0  0  0
  4 40  1  0  0  0
  5 41  1  0  0  0
  8 42  1  0  0  0
  9 43  1  0  0  0
  9 44  1  0  0  0
 10 45  1  0  0  0
 10 46  1  0  0  0
 10 47  1  0  0  0
 11 48  1  0  0  0
 11 49  1  0  0  0
 11 50  1  0  0  0
 12 51  1  0  0  0
 13 52  1  0  0  0
 16 53  1  0  0  0
 16 54  1  0  0  0
 17 55  1  0  0  0
 17 56  1  0  0  0
 20 57  1  0  0  0
 21 58  1  0  0  0
 22 59  1  0  0  0
 25 60  1  0  0  0
 26 61  1  0  0  0
 27 62  1  0  0  0
 27 63  1  0  0  0
 27 64  1  0  0  0
 29 65  1  0  0  0
 30 66  1  0  0  0
 31 67  1  0  0  0
 32 68  1  0  0  0
 32 69  1  0  0  0
 35 70  1  0  0  0
M  END
$$$$
