3ny3_ligand
  -I-interpret- 

 77 77  0  0  0  0  0  0  0  0999 V2000
   13.1660    1.5290   10.2310 N   0  3  0  0  0
   13.6500    1.5720    8.8240 C   0  0  0  0  0
   15.0400    0.9440    8.7430 C   0  0  0  0  0
   15.7330    0.8040    9.7520 O   0  0  0  0  0
   13.7020    3.0220    8.3050 C   0  0  0  0  0
   12.4100    3.8370    8.4930 C   0  0  0  0  0
   11.2850    3.3270    7.5930 C   0  0  0  0  0
   10.1960    4.3020    7.5090 N   0  0  0  0  0
    9.3080    4.5430    8.4710 C   0  0  0  0  0
    9.3320    3.8780    9.6280 N   0  0  0  0  0
    8.3790    5.4790    8.2750 N   0  0  0  0  0
   15.4530    0.5790    7.5310 N   0  0  0  0  0
   16.8030    0.0570    7.3130 C   0  0  0  0  0
   17.8360    1.0770    7.8080 C   0  0  0  0  0
   17.5560    2.2770    7.8240 O   0  0  0  0  0
   17.0210   -0.3340    5.8310 C   0  0  0  0  0
   16.0670   -1.4800    5.4480 C   0  0  0  0  0
   18.4790   -0.7290    5.5770 C   0  0  0  0  0
   16.2510   -2.0470    4.0230 C   0  0  0  0  0
   19.0080    0.5980    8.2420 N   0  0  0  0  0
   20.0520    1.4820    8.7690 C   0  0  0  0  0
   20.3160    2.6730    7.8480 C   0  0  0  0  0
   20.5140    2.5060    6.6470 O   0  0  0  0  0
   21.3530    0.7170    9.0170 C   0  0  0  0  0
   22.4110    1.5340    9.7130 C   0  0  0  0  0
   23.6140    1.8190    9.0750 C   0  0  0  0  0
   22.1940    2.0340   11.0030 C   0  0  0  0  0
   24.5940    2.5820    9.7110 C   0  0  0  0  0
   23.1710    2.8060   11.6510 C   0  0  0  0  0
   24.3780    3.0730   10.9970 C   0  0  0  0  0
   20.3110    3.8670    8.4290 N   0  0  0  0  0
   20.5030    5.0850    7.6550 C   0  0  0  0  0
   21.5540    5.9640    8.3170 C   0  0  0  0  0
   21.9700    7.0092    7.7496 O   0  0  0  0  0
   19.1800    5.8430    7.5220 C   0  0  0  0  0
   18.7520    6.3350    8.7820 O   0  0  0  0  0
   22.0135    5.6430    9.4455 O   0  0  0  0  0
   13.1405    0.5609   10.5511 H   0  0  0  0  0
   13.7980    2.0676   10.8233 H   0  0  0  0  0
   12.2290    1.9292   10.2794 H   0  0  0  0  0
   12.9553    1.0094    8.2003 H   0  0  0  0  0
   13.8788    2.9621    7.2311 H   0  0  0  0  0
   14.4770    3.5304    8.8786 H   0  0  0  0  0
   12.6168    4.8745    8.2304 H   0  0  0  0  0
   12.0906    3.7404    9.5307 H   0  0  0  0  0
   10.8932    2.4012    8.0142 H   0  0  0  0  0
   11.6852    3.1632    6.5924 H   0  0  0  0  0
   10.1111    4.8386    6.6457 H   0  0  0  0  0
    8.6441    4.0880   10.3513 H   0  0  0  0  0
   10.0382    3.1598    9.7889 H   0  0  0  0  0
    8.3558    5.9986    7.3976 H   0  0  0  0  0
   14.8162    0.6648    6.7389 H   0  0  0  0  0
   16.9315   -0.8582    7.8909 H   0  0  0  0  0
   16.8003    0.5307    5.2051 H   0  0  0  0  0
   15.0571   -1.0724    5.4928 H   0  0  0  0  0
   16.2716   -2.2989    6.1376 H   0  0  0  0  0
   19.1291    0.1124    5.8167 H   0  0  0  0  0
   18.7382   -1.5807    6.2059 H   0  0  0  0  0
   18.6036   -0.9988    4.5283 H   0  0  0  0  0
   16.0890   -1.2532    3.2938 H   0  0  0  0  0
   17.2627   -2.4386    3.9170 H   0  0  0  0  0
   15.5307   -2.8479    3.8562 H   0  0  0  0  0
   19.1790   -0.4069    8.2052 H   0  0  0  0  0
   19.6823    1.8670    9.7194 H   0  0  0  0  0
   21.7515    0.4268    8.0449 H   0  0  0  0  0
   21.1164   -0.1289    9.6625 H   0  0  0  0  0
   23.7929    1.4424    8.0679 H   0  0  0  0  0
   21.2534    1.8208   11.5109 H   0  0  0  0  0
   25.5327    2.7949    9.1995 H   0  0  0  0  0
   22.9907    3.1934   12.6537 H   0  0  0  0  0
   25.1483    3.6641   11.4923 H   0  0  0  0  0
   20.1699    3.9321    9.4371 H   0  0  0  0  0
   20.8497    4.8170    6.6570 H   0  0  0  0  0
   18.4222    5.1618    7.1350 H   0  0  0  0  0
   19.3245    6.6860    6.8463 H   0  0  0  0  0
   17.9223    6.8060    8.6753 H   0  0  0  0  0
   21.5981    4.8288    9.7391 H   0  0  0  0  0
  1  2  1  0  0  0
  2  3  1  0  0  0
  2  5  1  0  0  0
  3  4  2  0  0  0
  3 12  1  0  0  0
  5  6  1  0  0  0
  6  7  1  0  0  0
  7  8  1  0  0  0
  8  9  1  0  0  0
  9 10  1  0  0  0
  9 11  2  0  0  0
 12 13  1  0  0  0
 13 14  1  0  0  0
 13 16  1  0  0  0
 14 15  2  0  0  0
 14 20  1  0  0  0
 16 17  1  0  0  0
 16 18  1  0  0  0
 17 19  1  0  0  0
 20 21  1  0  0  0
 21 22  1  0  0  0
 21 24  1  0  0  0
 22 23  2  0  0  0
 22 31  1  0  0  0
 24 25  1  0  0  0
 25 26  4  0  0  0
 25 27  4  0  0  0
 26 28  4  0  0  0
 27 29  4  0  0  0
 28 30  4  0  0  0
 29 30  4  0  0  0
 31 32  1  0  0  0
 32 33  1  0  0  0
 32 35  1  0  0  0
 33 34  2  0  0  0
 35 36  1  0  0  0
 33 37  1  0  0  0
  1 38  1  0  0  0
  1 39  1  0  0  0
  1 40  1  0  0  0
  2 41  1  0  0  0
  5 42  1  0  0  0
  5 43  1  0  0  0
  6 44  1  0  0  0
  6 45  1  0  0  0
  7 46  1  0  0  0
  7 47  1  0  0  0
  8 48  1  0  0  0
 10 49  1  0  0  0
 10 50  1  0  0  0
 11 51  1  0  0  0
 12 52  1  0  0  0
 13 53  1  0  0  0
 16 54  1  0  0  0
 17 55  1  0  0  0
 17 56  1  0  0  0
 18 57  1  0  0  0
 18 58  1  0  0  0
 18 59  1  0  0  0
 19 60  1  0  0  0
 19 61  1  0  0  0
 19 62  1  0  0  0
 20 63  1  0  0  0
 21 64  1  0  0  0
 24 65  1  0  0  0
 24 66  1  0  0  0
 26 67  1  0  0  0
 27 68  1  0  0  0
 28 69  1  0  0  0
 29 70  1  0  0  0
 30 71  1  0  0  0
 31 72  1  0  0  0
 32 73  1  0  0  0
 35 74  1  0  0  0
 35 75  1  0  0  0
 36 76  1  0  0  0
 37 77  1  0  0  0
M  END
$$$$
