5hct_ligand
  -I-interpret- 

 44 46  0  0  0  0  0  0  0  0999 V2000
   24.4970   12.6640   57.6270 C   0  0  0  0  0
   24.4290   11.4510   56.8070 C   0  0  0  0  0
   23.6390   11.4190   55.6610 C   0  0  0  0  0
   23.5970   10.2880   54.8650 C   0  0  0  0  0
   24.3340    9.1690   55.2080 C   0  0  0  0  0
   26.5970    7.8910   57.7630 N   0  0  0  0  0
   28.0180    7.2260   60.0080 O   0  0  0  0  0
   27.9400    6.4400   59.0640 C   0  0  0  0  0
   28.6370    5.0820   59.1200 C   0  0  0  0  0
   28.1700    4.2750   60.3390 C   0  0  0  0  0
   26.6830    4.0600   60.4180 C   0  0  0  0  0
   25.9700    2.8230   60.2340 C   0  0  0  0  0
   26.3470    1.5200   59.9240 C   0  0  0  0  0
   25.3830    0.5260   59.8280 C   0  0  0  0  0
   24.0400    0.8150   60.0340 C   0  0  0  0  0
   23.6350    2.1040   60.3420 C   0  0  0  0  0
   24.6060    3.0970   60.4430 C   0  0  0  0  0
   24.4930    4.4340   60.7360 N   0  0  0  0  0
   25.7400    5.0010   60.7180 C   0  0  0  0  0
   30.1140    5.3140   59.1390 N   0  3  0  0  0
   27.2470    6.6860   57.9310 N   0  0  0  0  0
   25.8780    7.9610   56.7090 C   0  0  0  0  0
   25.1220    9.1610   56.3570 C   0  0  0  0  0
   25.1680   10.3130   57.1480 C   0  0  0  0  0
   24.8795   13.4876   57.0241 H   0  0  0  0  0
   23.4998   12.9112   57.9913 H   0  0  0  0  0
   25.1621   12.4921   58.4733 H   0  0  0  0  0
   23.0479   12.2933   55.3883 H   0  0  0  0  0
   22.9816   10.2789   53.9654 H   0  0  0  0  0
   24.2980    8.2840   54.5727 H   0  0  0  0  0
   28.3779    4.4909   58.2416 H   0  0  0  0  0
   28.4561    4.8430   61.2242 H   0  0  0  0  0
   28.6296    3.2896   60.2623 H   0  0  0  0  0
   27.3971    1.2804   59.7569 H   0  0  0  0  0
   25.6835   -0.4939   59.5880 H   0  0  0  0  0
   23.2980    0.0207   59.9526 H   0  0  0  0  0
   22.5818    2.3350   60.5014 H   0  0  0  0  0
   25.9494    6.0524   60.9149 H   0  0  0  0  0
   30.5975    4.4166   59.1764 H   0  0  0  0  0
   30.3892    5.8149   58.2941 H   0  0  0  0  0
   30.3594    5.8682   59.9594 H   0  0  0  0  0
   27.2042    5.9786   57.1974 H   0  0  0  0  0
   25.8268    7.0950   56.0491 H   0  0  0  0  0
   25.7889   10.3247   58.0438 H   0  0  0  0  0
  2  1  1  0  0  0
  3  2  4  0  0  0
  2 24  4  0  0  0
  4  3  4  0  0  0
  5  4  4  0  0  0
 23  5  4  0  0  0
  6 21  1  0  0  0
 22  6  2  0  0  0
  8  7  2  0  0  0
  8  9  1  0  0  0
 21  8  1  0  0  0
  9 10  1  0  0  0
  9 20  1  0  0  0
 10 11  1  0  0  0
 11 12  4  0  0  0
 11 19  4  0  0  0
 12 13  4  0  0  0
 12 17  4  0  0  0
 13 14  4  0  0  0
 14 15  4  0  0  0
 16 15  4  0  0  0
 17 16  4  0  0  0
 18 17  4  0  0  0
 19 18  4  0  0  0
 22 23  1  0  0  0
 23 24  4  0  0  0
  1 25  1  0  0  0
  1 26  1  0  0  0
  1 27  1  0  0  0
  3 28  1  0  0  0
  4 29  1  0  0  0
  5 30  1  0  0  0
  9 31  1  0  0  0
 10 32  1  0  0  0
 10 33  1  0  0  0
 13 34  1  0  0  0
 14 35  1  0  0  0
 15 36  1  0  0  0
 16 37  1  0  0  0
 19 38  1  0  0  0
 20 39  1  0  0  0
 20 40  1  0  0  0
 20 41  1  0  0  0
 21 42  1  0  0  0
 22 43  1  0  0  0
 24 44  1  0  0  0
M  END
$$$$
