4ca6_ligand
  -I-interpret- 

 89 93  0  0  0  0  0  0  0  0999 V2000
   -3.3780  -19.2170  -24.0470 O   0  0  0  0  0
   -6.0450  -22.1200  -18.3190 C   0  0  0  0  0
   -6.6400  -22.5630  -19.5020 C   0  0  0  0  0
   -4.9170  -21.2930  -18.3480 C   0  0  0  0  0
   -6.1020  -22.1720  -20.7360 C   0  0  0  0  0
   -4.3770  -20.9020  -19.5800 C   0  0  0  0  0
   -4.4270  -20.9430  -22.0170 C   0  0  0  0  0
   -4.3310  -19.5110  -22.0050 O   0  0  0  0  0
   -3.5320  -18.8410  -22.8760 C   0  0  0  0  0
   -4.9670  -21.3430  -20.7770 C   0  0  0  0  0
   -0.1880  -17.3580  -21.3500 O   0  0  0  0  0
   -0.3800  -17.4140  -22.8210 P   0  0  0  0  0
   -0.2130  -18.7290  -23.4630 O   0  0  0  0  0
   -2.0860  -16.8600  -23.2310 C   0  0  0  0  0
   -2.9550  -17.7150  -22.4210 N   0  0  0  0  0
   -2.3990  -15.3870  -22.8620 C   0  0  0  0  0
   -3.7560  -15.0530  -23.1400 C   0  0  0  0  0
   -4.1510  -14.6450  -24.4150 C   0  0  0  0  0
   -5.4850  -14.2990  -24.6880 C   0  0  0  0  0
   -6.4570  -14.3680  -23.6870 C   0  0  0  0  0
   -6.0700  -14.7810  -22.4110 C   0  0  0  0  0
   -4.7350  -15.1180  -22.1340 C   0  0  0  0  0
    1.0900  -14.1300  -22.0130 O   0  0  0  0  0
    9.4530  -19.0240  -22.0400 C   0  0  0  0  0
    8.1090  -19.3960  -21.9360 C   0  0  0  0  0
    9.7790  -17.7450  -22.5030 C   0  0  0  0  0
    7.1040  -18.4960  -22.3020 C   0  0  0  0  0
    8.7690  -16.8540  -22.8610 C   0  0  0  0  0
    5.1620  -16.7090  -23.3680 C   0  0  0  0  0
    2.9490  -15.6610  -24.1550 C   0  0  0  0  0
    0.6150  -16.2310  -23.6640 C   0  0  0  0  0
    6.6570  -15.0930  -23.4330 N   0  0  0  0  0
    5.1990  -14.5790  -23.9100 O   0  0  0  0  0
    1.9680  -14.9940  -21.9680 C   0  0  0  0  0
    4.4440  -15.6610  -23.7990 C   0  0  0  0  0
    7.4180  -17.2160  -22.7520 C   0  0  0  0  0
    6.4550  -16.3720  -23.1390 C   0  0  0  0  0
    2.0170  -16.0960  -23.0190 C   0  0  0  0  0
    2.9340  -15.0120  -21.0370 N   0  0  0  0  0
    3.0460  -13.9510  -20.0130 C   0  0  0  0  0
    3.6130  -12.6760  -20.6570 C   0  0  0  0  0
    3.5250  -11.6170  -19.9990 O   0  0  0  0  0
    3.9420  -14.3280  -18.8240 C   0  0  0  0  0
    4.9440  -15.2840  -18.9740 C   0  0  0  0  0
    6.2810  -14.9080  -19.1420 C   0  0  0  0  0
    4.6090  -16.6390  -18.9070 C   0  0  0  0  0
    7.2720  -15.8910  -19.2630 C   0  0  0  0  0
    5.5910  -17.6180  -19.0230 C   0  0  0  0  0
    6.9200  -17.2460  -19.2010 C   0  0  0  0  0
    7.8660  -18.2270  -19.3050 O   0  0  0  0  0
    4.1180  -12.7850  -21.7980 O   0  0  0  0  0
   -6.4651  -22.4227  -17.3598 H   0  0  0  0  0
   -7.5173  -23.2088  -19.4662 H   0  0  0  0  0
   -4.4610  -20.9549  -17.4175 H   0  0  0  0  0
   -6.5635  -22.5106  -21.6636 H   0  0  0  0  0
   -3.4996  -20.2560  -19.6103 H   0  0  0  0  0
   -3.4438  -21.3894  -22.1660 H   0  0  0  0  0
   -5.0658  -21.2750  -22.8354 H   0  0  0  0  0
   -0.3210  -16.4575  -21.0451 H   0  0  0  0  0
   -2.2260  -16.9289  -24.3098 H   0  0  0  0  0
   -3.1333  -17.4406  -21.4549 H   0  0  0  0  0
   -1.7561  -14.7389  -23.4576 H   0  0  0  0  0
   -2.2239  -15.2550  -21.7943 H   0  0  0  0  0
   -3.4109  -14.5939  -25.2136 H   0  0  0  0  0
   -5.7642  -13.9737  -25.6902 H   0  0  0  0  0
   -7.4937  -14.1054  -23.8975 H   0  0  0  0  0
   -6.8150  -14.8429  -21.6178 H   0  0  0  0  0
   -4.4555  -15.4331  -21.1287 H   0  0  0  0  0
   10.2402  -19.7250  -21.7625 H   0  0  0  0  0
    7.8450  -20.3880  -21.5695 H   0  0  0  0  0
   10.8238  -17.4450  -22.5839 H   0  0  0  0  0
    6.0596  -18.8004  -22.2342 H   0  0  0  0  0
    9.0322  -15.8629  -23.2305 H   0  0  0  0  0
    4.7554  -17.7094  -23.2200 H   0  0  0  0  0
    2.8168  -16.3786  -24.9647 H   0  0  0  0  0
    2.6837  -14.6340  -24.4058 H   0  0  0  0  0
    0.1174  -15.2628  -23.6089 H   0  0  0  0  0
    0.7421  -16.5619  -24.6948 H   0  0  0  0  0
    2.3480  -17.0217  -22.5482 H   0  0  0  0  0
    3.6085  -15.7772  -21.0355 H   0  0  0  0  0
    2.0388  -13.7978  -19.6254 H   0  0  0  0  0
    3.2571  -14.7665  -18.0983 H   0  0  0  0  0
    4.4788  -13.4090  -18.5885 H   0  0  0  0  0
    6.5511  -13.8526  -19.1787 H   0  0  0  0  0
    3.5690  -16.9317  -18.7626 H   0  0  0  0  0
    8.3136  -15.6027  -19.4049 H   0  0  0  0  0
    5.3201  -18.6727  -18.9746 H   0  0  0  0  0
    7.4427  -19.0863  -19.2409 H   0  0  0  0  0
    4.0639  -13.6996  -22.0846 H   0  0  0  0  0
  9  1  2  0  0  0
  3  2  4  0  0  0
  4  2  4  0  0  0
  5  3  4  0  0  0
  6  4  4  0  0  0
 10  5  4  0  0  0
 10  6  4  0  0  0
  8  7  1  0  0  0
  7 10  1  0  0  0
  9  8  1  0  0  0
 15  9  1  0  0  0
 12 11  1  0  0  0
 12 13  2  0  0  0
 12 14  1  0  0  0
 31 12  1  0  0  0
 14 15  1  0  0  0
 14 16  1  0  0  0
 16 17  1  0  0  0
 17 18  4  0  0  0
 17 22  4  0  0  0
 18 19  4  0  0  0
 19 20  4  0  0  0
 21 20  4  0  0  0
 22 21  4  0  0  0
 34 23  2  0  0  0
 25 24  4  0  0  0
 26 24  4  0  0  0
 27 25  4  0  0  0
 28 26  4  0  0  0
 36 27  4  0  0  0
 36 28  4  0  0  0
 29 35  4  0  0  0
 37 29  4  0  0  0
 35 30  1  0  0  0
 30 38  1  0  0  0
 38 31  1  0  0  0
 32 33  4  0  0  0
 37 32  4  0  0  0
 33 35  4  0  0  0
 38 34  1  0  0  0
 34 39  1  0  0  0
 36 37  1  0  0  0
 39 40  1  0  0  0
 40 41  1  0  0  0
 40 43  1  0  0  0
 41 42  2  0  0  0
 41 51  1  0  0  0
 43 44  1  0  0  0
 44 45  4  0  0  0
 44 46  4  0  0  0
 45 47  4  0  0  0
 46 48  4  0  0  0
 47 49  4  0  0  0
 48 49  4  0  0  0
 49 50  1  0  0  0
  2 52  1  0  0  0
  3 53  1  0  0  0
  4 54  1  0  0  0
  5 55  1  0  0  0
  6 56  1  0  0  0
  7 57  1  0  0  0
  7 58  1  0  0  0
 11 59  1  0  0  0
 14 60  1  0  0  0
 15 61  1  0  0  0
 16 62  1  0  0  0
 16 63  1  0  0  0
 18 64  1  0  0  0
 19 65  1  0  0  0
 20 66  1  0  0  0
 21 67  1  0  0  0
 22 68  1  0  0  0
 24 69  1  0  0  0
 25 70  1  0  0  0
 26 71  1  0  0  0
 27 72  1  0  0  0
 28 73  1  0  0  0
 29 74  1  0  0  0
 30 75  1  0  0  0
 30 76  1  0  0  0
 31 77  1  0  0  0
 31 78  1  0  0  0
 38 79  1  0  0  0
 39 80  1  0  0  0
 40 81  1  0  0  0
 43 82  1  0  0  0
 43 83  1  0  0  0
 45 84  1  0  0  0
 46 85  1  0  0  0
 47 86  1  0  0  0
 48 87  1  0  0  0
 50 88  1  0  0  0
 51 89  1  0  0  0
M  END
$$$$
