4q9z_ligand
  -I-interpret- 

 42 45  0  0  0  0  0  0  0  0999 V2000
   25.0540   -7.4390  -10.4730 C   0  0  0  0  0
   23.9890   -7.1070   -9.4570 C   0  0  0  0  0
   24.2660   -6.2110   -8.4360 C   0  0  0  0  0
   23.2870   -5.8900   -7.4900 C   0  0  0  0  0
   23.5870   -5.0390   -6.5000 O   0  0  0  0  0
   22.9400   -5.1520   -5.2350 C   0  0  0  0  0
   21.4680   -5.5280   -5.4020 C   0  0  0  0  0
   20.6260   -5.2330   -4.4770 N   0  0  0  0  0
   19.2810   -5.5790   -4.5610 N   0  0  0  0  0
   18.7490   -6.0690   -5.7040 C   0  0  0  0  0
   17.5750   -6.3640   -5.7440 O   0  0  0  0  0
   19.6070   -6.2110   -6.9530 C   0  0  0  0  0
   19.2720   -5.0830   -7.9290 C   0  0  0  0  0
   21.0470   -6.1420   -6.5980 N   0  0  0  0  0
   22.0420   -6.4890   -7.5600 C   0  0  0  0  0
   21.7480   -7.3850   -8.5970 C   0  0  0  0  0
   22.7370   -7.7060   -9.5420 C   0  0  0  0  0
   22.4540   -8.6100  -10.5950 N   0  0  0  0  0
   21.3540   -9.5460  -10.4750 C   0  0  0  0  0
   21.4010  -10.7490  -11.5350 C   0  0  0  0  0
   21.3170  -11.5510  -10.4100 N   0  3  0  0  0
   21.5770  -10.6820   -9.3650 C   0  0  0  0  0
   25.3555   -6.5291  -10.9920 H   0  0  0  0  0
   25.9160   -7.8720   -9.9656 H   0  0  0  0  0
   24.6571   -8.1548  -11.1928 H   0  0  0  0  0
   25.2532   -5.7537   -8.3700 H   0  0  0  0  0
   22.9989   -4.1901   -4.7258 H   0  0  0  0  0
   23.4361   -5.9322   -4.6577 H   0  0  0  0  0
   18.6833   -5.4606   -3.7430 H   0  0  0  0  0
   19.4014   -7.1760   -7.4163 H   0  0  0  0  0
   18.2182   -5.1411   -8.2016 H   0  0  0  0  0
   19.4736   -4.1224   -7.4551 H   0  0  0  0  0
   19.8862   -5.1841   -8.8238 H   0  0  0  0  0
   20.7561   -7.8310   -8.6700 H   0  0  0  0  0
   23.0257   -8.6023  -11.4397 H   0  0  0  0  0
   20.5349   -8.8283  -10.4295 H   0  0  0  0  0
   22.1779  -10.8539  -12.2923 H   0  0  0  0  0
   20.7221  -10.8300  -12.3839 H   0  0  0  0  0
   21.9738  -12.3309  -10.4391 H   0  0  0  0  0
   20.4067  -12.0027  -10.3222 H   0  0  0  0  0
   21.0440  -10.7074   -8.4146 H   0  0  0  0  0
   22.4664  -10.7441   -8.7379 H   0  0  0  0  0
  1  2  1  0  0  0
  2  3  4  0  0  0
  2 17  4  0  0  0
  3  4  4  0  0  0
  4  5  1  0  0  0
  4 15  4  0  0  0
  5  6  1  0  0  0
  6  7  1  0  0  0
  7  8  2  0  0  0
  7 14  1  0  0  0
  8  9  1  0  0  0
  9 10  1  0  0  0
 10 11  2  0  0  0
 10 12  1  0  0  0
 12 13  1  0  0  0
 12 14  1  0  0  0
 14 15  1  0  0  0
 15 16  4  0  0  0
 16 17  4  0  0  0
 17 18  1  0  0  0
 18 19  1  0  0  0
 19 20  1  0  0  0
 19 22  1  0  0  0
 20 21  1  0  0  0
 21 22  1  0  0  0
  1 23  1  0  0  0
  1 24  1  0  0  0
  1 25  1  0  0  0
  3 26  1  0  0  0
  6 27  1  0  0  0
  6 28  1  0  0  0
  9 29  1  0  0  0
 12 30  1  0  0  0
 13 31  1  0  0  0
 13 32  1  0  0  0
 13 33  1  0  0  0
 16 34  1  0  0  0
 18 35  1  0  0  0
 19 36  1  0  0  0
 20 37  1  0  0  0
 20 38  1  0  0  0
 21 39  1  0  0  0
 21 40  1  0  0  0
 22 41  1  0  0  0
 22 42  1  0  0  0
M  END
$$$$
