### 
### Created by X-TOOL on Mon Sep 10 21:13:18 2018
### 

@<TRIPOS>MOLECULE
3w8o_ligand
   59    70     1     0     0
SMALL
GAST_HUCK


@<TRIPOS>ATOM
      1 C24        69.1290  -51.3070   -9.1240 C.ar      1 WPC        -0.0580
      2 C23        70.5120  -51.2710   -9.3770 C.ar      1 WPC        -0.0617
      3 C22        71.2090  -52.4570   -9.6560 C.ar      1 WPC        -0.0617
      4 C21        70.5330  -53.6870   -9.6780 C.ar      1 WPC        -0.0580
      5 C6         68.5030  -52.5330   -9.1600 C.ar      1 WPC         0.0045
      6 C7         67.1100  -52.9510   -8.9660 C.2       1 WPC         0.1785
      7 N3         66.1380  -52.0550   -8.6710 N.ar      1 WPC        -0.2626
      8 C4         64.8760  -52.4500   -8.2910 C.2       1 WPC         0.1785
      9 C1         63.8740  -51.4720   -7.8730 C.ar      1 WPC         0.0045
     10 C25        63.9030  -50.1090   -7.7390 C.ar      1 WPC        -0.0580
     11 C26        62.7490  -49.4690   -7.2850 C.ar      1 WPC        -0.0617
     12 C27        61.6000  -50.2240   -6.9820 C.ar      1 WPC        -0.0617
     13 C28        61.6100  -51.6180   -7.1400 C.ar      1 WPC        -0.0580
     14 C2         62.7770  -52.2080   -7.5720 C.ar      1 WPC         0.0045
     15 N2         66.9070  -54.2800   -9.0910 N.pl3     1 WPC        -0.1111
     16 N6         63.6940  -56.3340   -8.2830 N.pl3     1 WPC        -0.1111
     17 N4         66.2020  -56.8450   -9.1140 N.pl3     1 WPC        -0.1111
     18 N1         64.4300  -53.7520   -8.2770 N.pl3     1 WPC        -0.1111
     19 C3         63.1380  -53.5820   -7.8810 C.2       1 WPC         0.1785
     20 N7         62.2560  -54.6120   -7.6630 N.ar      1 WPC        -0.2626
     21 C16        62.4790  -55.8570   -8.0810 C.2       1 WPC         0.1785
     22 C5         69.1760  -53.6810   -9.4230 C.ar      1 WPC         0.0045
     23 C8         68.1660  -54.7480   -9.2920 C.2       1 WPC         0.1785
     24 N5         68.4650  -56.0510   -9.5490 N.ar      1 WPC        -0.2626
     25 C11        67.5390  -57.0570   -9.3970 C.2       1 WPC         0.1785
     26 C10        67.8530  -58.4380   -9.7800 C.ar      1 WPC         0.0045
     27 C20        69.0140  -59.0800  -10.1600 C.ar      1 WPC        -0.0580
     28 C19        68.9590  -60.4550  -10.3840 C.ar      1 WPC        -0.0617
     29 C18        67.7540  -61.1450  -10.1910 C.ar      1 WPC        -0.0617
     30 C17        66.6130  -60.4500   -9.7820 C.ar      1 WPC        -0.0580
     31 C9         66.7150  -59.1150   -9.5740 C.ar      1 WPC         0.0045
     32 C12        65.7220  -58.1120   -9.2200 C.2       1 WPC         0.1785
     33 N8         64.4450  -58.5000   -8.8900 N.ar      1 WPC        -0.2626
     34 C15        63.4580  -57.5960   -8.6270 C.2       1 WPC         0.1785
     35 C14        62.1130  -58.0480   -8.2610 C.ar      1 WPC         0.0045
     36 C32        61.4690  -59.2520   -8.4030 C.ar      1 WPC        -0.0580
     37 C13        61.4640  -56.9170   -7.9240 C.ar      1 WPC         0.0045
     38 C29        60.1030  -56.9060   -7.6690 C.ar      1 WPC        -0.0580
     39 C30        59.4150  -58.1280   -7.7370 C.ar      1 WPC        -0.0617
     40 C31        60.1050  -59.3050   -8.1060 C.ar      1 WPC        -0.0617
     41 FE         65.3230  -55.3010   -8.7040 Fe        1 WPC         0.0000
     42 H1         68.5748  -50.4007   -8.9081 H         1 WPC         0.0618
     43 H2         71.0410  -50.3250   -9.3565 H         1 WPC         0.0618
     44 H3         72.2740  -52.4229   -9.8553 H         1 WPC         0.0618
     45 H4         71.0590  -54.6112   -9.8883 H         1 WPC         0.0618
     46 H5         64.7965  -49.5439   -7.9787 H         1 WPC         0.0618
     47 H6         62.7373  -48.3916   -7.1658 H         1 WPC         0.0618
     48 H7         60.7051  -49.7269   -6.6256 H         1 WPC         0.0618
     49 H8         60.7278  -52.2114   -6.9289 H         1 WPC         0.0618
     50 H9         69.9412  -58.5315  -10.2807 H         1 WPC         0.0618
     51 H10        69.8455  -60.9890  -10.7065 H         1 WPC         0.0618
     52 H11        67.7076  -62.2150  -10.3586 H         1 WPC         0.0618
     53 H12        65.6708  -60.9654   -9.6349 H         1 WPC         0.0618
     54 H13        62.0028  -60.1349   -8.7355 H         1 WPC         0.0618
     55 H14        59.5861  -55.9849   -7.4251 H         1 WPC         0.0618
     56 H15        58.3565  -58.1687   -7.5069 H         1 WPC         0.0618
     57 H16        59.5755  -60.2494   -8.1586 H         1 WPC         0.0618
     58 H17        65.8704  -55.4643   -6.9418 H         1 WPC         0.0000
     59 H18        64.7756  -55.1377  -10.4662 H         1 WPC         0.0000
@<TRIPOS>BOND
     1    1    2 ar 
     2    5    1 ar 
     3    3    2 ar 
     4    4    3 ar 
     5   22    4 ar 
     6    5    6 2  
     7   22    5 ar 
     8    6    7 1  
     9   15    6 1  
    10    7    8 1  
    11    8    9 2  
    12    8   18 1  
    13    9   10 ar 
    14    9   14 ar 
    15   10   11 ar 
    16   11   12 ar 
    17   13   12 ar 
    18   14   13 ar 
    19   19   14 2  
    20   23   15 1  
    21   21   16 1  
    22   16   34 1  
    23   25   17 1  
    24   17   32 1  
    25   18   19 1  
    26   19   20 1  
    27   20   21 1  
    28   21   37 2  
    29   23   22 2  
    30   24   23 1  
    31   24   25 1  
    32   25   26 2  
    33   26   27 ar 
    34   26   31 ar 
    35   27   28 ar 
    36   28   29 ar 
    37   29   30 ar 
    38   30   31 ar 
    39   31   32 2  
    40   32   33 1  
    41   33   34 1  
    42   34   35 2  
    43   35   36 ar 
    44   35   37 ar 
    45   36   40 ar 
    46   37   38 ar 
    47   38   39 ar 
    48   39   40 ar 
    49   15   41 1  
    50   41   16 1  
    51   41   17 1  
    52   41   18 1  
    53    1   42 1  
    54    2   43 1  
    55    3   44 1  
    56    4   45 1  
    57   10   46 1  
    58   11   47 1  
    59   12   48 1  
    60   13   49 1  
    61   27   50 1  
    62   28   51 1  
    63   29   52 1  
    64   30   53 1  
    65   36   54 1  
    66   38   55 1  
    67   39   56 1  
    68   40   57 1  
    69   41   58 1  
    70   41   59 1  
@<TRIPOS>SUBSTRUCTURE
     1 WPC         1

