5t2t_ligand
  -I-interpret- 

 54 56  0  0  0  0  0  0  0  0999 V2000
  -92.4310  -41.4480    4.2230 Cl  0  0  0  0  0
  -91.9870  -40.3260    5.5160 C   0  0  0  0  0
  -92.1020  -38.9920    5.3200 C   0  0  0  0  0
  -91.7410  -38.1070    6.3320 C   0  0  0  0  0
  -91.5150  -40.8000    6.7200 C   0  0  0  0  0
  -91.1660  -39.9370    7.7080 C   0  0  0  0  0
  -91.2680  -38.5860    7.5170 C   0  0  0  0  0
  -90.8660  -37.6080    8.7070 C   0  0  0  0  0
  -89.3060  -37.4890    8.9280 C   0  0  0  0  0
  -88.6140  -38.6370    9.6080 C   0  0  0  0  0
  -87.1030  -38.3600    9.8040 C   0  0  0  0  0
  -88.7900  -37.2960    7.4210 C   0  0  0  0  0
  -88.1260  -38.1020    6.8110 O   0  0  0  0  0
  -89.1560  -35.9380    6.7830 C   0  0  0  0  0
  -88.9010  -35.6080    5.4960 C   0  0  0  0  0
  -88.2860  -36.5160    4.5620 O   0  0  0  0  0
  -89.2590  -34.2560    4.9150 C   0  0  0  0  0
  -89.5340  -33.2020    5.6830 O   0  0  0  0  0
  -89.2090  -34.3790    3.6300 O   0  0  0  0  0
  -89.0290  -36.3040    9.7500 C   0  0  0  0  0
  -87.5430  -35.9560    9.7210 C   0  0  0  0  0
  -86.7550  -37.0530   10.3530 N   0  3  0  0  0
  -86.9170  -36.9290   11.7680 C   0  0  0  0  0
  -85.8410  -37.7730   12.5560 C   0  0  0  0  0
  -84.5790  -37.2490   12.8550 C   0  0  0  0  0
  -83.6650  -38.0350   13.5620 C   0  0  0  0  0
  -84.0180  -39.3150   13.9580 C   0  0  0  0  0
  -85.2730  -39.8250   13.6560 C   0  0  0  0  0
  -86.1890  -39.0480   12.9570 C   0  0  0  0  0
  -92.4771  -38.6107    4.3703 H   0  0  0  0  0
  -91.8365  -37.0323    6.1769 H   0  0  0  0  0
  -91.4212  -41.8740    6.8804 H   0  0  0  0  0
  -90.8020  -40.3230    8.6601 H   0  0  0  0  0
  -91.2959  -38.0135    9.6229 H   0  0  0  0  0
  -91.2370  -36.6149    8.4535 H   0  0  0  0  0
  -88.7224  -39.5228    8.9821 H   0  0  0  0  0
  -89.0673  -38.7787   10.5891 H   0  0  0  0  0
  -86.6537  -38.4035    8.8118 H   0  0  0  0  0
  -86.7486  -39.0975   10.5242 H   0  0  0  0  0
  -89.6520  -35.1974    7.4104 H   0  0  0  0  0
  -88.1969  -36.0843    3.7092 H   0  0  0  0  0
  -89.4837  -33.4587    6.6067 H   0  0  0  0  0
  -89.3194  -36.5156   10.7791 H   0  0  0  0  0
  -89.5941  -35.4613    9.3517 H   0  0  0  0  0
  -87.3788  -35.0303   10.2726 H   0  0  0  0  0
  -87.2221  -35.8314    8.6868 H   0  0  0  0  0
  -85.7612  -36.9706   10.1386 H   0  0  0  0  0
  -87.9065  -37.3008   12.0339 H   0  0  0  0  0
  -86.7941  -35.8798   12.0367 H   0  0  0  0  0
  -84.3118  -36.2402   12.5405 H   0  0  0  0  0
  -82.6769  -37.6421   13.8013 H   0  0  0  0  0
  -83.3046  -39.9261   14.5109 H   0  0  0  0  0
  -85.5402  -40.8349   13.9671 H   0  0  0  0  0
  -87.1782  -39.4433   12.7261 H   0  0  0  0  0
  1  2  1  0  0  0
  2  3  4  0  0  0
  2  5  4  0  0  0
  3  4  4  0  0  0
  4  7  4  0  0  0
  5  6  4  0  0  0
  6  7  4  0  0  0
  7  8  1  0  0  0
  8  9  1  0  0  0
  9 10  1  0  0  0
  9 12  1  0  0  0
  9 20  1  0  0  0
 10 11  1  0  0  0
 11 22  1  0  0  0
 12 13  2  0  0  0
 12 14  1  0  0  0
 14 15  2  0  0  0
 15 16  1  0  0  0
 15 17  1  0  0  0
 17 18  1  0  0  0
 17 19  2  0  0  0
 20 21  1  0  0  0
 21 22  1  0  0  0
 22 23  1  0  0  0
 23 24  1  0  0  0
 24 25  4  0  0  0
 24 29  4  0  0  0
 25 26  4  0  0  0
 26 27  4  0  0  0
 27 28  4  0  0  0
 28 29  4  0  0  0
  3 30  1  0  0  0
  4 31  1  0  0  0
  5 32  1  0  0  0
  6 33  1  0  0  0
  8 34  1  0  0  0
  8 35  1  0  0  0
 10 36  1  0  0  0
 10 37  1  0  0  0
 11 38  1  0  0  0
 11 39  1  0  0  0
 14 40  1  0  0  0
 16 41  1  0  0  0
 18 42  1  0  0  0
 20 43  1  0  0  0
 20 44  1  0  0  0
 21 45  1  0  0  0
 21 46  1  0  0  0
 22 47  1  0  0  0
 23 48  1  0  0  0
 23 49  1  0  0  0
 25 50  1  0  0  0
 26 51  1  0  0  0
 27 52  1  0  0  0
 28 53  1  0  0  0
 29 54  1  0  0  0
M  END
$$$$
