1ssq_ligand
  -I-interpret- 

 15 14  0  0  0  0  0  0  0  0999 V2000
    8.5940   42.5210   51.4640 N   0  3  0  0  0
    8.8610   42.2840   50.0090 C   0  0  0  0  0
   10.3220   41.7880   49.8720 C   0  0  0  0  0
   11.0600   41.7650   50.8770 O   0  0  0  0  0
    8.6540   43.6030   49.2170 C   0  0  0  0  0
    9.6500   45.0180   49.8270 S   0  0  0  0  0
   10.7150   41.4650   48.7250 O   0  0  0  0  0
    8.7313   41.6517   51.9796 H   0  0  0  0  0
    9.2365   43.2311   51.8151 H   0  0  0  0  0
    7.6330   42.8409   51.5844 H   0  0  0  0  0
    8.1761   41.5384   49.6051 H   0  0  0  0  0
    7.6053   43.8798   49.3253 H   0  0  0  0  0
    8.9656   43.4117   48.1902 H   0  0  0  0  0
    9.3971   46.0902   49.0817 H   0  0  0  0  0
    9.9899   41.5550   48.1024 H   0  0  0  0  0
  1  2  1  0  0  0
  2  3  1  0  0  0
  2  5  1  0  0  0
  3  4  2  0  0  0
  3  7  1  0  0  0
  5  6  1  0  0  0
  1  8  1  0  0  0
  1  9  1  0  0  0
  1 10  1  0  0  0
  2 11  1  0  0  0
  5 12  1  0  0  0
  5 13  1  0  0  0
  6 14  1  0  0  0
  7 15  1  0  0  0
M  END
$$$$
