5ap5_ligand
  -I-interpret- 

 62 65  0  0  0  0  0  0  0  0999 V2000
    2.8730  -16.1390  -16.1980 O   0  0  0  0  0
    2.2630  -15.1190  -16.3880 C   0  0  0  0  0
    1.6950  -14.4020  -15.3850 O   0  0  0  0  0
    1.8140  -14.9320  -14.0240 C   0  0  0  0  0
    1.2960  -16.3520  -14.0030 C   0  0  0  0  0
    3.2770  -14.8760  -13.6520 C   0  0  0  0  0
    0.9860  -14.0330  -13.1370 C   0  0  0  0  0
    2.0580  -14.5520  -17.6770 N   0  0  0  0  0
    2.5530  -14.9960  -18.9450 C   0  0  0  0  0
    3.3540  -16.1560  -19.1300 C   0  0  0  0  0
    4.4380  -16.6360  -18.3410 C   0  0  0  0  0
    4.9330  -17.7760  -18.8730 N   0  0  0  0  0
    3.2130  -17.0600  -20.1730 C   0  0  0  0  0
    4.1830  -18.0180  -19.9800 N   0  0  0  0  0
    4.4250  -19.1800  -20.8350 C   0  0  0  0  0
    1.2830  -13.3980  -17.9040 C   0  0  0  0  0
    1.3130  -13.1500  -19.2980 C   0  0  0  0  0
    2.1080  -14.1520  -19.9160 C   0  0  0  0  0
    0.5660  -12.5820  -17.0340 C   0  0  0  0  0
   -0.1160  -11.5130  -17.6430 C   0  0  0  0  0
   -0.0960  -11.2560  -18.9940 N   0  0  0  0  0
    0.6080  -12.0650  -19.7810 C   0  0  0  0  0
   -0.8820  -10.6460  -16.8570 N   0  0  0  0  0
   -0.9970  -10.5910  -15.4680 C   0  0  0  0  0
   -1.1930  -11.7060  -14.6480 C   0  0  0  0  0
   -1.3500  -11.5350  -13.2860 C   0  0  0  0  0
   -1.3140  -10.2640  -12.7240 C   0  0  0  0  0
   -1.1090   -9.1520  -13.5100 C   0  0  0  0  0
   -0.9540   -9.3350  -14.8650 C   0  0  0  0  0
   -0.6960   -7.9340  -15.8220 Cl  0  0  0  0  0
   -1.5170  -10.0940  -11.2700 C   0  0  0  0  0
   -2.0610   -9.1100  -10.7940 O   0  0  0  0  0
   -1.0550  -11.1240  -10.4590 N   0  0  0  0  0
    0.0340  -10.8930   -9.4960 C   0  0  0  0  0
   -1.9410  -12.2480  -10.1130 C   0  0  0  0  0
    1.3359  -16.7369  -12.9840 H   0  0  0  0  0
    0.2656  -16.3668  -14.3582 H   0  0  0  0  0
    1.9143  -16.9726  -14.6517 H   0  0  0  0  0
    3.6391  -13.8536  -13.7598 H   0  0  0  0  0
    3.4004  -15.1995  -12.6184 H   0  0  0  0  0
    3.8434  -15.5347  -14.3103 H   0  0  0  0  0
    1.0925  -14.3502  -12.0996 H   0  0  0  0  0
    1.3312  -13.0043  -13.2410 H   0  0  0  0  0
   -0.0612  -14.0978  -13.4324 H   0  0  0  0  0
    4.8142  -16.1540  -17.4387 H   0  0  0  0  0
    2.4826  -17.0200  -20.9811 H   0  0  0  0  0
    5.4398  -19.1338  -21.2300 H   0  0  0  0  0
    4.3026  -20.0916  -20.2501 H   0  0  0  0  0
    3.7123  -19.1774  -21.6597 H   0  0  0  0  0
    2.3240  -14.2312  -20.9815 H   0  0  0  0  0
    0.5351  -12.7584  -15.9588 H   0  0  0  0  0
    0.6294  -11.8632  -20.8519 H   0  0  0  0  0
   -1.4330   -9.9585  -17.3709 H   0  0  0  0  0
   -1.2218  -12.7058  -15.0811 H   0  0  0  0  0
   -1.5034  -12.4043  -12.6465 H   0  0  0  0  0
   -1.0706   -8.1550  -13.0712 H   0  0  0  0  0
    0.9265  -10.5669  -10.0301 H   0  0  0  0  0
   -0.2678  -10.1230   -8.7860 H   0  0  0  0  0
    0.2469  -11.8187   -8.9613 H   0  0  0  0  0
   -2.8158  -11.8699   -9.5840 H   0  0  0  0  0
   -2.2570  -12.7540  -11.0252 H   0  0  0  0  0
   -1.4037  -12.9492   -9.4745 H   0  0  0  0  0
  1  2  2  0  0  0
  2  3  1  0  0  0
  2  8  1  0  0  0
  3  4  1  0  0  0
  4  5  1  0  0  0
  4  6  1  0  0  0
  4  7  1  0  0  0
  8  9  4  0  0  0
  8 16  4  0  0  0
  9 10  1  0  0  0
  9 18  4  0  0  0
 10 11  4  0  0  0
 10 13  4  0  0  0
 11 12  4  0  0  0
 12 14  4  0  0  0
 13 14  4  0  0  0
 14 15  1  0  0  0
 16 17  4  0  0  0
 16 19  4  0  0  0
 17 18  4  0  0  0
 17 22  4  0  0  0
 19 20  4  0  0  0
 20 21  4  0  0  0
 20 23  1  0  0  0
 21 22  4  0  0  0
 23 24  1  0  0  0
 24 25  4  0  0  0
 24 29  4  0  0  0
 25 26  4  0  0  0
 26 27  4  0  0  0
 27 28  4  0  0  0
 27 31  1  0  0  0
 28 29  4  0  0  0
 29 30  1  0  0  0
 31 32  2  0  0  0
 31 33  1  0  0  0
 33 34  1  0  0  0
 33 35  1  0  0  0
  5 36  1  0  0  0
  5 37  1  0  0  0
  5 38  1  0  0  0
  6 39  1  0  0  0
  6 40  1  0  0  0
  6 41  1  0  0  0
  7 42  1  0  0  0
  7 43  1  0  0  0
  7 44  1  0  0  0
 11 45  1  0  0  0
 13 46  1  0  0  0
 15 47  1  0  0  0
 15 48  1  0  0  0
 15 49  1  0  0  0
 18 50  1  0  0  0
 19 51  1  0  0  0
 22 52  1  0  0  0
 23 53  1  0  0  0
 25 54  1  0  0  0
 26 55  1  0  0  0
 28 56  1  0  0  0
 34 57  1  0  0  0
 34 58  1  0  0  0
 34 59  1  0  0  0
 35 60  1  0  0  0
 35 61  1  0  0  0
 35 62  1  0  0  0
M  END
$$$$
