4a51_ligand
  -I-interpret- 

 50 52  0  0  0  0  0  0  0  0999 V2000
  -14.0830  -45.1680   25.1790 C   0  0  0  0  0
  -13.4300  -44.8040   26.4840 C   0  0  0  0  0
  -13.8690  -43.8750   27.1460 O   0  0  0  0  0
  -12.2930  -45.6130   27.0640 C   0  0  0  0  0
  -11.6930  -45.0780   28.1790 C   0  0  0  0  0
  -11.8090  -46.7740   26.4810 C   0  0  0  0  0
  -10.7330  -47.4130   27.0700 C   0  0  0  0  0
  -10.1500  -46.8810   28.2110 C   0  0  0  0  0
  -10.6160  -45.7010   28.7480 C   0  0  0  0  0
  -10.0240  -45.1050   30.0020 C   0  0  0  0  0
   -9.9450  -43.5830   30.0690 C   0  0  0  0  0
   -9.3460  -42.8450   29.0700 C   0  0  0  0  0
   -9.2790  -41.4680   29.1910 C   0  0  0  0  0
   -9.8030  -40.8320   30.3130 C   0  0  0  0  0
  -10.3990  -41.5580   31.3270 C   0  0  0  0  0
  -10.4530  -42.9320   31.1910 C   0  0  0  0  0
  -11.2030  -45.5770   31.3320 S   0  0  0  0  0
  -12.8490  -44.8670   30.8220 C   0  0  0  0  0
  -13.9840  -45.0440   31.8480 C   0  0  0  0  0
  -14.1850  -46.4820   32.1170 N   0  3  0  0  0
   -8.6160  -45.6160   30.3020 C   0  0  0  0  0
   -7.6660  -45.7370   29.3110 C   0  0  0  0  0
   -6.3860  -46.1980   29.6260 C   0  0  0  0  0
   -6.0260  -46.5180   30.9260 C   0  0  0  0  0
   -6.9750  -46.3830   31.9230 C   0  0  0  0  0
   -8.2520  -45.9320   31.6050 C   0  0  0  0  0
  -15.1238  -45.4379   25.3578 H   0  0  0  0  0
  -14.0387  -44.3151   24.5017 H   0  0  0  0  0
  -13.5581  -46.0138   24.7350 H   0  0  0  0  0
  -12.0767  -44.1540   28.6115 H   0  0  0  0  0
  -12.2671  -47.1750   25.5769 H   0  0  0  0  0
  -10.3431  -48.3345   26.6377 H   0  0  0  0  0
   -9.3175  -47.4002   28.6858 H   0  0  0  0  0
   -8.9293  -43.3413   28.1936 H   0  0  0  0  0
   -8.8128  -40.8774   28.4024 H   0  0  0  0  0
   -9.7425  -39.7466   30.3930 H   0  0  0  0  0
  -10.8129  -41.0628   32.2053 H   0  0  0  0  0
  -10.9067  -43.5244   31.9855 H   0  0  0  0  0
  -13.1546  -45.3995   29.9214 H   0  0  0  0  0
  -12.7028  -43.7940   30.6982 H   0  0  0  0  0
  -14.9041  -44.6170   31.4490 H   0  0  0  0  0
  -13.7187  -44.5348   32.7745 H   0  0  0  0  0
  -14.9368  -46.5977   32.7965 H   0  0  0  0  0
  -14.4331  -46.9575   31.2494 H   0  0  0  0  0
  -13.3234  -46.8805   32.4902 H   0  0  0  0  0
   -7.9134  -45.4732   28.2827 H   0  0  0  0  0
   -5.6508  -46.3091   28.8290 H   0  0  0  0  0
   -5.0196  -46.8674   31.1567 H   0  0  0  0  0
   -6.7232  -46.6292   32.9545 H   0  0  0  0  0
   -8.9884  -45.8234   32.4013 H   0  0  0  0  0
  1  2  1  0  0  0
  2  3  2  0  0  0
  2  4  1  0  0  0
  4  5  4  0  0  0
  4  6  4  0  0  0
  5  9  4  0  0  0
  6  7  4  0  0  0
  7  8  4  0  0  0
  8  9  4  0  0  0
  9 10  1  0  0  0
 10 11  1  0  0  0
 10 17  1  0  0  0
 10 21  1  0  0  0
 11 12  4  0  0  0
 11 16  4  0  0  0
 12 13  4  0  0  0
 13 14  4  0  0  0
 14 15  4  0  0  0
 15 16  4  0  0  0
 17 18  1  0  0  0
 18 19  1  0  0  0
 19 20  1  0  0  0
 21 22  4  0  0  0
 21 26  4  0  0  0
 22 23  4  0  0  0
 23 24  4  0  0  0
 24 25  4  0  0  0
 25 26  4  0  0  0
  1 27  1  0  0  0
  1 28  1  0  0  0
  1 29  1  0  0  0
  5 30  1  0  0  0
  6 31  1  0  0  0
  7 32  1  0  0  0
  8 33  1  0  0  0
 12 34  1  0  0  0
 13 35  1  0  0  0
 14 36  1  0  0  0
 15 37  1  0  0  0
 16 38  1  0  0  0
 18 39  1  0  0  0
 18 40  1  0  0  0
 19 41  1  0  0  0
 19 42  1  0  0  0
 20 43  1  0  0  0
 20 44  1  0  0  0
 20 45  1  0  0  0
 22 46  1  0  0  0
 23 47  1  0  0  0
 24 48  1  0  0  0
 25 49  1  0  0  0
 26 50  1  0  0  0
M  END
$$$$
