5llp_ligand
  -I-interpret- 

 49 51  0  0  0  0  0  0  0  0999 V2000
   24.1210    3.7750   11.4910 C   0  0  0  0  0
   23.5520    3.9310   12.7470 C   0  0  0  0  0
   25.0750    5.7560   13.3330 C   0  0  0  0  0
   24.0000    4.8920   13.6480 C   0  0  0  0  0
   25.7190    6.3220   16.2240 C   0  0  0  0  0
   26.7960    5.2580   16.1360 C   0  0  0  0  0
   25.6890    5.5590   12.1080 C   0  0  0  0  0
   26.5940    7.2760   10.4950 C   0  0  0  0  0
   25.6020    8.4400   10.6860 C   0  0  0  0  0
   26.2990    9.6860   11.2060 C   0  0  0  0  0
   27.3920   10.1070   10.2170 C   0  0  0  0  0
   28.3710    8.9940    9.9640 C   0  0  0  0  0
   27.9790    7.6440   10.0710 C   0  0  0  0  0
   28.8790    6.6070    9.8290 C   0  0  0  0  0
   30.1920    6.9110    9.4590 C   0  0  0  0  0
   30.5890    8.2480    9.3540 C   0  0  0  0  0
   29.6910    9.2880    9.6070 C   0  0  0  0  0
   25.1910    4.6090   11.2240 C   0  0  0  0  0
   24.7300    1.6810    9.9500 O   0  0  0  0  0
   23.5990    2.5490   10.2750 S   0  0  0  0  0
   23.0640    3.2340    9.0670 O   0  0  0  0  0
   22.3660    1.6770   10.9110 N   0  0  0  0  0
   25.8210    4.4210   10.0640 F   0  0  0  0  0
   25.5160    6.9890   14.5840 S   0  0  0  0  0
   26.7540    7.8800   14.2790 O   0  0  0  0  0
   26.2340    4.0330   15.8850 O   0  0  0  0  0
   24.5190    8.1920   14.5650 O   0  0  0  0  0
   23.4120    5.0280   14.8740 F   0  0  0  0  0
   22.4980    3.1960   13.1590 F   0  0  0  0  0
   26.7520    6.3890   11.6660 N   0  0  0  0  0
   26.0046    7.1043   16.9272 H   0  0  0  0  0
   24.7835    5.8965   16.5871 H   0  0  0  0  0
   27.3334    5.2160   17.0834 H   0  0  0  0  0
   27.4795    5.5092   15.3250 H   0  0  0  0  0
   26.0906    6.7584    9.6784 H   0  0  0  0  0
   24.8493    8.1363   11.4136 H   0  0  0  0  0
   25.1531    8.6730    9.7205 H   0  0  0  0  0
   26.7477    9.4743   12.1765 H   0  0  0  0  0
   25.5731   10.4922   11.3117 H   0  0  0  0  0
   27.9341   10.9513   10.6429 H   0  0  0  0  0
   26.9174   10.3688    9.2713 H   0  0  0  0  0
   28.5616    5.5689    9.9275 H   0  0  0  0  0
   30.9027    6.1105    9.2534 H   0  0  0  0  0
   31.6150    8.4823    9.0703 H   0  0  0  0  0
   30.0179   10.3247    9.5265 H   0  0  0  0  0
   22.4620    0.6683   11.0282 H   0  0  0  0  0
   21.5025    2.1429   11.1896 H   0  0  0  0  0
   26.9259    3.3696   15.8318 H   0  0  0  0  0
   27.6410    6.3729   12.1657 H   0  0  0  0  0
  1  2  4  0  0  0
 18  1  4  0  0  0
  1 20  1  0  0  0
  4  2  4  0  0  0
  2 29  1  0  0  0
  3  4  4  0  0  0
  7  3  4  0  0  0
  3 24  1  0  0  0
  4 28  1  0  0  0
  5  6  1  0  0  0
 24  5  1  0  0  0
  6 26  1  0  0  0
  7 18  4  0  0  0
 30  7  1  0  0  0
  8  9  1  0  0  0
  8 13  1  0  0  0
  8 30  1  0  0  0
  9 10  1  0  0  0
 10 11  1  0  0  0
 11 12  1  0  0  0
 12 13  4  0  0  0
 12 17  4  0  0  0
 13 14  4  0  0  0
 14 15  4  0  0  0
 15 16  4  0  0  0
 16 17  4  0  0  0
 18 23  1  0  0  0
 20 19  2  0  0  0
 20 21  2  0  0  0
 20 22  1  0  0  0
 24 25  2  0  0  0
 24 27  2  0  0  0
  5 31  1  0  0  0
  5 32  1  0  0  0
  6 33  1  0  0  0
  6 34  1  0  0  0
  8 35  1  0  0  0
  9 36  1  0  0  0
  9 37  1  0  0  0
 10 38  1  0  0  0
 10 39  1  0  0  0
 11 40  1  0  0  0
 11 41  1  0  0  0
 14 42  1  0  0  0
 15 43  1  0  0  0
 16 44  1  0  0  0
 17 45  1  0  0  0
 22 46  1  0  0  0
 22 47  1  0  0  0
 26 48  1  0  0  0
 30 49  1  0  0  0
M  END
$$$$
