3djf_ligand
  -I-interpret- 

 27 29  0  0  0  0  0  0  0  0999 V2000
  -19.1310   -2.7640   24.5600 N   0  0  0  0  0
  -19.4950   -2.6900   25.8370 C   0  0  0  0  0
  -18.6820   -3.1690   26.7920 N   0  0  0  0  0
  -19.0240   -3.1080   28.0880 C   0  0  0  0  0
  -18.3870   -3.5160   29.2510 C   0  0  0  0  0
  -17.0200   -4.1970   29.3430 C   0  0  0  0  0
  -15.9480   -3.1500   29.6520 C   0  0  0  0  0
  -14.6340   -3.5370   29.8720 C   0  0  0  0  0
  -13.6950   -2.5540   30.1490 C   0  0  0  0  0
  -14.0990   -1.2240   30.1970 C   0  0  0  0  0
  -15.3610   -0.8910   29.9830 N   0  0  0  0  0
  -16.2810   -1.8020   29.7160 C   0  0  0  0  0
  -19.1850   -3.2080   30.2720 C   0  0  0  0  0
  -20.2930   -2.6250   29.8100 N   0  0  0  0  0
  -20.2280   -2.5480   28.4830 C   0  0  0  0  0
  -21.0950   -2.0430   27.5240 C   0  0  0  0  0
  -22.1690   -1.5420   27.8530 O   0  0  0  0  0
  -20.7260   -2.1140   26.1780 N   0  0  0  0  0
  -19.7472   -2.4021   23.8322 H   0  0  0  0  0
  -17.7895   -3.5862   26.5279 H   0  0  0  0  0
  -16.7912   -4.6819   28.3940 H   0  0  0  0  0
  -17.0386   -4.9431   30.1374 H   0  0  0  0  0
  -14.3465   -4.5875   29.8283 H   0  0  0  0  0
  -12.6532   -2.8208   30.3269 H   0  0  0  0  0
  -13.3665   -0.4465   30.4137 H   0  0  0  0  0
  -17.3120   -1.4927   29.5442 H   0  0  0  0  0
  -18.9669   -3.4021   31.3222 H   0  0  0  0  0
  1  2  2  0  0  0
  2  3  1  0  0  0
  2 18  4  0  0  0
  3  4  1  0  0  0
  4  5  4  0  0  0
  4 15  4  0  0  0
  5  6  1  0  0  0
  5 13  4  0  0  0
  6  7  1  0  0  0
  7  8  4  0  0  0
  7 12  4  0  0  0
  8  9  4  0  0  0
  9 10  4  0  0  0
 10 11  4  0  0  0
 11 12  4  0  0  0
 13 14  4  0  0  0
 14 15  4  0  0  0
 15 16  1  0  0  0
 16 17  2  0  0  0
 16 18  1  0  0  0
  1 19  1  0  0  0
  3 20  1  0  0  0
  6 21  1  0  0  0
  6 22  1  0  0  0
  8 23  1  0  0  0
  9 24  1  0  0  0
 10 25  1  0  0  0
 12 26  1  0  0  0
 13 27  1  0  0  0
M  END
$$$$
