1u3s_ligand
  -I-interpret- 

 32 35  0  0  0  0  0  0  0  0999 V2000
   28.5560   36.9250   37.8410 C   0  0  0  0  0
   28.8270   36.3570   39.1400 C   0  0  0  0  0
   27.7760   36.1960   40.0930 C   0  0  0  0  0
   26.3940   36.6220   39.7330 C   0  0  0  0  0
   26.1350   37.1800   38.4500 C   0  0  0  0  0
   27.2100   37.3290   37.5200 C   0  0  0  0  0
   28.0480   35.6400   41.3790 C   0  0  0  0  0
   26.9740   35.4930   42.3120 C   0  0  0  0  0
   25.6430   35.9000   41.9620 C   0  0  0  0  0
   25.3440   36.4620   40.6810 C   0  0  0  0  0
   24.6310   35.7380   42.8950 O   0  0  0  0  0
   29.6560   37.1110   36.8170 C   0  0  0  0  0
   31.0570   36.7560   36.8020 C   0  0  0  0  0
   31.6060   37.1910   35.5520 C   0  0  0  0  0
   30.6050   37.7710   34.8600 O   0  0  0  0  0
   29.5120   37.7190   35.5850 N   0  0  0  0  0
   31.9610   36.0910   37.7340 C   0  0  0  0  0
   33.3440   35.9000   37.3790 C   0  0  0  0  0
   33.8320   36.3630   36.1040 C   0  0  0  0  0
   32.9710   37.0080   35.1860 C   0  0  0  0  0
   35.1640   36.1880   35.7540 O   0  0  0  0  0
   29.8409   36.0489   39.3952 H   0  0  0  0  0
   25.1261   37.4910   38.1789 H   0  0  0  0  0
   27.0062   37.7605   36.5400 H   0  0  0  0  0
   29.0589   35.3321   41.6461 H   0  0  0  0  0
   27.1680   35.0684   43.2970 H   0  0  0  0  0
   24.3261   36.7636   40.4341 H   0  0  0  0  0
   23.8026   36.0513   42.5246 H   0  0  0  0  0
   31.5908   35.7394   38.6970 H   0  0  0  0  0
   34.0217   35.4052   38.0747 H   0  0  0  0  0
   33.3423   37.3565   34.2223 H   0  0  0  0  0
   35.3142   36.5525   34.8787 H   0  0  0  0  0
  1  2  4  0  0  0
  1  6  4  0  0  0
  1 12  1  0  0  0
  2  3  4  0  0  0
  3  4  4  0  0  0
  3  7  4  0  0  0
  4  5  4  0  0  0
  4 10  4  0  0  0
  5  6  4  0  0  0
  7  8  4  0  0  0
  8  9  4  0  0  0
  9 10  4  0  0  0
  9 11  1  0  0  0
 12 13  4  0  0  0
 12 16  4  0  0  0
 13 14  4  0  0  0
 13 17  4  0  0  0
 14 15  4  0  0  0
 14 20  4  0  0  0
 15 16  4  0  0  0
 17 18  4  0  0  0
 18 19  4  0  0  0
 19 20  4  0  0  0
 19 21  1  0  0  0
  2 22  1  0  0  0
  5 23  1  0  0  0
  6 24  1  0  0  0
  7 25  1  0  0  0
  8 26  1  0  0  0
 10 27  1  0  0  0
 11 28  1  0  0  0
 17 29  1  0  0  0
 18 30  1  0  0  0
 20 31  1  0  0  0
 21 32  1  0  0  0
M  END
$$$$
