4rvm_ligand
  -I-interpret- 

 49 53  0  0  0  0  0  0  0  0999 V2000
    9.0570    6.0230   15.1900 N   0  0  0  0  0
    8.5810    6.7500   15.9920 C   0  0  0  0  0
    7.9840    7.5540   16.8250 C   0  0  0  0  0
    8.6990    8.6070   17.2940 N   0  0  0  0  0
    8.1980    9.4940   18.1270 C   0  0  0  0  0
    6.8790    9.3920   18.5360 C   0  0  0  0  0
    6.6370    7.4050   17.2040 C   0  0  0  0  0
    6.0910    8.3550   18.0780 C   0  0  0  0  0
    4.8270    8.4930   18.6390 C   0  0  0  0  0
    3.6290    7.7840   18.5430 C   0  0  0  0  0
    2.5280    8.3020   19.3000 C   0  0  0  0  0
    2.6750    9.4640   20.0550 C   0  0  0  0  0
    3.8280   10.1170   20.1110 N   0  0  0  0  0
    4.8710    9.6240   19.4340 C   0  0  0  0  0
    6.1130   10.1580   19.3600 N   0  0  0  0  0
    1.1760    7.6760   19.2850 C   0  0  0  0  0
    0.7700    6.9360   18.1570 C   0  0  0  0  0
   -0.5050    6.3620   18.1180 C   0  0  0  0  0
    0.2720    7.8640   20.3490 C   0  0  0  0  0
   -0.9960    7.2910   20.3070 C   0  0  0  0  0
   -1.3840    6.5330   19.2030 C   0  0  0  0  0
   -2.7600    5.9090   19.1940 C   0  0  0  0  0
   -2.7350    4.5080   19.6840 N   0  3  0  0  0
   -1.9970    3.6240   18.7620 C   0  0  0  0  0
   -2.1980    2.1820   19.1960 C   0  0  0  0  0
   -1.7030    1.9870   20.6280 C   0  0  0  0  0
   -2.3460    2.9910   21.5850 C   0  0  0  0  0
   -2.1930    4.4150   21.0650 C   0  0  0  0  0
    8.8213   10.3090   18.4950 H   0  0  0  0  0
    6.0366    6.5761   16.8293 H   0  0  0  0  0
    3.5361    6.8887   17.9283 H   0  0  0  0  0
    1.8206    9.8460   20.6138 H   0  0  0  0  0
    1.4498    6.8107   17.3142 H   0  0  0  0  0
   -0.8169    5.7833   17.2486 H   0  0  0  0  0
    0.5674    8.4622   21.2110 H   0  0  0  0  0
   -1.6863    7.4351   21.1382 H   0  0  0  0  0
   -3.1274    5.9059   18.1678 H   0  0  0  0  0
   -3.4036    6.4907   19.8539 H   0  0  0  0  0
   -3.7025    4.1863   19.7137 H   0  0  0  0  0
   -0.9356    3.8712   18.7851 H   0  0  0  0  0
   -2.3688    3.7582   17.7462 H   0  0  0  0  0
   -1.6334    1.5279   18.5316 H   0  0  0  0  0
   -3.2600    1.9407   19.1500 H   0  0  0  0  0
   -0.6236    2.1378   20.6436 H   0  0  0  0  0
   -1.9708    0.9812   20.9518 H   0  0  0  0  0
   -1.8517    2.9172   22.5537 H   0  0  0  0  0
   -3.4082    2.7620   21.6706 H   0  0  0  0  0
   -2.7424    5.0966   21.7143 H   0  0  0  0  0
   -1.1367    4.6839   21.0563 H   0  0  0  0  0
  1  2  3  0  0  0
  2  3  1  0  0  0
  3  4  4  0  0  0
  3  7  4  0  0  0
  4  5  4  0  0  0
  5  6  4  0  0  0
  6  8  4  0  0  0
  6 15  4  0  0  0
  7  8  4  0  0  0
  8  9  4  0  0  0
  9 10  4  0  0  0
  9 14  4  0  0  0
 10 11  4  0  0  0
 11 12  4  0  0  0
 11 16  1  0  0  0
 12 13  4  0  0  0
 13 14  4  0  0  0
 14 15  4  0  0  0
 16 17  4  0  0  0
 16 19  4  0  0  0
 17 18  4  0  0  0
 18 21  4  0  0  0
 19 20  4  0  0  0
 20 21  4  0  0  0
 21 22  1  0  0  0
 22 23  1  0  0  0
 23 24  1  0  0  0
 23 28  1  0  0  0
 24 25  1  0  0  0
 25 26  1  0  0  0
 26 27  1  0  0  0
 27 28  1  0  0  0
  5 29  1  0  0  0
  7 30  1  0  0  0
 10 31  1  0  0  0
 12 32  1  0  0  0
 17 33  1  0  0  0
 18 34  1  0  0  0
 19 35  1  0  0  0
 20 36  1  0  0  0
 22 37  1  0  0  0
 22 38  1  0  0  0
 23 39  1  0  0  0
 24 40  1  0  0  0
 24 41  1  0  0  0
 25 42  1  0  0  0
 25 43  1  0  0  0
 26 44  1  0  0  0
 26 45  1  0  0  0
 27 46  1  0  0  0
 27 47  1  0  0  0
 28 48  1  0  0  0
 28 49  1  0  0  0
M  END
$$$$
