5y7k_ligand
  -I-interpret- 

 55 56  0  0  0  0  0  0  0  0999 V2000
   47.6530  -17.2050   49.5370 C   0  0  0  0  0
   45.4230  -16.1890   50.2700 C   0  0  0  0  0
   46.2100  -18.3250   51.3560 C   0  0  0  0  0
   47.6980  -13.0340   50.8550 C   0  0  0  0  0
   47.7880  -14.7890   52.5970 C   0  0  0  0  0
   54.5480  -16.7110   47.4660 C   0  0  0  0  0
   54.4060  -16.4360   48.8200 C   0  0  0  0  0
   53.1390  -16.3970   49.3950 C   0  0  0  0  0
   52.0160  -16.6280   48.6130 C   0  0  0  0  0
   52.1560  -16.9080   47.2560 C   0  0  0  0  0
   53.4260  -16.9480   46.6810 C   0  0  0  0  0
   50.5880  -16.6060   49.2360 C   0  0  0  0  0
   50.1150  -18.0720   49.1580 C   0  0  0  0  0
   48.6910  -18.3610   49.7040 C   0  0  0  0  0
   46.4230  -17.2380   50.3940 N   0  0  0  0  0
   47.7950  -16.3310   48.7580 O   0  0  0  0  0
   44.1460  -16.8620   49.8610 C   0  0  0  0  0
   43.8250  -18.1620   50.4490 N   0  0  0  0  0
   44.7210  -18.7770   51.4450 C   0  0  0  0  0
   43.4230  -16.3580   49.0690 O   0  0  0  0  0
   51.0070  -18.8760   49.9440 N   0  3  0  0  0
   53.5630  -17.2160   45.3630 F   0  0  0  0  0
   55.8040  -16.7450   46.9200 F   0  0  0  0  0
   53.0340  -16.1240   50.7280 F   0  0  0  0  0
   45.2260  -15.4980   51.6380 C   0  0  0  0  0
   45.6440  -14.1290   51.5010 O   0  0  0  0  0
   46.9110  -13.6890   52.0200 C   0  0  0  0  0
   46.6620  -12.6470   53.1020 C   0  0  0  0  0
   45.7264  -15.4360   49.5427 H   0  0  0  0  0
   46.5055  -17.9603   52.3397 H   0  0  0  0  0
   46.7975  -19.1812   51.0248 H   0  0  0  0  0
   47.8471  -13.7666   50.0618 H   0  0  0  0  0
   47.1324  -12.1868   50.4672 H   0  0  0  0  0
   48.6657  -12.6899   51.2201 H   0  0  0  0  0
   47.2648  -15.2745   53.4208 H   0  0  0  0  0
   48.0063  -15.5225   51.8209 H   0  0  0  0  0
   48.7194  -14.3557   52.9615 H   0  0  0  0  0
   55.2879  -16.2505   49.4331 H   0  0  0  0  0
   51.2739  -17.0957   46.6439 H   0  0  0  0  0
   49.9186  -15.9302   48.7037 H   0  0  0  0  0
   50.5927  -16.2304   50.2592 H   0  0  0  0  0
   50.1029  -18.3009   48.0924 H   0  0  0  0  0
   48.3068  -19.2055   49.1319 H   0  0  0  0  0
   48.7993  -18.5258   50.7760 H   0  0  0  0  0
   42.9734  -18.6476   50.1674 H   0  0  0  0  0
   44.3573  -18.4734   52.4266 H   0  0  0  0  0
   44.7060  -19.8514   51.2621 H   0  0  0  0  0
   50.7089  -19.8507   49.9039 H   0  0  0  0  0
   51.9536  -18.7932   49.5731 H   0  0  0  0  0
   50.9902  -18.5536   50.9115 H   0  0  0  0  0
   45.8163  -15.9998   52.4047 H   0  0  0  0  0
   44.1798  -15.5466   51.9401 H   0  0  0  0  0
   46.1237  -11.8016   52.6735 H   0  0  0  0  0
   46.0681  -13.0900   53.9015 H   0  0  0  0  0
   47.6166  -12.3061   53.5029 H   0  0  0  0  0
  1 14  1  0  0  0
 15  1  1  0  0  0
  1 16  2  0  0  0
  2 15  1  0  0  0
  2 17  1  0  0  0
 25  2  1  0  0  0
 15  3  1  0  0  0
  3 19  1  0  0  0
 27  4  1  0  0  0
 27  5  1  0  0  0
  7  6  4  0  0  0
 11  6  4  0  0  0
  6 23  1  0  0  0
  8  7  4  0  0  0
  9  8  4  0  0  0
  8 24  1  0  0  0
  9 10  4  0  0  0
 12  9  1  0  0  0
 10 11  4  0  0  0
 11 22  1  0  0  0
 13 12  1  0  0  0
 14 13  1  0  0  0
 13 21  1  0  0  0
 17 18  1  0  0  0
 17 20  2  0  0  0
 18 19  1  0  0  0
 26 25  1  0  0  0
 26 27  1  0  0  0
 27 28  1  0  0  0
  2 29  1  0  0  0
  3 30  1  0  0  0
  3 31  1  0  0  0
  4 32  1  0  0  0
  4 33  1  0  0  0
  4 34  1  0  0  0
  5 35  1  0  0  0
  5 36  1  0  0  0
  5 37  1  0  0  0
  7 38  1  0  0  0
 10 39  1  0  0  0
 12 40  1  0  0  0
 12 41  1  0  0  0
 13 42  1  0  0  0
 14 43  1  0  0  0
 14 44  1  0  0  0
 18 45  1  0  0  0
 19 46  1  0  0  0
 19 47  1  0  0  0
 21 48  1  0  0  0
 21 49  1  0  0  0
 21 50  1  0  0  0
 25 51  1  0  0  0
 25 52  1  0  0  0
 28 53  1  0  0  0
 28 54  1  0  0  0
 28 55  1  0  0  0
M  END
$$$$
