3ue4_ligand
  -I-interpret- 

 67 70  0  0  0  0  0  0  0  0999 V2000
   -2.4390   15.8230  -52.6150 C   0  0  0  0  0
   -0.7230   17.7490  -43.8250 O   0  0  0  0  0
   -0.2760   10.9670  -54.9260 C   0  0  0  0  0
   -2.8950   14.2390  -44.0700 N   0  0  0  0  0
   -3.2890   18.8070  -42.4990 Cl  0  0  0  0  0
   -5.8900   16.3750  -46.8020 Cl  0  0  0  0  0
   -2.5320   13.8910  -45.0810 C   0  0  0  0  0
   -1.3020   12.1440  -46.5160 C   0  0  0  0  0
   -4.4780   17.5620  -44.6880 C   0  0  0  0  0
   -1.8260   16.6460  -45.7600 C   0  0  0  0  0
   -0.5380   11.8080  -50.3050 C   0  0  0  0  0
   -2.0290   14.4420  -50.2560 C   0  0  0  0  0
    0.7430   10.3250  -53.9950 C   0  0  0  0  0
    0.7360   11.0740  -52.6630 C   0  0  0  0  0
   -0.7980    7.5090  -59.0390 C   0  0  0  0  0
   -1.3080   10.3190  -57.2360 C   0  0  0  0  0
    0.3100    8.9150  -56.1780 C   0  0  0  0  0
   -0.7130    9.9490  -58.6050 C   0  0  0  0  0
    0.9210    8.5590  -57.4940 C   0  0  0  0  0
   -0.8210   11.6400  -47.7690 N   0  0  0  0  0
   -3.0370   15.5280  -47.7040 N   0  0  0  0  0
   -1.7680   14.6040  -52.6880 O   0  0  0  0  0
   -0.2860   12.0260  -52.7280 O   0  0  0  0  0
   -1.8860   17.4360  -44.4920 C   0  0  0  0  0
   -3.2170   17.8930  -43.9630 C   0  0  0  0  0
   -4.4280   16.7700  -45.9530 C   0  0  0  0  0
   -2.0470   13.4380  -46.4190 C   0  0  0  0  0
   -3.0980   16.3140  -46.4880 C   0  0  0  0  0
   -1.5230   13.8770  -51.5450 C   0  0  0  0  0
   -0.7800   12.5830  -51.5560 C   0  0  0  0  0
   -2.3230   14.2440  -47.6770 C   0  0  0  0  0
   -1.0450   12.3590  -48.9920 C   0  0  0  0  0
   -1.7920   13.6770  -48.9890 C   0  0  0  0  0
   -0.2430   10.2440  -56.2370 N   0  3  0  0  0
   -0.0790    8.6600  -58.5140 N   0  3  0  0  0
    0.3580   16.8780  -43.8610 C   0  0  0  0  0
   -3.4294   15.6661  -52.1877 H   0  0  0  0  0
   -1.8745   16.5098  -51.9844 H   0  0  0  0  0
   -2.5362   16.2433  -53.6160 H   0  0  0  0  0
   -0.0331   12.0191  -55.0749 H   0  0  0  0  0
   -1.2726   10.9009  -54.4894 H   0  0  0  0  0
   -1.1199   11.5684  -45.6085 H   0  0  0  0  0
   -5.4369   17.8986  -44.2940 H   0  0  0  0  0
   -0.8657   16.3130  -46.1538 H   0  0  0  0  0
   -0.0036   10.8585  -50.3371 H   0  0  0  0  0
   -2.5608   15.3933  -50.2382 H   0  0  0  0  0
    1.7356   10.3773  -54.4423 H   0  0  0  0  0
    0.4850    9.2787  -53.8311 H   0  0  0  0  0
    1.6982   11.5557  -52.4890 H   0  0  0  0  0
    0.5656   10.3844  -51.8363 H   0  0  0  0  0
   -1.7435    7.3996  -58.5078 H   0  0  0  0  0
   -0.9917    7.6569  -60.1014 H   0  0  0  0  0
   -0.1955    6.6114  -58.8997 H   0  0  0  0  0
   -2.1113    9.6287  -56.9786 H   0  0  0  0  0
   -1.7204   11.3275  -57.2678 H   0  0  0  0  0
    1.0769    8.8790  -55.4043 H   0  0  0  0  0
   -0.4843    8.2052  -55.9469 H   0  0  0  0  0
    0.0225   10.6981  -58.8982 H   0  0  0  0  0
   -1.5069    9.9138  -59.3510 H   0  0  0  0  0
    1.3070    7.5403  -57.4568 H   0  0  0  0  0
    1.7420    9.2411  -57.7149 H   0  0  0  0  0
   -3.4805   15.8592  -48.5608 H   0  0  0  0  0
    0.3986   10.9238  -56.6451 H   0  0  0  0  0
    0.5649    8.5673  -59.2996 H   0  0  0  0  0
    0.0633   15.9175  -43.4383 H   0  0  0  0  0
    0.6770   16.7393  -44.8940 H   0  0  0  0  0
    1.1793   17.2960  -43.2788 H   0  0  0  0  0
 22  1  1  0  0  0
 24  2  1  0  0  0
  2 36  1  0  0  0
 13  3  1  0  0  0
  3 34  1  0  0  0
  7  4  3  0  0  0
 25  5  1  0  0  0
 26  6  1  0  0  0
 27  7  1  0  0  0
 20  8  4  0  0  0
  8 27  4  0  0  0
  9 25  4  0  0  0
 26  9  4  0  0  0
 10 24  4  0  0  0
 28 10  4  0  0  0
 30 11  4  0  0  0
 11 32  4  0  0  0
 29 12  4  0  0  0
 12 33  4  0  0  0
 14 13  1  0  0  0
 23 14  1  0  0  0
 35 15  1  0  0  0
 16 18  1  0  0  0
 34 16  1  0  0  0
 17 19  1  0  0  0
 34 17  1  0  0  0
 18 35  1  0  0  0
 19 35  1  0  0  0
 32 20  4  0  0  0
 21 28  1  0  0  0
 31 21  1  0  0  0
 29 22  1  0  0  0
 30 23  1  0  0  0
 24 25  4  0  0  0
 28 26  4  0  0  0
 27 31  4  0  0  0
 29 30  4  0  0  0
 31 33  4  0  0  0
 32 33  4  0  0  0
  1 37  1  0  0  0
  1 38  1  0  0  0
  1 39  1  0  0  0
  3 40  1  0  0  0
  3 41  1  0  0  0
  8 42  1  0  0  0
  9 43  1  0  0  0
 10 44  1  0  0  0
 11 45  1  0  0  0
 12 46  1  0  0  0
 13 47  1  0  0  0
 13 48  1  0  0  0
 14 49  1  0  0  0
 14 50  1  0  0  0
 15 51  1  0  0  0
 15 52  1  0  0  0
 15 53  1  0  0  0
 16 54  1  0  0  0
 16 55  1  0  0  0
 17 56  1  0  0  0
 17 57  1  0  0  0
 18 58  1  0  0  0
 18 59  1  0  0  0
 19 60  1  0  0  0
 19 61  1  0  0  0
 21 62  1  0  0  0
 34 63  1  0  0  0
 35 64  1  0  0  0
 36 65  1  0  0  0
 36 66  1  0  0  0
 36 67  1  0  0  0
M  END
$$$$
