4e3i_ligand
  -I-interpret- 

 30 30  0  0  0  0  0  0  0  0999 V2000
   26.3100    4.9640   16.2970 B   0  0  0  0  0
   25.3410    4.0700   16.9300 O   0  0  0  0  0
   26.5000    6.0890   17.2250 O   0  0  0  0  0
   25.7200    5.4320   14.9170 C   0  0  0  0  0
   24.2580    5.5550   14.8780 N   0  0  0  0  0
   23.4720    6.0060   13.5450 S   0  0  0  0  0
   24.0950    7.1940   13.0020 O   0  0  0  0  0
   22.1280    6.3050   13.8760 O   0  0  0  0  0
   23.5280    4.7580   12.3710 C   0  0  0  0  0
   22.7380    4.9900   11.1100 C   0  0  0  0  0
   23.2060    5.8990   10.1580 C   0  0  0  0  0
   22.4530    6.0820    8.9920 C   0  0  0  0  0
   21.2670    5.3920    8.7560 C   0  0  0  0  0
   20.8390    4.5030    9.7250 C   0  0  0  0  0
   19.5560    3.7030    9.5130 C   0  0  0  0  0
   19.0990    3.0300   10.4600 O   0  0  0  0  0
   18.9940    3.7040    8.3850 O   0  0  0  0  0
   21.5720    4.3010   10.8820 C   0  0  0  0  0
   25.6855    3.7738   17.7757 H   0  0  0  0  0
   26.8604    5.7623   18.0526 H   0  0  0  0  0
   25.9918    4.6721   14.1843 H   0  0  0  0  0
   26.1249    6.4250   14.7218 H   0  0  0  0  0
   23.7224    5.3485   15.7211 H   0  0  0  0  0
   23.0925    3.8777   12.8437 H   0  0  0  0  0
   24.5709    4.6769   12.0645 H   0  0  0  0  0
   24.1322    6.4508   10.3186 H   0  0  0  0  0
   22.8077    6.7896    8.2426 H   0  0  0  0  0
   20.6963    5.5469    7.8404 H   0  0  0  0  0
   19.4821    4.2737    7.7860 H   0  0  0  0  0
   21.2184    3.5843   11.6232 H   0  0  0  0  0
  1  2  1  0  0  0
  1  3  1  0  0  0
  1  4  1  0  0  0
  4  5  1  0  0  0
  5  6  1  0  0  0
  6  7  2  0  0  0
  6  8  2  0  0  0
  6  9  1  0  0  0
  9 10  1  0  0  0
 10 11  4  0  0  0
 10 18  4  0  0  0
 11 12  4  0  0  0
 12 13  4  0  0  0
 13 14  4  0  0  0
 14 15  1  0  0  0
 14 18  4  0  0  0
 15 16  2  0  0  0
 15 17  1  0  0  0
  2 19  1  0  0  0
  3 20  1  0  0  0
  4 21  1  0  0  0
  4 22  1  0  0  0
  5 23  1  0  0  0
  9 24  1  0  0  0
  9 25  1  0  0  0
 11 26  1  0  0  0
 12 27  1  0  0  0
 13 28  1  0  0  0
 17 29  1  0  0  0
 18 30  1  0  0  0
M  END
$$$$
