### 
### Created by X-TOOL on Mon Sep 10 21:13:09 2018
### 

@<TRIPOS>MOLECULE
4e3i_ligand
   29    29     1     0     0
SMALL
GAST_HUCK


@<TRIPOS>ATOM
      1 B03        26.3100    4.9640   16.2970 B         1 0N3         1.0000
      2 O04        25.3410    4.0700   16.9300 O.3       1 0N3        -0.8710
      3 O05        26.5000    6.0890   17.2250 O.3       1 0N3        -0.8710
      4 C06        25.7200    5.4320   14.9170 C.3       1 0N3        -0.2502
      5 N07        24.2580    5.5550   14.8780 N.am      1 0N3        -0.4017
      6 S08        23.4720    6.0060   13.5450 S.o2      1 0N3         0.0227
      7 O09        24.0950    7.1940   13.0020 O.2       1 0N3        -0.1556
      8 O10        22.1280    6.3050   13.8760 O.2       1 0N3        -0.1556
      9 C11        23.5280    4.7580   12.3710 C.3       1 0N3         0.1159
     10 C12        22.7380    4.9900   11.1100 C.ar      1 0N3        -0.0170
     11 C13        23.2060    5.8990   10.1580 C.ar      1 0N3        -0.0561
     12 C14        22.4530    6.0820    8.9920 C.ar      1 0N3        -0.0649
     13 C15        21.2670    5.3920    8.7560 C.ar      1 0N3        -0.0545
     14 C16        20.8390    4.5030    9.7250 C.ar      1 0N3         0.0035
     15 C17        19.5560    3.7030    9.5130 C.2       1 0N3         0.0613
     16 O18        19.0990    3.0300   10.4600 O.co2     1 0N3        -0.5607
     17 O19        18.9940    3.7040    8.3850 O.co2     1 0N3        -0.5607
     18 C20        21.5720    4.3010   10.8820 C.ar      1 0N3        -0.0446
     19 H          25.6887    3.7679   17.7723 H         1 0N3        -0.1290
     20 H          26.8313    5.7585   18.0632 H         1 0N3        -0.1290
     21 H          25.9918    4.6721   14.1843 H         1 0N3        -0.1900
     22 H          26.1249    6.4250   14.7218 H         1 0N3        -0.1900
     23 H          23.7224    5.3485   15.7211 H         1 0N3         0.1255
     24 H          23.0925    3.8777   12.8437 H         1 0N3         0.0681
     25 H          24.5709    4.6769   12.0645 H         1 0N3         0.0681
     26 H          24.1322    6.4508   10.3186 H         1 0N3         0.0578
     27 H          22.8077    6.7896    8.2426 H         1 0N3         0.0606
     28 H          20.6963    5.5469    7.8404 H         1 0N3         0.0593
     29 H          21.2184    3.5843   11.6232 H         1 0N3         0.0590
@<TRIPOS>BOND
     1    1    2 1  
     2    1    3 1  
     3    1    4 1  
     4    4    5 1  
     5    5    6 am 
     6    6    7 2  
     7    6    8 2  
     8    6    9 1  
     9    9   10 1  
    10   10   11 ar 
    11   10   18 ar 
    12   11   12 ar 
    13   12   13 ar 
    14   13   14 ar 
    15   14   15 1  
    16   14   18 ar 
    17   15   16 ar 
    18   15   17 ar 
    19    2   19 1  
    20    3   20 1  
    21    4   21 1  
    22    4   22 1  
    23    5   23 1  
    24    9   24 1  
    25    9   25 1  
    26   11   26 1  
    27   12   27 1  
    28   13   28 1  
    29   18   29 1  
@<TRIPOS>SUBSTRUCTURE
     1 0N3         1

