2xeg_ligand
  -I-interpret- 

 94 95  0  0  0  0  0  0  0  0999 V2000
   13.7020   48.5580   40.5760 O   0  0  0  0  0
   13.7120   47.3160   40.3690 C   0  0  0  0  0
   12.9150   46.7450   39.5870 O   0  0  0  0  0
   14.9080   46.5360   41.0030 C   0  0  0  0  0
   14.6520   45.0170   41.0800 C   0  0  0  0  0
   15.9460   44.2760   41.5020 C   0  0  0  0  0
   16.9300   44.4460   40.3110 C   0  0  0  0  0
   16.8180   43.6460   39.3350 O   0  0  0  0  0
   17.8070   45.3580   40.3270 O   0  0  0  0  0
   16.5940   44.8950   42.6820 N   0  0  0  0  0
   17.8440   44.5010   43.0280 C   0  0  0  0  0
   18.2660   43.4480   42.5360 O   0  0  0  0  0
   18.5260   45.2760   43.8900 N   0  0  0  0  0
   19.8490   44.8910   44.3680 C   0  0  0  0  0
   20.1030   45.5920   45.6950 C   0  0  0  0  0
   19.5420   46.7030   45.8650 O   0  0  0  0  0
   20.7180   44.9100   46.5530 O   0  0  0  0  0
   20.6780   45.5800   43.3050 C   0  0  0  0  0
   22.1830   45.3150   43.3580 C   0  0  0  0  0
   22.7260   46.0410   42.0950 C   0  0  0  0  0
   24.1740   45.7140   41.8460 C   0  0  0  0  0
   24.6550   46.5480   40.7160 N   0  0  0  0  0
   24.8670   47.8620   40.7470 C   0  0  0  0  0
   24.9060   46.0780   39.5870 N   0  0  0  0  0
   25.2900   46.9640   38.8100 N   0  0  0  0  0
   25.2820   48.1010   39.5020 C   0  0  0  0  0
   25.6370   49.3390   38.9910 C   0  0  0  0  0
   25.8740   50.4140   39.9140 O   0  0  0  0  0
   24.9720   51.4770   39.6480 C   0  0  0  0  0
   25.4190   52.6820   40.4430 C   0  0  0  0  0
   25.3230   52.3510   41.8400 O   0  0  0  0  0
   24.8250   53.4820   42.5480 C   0  0  0  0  0
   25.8450   53.8020   43.5980 C   0  0  0  0  0
   26.6950   54.8880   43.1500 O   0  0  0  0  0
   27.8120   55.0360   44.0710 C   0  0  0  0  0
   27.3410   55.1320   45.5460 C   0  0  0  0  0
   28.2090   54.4100   46.4380 O   0  0  0  0  0
   27.4660   53.6230   47.3750 C   0  0  0  0  0
   28.5610   52.8010   48.0570 C   0  0  0  0  0
   29.6050   53.6830   48.6110 N   0  0  0  0  0
   30.9170   53.7030   48.3080 C   0  0  0  0  0
   31.3510   54.5970   47.3180 C   0  0  0  0  0
   32.7060   54.6920   46.9960 C   0  0  0  0  0
   33.6400   53.8990   47.6700 C   0  0  0  0  0
   34.9550   53.9560   47.3790 N   0  0  0  0  0
   35.4390   53.7840   46.0280 O   0  0  0  0  0
   35.9210   54.1390   48.4280 O   0  0  0  0  0
   33.2050   53.0240   48.6670 C   0  0  0  0  0
   31.8560   52.9090   49.0060 C   0  0  0  0  0
   31.5270   52.0240   49.9740 N   0  0  0  0  0
   30.2060   51.6440   50.2310 O   0  0  0  0  0
   32.5280   51.3920   50.7440 O   0  0  0  0  0
   14.3913   48.7819   41.2055 H   0  0  0  0  0
   15.0474   46.9044   42.0193 H   0  0  0  0  0
   15.7840   46.6969   40.3746 H   0  0  0  0  0
   14.3393   44.6580   40.0995 H   0  0  0  0  0
   13.8736   44.8236   41.8181 H   0  0  0  0  0
   15.7040   43.2428   41.7510 H   0  0  0  0  0
   16.1014   43.0310   39.5074 H   0  0  0  0  0
   16.1067   45.6071   43.2259 H   0  0  0  0  0
   18.1104   46.1488   44.2153 H   0  0  0  0  0
   20.0232   43.8245   44.5109 H   0  0  0  0  0
   21.0448   44.1045   46.1456 H   0  0  0  0  0
   20.5487   46.6511   43.4604 H   0  0  0  0  0
   20.3313   45.1939   42.3464 H   0  0  0  0  0
   22.4193   44.2509   43.3614 H   0  0  0  0  0
   22.6389   45.6812   44.2779 H   0  0  0  0  0
   22.6382   47.1161   42.2519 H   0  0  0  0  0
   22.1459   45.7117   41.2329 H   0  0  0  0  0
   24.2811   44.6572   41.6016 H   0  0  0  0  0
   24.7623   45.9217   42.7398 H   0  0  0  0  0
   24.7357   48.5601   41.5737 H   0  0  0  0  0
   24.7834   49.6577   38.3927 H   0  0  0  0  0
   26.5900   49.1785   38.4869 H   0  0  0  0  0
   23.9600   51.1917   39.9352 H   0  0  0  0  0
   24.9689   51.7095   38.5831 H   0  0  0  0  0
   24.7874   53.5404   40.2143 H   0  0  0  0  0
   26.4457   52.9434   40.1868 H   0  0  0  0  0
   23.8544   53.2685   42.9958 H   0  0  0  0  0
   24.6724   54.3283   41.8782 H   0  0  0  0  0
   26.4581   52.9199   43.7827 H   0  0  0  0  0
   25.3350   54.1005   44.5139 H   0  0  0  0  0
   28.3397   55.9565   43.8213 H   0  0  0  0  0
   28.4519   54.1589   43.9741 H   0  0  0  0  0
   26.3442   54.6964   45.6142 H   0  0  0  0  0
   27.3494   56.1820   45.8385 H   0  0  0  0  0
   26.7002   53.0071   46.9035 H   0  0  0  0  0
   26.8858   54.2254   48.0740 H   0  0  0  0  0
   29.0142   52.1374   47.3206 H   0  0  0  0  0
   28.1164   52.2269   48.8699 H   0  0  0  0  0
   29.2958   54.3601   49.3084 H   0  0  0  0  0
   30.6255   55.2216   46.7968 H   0  0  0  0  0
   33.0355   55.3833   46.2203 H   0  0  0  0  0
   33.9384   52.4144   49.1948 H   0  0  0  0  0
  1  2  1  0  0  0
  2  3  2  0  0  0
  2  4  1  0  0  0
  4  5  1  0  0  0
  5  6  1  0  0  0
  6  7  1  0  0  0
  6 10  1  0  0  0
  7  8  1  0  0  0
  7  9  2  0  0  0
 10 11  1  0  0  0
 11 12  2  0  0  0
 11 13  1  0  0  0
 13 14  1  0  0  0
 14 15  1  0  0  0
 14 18  1  0  0  0
 15 16  2  0  0  0
 15 17  1  0  0  0
 18 19  1  0  0  0
 19 20  1  0  0  0
 20 21  1  0  0  0
 21 22  1  0  0  0
 22 23  4  0  0  0
 22 24  4  0  0  0
 23 26  4  0  0  0
 24 25  4  0  0  0
 25 26  4  0  0  0
 26 27  1  0  0  0
 27 28  1  0  0  0
 28 29  1  0  0  0
 29 30  1  0  0  0
 30 31  1  0  0  0
 31 32  1  0  0  0
 32 33  1  0  0  0
 33 34  1  0  0  0
 34 35  1  0  0  0
 35 36  1  0  0  0
 36 37  1  0  0  0
 37 38  1  0  0  0
 38 39  1  0  0  0
 39 40  1  0  0  0
 40 41  1  0  0  0
 41 42  4  0  0  0
 41 49  4  0  0  0
 42 43  4  0  0  0
 43 44  4  0  0  0
 44 45  1  0  0  0
 44 48  4  0  0  0
 45 46  2  0  0  0
 45 47  2  0  0  0
 48 49  4  0  0  0
 49 50  1  0  0  0
 50 51  2  0  0  0
 50 52  2  0  0  0
  1 53  1  0  0  0
  4 54  1  0  0  0
  4 55  1  0  0  0
  5 56  1  0  0  0
  5 57  1  0  0  0
  6 58  1  0  0  0
  8 59  1  0  0  0
 10 60  1  0  0  0
 13 61  1  0  0  0
 14 62  1  0  0  0
 17 63  1  0  0  0
 18 64  1  0  0  0
 18 65  1  0  0  0
 19 66  1  0  0  0
 19 67  1  0  0  0
 20 68  1  0  0  0
 20 69  1  0  0  0
 21 70  1  0  0  0
 21 71  1  0  0  0
 23 72  1  0  0  0
 27 73  1  0  0  0
 27 74  1  0  0  0
 29 75  1  0  0  0
 29 76  1  0  0  0
 30 77  1  0  0  0
 30 78  1  0  0  0
 32 79  1  0  0  0
 32 80  1  0  0  0
 33 81  1  0  0  0
 33 82  1  0  0  0
 35 83  1  0  0  0
 35 84  1  0  0  0
 36 85  1  0  0  0
 36 86  1  0  0  0
 38 87  1  0  0  0
 38 88  1  0  0  0
 39 89  1  0  0  0
 39 90  1  0  0  0
 40 91  1  0  0  0
 42 92  1  0  0  0
 43 93  1  0  0  0
 48 94  1  0  0  0
M  END
$$$$
