4e81_ligand
  -I-interpret- 

149152  0  0  0  0  0  0  0  0999 V2000
   24.6920    5.1680   19.8210 N   0  3  0  0  0
   25.1560    5.4080   18.4270 C   0  0  0  0  0
   25.2090    6.9250   17.9680 C   0  0  0  0  0
   24.2020    7.4650   17.5300 O   0  0  0  0  0
   24.2740    4.5890   17.4960 C   0  0  0  0  0
   24.7660    4.5530   16.0720 C   0  0  0  0  0
   24.1920    3.3390   15.3680 C   0  0  0  0  0
   25.2790    2.6640   14.6640 N   0  0  0  0  0
   25.2480    1.4120   14.2020 C   0  0  0  0  0
   26.3270    0.9060   13.5780 N   0  0  0  0  0
   24.1580    0.6720   14.3780 N   0  0  0  0  0
   26.3860    7.6040   18.0750 N   0  0  0  0  0
   26.4320    9.0450   17.7250 C   0  0  0  0  0
   26.1000    9.2520   16.2450 C   0  0  0  0  0
   26.3300    8.3360   15.4600 O   0  0  0  0  0
   27.8910    9.4320   18.0010 C   0  0  0  0  0
   28.6590    8.1530   17.8920 C   0  0  0  0  0
   27.7310    7.0950   18.4260 C   0  0  0  0  0
   25.5570   10.4250   15.8780 N   0  0  0  0  0
   25.1000   10.6400   14.4930 C   0  0  0  0  0
   25.8190   11.8480   13.8960 C   0  0  0  0  0
   26.2990   12.7110   14.5940 O   0  0  0  0  0
   23.5360   10.7330   14.3480 C   0  0  0  0  0
   23.1200   10.3160   12.9350 C   0  0  0  0  0
   22.7820    9.8570   15.3510 C   0  0  0  0  0
   25.9100   11.9090   12.5890 N   0  0  0  0  0
   26.7070   12.9250   11.9380 C   0  0  0  0  0
   25.9710   13.5550   10.7830 C   0  0  0  0  0
   25.1280   12.9310   10.0920 O   0  0  0  0  0
   27.9710   12.2530   11.3680 C   0  0  0  0  0
   28.5690   11.1920   12.2520 C   0  0  0  0  0
   29.4770   11.5420   13.2720 C   0  0  0  0  0
   28.2250    9.8150   12.0880 C   0  0  0  0  0
   30.0290   10.5560   14.1070 C   0  0  0  0  0
   28.7700    8.8250   12.9190 C   0  0  0  0  0
   29.6680    9.2040   13.9260 C   0  0  0  0  0
   30.2070    8.2610   14.7650 O   0  0  0  0  0
   26.2790   14.7930   10.5150 N   0  0  0  0  0
   25.5730   15.4720    9.4350 C   0  0  0  0  0
   26.4350   15.3370    8.1810 C   0  0  0  0  0
   27.6420   15.2650    8.3370 O   0  0  0  0  0
   25.5030   16.9520    9.7150 C   0  0  0  0  0
   25.1100   17.1770   11.1390 C   0  0  0  0  0
   24.5330   17.6420    8.7340 C   0  0  0  0  0
   23.7200   16.6650   11.3670 C   0  0  0  0  0
   25.8510   15.2840    6.9650 N   0  0  0  0  0
   26.8440   15.0100    5.9180 C   0  0  0  0  0
   27.6190   16.2590    5.5510 C   0  0  0  0  0
   27.1820   17.3850    5.8580 O   0  0  0  0  0
   26.0050   14.5070    4.7290 C   0  0  0  0  0
   24.5630   14.6480    5.1090 C   0  0  0  0  0
   24.4760   15.3840    6.4130 C   0  0  0  0  0
   28.7650   16.0710    4.9020 N   0  0  0  0  0
   29.4590   17.2280    4.3430 C   0  0  0  0  0
   28.5400   17.8970    3.3100 C   0  0  0  0  0
   27.8740   17.2270    2.5070 O   0  0  0  0  0
   30.8250   16.8500    3.7500 C   0  0  0  0  0
   31.5880   17.9400    2.9870 C   0  0  0  0  0
   32.4310   17.3120    1.8650 C   0  0  0  0  0
   31.7130   17.1430    0.5890 N   0  0  0  0  0
   30.7040   16.2960    0.3470 C   0  0  0  0  0
   30.1530   16.2690   -0.8560 N   0  0  0  0  0
   30.2250   15.4900    1.2840 N   0  0  0  0  0
   28.4800   19.2300    3.3450 N   0  0  0  0  0
   27.7840   19.8600    2.2470 C   0  0  0  0  0
   28.5190   19.5530    0.9030 C   0  0  0  0  0
   29.7420   19.7960    0.7680 O   0  0  0  0  0
   27.8280   21.3400    2.6370 C   0  0  0  0  0
   29.1030   21.4870    3.4210 C   0  0  0  0  0
   29.2220   20.1980    4.1770 C   0  0  0  0  0
   27.7890   18.9660   -0.0620 N   0  0  0  0  0
   25.2683    5.7070   20.4674 H   0  0  0  0  0
   23.7181    5.4584   19.9087 H   0  0  0  0  0
   24.7728    4.1748   20.0387 H   0  0  0  0  0
   26.1993    5.0953   18.3843 H   0  0  0  0  0
   23.2880    5.0535   17.4886 H   0  0  0  0  0
   24.2724    3.5639   17.8664 H   0  0  0  0  0
   25.8544    4.4952   16.0655 H   0  0  0  0  0
   24.4461    5.4575   15.5546 H   0  0  0  0  0
   23.4208    3.6453   14.6612 H   0  0  0  0  0
   23.7393    2.6638   16.0941 H   0  0  0  0  0
   26.1363    3.1954   14.5121 H   0  0  0  0  0
   26.3139   -0.0544   13.2346 H   0  0  0  0  0
   27.1583    1.4827   13.4483 H   0  0  0  0  0
   23.3503    1.0614   14.8642 H   0  0  0  0  0
   25.7140    9.6414   18.2879 H   0  0  0  0  0
   28.0081    9.8907   18.9828 H   0  0  0  0  0
   28.2507   10.1802   17.2946 H   0  0  0  0  0
   29.5922    8.1929   18.4538 H   0  0  0  0  0
   28.9574    7.9472   16.8640 H   0  0  0  0  0
   27.9295    6.1118   17.9993 H   0  0  0  0  0
   27.8508    6.9372   19.4978 H   0  0  0  0  0
   25.4601   11.1736   16.5640 H   0  0  0  0  0
   25.3684    9.7535   13.9184 H   0  0  0  0  0
   23.2723   11.7713   14.5495 H   0  0  0  0  0
   23.5898   10.9792   12.2087 H   0  0  0  0  0
   23.4390    9.2900   12.7516 H   0  0  0  0  0
   22.0360   10.3829   12.8421 H   0  0  0  0  0
   23.0645    8.8144   15.2051 H   0  0  0  0  0
   23.0373   10.1655   16.3648 H   0  0  0  0  0
   21.7091    9.9693   15.1950 H   0  0  0  0  0
   25.4087   11.2264   12.0205 H   0  0  0  0  0
   26.9413   13.6962   12.6718 H   0  0  0  0  0
   28.7230   13.0339   11.2548 H   0  0  0  0  0
   27.6800   11.7652   10.4377 H   0  0  0  0  0
   29.7533   12.5868   13.4141 H   0  0  0  0  0
   27.5259    9.5284   11.3024 H   0  0  0  0  0
   30.7331   10.8343   14.8912 H   0  0  0  0  0
   28.4994    7.7778   12.7837 H   0  0  0  0  0
   29.8740    7.3932   14.5252 H   0  0  0  0  0
   26.9997   15.2772   11.0503 H   0  0  0  0  0
   24.5751   15.0463    9.3299 H   0  0  0  0  0
   26.4858   17.3980    9.5624 H   0  0  0  0  0
   25.1422   18.2443   11.3581 H   0  0  0  0  0
   25.8021   16.6462   11.7928 H   0  0  0  0  0
   24.8823   17.4903    7.7127 H   0  0  0  0  0
   23.5377   17.2122    8.8466 H   0  0  0  0  0
   24.4960   18.7093    8.9520 H   0  0  0  0  0
   23.0273   17.1943   10.7126 H   0  0  0  0  0
   23.6865   15.5980   11.1468 H   0  0  0  0  0
   23.4388   16.8317   12.4068 H   0  0  0  0  0
   27.5942   14.2864    6.2370 H   0  0  0  0  0
   26.2421   13.4666    4.5064 H   0  0  0  0  0
   26.2233   15.0887    3.8334 H   0  0  0  0  0
   24.1099   13.6619    5.2107 H   0  0  0  0  0
   24.0300   15.2019    4.3362 H   0  0  0  0  0
   24.1523   16.4172    6.2869 H   0  0  0  0  0
   23.7273   14.9591    7.0815 H   0  0  0  0  0
   29.1528   15.1335    4.7965 H   0  0  0  0  0
   29.6765   17.9390    5.1401 H   0  0  0  0  0
   30.6226   16.0662    3.0201 H   0  0  0  0  0
   31.4543   16.5910    4.6015 H   0  0  0  0  0
   32.2480   18.4639    3.6784 H   0  0  0  0  0
   30.8726   18.6359    2.5488 H   0  0  0  0  0
   32.7241   16.3178    2.2022 H   0  0  0  0  0
   33.2665   17.9860    1.6760 H   0  0  0  0  0
   32.0150   17.7304   -0.1883 H   0  0  0  0  0
   30.4973   16.8896   -1.5887 H   0  0  0  0  0
   29.4471   14.8657    1.0708 H   0  0  0  0  0
   30.6344   15.4941    2.2182 H   0  0  0  0  0
   26.7634   19.5125    2.0863 H   0  0  0  0  0
   26.9549   21.6345    3.2193 H   0  0  0  0  0
   27.8084   21.9926    1.7641 H   0  0  0  0  0
   29.0801   22.3517    4.0842 H   0  0  0  0  0
   29.9634   21.6661    2.7763 H   0  0  0  0  0
   30.2597   19.9022    4.3310 H   0  0  0  0  0
   28.8186   20.2712    5.1870 H   0  0  0  0  0
   28.2281   18.7010   -0.9437 H   0  0  0  0  0
   26.7963   18.7858    0.0878 H   0  0  0  0  0
  1  2  1  0  0  0
  2  3  1  0  0  0
  2  5  1  0  0  0
  3  4  2  0  0  0
  3 12  1  0  0  0
  5  6  1  0  0  0
  6  7  1  0  0  0
  7  8  1  0  0  0
  8  9  1  0  0  0
  9 10  1  0  0  0
  9 11  2  0  0  0
 12 13  1  0  0  0
 12 18  1  0  0  0
 13 14  1  0  0  0
 13 16  1  0  0  0
 14 15  2  0  0  0
 14 19  1  0  0  0
 16 17  1  0  0  0
 17 18  1  0  0  0
 19 20  1  0  0  0
 20 21  1  0  0  0
 20 23  1  0  0  0
 21 22  2  0  0  0
 21 26  1  0  0  0
 23 24  1  0  0  0
 23 25  1  0  0  0
 26 27  1  0  0  0
 27 28  1  0  0  0
 27 30  1  0  0  0
 28 29  2  0  0  0
 28 38  1  0  0  0
 30 31  1  0  0  0
 31 32  4  0  0  0
 31 33  4  0  0  0
 32 34  4  0  0  0
 33 35  4  0  0  0
 34 36  4  0  0  0
 35 36  4  0  0  0
 36 37  1  0  0  0
 38 39  1  0  0  0
 39 40  1  0  0  0
 39 42  1  0  0  0
 40 41  2  0  0  0
 40 46  1  0  0  0
 42 43  1  0  0  0
 42 44  1  0  0  0
 43 45  1  0  0  0
 46 47  1  0  0  0
 46 52  1  0  0  0
 47 48  1  0  0  0
 47 50  1  0  0  0
 48 49  2  0  0  0
 48 53  1  0  0  0
 50 51  1  0  0  0
 51 52  1  0  0  0
 53 54  1  0  0  0
 54 55  1  0  0  0
 54 57  1  0  0  0
 55 56  2  0  0  0
 55 64  1  0  0  0
 57 58  1  0  0  0
 58 59  1  0  0  0
 59 60  1  0  0  0
 60 61  1  0  0  0
 61 62  2  0  0  0
 61 63  1  0  0  0
 64 65  1  0  0  0
 64 70  1  0  0  0
 65 66  1  0  0  0
 65 68  1  0  0  0
 66 67  2  0  0  0
 66 71  1  0  0  0
 68 69  1  0  0  0
 69 70  1  0  0  0
  1 72  1  0  0  0
  1 73  1  0  0  0
  1 74  1  0  0  0
  2 75  1  0  0  0
  5 76  1  0  0  0
  5 77  1  0  0  0
  6 78  1  0  0  0
  6 79  1  0  0  0
  7 80  1  0  0  0
  7 81  1  0  0  0
  8 82  1  0  0  0
 10 83  1  0  0  0
 10 84  1  0  0  0
 11 85  1  0  0  0
 13 86  1  0  0  0
 16 87  1  0  0  0
 16 88  1  0  0  0
 17 89  1  0  0  0
 17 90  1  0  0  0
 18 91  1  0  0  0
 18 92  1  0  0  0
 19 93  1  0  0  0
 20 94  1  0  0  0
 23 95  1  0  0  0
 24 96  1  0  0  0
 24 97  1  0  0  0
 24 98  1  0  0  0
 25 99  1  0  0  0
 25100  1  0  0  0
 25101  1  0  0  0
 26102  1  0  0  0
 27103  1  0  0  0
 30104  1  0  0  0
 30105  1  0  0  0
 32106  1  0  0  0
 33107  1  0  0  0
 34108  1  0  0  0
 35109  1  0  0  0
 37110  1  0  0  0
 38111  1  0  0  0
 39112  1  0  0  0
 42113  1  0  0  0
 43114  1  0  0  0
 43115  1  0  0  0
 44116  1  0  0  0
 44117  1  0  0  0
 44118  1  0  0  0
 45119  1  0  0  0
 45120  1  0  0  0
 45121  1  0  0  0
 47122  1  0  0  0
 50123  1  0  0  0
 50124  1  0  0  0
 51125  1  0  0  0
 51126  1  0  0  0
 52127  1  0  0  0
 52128  1  0  0  0
 53129  1  0  0  0
 54130  1  0  0  0
 57131  1  0  0  0
 57132  1  0  0  0
 58133  1  0  0  0
 58134  1  0  0  0
 59135  1  0  0  0
 59136  1  0  0  0
 60137  1  0  0  0
 62138  1  0  0  0
 63139  1  0  0  0
 63140  1  0  0  0
 65141  1  0  0  0
 68142  1  0  0  0
 68143  1  0  0  0
 69144  1  0  0  0
 69145  1  0  0  0
 70146  1  0  0  0
 70147  1  0  0  0
 71148  1  0  0  0
 71149  1  0  0  0
M  END
$$$$
