### 
### Created by X-TOOL on Mon Sep 10 21:13:11 2018
### 

@<TRIPOS>MOLECULE
4e81_ligand
  151   154     1     0     0
SMALL
GAST_HUCK


@<TRIPOS>ATOM
      1 N          24.6920    5.1680   19.8210 N.4       1 ARG         0.2379
      2 CA         25.1560    5.4080   18.4270 C.3       1 ARG         0.0653
      3 C          25.2090    6.9250   17.9680 C.2       1 ARG         0.2292
      4 O          24.2020    7.4650   17.5300 O.2       1 ARG        -0.3905
      5 CB         24.2740    4.5890   17.4960 C.3       1 ARG         0.0110
      6 CG         24.7660    4.5530   16.0720 C.3       1 ARG        -0.0125
      7 CD         24.1920    3.3390   15.3680 C.3       1 ARG         0.0629
      8 NE         25.2790    2.6640   14.6640 N.pl3     1 ARG        -0.2723
      9 CZ         25.2480    1.4120   14.2020 C.cat     1 ARG         0.2882
     10 NH1        26.3270    0.9060   13.5780 N.pl3     1 ARG        -0.2849
     11 NH2        24.1580    0.6720   14.3780 N.pl3     1 ARG        -0.2849
     12 N          26.3860    7.6040   18.0750 N.am      1 PRO        -0.2471
     13 CA         26.4320    9.0450   17.7250 C.3       1 PRO         0.1339
     14 C          26.1000    9.2520   16.2450 C.2       1 PRO         0.2041
     15 O          26.3300    8.3360   15.4600 O.2       1 PRO        -0.3944
     16 CB         27.8910    9.4320   18.0010 C.3       1 PRO        -0.0104
     17 CG         28.6590    8.1530   17.8920 C.3       1 PRO        -0.0281
     18 CD         27.7310    7.0950   18.4260 C.3       1 PRO         0.0371
     19 N          25.5570   10.4250   15.8780 N.am      1 VAL        -0.2635
     20 CA         25.1000   10.6400   14.4930 C.3       1 VAL         0.1333
     21 C          25.8190   11.8480   13.8960 C.2       1 VAL         0.2043
     22 O          26.2990   12.7110   14.5940 O.2       1 VAL        -0.3944
     23 CB         23.5360   10.7330   14.3480 C.3       1 VAL        -0.0063
     24 CG1        23.1200   10.3160   12.9350 C.3       1 VAL        -0.0584
     25 CG2        22.7820    9.8570   15.3510 C.3       1 VAL        -0.0584
     26 N          25.9100   11.9090   12.5890 N.am      1 TYR        -0.2621
     27 CA         26.7070   12.9250   11.9380 C.3       1 TYR         0.1390
     28 C          25.9710   13.5550   10.7830 C.2       1 TYR         0.2057
     29 O          25.1280   12.9310   10.0920 O.2       1 TYR        -0.3942
     30 CB         27.9710   12.2530   11.3680 C.3       1 TYR         0.0163
     31 CG         28.5690   11.1920   12.2520 C.ar      1 TYR        -0.0493
     32 CD1        29.4770   11.5420   13.2720 C.ar      1 TYR        -0.0685
     33 CD2        28.2250    9.8150   12.0880 C.ar      1 TYR        -0.0685
     34 CE1        30.0290   10.5560   14.1070 C.ar      1 TYR        -0.0398
     35 CE2        28.7700    8.8250   12.9190 C.ar      1 TYR        -0.0398
     36 CZ         29.6680    9.2040   13.9260 C.ar      1 TYR         0.0805
     37 OH         30.2070    8.2610   14.7650 O.3       1 TYR        -0.3376
     38 N          26.2790   14.7930   10.5150 N.am      1 ILE        -0.2633
     39 CA         25.5730   15.4720    9.4350 C.3       1 ILE         0.1337
     40 C          26.4350   15.3370    8.1810 C.2       1 ILE         0.2067
     41 O          27.6420   15.2650    8.3370 O.2       1 ILE        -0.3942
     42 CB         25.5030   16.9520    9.7150 C.3       1 ILE        -0.0037
     43 CG1        25.1100   17.1770   11.1390 C.3       1 ILE        -0.0491
     44 CG2        24.5330   17.6420    8.7340 C.3       1 ILE        -0.0582
     45 CD1        23.7200   16.6650   11.3670 C.3       1 ILE        -0.0648
     46 N          25.8510   15.2840    6.9650 N.am      1 PRO        -0.2498
     47 CA         26.8440   15.0100    5.9180 C.3       1 PRO         0.1338
     48 C          27.6190   16.2590    5.5510 C.2       1 PRO         0.2041
     49 O          27.1820   17.3850    5.8580 O.2       1 PRO        -0.3944
     50 CB         26.0050   14.5070    4.7290 C.3       1 PRO        -0.0104
     51 CG         24.5630   14.6480    5.1090 C.3       1 PRO        -0.0281
     52 CD         24.4760   15.3840    6.4130 C.3       1 PRO         0.0369
     53 N          28.7650   16.0710    4.9020 N.am      1 ARG        -0.2637
     54 CA         29.4590   17.2280    4.3430 C.3       1 ARG         0.1313
     55 C          28.5400   17.8970    3.3100 C.2       1 ARG         0.2064
     56 O          27.8740   17.2270    2.5070 O.2       1 ARG        -0.3942
     57 CB         30.8250   16.8500    3.7500 C.3       1 ARG        -0.0092
     58 CG         31.5880   17.9400    2.9870 C.3       1 ARG        -0.0156
     59 CD         32.4310   17.3120    1.8650 C.3       1 ARG         0.0627
     60 NE         31.7130   17.1430    0.5890 N.pl3     1 ARG        -0.2723
     61 CZ         30.7040   16.2960    0.3470 C.cat     1 ARG         0.2882
     62 NH1        30.1530   16.2690   -0.8560 N.pl3     1 ARG        -0.2849
     63 NH2        30.2250   15.4900    1.2840 N.pl3     1 ARG        -0.2849
     64 N          28.4800   19.2300    3.3450 N.am      1 PRO        -0.2498
     65 CA         27.7840   19.8600    2.2470 C.3       1 PRO         0.1334
     66 C          28.5190   19.5530    0.9030 C.2       1 PRO         0.1994
     67 O          29.7420   19.7960    0.7680 O.2       1 PRO        -0.3947
     68 CB         27.8280   21.3400    2.6370 C.3       1 PRO        -0.0104
     69 CG         29.1030   21.4870    3.4210 C.3       1 PRO        -0.0281
     70 CD         29.2220   20.1980    4.1770 C.3       1 PRO         0.0369
     71 N          27.7890   18.9660   -0.0620 N.am      1 PRO        -0.2990
     72 H1         24.6954    4.1780   20.0105 H         1 ARG         0.2015
     73 H2         23.7568    5.5278   19.9305 H         1 ARG         0.2015
     74 H3         25.3096    5.6356   20.4659 H         1 ARG         0.2015
     75 H4         26.1834    5.0217   18.3549 H         1 ARG         0.1098
     76 H5         23.2635    5.0234   17.5034 H         1 ARG         0.0347
     77 H6         24.2324    3.5573   17.8753 H         1 ARG         0.0347
     78 H7         25.8644    4.4951   16.0652 H         1 ARG         0.0302
     79 H8         24.4436    5.4658   15.5497 H         1 ARG         0.0302
     80 H9         23.4220    3.6549   14.6488 H         1 ARG         0.0689
     81 H10        23.7461    2.6565   16.1064 H         1 ARG         0.0689
     82 H11        26.1447    3.2006   14.5106 H         1 ARG         0.2642
     83 H12        26.3090   -0.0594   13.2194 H         1 ARG         0.2615
     84 H13        27.1712    1.4840   13.4588 H         1 ARG         0.2615
     85 H14        23.3375    1.0696   14.8572 H         1 ARG         0.2615
     86 H15        24.1339   -0.2990   14.0352 H         1 ARG         0.2615
     87 H16        25.7389    9.6286   18.3488 H         1 PRO         0.0802
     88 H17        27.9933    9.8594   19.0094 H         1 PRO         0.0313
     89 H18        28.2452   10.1601   17.2564 H         1 PRO         0.0313
     90 H19        29.5779    8.2012   18.4947 H         1 PRO         0.0287
     91 H20        28.9186    7.9460   16.8433 H         1 PRO         0.0287
     92 H21        27.9222    6.1250   17.9439 H         1 PRO         0.0524
     93 H22        27.8397    6.9907   19.5156 H         1 PRO         0.0524
     94 H23        25.4620   11.1589   16.5506 H         1 VAL         0.1883
     95 H24        25.4119    9.7587   13.9133 H         1 VAL         0.0802
     96 H25        23.2408   11.7796   14.5137 H         1 VAL         0.0343
     97 H26        22.0262   10.3831   12.8400 H         1 VAL         0.0234
     98 H27        23.4413    9.2806   12.7487 H         1 VAL         0.0234
     99 H28        23.5934   10.9846   12.2010 H         1 VAL         0.0234
    100 H29        23.0680   10.1419   16.3742 H         1 VAL         0.0234
    101 H30        23.0370    8.8008   15.1797 H         1 VAL         0.0234
    102 H31        21.6991    9.9987   15.2201 H         1 VAL         0.0234
    103 H32        25.4186   11.2397   12.0317 H         1 TYR         0.1885
    104 H33        26.9820   13.7001   12.6685 H         1 TYR         0.0821
    105 H34        28.7303   13.0322   11.2055 H         1 TYR         0.0453
    106 H35        27.7090   11.7898   10.4053 H         1 TYR         0.0453
    107 H36        29.7518   12.5810   13.4134 H         1 TYR         0.0530
    108 H37        27.5298    9.5299   11.3067 H         1 TYR         0.0530
    109 H38        30.7292   10.8327   14.8869 H         1 TYR         0.0525
    110 H39        28.5009    7.7836   12.7844 H         1 TYR         0.0525
    111 H40        30.7902    8.6852   15.3833 H         1 TYR         0.2458
    112 H41        26.9856   15.2677   11.0398 H         1 ILE         0.1883
    113 H42        24.5696   15.0448    9.2911 H         1 ILE         0.0803
    114 H43        26.5037   17.3828    9.5632 H         1 ILE         0.0345
    115 H44        25.1441   18.2536   11.3619 H         1 ILE         0.0267
    116 H45        25.8090   16.6434   11.7998 H         1 ILE         0.0267
    117 H46        24.8589   17.4510    7.7009 H         1 ILE         0.0235
    118 H47        24.5296   18.7256    8.9229 H         1 ILE         0.0235
    119 H48        23.5188   17.2414    8.8785 H         1 ILE         0.0235
    120 H49        23.4350   16.8327   12.4161 H         1 ILE         0.0230
    121 H50        23.6849   15.5882   11.1451 H         1 ILE         0.0230
    122 H51        23.0199   17.1984   10.7072 H         1 ILE         0.0230
    123 H52        27.5489   14.2332    6.2492 H         1 PRO         0.0802
    124 H53        26.2384   13.4519    4.5233 H         1 PRO         0.0313
    125 H54        26.2193   15.1110    3.8350 H         1 PRO         0.0313
    126 H55        24.1098   13.6514    5.2162 H         1 PRO         0.0287
    127 H56        24.0289   15.2119    4.3300 H         1 PRO         0.0287
    128 H57        24.1931   16.4348    6.2524 H         1 PRO         0.0524
    129 H58        23.7476   14.9067    7.0851 H         1 PRO         0.0524
    130 H59        29.1452   15.1519    4.7986 H         1 ARG         0.1883
    131 H60        29.6398   17.9461    5.1564 H         1 ARG         0.0800
    132 H61        30.6631   16.0126    3.0554 H         1 ARG         0.0313
    133 H62        31.4654   16.5188    4.5808 H         1 ARG         0.0313
    134 H63        32.2507   18.4748    3.6833 H         1 ARG         0.0301
    135 H64        30.8690   18.6476    2.5485 H         1 ARG         0.0301
    136 H65        32.7711   16.3219    2.2026 H         1 ARG         0.0689
    137 H66        33.3031   17.9581    1.6865 H         1 ARG         0.0689
    138 H67        32.0179   17.7361   -0.1959 H         1 ARG         0.2642
    139 H68        29.3765   15.6213   -1.0524 H         1 ARG         0.2615
    140 H69        30.5006   16.8956   -1.5959 H         1 ARG         0.2615
    141 H70        30.6384   15.4941    2.2274 H         1 ARG         0.2615
    142 H71        29.4394   14.8596    1.0687 H         1 ARG         0.2615
    143 H72        26.7440   19.5083    2.1780 H         1 PRO         0.0802
    144 H73        26.9584   21.6045    3.2565 H         1 PRO         0.0313
    145 H74        27.8474   21.9775    1.7408 H         1 PRO         0.0313
    146 H75        29.0394   22.3401    4.1125 H         1 PRO         0.0287
    147 H76        29.9615   21.6244    2.7471 H         1 PRO         0.0287
    148 H77        30.2759   19.8998    4.2790 H         1 PRO         0.0524
    149 H78        28.7676   20.2860    5.1749 H         1 PRO         0.0524
    150 H79        28.2086   18.7467   -0.9428 H         1 PRO         0.1815
    151 H80        26.8266   18.7488    0.1013 H         1 PRO         0.1815
@<TRIPOS>BOND
     1    1    2 1  
     2    2    3 1  
     3    2    5 1  
     4    3    4 2  
     5    3   12 am 
     6    5    6 1  
     7    6    7 1  
     8    7    8 1  
     9    8    9 ar 
    10    9   10 ar 
    11    9   11 ar 
    12   12   13 1  
    13   12   18 1  
    14   13   14 1  
    15   13   16 1  
    16   14   15 2  
    17   14   19 am 
    18   16   17 1  
    19   17   18 1  
    20   19   20 1  
    21   20   21 1  
    22   20   23 1  
    23   21   22 2  
    24   21   26 am 
    25   23   24 1  
    26   23   25 1  
    27   26   27 1  
    28   27   28 1  
    29   27   30 1  
    30   28   29 2  
    31   28   38 am 
    32   30   31 1  
    33   31   32 ar 
    34   31   33 ar 
    35   32   34 ar 
    36   33   35 ar 
    37   34   36 ar 
    38   35   36 ar 
    39   36   37 1  
    40   38   39 1  
    41   39   40 1  
    42   39   42 1  
    43   40   41 2  
    44   40   46 am 
    45   42   43 1  
    46   42   44 1  
    47   43   45 1  
    48   46   47 1  
    49   46   52 1  
    50   47   48 1  
    51   47   50 1  
    52   48   49 2  
    53   48   53 am 
    54   50   51 1  
    55   51   52 1  
    56   53   54 1  
    57   54   55 1  
    58   54   57 1  
    59   55   56 2  
    60   55   64 am 
    61   57   58 1  
    62   58   59 1  
    63   59   60 1  
    64   60   61 ar 
    65   61   62 ar 
    66   61   63 ar 
    67   64   65 1  
    68   64   70 1  
    69   65   66 1  
    70   65   68 1  
    71   66   67 2  
    72   66   71 am 
    73   68   69 1  
    74   69   70 1  
    75    1   72 1  
    76    1   73 1  
    77    1   74 1  
    78    2   75 1  
    79    5   76 1  
    80    5   77 1  
    81    6   78 1  
    82    6   79 1  
    83    7   80 1  
    84    7   81 1  
    85    8   82 1  
    86   10   83 1  
    87   10   84 1  
    88   11   85 1  
    89   11   86 1  
    90   13   87 1  
    91   16   88 1  
    92   16   89 1  
    93   17   90 1  
    94   17   91 1  
    95   18   92 1  
    96   18   93 1  
    97   19   94 1  
    98   20   95 1  
    99   23   96 1  
   100   24   97 1  
   101   24   98 1  
   102   24   99 1  
   103   25  100 1  
   104   25  101 1  
   105   25  102 1  
   106   26  103 1  
   107   27  104 1  
   108   30  105 1  
   109   30  106 1  
   110   32  107 1  
   111   33  108 1  
   112   34  109 1  
   113   35  110 1  
   114   37  111 1  
   115   38  112 1  
   116   39  113 1  
   117   42  114 1  
   118   43  115 1  
   119   43  116 1  
   120   44  117 1  
   121   44  118 1  
   122   44  119 1  
   123   45  120 1  
   124   45  121 1  
   125   45  122 1  
   126   47  123 1  
   127   50  124 1  
   128   50  125 1  
   129   51  126 1  
   130   51  127 1  
   131   52  128 1  
   132   52  129 1  
   133   53  130 1  
   134   54  131 1  
   135   57  132 1  
   136   57  133 1  
   137   58  134 1  
   138   58  135 1  
   139   59  136 1  
   140   59  137 1  
   141   60  138 1  
   142   62  139 1  
   143   62  140 1  
   144   63  141 1  
   145   63  142 1  
   146   65  143 1  
   147   68  144 1  
   148   68  145 1  
   149   69  146 1  
   150   69  147 1  
   151   70  148 1  
   152   70  149 1  
   153   71  150 1  
   154   71  151 1  
@<TRIPOS>SUBSTRUCTURE
     1 ARG         1

