4wag_ligand
  -I-interpret- 

 37 39  0  0  0  0  0  0  0  0999 V2000
   37.6170   22.7080  -11.8360 C   0  0  0  0  0
   36.3810   22.9810  -12.3990 C   0  0  0  0  0
   36.2740   23.0390  -13.7780 C   0  0  0  0  0
   37.3700   22.8700  -14.5940 C   0  0  0  0  0
   38.5940   22.6080  -14.0300 C   0  0  0  0  0
   38.7200   22.5270  -12.6580 C   0  0  0  0  0
   39.6460   22.4450  -14.8780 O   0  0  0  0  0
   39.9300   22.2730  -12.0950 O   0  0  0  0  0
   35.1670   23.1640  -11.5500 C   0  0  0  0  0
   34.7020   22.5520  -10.2970 C   0  0  0  0  0
   33.5130   23.1300  -10.0500 N   0  0  0  0  0
   33.2370   24.0170  -11.0350 C   0  0  0  0  0
   34.2250   24.0280  -11.9260 N   0  0  0  0  0
   32.1570   24.8540  -11.2410 C   0  0  0  0  0
   32.1140   25.6840  -12.3500 C   0  0  0  0  0
   33.1600   25.6690  -13.2580 C   0  0  0  0  0
   34.2040   24.8550  -13.0510 N   0  0  0  0  0
   35.3930   21.5130   -9.4670 C   0  0  0  0  0
   33.1390   26.7250  -14.7030 Cl  0  0  0  0  0
   31.1410   24.8620  -10.3550 N   0  0  0  0  0
   40.9760   23.2150  -12.2510 C   0  0  0  0  0
   39.7910   23.4100  -15.9150 C   0  0  0  0  0
   37.7224   22.6358  -10.7535 H   0  0  0  0  0
   35.2987   23.2229  -14.2286 H   0  0  0  0  0
   37.2670   22.9435  -15.6766 H   0  0  0  0  0
   31.2617   26.3451  -12.5069 H   0  0  0  0  0
   35.5441   20.6139  -10.0645 H   0  0  0  0  0
   36.3578   21.8970   -9.1358 H   0  0  0  0  0
   34.7779   21.2750   -8.5992 H   0  0  0  0  0
   31.1721   24.2523   -9.5378 H   0  0  0  0  0
   30.3412   25.4777  -10.5018 H   0  0  0  0  0
   41.1912   23.3447  -13.3116 H   0  0  0  0  0
   40.6709   24.1692  -11.8215 H   0  0  0  0  0
   41.8681   22.8535  -11.7395 H   0  0  0  0  0
   38.9008   23.4022  -16.5439 H   0  0  0  0  0
   39.9174   24.3989  -15.4743 H   0  0  0  0  0
   40.6654   23.1650  -16.5179 H   0  0  0  0  0
  1  2  4  0  0  0
  1  6  4  0  0  0
  2  3  4  0  0  0
  2  9  1  0  0  0
  3  4  4  0  0  0
  4  5  4  0  0  0
  5  6  4  0  0  0
  5  7  1  0  0  0
  6  8  1  0  0  0
  7 22  1  0  0  0
  8 21  1  0  0  0
  9 10  4  0  0  0
  9 13  4  0  0  0
 10 11  4  0  0  0
 10 18  1  0  0  0
 11 12  4  0  0  0
 12 13  4  0  0  0
 12 14  4  0  0  0
 13 17  4  0  0  0
 14 15  4  0  0  0
 14 20  1  0  0  0
 15 16  4  0  0  0
 16 17  4  0  0  0
 16 19  1  0  0  0
  1 23  1  0  0  0
  3 24  1  0  0  0
  4 25  1  0  0  0
 15 26  1  0  0  0
 18 27  1  0  0  0
 18 28  1  0  0  0
 18 29  1  0  0  0
 20 30  1  0  0  0
 20 31  1  0  0  0
 21 32  1  0  0  0
 21 33  1  0  0  0
 21 34  1  0  0  0
 22 35  1  0  0  0
 22 36  1  0  0  0
 22 37  1  0  0  0
M  END
$$$$
