### 
### Created by X-TOOL on Mon Sep 10 21:13:09 2018
### 

@<TRIPOS>MOLECULE
4acm_ligand
   54    56     1     0     0
SMALL
GAST_HUCK


@<TRIPOS>ATOM
      1 C1          5.3390   20.3560    6.9990 C.3       1 7YG        -0.1260
      2 N2          4.7030   21.6270    7.3360 N.4       1 7YG         0.3997
      3 C3          3.3190   21.4020    7.7540 C.3       1 7YG        -0.1260
      4 C4          4.7730   22.5750    6.2180 C.3       1 7YG        -0.0966
      5 C5          4.7010   24.0610    6.5590 C.3       1 7YG         0.0080
      6 N6          5.7890   24.4290    7.4760 N.am      1 7YG        -0.2493
      7 S7          6.5320   25.8560    7.3410 S.o2      1 7YG         0.0684
      8 O8          7.1710   25.8760    6.0610 O.2       1 7YG        -0.1502
      9 O9          7.3250   26.0170    8.5230 O.2       1 7YG        -0.1502
     10 C10         5.2920   27.1050    7.3690 C.ar      1 7YG         0.1088
     11 C11         4.4170   27.1680    8.4390 C.ar      1 7YG        -0.0338
     12 C12         3.4570   28.1620    8.4780 C.ar      1 7YG        -0.0503
     13 C13         3.3650   29.1270    7.4750 C.ar      1 7YG        -0.0003
     14 C14         4.2670   29.0400    6.4080 C.ar      1 7YG        -0.0503
     15 C15         5.2350   28.0520    6.3560 C.ar      1 7YG        -0.0338
     16 C16         2.3320   30.1930    7.5330 C.ar      1 7YG         0.0738
     17 C17         2.4550   31.4010    6.8410 C.ar      1 7YG         0.0379
     18 N18         1.6350   32.4370    7.0490 N.ar      1 7YG        -0.2533
     19 C19         0.6320   32.2920    7.9420 C.ar      1 7YG         0.1616
     20 C20         0.4920   31.0440    8.6590 C.ar      1 7YG         0.1756
     21 N21         1.3380   30.0240    8.4230 N.ar      1 7YG        -0.2600
     22 C22        -0.5780   30.8060    9.6850 C.2       1 7YG         0.2541
     23 O23        -1.4700   31.6310    9.8490 O.2       1 7YG        -0.3700
     24 N24        -0.4680   29.6420   10.3590 N.am      1 7YG        -0.2251
     25 C25        -1.3440   29.1150   11.3360 C.ar      1 7YG         0.0941
     26 C26        -0.8480   28.1230   12.1650 C.ar      1 7YG        -0.0215
     27 C27        -1.6720   27.5580   13.1190 C.ar      1 7YG        -0.0479
     28 C28        -2.9820   27.9790   13.1910 C.ar      1 7YG        -0.0050
     29 N29        -3.4950   28.9330   12.4080 N.ar      1 7YG        -0.3127
     30 C30        -2.6820   29.4790   11.4940 C.ar      1 7YG         0.0313
     31 N31        -0.1680   33.3350    8.1730 N.pl3     1 7YG        -0.3111
     32 H           4.8342   19.9152    6.1394 H         1 7YG        -0.0019
     33 H           6.3876   20.5288    6.7569 H         1 7YG        -0.0019
     34 H           5.2681   19.6788    7.8501 H         1 7YG        -0.0019
     35 H           2.8783   22.3472    8.0710 H         1 7YG        -0.0019
     36 H           2.7496   20.9965    6.9177 H         1 7YG        -0.0019
     37 H           3.3017   20.6952    8.5836 H         1 7YG        -0.0019
     38 H           3.8984   22.3700    5.6006 H         1 7YG         0.0032
     39 H           5.7510   22.4229    5.7614 H         1 7YG         0.0032
     40 H           3.7453   24.2691    7.0401 H         1 7YG         0.0455
     41 H           4.7984   24.6411    5.6414 H         1 7YG         0.0455
     42 H           6.0775   23.7764    8.2049 H         1 7YG         0.1671
     43 H           4.4842   26.4385    9.2461 H         1 7YG         0.0639
     44 H           2.7557   28.1924    9.3119 H         1 7YG         0.0630
     45 H           4.2056   29.7677    5.5988 H         1 7YG         0.0630
     46 H           5.9443   28.0181    5.5291 H         1 7YG         0.0639
     47 H           3.2505   31.5029    6.1028 H         1 7YG         0.0922
     48 H           0.3479   29.0719   10.1361 H         1 7YG         0.2279
     49 H           0.1852   27.7903   12.0655 H         1 7YG         0.0622
     50 H          -1.2940   26.7956   13.8001 H         1 7YG         0.0667
     51 H          -3.6351   27.5087   13.9261 H         1 7YG         0.0691
     52 H          -3.0875   30.2494   10.8381 H         1 7YG         0.0711
     53 H          -0.0143   34.2146    7.6800 H         1 7YG         0.1819
     54 H          -0.9331   33.2525    8.8425 H         1 7YG         0.1819
@<TRIPOS>BOND
     1    1    2 1  
     2    2    3 1  
     3    2    4 1  
     4    4    5 1  
     5    5    6 1  
     6    6    7 am 
     7    7    8 2  
     8    7    9 2  
     9    7   10 1  
    10   10   11 ar 
    11   10   15 ar 
    12   11   12 ar 
    13   12   13 ar 
    14   13   14 ar 
    15   13   16 1  
    16   14   15 ar 
    17   16   17 ar 
    18   16   21 ar 
    19   17   18 ar 
    20   18   19 ar 
    21   19   20 ar 
    22   19   31 1  
    23   20   21 ar 
    24   20   22 1  
    25   22   23 2  
    26   22   24 am 
    27   24   25 1  
    28   25   26 ar 
    29   25   30 ar 
    30   26   27 ar 
    31   27   28 ar 
    32   28   29 ar 
    33   29   30 ar 
    34    1   32 1  
    35    1   33 1  
    36    1   34 1  
    37    3   35 1  
    38    3   36 1  
    39    3   37 1  
    40    4   38 1  
    41    4   39 1  
    42    5   40 1  
    43    5   41 1  
    44    6   42 1  
    45   11   43 1  
    46   12   44 1  
    47   14   45 1  
    48   15   46 1  
    49   17   47 1  
    50   24   48 1  
    51   26   49 1  
    52   27   50 1  
    53   28   51 1  
    54   30   52 1  
    55   31   53 1  
    56   31   54 1  
@<TRIPOS>SUBSTRUCTURE
     1 7YG         1

