5csh_ligand
  -I-interpret- 

 28 29  0  0  0  0  0  0  0  0999 V2000
   -4.8260  166.5000  397.4910 Cl  0  0  0  0  0
   -3.6100  167.0990  398.5660 C   0  0  0  0  0
   -2.3010  166.6980  398.3790 C   0  0  0  0  0
   -3.9620  168.0230  399.5450 C   0  0  0  0  0
   -2.9350  168.5620  400.3270 C   0  0  0  0  0
   -1.6200  168.1730  400.1270 C   0  0  0  0  0
   -1.2840  167.2290  399.1630 C   0  0  0  0  0
    0.1540  166.7750  399.0370 C   0  0  0  0  0
    0.6630  166.4510  397.7050 N   0  3  0  0  0
   -5.3780  168.4340  399.7640 C   0  0  0  0  0
   -6.3260  167.5140  400.2210 C   0  0  0  0  0
   -7.6690  167.8550  400.2920 C   0  0  0  0  0
   -8.0850  169.1220  399.9310 C   0  0  0  0  0
   -7.1570  170.0510  399.4990 C   0  0  0  0  0
   -5.8150  169.7120  399.4130 C   0  0  0  0  0
   -2.0647  165.9606  397.6118 H   0  0  0  0  0
   -3.1709  169.2937  401.0997 H   0  0  0  0  0
   -0.8333  168.6160  400.7377 H   0  0  0  0  0
    0.2116  165.8439  399.6007 H   0  0  0  0  0
    0.7528  167.6206  399.3754 H   0  0  0  0  0
    1.6388  166.1628  397.7761 H   0  0  0  0  0
    0.1110  165.6913  397.3069 H   0  0  0  0  0
    0.5930  167.2737  397.1062 H   0  0  0  0  0
   -6.0065  166.5172  400.5251 H   0  0  0  0  0
   -8.3984  167.1207  400.6338 H   0  0  0  0  0
   -9.1406  169.3880  399.9866 H   0  0  0  0  0
   -7.4816  171.0547  399.2247 H   0  0  0  0  0
   -5.0934  170.4522  399.0673 H   0  0  0  0  0
  1  2  1  0  0  0
  2  3  4  0  0  0
  2  4  4  0  0  0
  3  7  4  0  0  0
  4  5  4  0  0  0
  4 10  1  0  0  0
  5  6  4  0  0  0
  6  7  4  0  0  0
  7  8  1  0  0  0
  8  9  1  0  0  0
 10 11  4  0  0  0
 10 15  4  0  0  0
 11 12  4  0  0  0
 12 13  4  0  0  0
 13 14  4  0  0  0
 14 15  4  0  0  0
  3 16  1  0  0  0
  5 17  1  0  0  0
  6 18  1  0  0  0
  8 19  1  0  0  0
  8 20  1  0  0  0
  9 21  1  0  0  0
  9 22  1  0  0  0
  9 23  1  0  0  0
 11 24  1  0  0  0
 12 25  1  0  0  0
 13 26  1  0  0  0
 14 27  1  0  0  0
 15 28  1  0  0  0
M  END
$$$$
