6cho_ligand
  -I-interpret- 

 50 53  0  0  0  0  0  0  0  0999 V2000
  146.9440  162.0450   35.3480 C   0  0  0  0  0
  147.3010  160.9270   36.0940 C   0  0  0  0  0
  146.7360  159.6960   35.8060 C   0  0  0  0  0
  145.2400  158.3340   34.5640 O   0  0  0  0  0
  145.7550  161.9490   29.0330 O   0  0  0  0  0
  143.4140  157.8620   31.4160 C   0  0  0  0  0
  143.7570  158.2800   32.7010 C   0  0  0  0  0
  142.0760  158.2610   30.8140 C   0  0  0  0  0
  140.9670  157.2720   31.1670 C   0  0  0  0  0
  142.4870  160.7430   31.1120 C   0  0  0  0  0
  145.1820  162.5520   29.9450 C   0  0  0  0  0
  145.5050  163.8510   30.4810 C   0  0  0  0  0
  144.7750  164.4520   31.4650 C   0  0  0  0  0
  145.1250  165.7760   32.0770 C   0  0  0  0  0
  143.2990  162.5880   31.5240 C   0  0  0  0  0
  143.6620  163.8190   31.9710 N   0  0  0  0  0
  144.0450  161.9920   30.5590 N   0  0  0  0  0
  143.5140  160.7550   30.2770 N   0  0  0  0  0
  142.2890  161.8330   31.9100 N   0  0  0  0  0
  141.6650  159.6110   31.2210 N   0  0  0  0  0
  144.3070  157.0660   30.7080 C   0  0  0  0  0
  145.5150  156.6720   31.2840 C   0  0  0  0  0
  145.8420  157.0680   32.5760 C   0  0  0  0  0
  144.9600  157.8860   33.2700 C   0  0  0  0  0
  145.8190  159.5860   34.7730 C   0  0  0  0  0
  145.4730  160.7010   34.0150 C   0  0  0  0  0
  146.0430  161.9330   34.3010 C   0  0  0  0  0
  147.4740  163.2950   35.5480 O   0  0  0  0  0
  148.5070  163.4400   36.5280 C   0  0  0  0  0
  148.0244  161.0195   36.9041 H   0  0  0  0  0
  147.0114  158.8174   36.3893 H   0  0  0  0  0
  143.0763  158.9201   33.2622 H   0  0  0  0  0
  142.2264  158.2500   29.7345 H   0  0  0  0  0
  140.7916  157.2935   32.2426 H   0  0  0  0  0
  140.0529  157.5509   30.6429 H   0  0  0  0  0
  141.2678  156.2683   30.8666 H   0  0  0  0  0
  146.3721  164.3772   30.0819 H   0  0  0  0  0
  146.1117  165.7132   32.5360 H   0  0  0  0  0
  145.1314  166.5426   31.3022 H   0  0  0  0  0
  144.3854  166.0309   32.8360 H   0  0  0  0  0
  143.1034  164.2793   32.6897 H   0  0  0  0  0
  140.7279  159.7327   31.6051 H   0  0  0  0  0
  144.0615  156.7472   29.6950 H   0  0  0  0  0
  146.2072  156.0494   30.7172 H   0  0  0  0  0
  146.7747  156.7420   33.0364 H   0  0  0  0  0
  144.7564  160.6064   33.1992 H   0  0  0  0  0
  145.7836  162.8082   33.7054 H   0  0  0  0  0
  148.1268  163.1345   37.5028 H   0  0  0  0  0
  149.3558  162.8130   36.2549 H   0  0  0  0  0
  148.8224  164.4825   36.5701 H   0  0  0  0  0
  2  1  4  0  0  0
  1 27  4  0  0  0
  1 28  1  0  0  0
  3  2  4  0  0  0
 25  3  4  0  0  0
 24  4  1  0  0  0
  4 25  1  0  0  0
 11  5  2  0  0  0
  6  7  4  0  0  0
  8  6  1  0  0  0
  6 21  4  0  0  0
  7 24  4  0  0  0
  8  9  1  0  0  0
 20  8  1  0  0  0
 10 18  4  0  0  0
 19 10  4  0  0  0
 10 20  1  0  0  0
 11 12  1  0  0  0
 17 11  1  0  0  0
 13 12  2  0  0  0
 13 14  1  0  0  0
 16 13  1  0  0  0
 15 16  1  0  0  0
 15 17  4  0  0  0
 15 19  4  0  0  0
 17 18  4  0  0  0
 21 22  4  0  0  0
 22 23  4  0  0  0
 23 24  4  0  0  0
 25 26  4  0  0  0
 26 27  4  0  0  0
 28 29  1  0  0  0
  2 30  1  0  0  0
  3 31  1  0  0  0
  7 32  1  0  0  0
  8 33  1  0  0  0
  9 34  1  0  0  0
  9 35  1  0  0  0
  9 36  1  0  0  0
 12 37  1  0  0  0
 14 38  1  0  0  0
 14 39  1  0  0  0
 14 40  1  0  0  0
 16 41  1  0  0  0
 20 42  1  0  0  0
 21 43  1  0  0  0
 22 44  1  0  0  0
 23 45  1  0  0  0
 26 46  1  0  0  0
 27 47  1  0  0  0
 29 48  1  0  0  0
 29 49  1  0  0  0
 29 50  1  0  0  0
M  END
$$$$
