4p4j_ligand
  -I-interpret- 

 47 47  0  0  0  0  0  0  0  0999 V2000
   25.2190   47.4710   44.4140 C   0  0  0  0  0
   26.2170   48.0970   43.6410 C   0  0  0  0  0
   25.8860   48.6900   42.4100 C   0  0  0  0  0
   24.5700   48.6750   41.9040 C   0  0  0  0  0
   23.5680   48.0360   42.6660 C   0  0  0  0  0
   23.9010   47.4540   43.8980 C   0  0  0  0  0
   22.8240   46.7820   44.7450 C   0  0  0  0  0
   22.9870   46.6770   45.9570 O   0  0  0  0  0
   21.7650   46.3130   44.0900 N   0  0  0  0  0
   20.7180   45.5240   44.7790 C   0  0  0  0  0
   20.3110   46.0150   46.1990 C   0  0  0  0  0
   19.9090   47.1960   46.2730 O   0  0  0  0  0
   20.3760   45.1850   47.1360 O   0  0  0  0  0
   19.4400   45.4840   43.9070 C   0  0  0  0  0
   18.5480   44.6440   44.6880 O   0  0  0  0  0
   17.4970   43.7480   44.0060 P   0  0  0  0  0
   16.8320   42.9850   45.0900 O   0  0  0  0  0
   18.1710   42.7830   43.0030 O   0  0  0  0  0
   16.4080   44.7490   43.2450 N   0  0  0  0  0
   15.9790   44.2150   41.9010 C   0  0  0  0  0
   17.0550   44.3760   40.8000 C   0  0  0  0  0
   17.9230   45.2520   40.9630 O   0  0  0  0  0
   16.9210   43.6010   39.8050 O   0  0  0  0  0
   14.6780   44.9410   41.3890 C   0  0  0  0  0
   14.8940   46.4710   41.3640 C   0  0  0  0  0
   13.7560   47.2530   40.6590 C   0  0  0  0  0
   13.7030   48.4930   40.8800 O   0  0  0  0  0
   13.0030   46.6540   39.8510 O   0  0  0  0  0
   25.4538   47.0156   45.3761 H   0  0  0  0  0
   27.2467   48.1215   43.9978 H   0  0  0  0  0
   26.6702   49.1759   41.8294 H   0  0  0  0  0
   24.3325   49.1445   40.9494 H   0  0  0  0  0
   22.5423   47.9952   42.2994 H   0  0  0  0  0
   21.6723   46.5009   43.0918 H   0  0  0  0  0
   21.1718   44.5427   44.9179 H   0  0  0  0  0
   20.7210   44.3536   46.8022 H   0  0  0  0  0
   19.6207   45.0962   42.9045 H   0  0  0  0  0
   19.0283   46.4738   43.7095 H   0  0  0  0  0
   18.5964   43.2911   42.3084 H   0  0  0  0  0
   16.0686   45.6250   43.6423 H   0  0  0  0  0
   15.8013   43.1528   42.0690 H   0  0  0  0  0
   16.1654   43.0263   39.9479 H   0  0  0  0  0
   13.8522   44.7086   42.0614 H   0  0  0  0  0
   14.4513   44.5966   40.3800 H   0  0  0  0  0
   15.8116   46.6604   40.8070 H   0  0  0  0  0
   14.9288   46.8110   42.3990 H   0  0  0  0  0
   14.3682   48.7297   41.5304 H   0  0  0  0  0
  1  2  4  0  0  0
  1  6  4  0  0  0
  2  3  4  0  0  0
  3  4  4  0  0  0
  4  5  4  0  0  0
  5  6  4  0  0  0
  6  7  1  0  0  0
  7  8  2  0  0  0
  7  9  1  0  0  0
  9 10  1  0  0  0
 10 11  1  0  0  0
 10 14  1  0  0  0
 11 12  2  0  0  0
 11 13  1  0  0  0
 14 15  1  0  0  0
 15 16  1  0  0  0
 16 17  2  0  0  0
 16 18  1  0  0  0
 16 19  1  0  0  0
 19 20  1  0  0  0
 20 21  1  0  0  0
 20 24  1  0  0  0
 21 22  2  0  0  0
 21 23  1  0  0  0
 24 25  1  0  0  0
 25 26  1  0  0  0
 26 27  1  0  0  0
 26 28  2  0  0  0
  1 29  1  0  0  0
  2 30  1  0  0  0
  3 31  1  0  0  0
  4 32  1  0  0  0
  5 33  1  0  0  0
  9 34  1  0  0  0
 10 35  1  0  0  0
 13 36  1  0  0  0
 14 37  1  0  0  0
 14 38  1  0  0  0
 18 39  1  0  0  0
 19 40  1  0  0  0
 20 41  1  0  0  0
 23 42  1  0  0  0
 24 43  1  0  0  0
 24 44  1  0  0  0
 25 45  1  0  0  0
 25 46  1  0  0  0
 27 47  1  0  0  0
M  END
$$$$
