### 
### Created by X-TOOL on Mon Sep 10 21:13:20 2018
### 

@<TRIPOS>MOLECULE
4p4j_ligand
   43    43     1     0     0
SMALL
GAST_HUCK


@<TRIPOS>ATOM
      1 CAM        25.2190   47.4710   44.4140 C.ar      1 2H9        -0.0419
      2 CAK        26.2170   48.0970   43.6410 C.ar      1 2H9        -0.0562
      3 CAJ        25.8860   48.6900   42.4100 C.ar      1 2H9        -0.0575
      4 CAL        24.5700   48.6750   41.9040 C.ar      1 2H9        -0.0562
      5 CAN        23.5680   48.0360   42.6660 C.ar      1 2H9        -0.0419
      6 CAY        23.9010   47.4540   43.8980 C.ar      1 2H9         0.0499
      7 CAX        22.8240   46.7820   44.7450 C.2       1 2H9         0.2067
      8 OAD        22.9870   46.6770   45.9570 O.2       1 2H9        -0.3845
      9 NAR        21.7650   46.3130   44.0900 N.am      1 2H9        -0.2680
     10 CBA        20.7180   45.5240   44.7790 C.3       1 2H9         0.1224
     11 CAW        20.3110   46.0150   46.1990 C.2       1 2H9         0.0627
     12 OAH        19.9090   47.1960   46.2730 O.co2     1 2H9        -0.5665
     13 OAC        20.3760   45.1850   47.1360 O.co2     1 2H9        -0.5665
     14 CAQ        19.4400   45.4840   43.9070 C.3       1 2H9         0.1185
     15 OAT        18.5480   44.6440   44.6880 O.3       1 2H9        -0.2572
     16 PBB        17.4970   43.7480   44.0060 P.3       1 2H9         0.2034
     17 OAI        16.8320   42.9850   45.0900 O.co2     1 2H9        -0.6076
     18 OAE        18.1710   42.7830   43.0030 O.co2     1 2H9        -0.6076
     19 N          16.4080   44.7490   43.2450 N.am      1 2H9        -0.2605
     20 CA         15.9790   44.2150   41.9010 C.3       1 2H9         0.0893
     21 C          17.0550   44.3760   40.8000 C.2       1 2H9         0.0564
     22 OXT        17.9230   45.2520   40.9630 O.co2     1 2H9        -0.5670
     23 O          16.9210   43.6010   39.8050 O.co2     1 2H9        -0.5670
     24 CB         14.6780   44.9410   41.3890 C.3       1 2H9        -0.0099
     25 CG         14.8940   46.4710   41.3640 C.3       1 2H9         0.0034
     26 CD         13.7560   47.2530   40.6590 C.2       1 2H9         0.0350
     27 OE2        13.7030   48.4930   40.8800 O.co2     1 2H9        -0.5690
     28 OE1        13.0030   46.6540   39.8510 O.co2     1 2H9        -0.5690
     29 H1         25.4525   47.0181   45.3708 H         1 2H9         0.0669
     30 H2         27.2410   48.1214   43.9958 H         1 2H9         0.0629
     31 H3         26.6659   49.1732   41.8326 H         1 2H9         0.0653
     32 H4         24.3338   49.1419   40.9547 H         1 2H9         0.0629
     33 H5         22.5480   47.9954   42.3014 H         1 2H9         0.0669
     34 H6         21.6741   46.4973   43.1113 H         1 2H9         0.1870
     35 H7         21.1044   44.4995   44.8846 H         1 2H9         0.0753
     36 H8         19.6449   45.0377   42.9227 H         1 2H9         0.0666
     37 H9         19.0197   46.4916   43.7724 H         1 2H9         0.0666
     38 H10        16.0753   45.6078   43.6345 H         1 2H9         0.1677
     39 H11        15.7639   43.1431   42.0220 H         1 2H9         0.0681
     40 H12        13.8409   44.7034   42.0619 H         1 2H9         0.0319
     41 H13        14.4427   44.5909   40.3731 H         1 2H9         0.0319
     42 H14        15.8364   46.6795   40.8363 H         1 2H9         0.0432
     43 H15        14.9683   46.8276   42.4019 H         1 2H9         0.0432
@<TRIPOS>BOND
     1    1    2 ar 
     2    1    6 ar 
     3    2    3 ar 
     4    3    4 ar 
     5    4    5 ar 
     6    5    6 ar 
     7    6    7 1  
     8    7    8 2  
     9    7    9 am 
    10    9   10 1  
    11   10   11 1  
    12   10   14 1  
    13   11   12 ar 
    14   11   13 ar 
    15   14   15 1  
    16   15   16 1  
    17   16   17 ar 
    18   16   18 ar 
    19   16   19 am 
    20   19   20 1  
    21   20   21 1  
    22   20   24 1  
    23   21   22 ar 
    24   21   23 ar 
    25   24   25 1  
    26   25   26 1  
    27   26   27 ar 
    28   26   28 ar 
    29    1   29 1  
    30    2   30 1  
    31    3   31 1  
    32    4   32 1  
    33    5   33 1  
    34    9   34 1  
    35   10   35 1  
    36   14   36 1  
    37   14   37 1  
    38   19   38 1  
    39   20   39 1  
    40   24   40 1  
    41   24   41 1  
    42   25   42 1  
    43   25   43 1  
@<TRIPOS>SUBSTRUCTURE
     1 2H9         1

