1rdj_ligand
  -I-interpret- 

 23 23  0  0  0  0  0  0  0  0999 V2000
    3.8870   47.7670    0.6980 C   0  0  0  0  0
    4.3080   46.6830    1.6840 C   0  0  0  0  0
    3.0830   45.9350    2.1830 C   0  0  0  0  0
    2.3190   45.3520    0.9930 C   0  0  0  0  0
    1.9710   46.4800    0.0140 C   0  0  0  0  0
    1.2930   45.9900   -1.2520 C   0  0  0  0  0
    5.0130   48.4770    0.2650 O   0  0  0  0  0
    4.9740   47.2660    2.7790 O   0  0  0  0  0
    3.4910   44.8900    3.0510 O   0  0  0  0  0
    3.1300   44.3810    0.3430 O   0  0  0  0  0
    3.1750   47.1760   -0.3830 O   0  0  0  0  0
    3.2198   48.4790    1.1837 H   0  0  0  0  0
    4.9779   45.9872    1.1789 H   0  0  0  0  0
    2.4316   46.6207    2.7249 H   0  0  0  0  0
    1.4001   44.8788    1.3391 H   0  0  0  0  0
    1.2785   47.1325    0.5458 H   0  0  0  0  0
    1.0506   46.8427   -1.8862 H   0  0  0  0  0
    1.9650   45.3180   -1.7858 H   0  0  0  0  0
    0.3781   45.4585   -0.9903 H   0  0  0  0  0
    5.4614   48.8574    1.0239 H   0  0  0  0  0
    5.7484   47.7392    2.4661 H   0  0  0  0  0
    3.9696   45.2623    3.7953 H   0  0  0  0  0
    3.3438   43.6785    0.9614 H   0  0  0  0  0
  1 11  1  0  0  0
  1  7  1  0  0  0
  1  2  1  0  0  0
  2  8  1  0  0  0
  2  3  1  0  0  0
  3  9  1  0  0  0
  3  4  1  0  0  0
  4 10  1  0  0  0
  4  5  1  0  0  0
  5 11  1  0  0  0
  5  6  1  0  0  0
  1 12  1  0  0  0
  2 13  1  0  0  0
  3 14  1  0  0  0
  4 15  1  0  0  0
  5 16  1  0  0  0
  6 17  1  0  0  0
  6 18  1  0  0  0
  6 19  1  0  0  0
  7 20  1  0  0  0
  8 21  1  0  0  0
  9 22  1  0  0  0
 10 23  1  0  0  0
M  END
$$$$
