4o2p_ligand
  -I-interpret- 

 62 66  0  0  0  0  0  0  0  0999 V2000
   -5.1030    9.5380   27.5620 C   0  0  0  0  0
   -4.7090   10.9840   27.3360 C   0  0  0  0  0
   -5.4680   11.5200   26.2250 O   0  0  0  0  0
   -6.9200   11.4190   26.3500 C   0  0  0  0  0
   -7.3240    9.9720   26.6470 C   0  0  0  0  0
   -6.5550    9.4610   27.7970 N   0  3  0  0  0
   -6.9410    8.1010   28.1690 C   0  0  0  0  0
   -6.6820    7.9350   29.6610 C   0  0  0  0  0
   -7.5370    6.4990   30.3900 S   0  0  0  0  0
   -6.1950    5.5580   30.8350 C   0  0  0  0  0
   -6.3550    4.6670   31.8150 N   0  0  0  0  0
   -5.3230    3.9030   32.1910 C   0  0  0  0  0
   -5.4740    3.0100   33.1730 N   0  0  0  0  0
   -6.4630    3.2170   34.0670 C   0  0  0  0  0
   -7.7690    2.7900   33.8000 C   0  0  0  0  0
   -8.7800    2.9970   34.7410 C   0  0  0  0  0
   -8.4910    3.6240   35.9580 C   0  0  0  0  0
   -7.1890    4.0450   36.2390 C   0  0  0  0  0
   -6.1860    3.8490   35.2880 C   0  0  0  0  0
   -5.0040    5.6900   30.2270 N   0  0  0  0  0
   -3.9680    4.9180   30.6090 C   0  0  0  0  0
   -4.1240    4.0140   31.5920 C   0  0  0  0  0
   -2.9490    3.3970   31.7370 C   0  0  0  0  0
   -2.0840    3.9280   30.8590 N   0  0  0  0  0
   -2.7060    4.8450   30.1680 N   0  0  0  0  0
   -2.1650    5.7160   29.0640 C   0  0  0  0  0
   -1.1550    6.7350   29.6310 C   0  0  0  0  0
   -1.9080    7.6260   31.0310 Cl  0  0  0  0  0
   -0.6750    7.6250   28.6480 C   0  0  0  0  0
    0.6660    7.5530   28.2690 C   0  0  0  0  0
    1.1910    8.4130   27.3030 C   0  0  0  0  0
    0.3690    9.3590   26.7010 C   0  0  0  0  0
   -0.9750    9.4430   27.0760 C   0  0  0  0  0
   -1.5000    8.5800   28.0430 C   0  0  0  0  0
   -4.5714    9.1459   28.4291 H   0  0  0  0  0
   -4.8434    8.9472   26.6836 H   0  0  0  0  0
   -3.6440   11.0407   27.1109 H   0  0  0  0  0
   -4.9194   11.5638   28.2347 H   0  0  0  0  0
   -7.3821   11.7343   25.4145 H   0  0  0  0  0
   -7.2537   12.0582   27.1674 H   0  0  0  0  0
   -7.1162    9.3545   25.7731 H   0  0  0  0  0
   -8.3877    9.9372   26.8823 H   0  0  0  0  0
   -6.7846   10.0704   28.5821 H   0  0  0  0  0
   -6.3604    7.3741   27.6010 H   0  0  0  0  0
   -7.9947    7.9326   27.9468 H   0  0  0  0  0
   -7.0565    8.8284   30.1606 H   0  0  0  0  0
   -5.6110    7.7812   29.7932 H   0  0  0  0  0
   -4.8612    2.1977   33.2446 H   0  0  0  0  0
   -7.9973    2.2951   32.8561 H   0  0  0  0  0
   -9.7972    2.6691   34.5267 H   0  0  0  0  0
   -9.2838    3.7844   36.6887 H   0  0  0  0  0
   -6.9584    4.5219   37.1916 H   0  0  0  0  0
   -5.1728    4.1921   35.4974 H   0  0  0  0  0
   -2.7299    2.5991   32.4465 H   0  0  0  0  0
   -2.9907    6.2548   28.5992 H   0  0  0  0  0
   -1.6615    5.0874   28.3295 H   0  0  0  0  0
   -0.2836    6.1847   29.9859 H   0  0  0  0  0
    1.3151    6.8120   28.7356 H   0  0  0  0  0
    2.2417    8.3432   27.0216 H   0  0  0  0  0
    0.7698   10.0306   25.9418 H   0  0  0  0  0
   -1.6199   10.1882   26.6103 H   0  0  0  0  0
   -2.5504    8.6510   28.3252 H   0  0  0  0  0
  1  2  1  0  0  0
  1  6  1  0  0  0
  2  3  1  0  0  0
  3  4  1  0  0  0
  4  5  1  0  0  0
  5  6  1  0  0  0
  6  7  1  0  0  0
  7  8  1  0  0  0
  8  9  1  0  0  0
  9 10  1  0  0  0
 10 11  4  0  0  0
 10 20  4  0  0  0
 11 12  4  0  0  0
 12 13  1  0  0  0
 12 22  4  0  0  0
 13 14  1  0  0  0
 14 15  4  0  0  0
 14 19  4  0  0  0
 15 16  4  0  0  0
 16 17  4  0  0  0
 17 18  4  0  0  0
 18 19  4  0  0  0
 20 21  4  0  0  0
 21 22  4  0  0  0
 21 25  4  0  0  0
 22 23  4  0  0  0
 23 24  4  0  0  0
 24 25  4  0  0  0
 25 26  1  0  0  0
 26 27  1  0  0  0
 27 28  1  0  0  0
 27 29  1  0  0  0
 29 30  4  0  0  0
 29 34  4  0  0  0
 30 31  4  0  0  0
 31 32  4  0  0  0
 32 33  4  0  0  0
 33 34  4  0  0  0
  1 35  1  0  0  0
  1 36  1  0  0  0
  2 37  1  0  0  0
  2 38  1  0  0  0
  4 39  1  0  0  0
  4 40  1  0  0  0
  5 41  1  0  0  0
  5 42  1  0  0  0
  6 43  1  0  0  0
  7 44  1  0  0  0
  7 45  1  0  0  0
  8 46  1  0  0  0
  8 47  1  0  0  0
 13 48  1  0  0  0
 15 49  1  0  0  0
 16 50  1  0  0  0
 17 51  1  0  0  0
 18 52  1  0  0  0
 19 53  1  0  0  0
 23 54  1  0  0  0
 26 55  1  0  0  0
 26 56  1  0  0  0
 27 57  1  0  0  0
 30 58  1  0  0  0
 31 59  1  0  0  0
 32 60  1  0  0  0
 33 61  1  0  0  0
 34 62  1  0  0  0
M  END
$$$$
