5xs8_ligand
  -I-interpret- 

 55 56  0  0  0  0  0  0  0  0999 V2000
   -4.0920   -0.6570    4.3610 C   0  0  0  0  0
   -4.6280    0.2470    5.4830 C   0  0  0  0  0
   -4.1280   -0.2680    6.8350 C   0  0  0  0  0
   -4.3150   -1.7870    6.9350 C   0  0  0  0  0
   -4.4900   -2.5260    5.8370 C   0  0  0  0  0
   -4.5700   -4.0010    5.9360 C   0  0  0  0  0
   -4.2740    1.6310    5.2570 O   0  0  0  0  0
   -4.9500    0.3810    7.8000 O   0  0  0  0  0
   -4.5440   -2.0030    4.4980 O   0  0  0  0  0
   -4.7160   -4.5990    4.8560 O   0  0  0  0  0
   -4.4220   -4.5360    7.0470 O   0  0  0  0  0
   -2.6070    0.5430    0.0780 C   0  0  0  0  0
   -3.6260    0.7790    1.1880 C   0  0  0  0  0
   -3.5200   -0.3360    2.1280 C   0  0  0  0  0
   -3.7980   -1.6470    1.3580 C   0  0  0  0  0
   -2.9080   -1.7360    0.1200 C   0  0  0  0  0
   -3.2770   -2.9960   -0.6640 C   0  0  0  0  0
   -4.0920    3.0940    1.8870 C   0  0  0  0  0
   -3.5320    4.3600    2.5820 C   0  0  0  0  0
   -3.2660    2.0810    1.7910 N   0  0  0  0  0
   -3.1580    1.5730   -0.7130 O   0  0  0  0  0
   -4.5530   -0.1610    3.1140 O   0  0  0  0  0
   -5.1540   -1.5980    0.9470 O   0  0  0  0  0
   -3.1100   -0.5410   -0.7300 O   0  0  0  0  0
   -2.5510   -3.0020   -1.8410 O   0  0  0  0  0
   -5.2720    3.0460    1.5530 O   0  0  0  0  0
   -1.2570   -4.1820   -3.4350 O   0  0  0  0  0
   -0.3410   -3.5850   -0.9440 O   0  0  0  0  0
   -2.0220   -5.5960   -1.6900 O   0  0  0  0  0
   -1.5170   -4.1060   -1.9490 S   0  0  0  0  0
   -6.1350   -2.8080    0.9200 S   0  0  0  0  0
   -6.4720   -2.9840   -0.4790 O   0  0  0  0  0
   -5.4260   -4.0470    1.2970 O   0  0  0  0  0
   -7.2930   -2.4640    1.7510 O   0  0  0  0  0
   -3.0036   -0.6504    4.4192 H   0  0  0  0  0
   -5.7173    0.2086    5.4864 H   0  0  0  0  0
   -3.0673   -0.0630    6.9802 H   0  0  0  0  0
   -4.3049   -2.2683    7.9129 H   0  0  0  0  0
   -4.6068    1.9095    4.4007 H   0  0  0  0  0
   -4.8299    1.3312    7.7339 H   0  0  0  0  0
   -4.8099   -3.9586    4.1470 H   0  0  0  0  0
   -1.5615    0.4439    0.3700 H   0  0  0  0  0
   -4.6611    0.8181    0.8486 H   0  0  0  0  0
   -2.5339   -0.3726    2.5911 H   0  0  0  0  0
   -3.5947   -2.5117    1.9897 H   0  0  0  0  0
   -1.8614   -1.7813    0.4211 H   0  0  0  0  0
   -4.3448   -3.0014   -0.8829 H   0  0  0  0  0
   -3.0445   -3.8840   -0.0763 H   0  0  0  0  0
   -3.6538    5.2191    1.9222 H   0  0  0  0  0
   -4.0755    4.5336    3.5107 H   0  0  0  0  0
   -2.4740    4.2151    2.8004 H   0  0  0  0  0
   -2.3196    2.1971    2.1532 H   0  0  0  0  0
   -2.6651    1.6430   -1.5338 H   0  0  0  0  0
   -0.6654   -3.5966   -0.0405 H   0  0  0  0  0
   -5.1703   -3.9995    2.2211 H   0  0  0  0  0
  1  2  1  0  0  0
  1  9  1  0  0  0
 22  1  1  0  0  0
  2  3  1  0  0  0
  2  7  1  0  0  0
  3  4  1  0  0  0
  3  8  1  0  0  0
  5  4  2  0  0  0
  5  6  1  0  0  0
  9  5  1  0  0  0
  6 10  1  0  0  0
  6 11  2  0  0  0
 13 12  1  0  0  0
 12 21  1  0  0  0
 12 24  1  0  0  0
 13 14  1  0  0  0
 20 13  1  0  0  0
 14 15  1  0  0  0
 14 22  1  0  0  0
 15 16  1  0  0  0
 15 23  1  0  0  0
 16 17  1  0  0  0
 24 16  1  0  0  0
 17 25  1  0  0  0
 18 19  1  0  0  0
 18 20  1  0  0  0
 18 26  2  0  0  0
 23 31  1  0  0  0
 25 30  1  0  0  0
 30 27  2  0  0  0
 30 28  1  0  0  0
 30 29  2  0  0  0
 31 32  2  0  0  0
 31 33  1  0  0  0
 31 34  2  0  0  0
  1 35  1  0  0  0
  2 36  1  0  0  0
  3 37  1  0  0  0
  4 38  1  0  0  0
  7 39  1  0  0  0
  8 40  1  0  0  0
 10 41  1  0  0  0
 12 42  1  0  0  0
 13 43  1  0  0  0
 14 44  1  0  0  0
 15 45  1  0  0  0
 16 46  1  0  0  0
 17 47  1  0  0  0
 17 48  1  0  0  0
 19 49  1  0  0  0
 19 50  1  0  0  0
 19 51  1  0  0  0
 20 52  1  0  0  0
 21 53  1  0  0  0
 28 54  1  0  0  0
 33 55  1  0  0  0
M  END
$$$$
