1koj_ligand
  -I-interpret- 

 26 25  0  0  0  0  0  0  0  0999 V2000
   15.2540    9.3860   30.0240 C   0  0  0  0  0
   16.7450    8.9110   29.8640 C   0  0  0  0  0
   17.2440    8.1700   31.1500 C   0  0  0  0  0
   18.7240    7.7380   30.8810 C   0  0  0  0  0
   14.4710    8.2120   30.3250 O   0  0  0  0  0
   16.8370    7.9320   28.8480 O   0  0  0  0  0
   17.1740    9.1450   32.2050 O   0  0  0  0  0
   19.4430    9.0160   30.5920 O   0  0  0  0  0
   21.0030    8.6560   30.1980 P   0  0  0  0  0
   21.6880    7.8500   31.3090 O   0  0  0  0  0
   21.0310    7.7760   28.9630 O   0  0  0  0  0
   21.6590   10.0150   29.9210 O   0  0  0  0  0
   15.0160   10.1480   28.6760 C   0  0  0  0  0
   15.5090   11.1450   28.1610 O   0  0  0  0  0
   14.0610    9.5040   28.0320 N   0  0  0  0  0
   13.5610    9.9260   26.7310 O   0  0  0  0  0
   14.9817   10.0625   30.8341 H   0  0  0  0  0
   17.3297    9.8062   29.6521 H   0  0  0  0  0
   16.6607    7.2873   31.4119 H   0  0  0  0  0
   18.7986    7.0323   30.0537 H   0  0  0  0  0
   19.1558    7.2108   31.7317 H   0  0  0  0  0
   14.7343    7.8637   31.1799 H   0  0  0  0  0
   16.5457    8.3090   28.0146 H   0  0  0  0  0
   16.2579    9.3927   32.3500 H   0  0  0  0  0
   21.6966    8.3661   32.1184 H   0  0  0  0  0
   21.6285   10.5518   30.7163 H   0  0  0  0  0
  1 13  1  0  0  0
  1  5  1  0  0  0
  1  2  1  0  0  0
  2  6  1  0  0  0
  2  3  1  0  0  0
  3  7  1  0  0  0
  3  4  1  0  0  0
  4  8  1  0  0  0
  8  9  1  0  0  0
  9 12  1  0  0  0
  9 11  2  0  0  0
  9 10  1  0  0  0
 13 15  1  0  0  0
 13 14  2  0  0  0
 15 16  2  0  0  0
  1 17  1  0  0  0
  2 18  1  0  0  0
  3 19  1  0  0  0
  4 20  1  0  0  0
  4 21  1  0  0  0
  5 22  1  0  0  0
  6 23  1  0  0  0
  7 24  1  0  0  0
 10 25  1  0  0  0
 12 26  1  0  0  0
M  END
$$$$
