4l2f_ligand
  -I-interpret- 

 27 29  0  0  0  0  0  0  0  0999 V2000
   -7.3470  -38.2340   12.9880 C   0  0  0  0  0
   -7.3300  -37.7730   14.3070 C   0  0  0  0  0
   -7.9370  -38.3330   15.2210 O   0  0  0  0  0
   -6.4680  -36.7310   14.5790 C   0  0  0  0  0
   -6.1590  -36.4500   15.9000 C   0  0  0  0  0
   -5.2170  -35.4180   16.1360 C   0  0  0  0  0
   -4.8210  -35.0180   17.6280 Cl  0  0  0  0  0
   -4.5790  -34.6830   15.1200 C   0  0  0  0  0
   -4.8590  -34.9990   13.7860 C   0  0  0  0  0
   -5.7710  -36.0200   13.5410 C   0  0  0  0  0
   -6.0000  -36.3390   12.2370 O   0  0  0  0  0
   -6.6820  -37.5180   11.9570 C   0  0  0  0  0
   -6.6310  -37.8870   10.5780 C   0  0  0  0  0
   -7.4360  -38.8900   10.0030 C   0  0  0  0  0
   -7.3000  -39.2370    8.6560 C   0  0  0  0  0
   -6.3900  -38.5790    7.8260 C   0  0  0  0  0
   -5.5850  -37.5730    8.3680 C   0  0  0  0  0
   -5.6950  -37.2420    9.7350 C   0  0  0  0  0
   -7.8775  -39.1552   12.7470 H   0  0  0  0  0
   -6.6201  -36.9985   16.7214 H   0  0  0  0  0
   -3.8806  -33.8834   15.3671 H   0  0  0  0  0
   -4.3789  -34.4634   12.9670 H   0  0  0  0  0
   -8.1757  -39.4029   10.6176 H   0  0  0  0  0
   -7.9163  -40.0368    8.2454 H   0  0  0  0  0
   -6.3087  -38.8456    6.7722 H   0  0  0  0  0
   -4.8725  -37.0444    7.7347 H   0  0  0  0  0
   -5.0447  -36.4725   10.1511 H   0  0  0  0  0
  1  2  1  0  0  0
  1 12  2  0  0  0
  2  3  2  0  0  0
  2  4  1  0  0  0
  4  5  4  0  0  0
  4 10  4  0  0  0
  5  6  4  0  0  0
  6  7  1  0  0  0
  6  8  4  0  0  0
  8  9  4  0  0  0
  9 10  4  0  0  0
 10 11  1  0  0  0
 11 12  1  0  0  0
 12 13  1  0  0  0
 13 14  4  0  0  0
 13 18  4  0  0  0
 14 15  4  0  0  0
 15 16  4  0  0  0
 16 17  4  0  0  0
 17 18  4  0  0  0
  1 19  1  0  0  0
  5 20  1  0  0  0
  8 21  1  0  0  0
  9 22  1  0  0  0
 14 23  1  0  0  0
 15 24  1  0  0  0
 16 25  1  0  0  0
 17 26  1  0  0  0
 18 27  1  0  0  0
M  END
$$$$
