5uhi_ligand
  -I-interpret- 

 65 70  0  0  0  0  0  0  0  0999 V2000
  -19.9450  -34.5700   15.0390 C   0  0  0  0  0
  -14.6150  -33.8980    8.8520 C   0  0  0  0  0
  -14.4350  -33.3610   11.1640 C   0  0  0  0  0
  -21.7740  -31.4320   14.3210 C   0  0  0  0  0
  -22.8270  -32.9180   15.8540 C   0  0  0  0  0
  -18.6390  -34.9870   15.1120 C   0  0  0  0  0
  -14.0080  -32.7090    8.5280 C   0  0  0  0  0
  -13.8290  -32.1720   10.8420 C   0  0  0  0  0
  -22.0090  -30.3780   15.1700 C   0  0  0  0  0
  -23.0630  -31.8670   16.7080 C   0  0  0  0  0
  -12.8590  -28.5280    8.6620 C   0  0  0  0  0
  -19.7320  -34.3970   12.6860 C   0  0  0  0  0
  -11.8920  -28.9130    9.6240 C   0  0  0  0  0
  -22.6710  -36.2430   14.3230 C   0  0  0  0  0
  -13.5670  -29.6830    8.4160 C   0  0  0  0  0
  -24.7610  -36.0460   13.9610 C   0  0  0  0  0
  -18.4250  -34.8150   12.7690 C   0  0  0  0  0
  -14.8290  -34.2230   10.1700 C   0  0  0  0  0
  -22.1820  -32.7000   14.6600 C   0  0  0  0  0
  -20.5010  -34.2720   13.8180 C   0  0  0  0  0
  -16.3470  -35.3600   11.7280 C   0  0  0  0  0
  -17.8610  -35.1170   13.9870 C   0  0  0  0  0
  -13.6150  -31.8480    9.5240 C   0  0  0  0  0
  -22.6530  -30.6020   16.3620 C   0  0  0  0  0
  -17.6510  -34.9410   11.6400 C   0  0  0  0  0
  -22.8500  -34.9400   13.9150 C   0  0  0  0  0
  -15.8730  -35.6360   12.9860 C   0  0  0  0  0
  -24.8890  -33.6560   13.2420 C   0  0  0  0  0
  -14.2070  -35.5730   14.3910 C   0  0  0  0  0
  -15.4860  -35.5070   10.5250 C   0  0  0  0  0
  -21.9150  -33.8200   13.7230 C   0  0  0  0  0
  -23.8610  -36.9210   14.3480 N   0  0  0  0  0
  -11.9880  -30.2020    9.9550 N   0  0  0  0  0
  -16.5950  -35.5240   14.1000 N   0  0  0  0  0
  -13.0100  -30.6420    9.2100 N   0  0  0  0  0
  -24.1900  -34.8380   13.6910 N   0  0  0  0  0
  -22.1410  -33.3310   12.4090 O   0  0  0  0  0
  -14.5700  -36.0580   13.1090 O   0  0  0  0  0
  -22.9490  -29.2850   17.4300 Cl  0  0  0  0  0
  -18.3290  -34.5710   10.1020 Cl  0  0  0  0  0
  -20.5397  -34.4755   15.9476 H   0  0  0  0  0
  -14.9268  -34.5834    8.0639 H   0  0  0  0  0
  -14.6035  -33.6211   12.2090 H   0  0  0  0  0
  -21.2616  -31.2620   13.3741 H   0  0  0  0  0
  -23.1510  -33.9232   16.1234 H   0  0  0  0  0
  -18.2089  -35.2206   16.0860 H   0  0  0  0  0
  -13.8385  -32.4492    7.4831 H   0  0  0  0  0
  -13.5182  -31.4864   11.6303 H   0  0  0  0  0
  -21.6870  -29.3723   14.8998 H   0  0  0  0  0
  -23.5734  -32.0365   17.6561 H   0  0  0  0  0
  -13.0080  -27.5435    8.2186 H   0  0  0  0  0
  -20.1626  -34.1624   11.7126 H   0  0  0  0  0
  -11.1527  -28.2323   10.0462 H   0  0  0  0  0
  -21.7082  -36.6780   14.5910 H   0  0  0  0  0
  -14.4026  -29.8059    7.7269 H   0  0  0  0  0
  -25.8261  -36.2583   13.8679 H   0  0  0  0  0
  -25.3840  -33.8663   12.2939 H   0  0  0  0  0
  -25.6326  -33.3706   13.9861 H   0  0  0  0  0
  -24.1759  -32.8425   13.1085 H   0  0  0  0  0
  -14.3029  -34.4874   14.4079 H   0  0  0  0  0
  -14.8651  -36.0089   15.1427 H   0  0  0  0  0
  -13.1749  -35.8512   14.6045 H   0  0  0  0  0
  -14.7125  -36.2442   10.7404 H   0  0  0  0  0
  -16.1103  -35.8198    9.6881 H   0  0  0  0  0
  -21.9767  -34.0328   11.7749 H   0  0  0  0  0
  1  6  4  0  0  0
 20  1  4  0  0  0
  2  7  4  0  0  0
 18  2  4  0  0  0
  3  8  4  0  0  0
 18  3  4  0  0  0
  4  9  4  0  0  0
 19  4  4  0  0  0
  5 10  4  0  0  0
 19  5  4  0  0  0
  6 22  4  0  0  0
  7 23  4  0  0  0
  8 23  4  0  0  0
  9 24  4  0  0  0
 10 24  4  0  0  0
 11 13  4  0  0  0
 15 11  4  0  0  0
 12 17  4  0  0  0
 20 12  4  0  0  0
 13 33  4  0  0  0
 26 14  4  0  0  0
 14 32  4  0  0  0
 35 15  4  0  0  0
 32 16  4  0  0  0
 16 36  4  0  0  0
 17 22  4  0  0  0
 17 25  4  0  0  0
 30 18  1  0  0  0
 31 19  1  0  0  0
 31 20  1  0  0  0
 25 21  4  0  0  0
 21 27  4  0  0  0
 21 30  1  0  0  0
 22 34  4  0  0  0
 23 35  1  0  0  0
 24 39  1  0  0  0
 25 40  1  0  0  0
 26 31  1  0  0  0
 26 36  4  0  0  0
 27 34  4  0  0  0
 27 38  1  0  0  0
 36 28  1  0  0  0
 38 29  1  0  0  0
 31 37  1  0  0  0
 33 35  4  0  0  0
  1 41  1  0  0  0
  2 42  1  0  0  0
  3 43  1  0  0  0
  4 44  1  0  0  0
  5 45  1  0  0  0
  6 46  1  0  0  0
  7 47  1  0  0  0
  8 48  1  0  0  0
  9 49  1  0  0  0
 10 50  1  0  0  0
 11 51  1  0  0  0
 12 52  1  0  0  0
 13 53  1  0  0  0
 14 54  1  0  0  0
 15 55  1  0  0  0
 16 56  1  0  0  0
 28 57  1  0  0  0
 28 58  1  0  0  0
 28 59  1  0  0  0
 29 60  1  0  0  0
 29 61  1  0  0  0
 29 62  1  0  0  0
 30 63  1  0  0  0
 30 64  1  0  0  0
 37 65  1  0  0  0
M  END
$$$$
