### 
### Created by X-TOOL on Mon Sep 10 21:12:59 2018
### 

@<TRIPOS>MOLECULE
3k27_ligand
  114   113     1     0     0
SMALL
GAST_HUCK


@<TRIPOS>ATOM
      1 N         -23.6040   38.4940  -26.7950 N.4       1 THR         0.2398
      2 CA        -23.2640   37.4350  -25.7560 C.3       1 THR         0.0910
      3 C         -22.1490   36.4540  -26.3220 C.2       1 THR         0.2293
      4 O         -22.2670   35.9540  -27.4830 O.2       1 THR        -0.3906
      5 CB        -24.5800   36.7890  -25.1950 C.3       1 THR         0.1120
      6 OG1       -24.2910   35.6440  -24.3560 O.3       1 THR        -0.3840
      7 CG2       -25.6310   36.4790  -26.3500 C.3       1 THR        -0.0314
      8 N         -21.0530   36.2640  -25.5570 N.am      1 ALA        -0.2612
      9 CA        -19.7950   35.7050  -26.1020 C.3       1 ALA         0.1283
     10 C         -19.9680   34.2750  -26.6390 C.2       1 ALA         0.2036
     11 O         -20.6700   33.4550  -26.0070 O.2       1 ALA        -0.3944
     12 CB        -18.7080   35.7290  -25.0370 C.3       1 ALA        -0.0244
     13 N         -19.3080   33.9600  -27.7580 N.am      1 ARG        -0.2637
     14 CA        -19.3880   32.5900  -28.3100 C.3       1 ARG         0.1311
     15 C         -18.1620   31.7810  -27.9170 C.2       1 ARG         0.2039
     16 O         -17.0560   32.3310  -27.8230 O.2       1 ARG        -0.3944
     17 CB        -19.4510   32.5020  -29.8280 C.3       1 ARG        -0.0092
     18 CG        -20.2720   33.4940  -30.6490 C.3       1 ARG        -0.0156
     19 CD        -19.3610   34.7350  -31.0100 C.3       1 ARG         0.0627
     20 NE        -18.2590   34.4540  -31.9650 N.pl3     1 ARG        -0.2723
     21 CZ        -17.2330   35.2790  -32.2340 C.cat     1 ARG         0.2882
     22 NH1       -17.1240   36.4640  -31.6180 N.pl3     1 ARG        -0.2849
     23 NH2       -16.3020   34.9080  -33.1300 N.pl3     1 ARG        -0.2849
     24 N         -18.3790   30.4770  -27.7450 N.am      1 M3L        -0.2637
     25 CA        -17.2700   29.5630  -27.3740 C.3       1 M3L         0.1310
     26 CB        -17.8080   28.2930  -26.6950 C.3       1 M3L        -0.0122
     27 CG        -16.6590   27.5030  -26.0470 C.3       1 M3L        -0.0440
     28 CD        -17.2730   26.2190  -25.4480 C.3       1 M3L        -0.0123
     29 CE        -16.1450   25.3120  -24.8010 C.3       1 M3L        -0.0309
     30 NZ        -16.6250   24.0930  -24.0590 N.4       1 M3L         0.2369
     31 C         -16.4190   29.2270  -28.5680 C.2       1 M3L         0.2040
     32 O         -15.2620   28.8790  -28.4440 O.2       1 M3L        -0.3944
     33 CM1       -17.3760   24.3570  -22.8110 C.3       1 M3L        -0.0418
     34 CM2       -15.4230   23.3940  -23.5390 C.3       1 M3L        -0.0418
     35 CM3       -17.4600   23.2690  -24.9790 C.3       1 M3L        -0.0418
     36 N         -17.0110   29.3630  -29.7430 N.am      1 SER        -0.2616
     37 CA        -16.3190   29.0320  -30.9940 C.3       1 SER         0.1539
     38 C         -16.4920   30.0820  -32.1140 C.2       1 SER         0.2063
     39 O         -17.5030   30.7480  -32.1790 O.2       1 SER        -0.3943
     40 CB        -16.8670   27.6900  -31.4580 C.3       1 SER         0.0843
     41 OG        -16.0940   27.2550  -32.5230 O.3       1 SER        -0.3903
     42 N         -15.5150   30.1600  -33.0270 N.am      1 THR        -0.2613
     43 CA        -15.6600   30.9890  -34.2460 C.3       1 THR         0.1564
     44 C         -16.7530   30.4190  -35.1870 C.2       1 THR         0.2057
     45 O         -17.4070   31.1630  -35.9270 O.2       1 THR        -0.3943
     46 CB        -14.2630   31.2160  -34.9660 C.3       1 THR         0.0924
     47 OG1       -13.3720   30.1400  -34.6320 O.3       1 THR        -0.3874
     48 CG2       -13.6170   32.5590  -34.5130 C.3       1 THR        -0.0346
     49 N         -16.9630   29.1020  -35.1210 N.am      1 GLY        -0.2721
     50 CA        -17.9840   28.4260  -35.9280 C.3       1 GLY         0.0833
     51 C         -17.3920   27.9390  -37.2740 C.2       1 GLY         0.0570
     52 O         -18.1560   27.5520  -38.1990 O.co2     1 GLY        -0.5669
     53 H         -22.7425   38.9068  -27.1525 H         1 THR         0.2016
     54 H         -24.1197   38.0627  -27.5621 H         1 THR         0.2016
     55 H         -24.1769   39.2197  -26.3642 H         1 THR         0.2016
     56 H         -22.7964   37.8673  -24.8714 H         1 THR         0.1125
     57 H         -25.0634   37.5231  -24.5504 H         1 THR         0.0674
     58 H         -25.1136   35.2723  -24.0293 H         1 THR         0.2102
     59 H         -25.2395   35.6916  -26.9940 H         1 THR         0.0258
     60 H         -26.5714   36.1528  -25.9058 H         1 THR         0.0258
     61 H         -25.7992   37.3811  -26.9382 H         1 THR         0.0258
     62 H         -21.0930   36.5143  -24.5690 H         1 ALA         0.1884
     63 H         -19.5045   36.3338  -26.9436 H         1 ALA         0.0797
     64 H         -18.5353   36.7572  -24.7190 H         1 ALA         0.0277
     65 H         -19.0252   35.1314  -24.1824 H         1 ALA         0.0277
     66 H         -17.7877   35.3155  -25.4496 H         1 ALA         0.0277
     67 H         -18.7470   34.6671  -28.2331 H         1 ARG         0.1883
     68 H         -20.3199   32.2073  -27.8937 H         1 ARG         0.0800
     69 H         -19.9367   31.5441  -30.0141 H         1 ARG         0.0313
     70 H         -18.4244   32.6888  -30.1432 H         1 ARG         0.0313
     71 H         -21.1353   33.8253  -30.0719 H         1 ARG         0.0301
     72 H         -20.6227   33.0152  -31.5633 H         1 ARG         0.0301
     73 H         -18.8941   35.0613  -30.0807 H         1 ARG         0.0689
     74 H         -20.0087   35.4704  -31.4872 H         1 ARG         0.0689
     75 H         -18.2829   33.5610  -32.4574 H         1 ARG         0.2642
     76 H         -17.8253   36.7501  -30.9348 H         1 ARG         0.2615
     77 H         -16.3397   37.0799  -31.8323 H         1 ARG         0.2615
     78 H         -16.3775   34.0059  -33.6001 H         1 ARG         0.2615
     79 H         -15.5201   35.5286  -33.3397 H         1 ARG         0.2615
     80 H         -19.3195   30.1025  -27.8700 H         1 M3L         0.1883
     81 H         -16.6353   30.0809  -26.6550 H         1 M3L         0.0800
     82 H         -18.2902   27.6666  -27.4455 H         1 M3L         0.0312
     83 H         -18.5218   28.5790  -25.9225 H         1 M3L         0.0312
     84 H         -16.1736   28.0956  -25.2716 H         1 M3L         0.0269
     85 H         -15.8964   27.2567  -26.7859 H         1 M3L         0.0269
     86 H         -17.7651   25.6583  -26.2427 H         1 M3L         0.0317
     87 H         -17.9898   26.4969  -24.6753 H         1 M3L         0.0317
     88 H         -15.6333   25.9355  -24.0678 H         1 M3L         0.0815
     89 H         -15.5337   24.9475  -25.6265 H         1 M3L         0.0815
     90 H         -16.7421   24.9087  -22.1168 H         1 M3L         0.0778
     91 H         -18.2641   24.9458  -23.0405 H         1 M3L         0.0778
     92 H         -17.6728   23.4102  -22.3599 H         1 M3L         0.0778
     93 H         -14.7814   23.1083  -24.3726 H         1 M3L         0.0778
     94 H         -14.8775   24.0603  -22.8707 H         1 M3L         0.0778
     95 H         -15.7306   22.5020  -22.9933 H         1 M3L         0.0778
     96 H         -18.3136   23.8565  -25.3171 H         1 M3L         0.0778
     97 H         -16.8616   22.9673  -25.8386 H         1 M3L         0.0778
     98 H         -17.8132   22.3829  -24.4515 H         1 M3L         0.0778
     99 H         -17.9709   29.7059  -29.7804 H         1 SER         0.1884
    100 H         -15.2481   29.0054  -30.7928 H         1 SER         0.0823
    101 H         -17.9071   27.7950  -31.7666 H         1 SER         0.0606
    102 H         -16.8272   26.9660  -30.6442 H         1 SER         0.0606
    103 H         -15.1823   27.1600  -32.2375 H         1 SER         0.2097
    104 H         -14.6519   29.6369  -32.8796 H         1 THR         0.1884
    105 H         -16.0044   31.9789  -33.9465 H         1 THR         0.0826
    106 H         -14.4341   31.2489  -36.0420 H         1 THR         0.0639
    107 H         -13.2426   30.1167  -33.6811 H         1 THR         0.2101
    108 H         -14.2817   33.3845  -34.7676 H         1 THR         0.0257
    109 H         -13.4574   32.5385  -33.4349 H         1 THR         0.0257
    110 H         -12.6614   32.6905  -35.0206 H         1 THR         0.0257
    111 H         -16.3918   28.5452  -34.4854 H         1 GLY         0.1873
    112 H         -18.7904   29.1298  -36.1341 H         1 GLY         0.0689
    113 H         -18.3530   27.5625  -35.3746 H         1 GLY         0.0689
    114 O1        -16.1437   27.9297  -37.4447 O.co2     1 GLY        -0.5669
@<TRIPOS>BOND
     1    1    2 1  
     2    2    3 1  
     3    2    5 1  
     4    3    4 2  
     5    3    8 am 
     6    5    6 1  
     7    5    7 1  
     8    8    9 1  
     9    9   10 1  
    10    9   12 1  
    11   10   11 2  
    12   10   13 am 
    13   13   14 1  
    14   14   15 1  
    15   14   17 1  
    16   15   16 2  
    17   15   24 am 
    18   17   18 1  
    19   18   19 1  
    20   19   20 1  
    21   20   21 ar 
    22   21   22 ar 
    23   21   23 ar 
    24   24   25 1  
    25   25   26 1  
    26   25   31 1  
    27   26   27 1  
    28   27   28 1  
    29   28   29 1  
    30   29   30 1  
    31   30   33 1  
    32   30   34 1  
    33   30   35 1  
    34   31   32 2  
    35   31   36 am 
    36   36   37 1  
    37   37   38 1  
    38   37   40 1  
    39   38   39 2  
    40   38   42 am 
    41   40   41 1  
    42   42   43 1  
    43   43   44 1  
    44   43   46 1  
    45   44   45 2  
    46   44   49 am 
    47   46   47 1  
    48   46   48 1  
    49   49   50 1  
    50   50   51 1  
    51   51   52 ar 
    52    1   53 1  
    53    1   54 1  
    54    1   55 1  
    55    2   56 1  
    56    5   57 1  
    57    6   58 1  
    58    7   59 1  
    59    7   60 1  
    60    7   61 1  
    61    8   62 1  
    62    9   63 1  
    63   12   64 1  
    64   12   65 1  
    65   12   66 1  
    66   13   67 1  
    67   14   68 1  
    68   17   69 1  
    69   17   70 1  
    70   18   71 1  
    71   18   72 1  
    72   19   73 1  
    73   19   74 1  
    74   20   75 1  
    75   22   76 1  
    76   22   77 1  
    77   23   78 1  
    78   23   79 1  
    79   24   80 1  
    80   25   81 1  
    81   26   82 1  
    82   26   83 1  
    83   27   84 1  
    84   27   85 1  
    85   28   86 1  
    86   28   87 1  
    87   29   88 1  
    88   29   89 1  
    89   33   90 1  
    90   33   91 1  
    91   33   92 1  
    92   34   93 1  
    93   34   94 1  
    94   34   95 1  
    95   35   96 1  
    96   35   97 1  
    97   35   98 1  
    98   36   99 1  
    99   37  100 1  
   100   40  101 1  
   101   40  102 1  
   102   41  103 1  
   103   42  104 1  
   104   43  105 1  
   105   46  106 1  
   106   47  107 1  
   107   48  108 1  
   108   48  109 1  
   109   48  110 1  
   110   49  111 1  
   111   50  112 1  
   112   50  113 1  
   113   51  114 ar 
@<TRIPOS>SUBSTRUCTURE
     1 THR         1

