3k27_ligand
  -I-interpret- 

114113  0  0  0  0  0  0  0  0999 V2000
  -23.6040   38.4940  -26.7950 N   0  3  0  0  0
  -23.2640   37.4350  -25.7560 C   0  0  0  0  0
  -22.1490   36.4540  -26.3220 C   0  0  0  0  0
  -22.2670   35.9540  -27.4830 O   0  0  0  0  0
  -24.5800   36.7890  -25.1950 C   0  0  0  0  0
  -24.2910   35.6440  -24.3560 O   0  0  0  0  0
  -25.6310   36.4790  -26.3500 C   0  0  0  0  0
  -21.0530   36.2640  -25.5570 N   0  0  0  0  0
  -19.7950   35.7050  -26.1020 C   0  0  0  0  0
  -19.9680   34.2750  -26.6390 C   0  0  0  0  0
  -20.6700   33.4550  -26.0070 O   0  0  0  0  0
  -18.7080   35.7290  -25.0370 C   0  0  0  0  0
  -19.3080   33.9600  -27.7580 N   0  0  0  0  0
  -19.3880   32.5900  -28.3100 C   0  0  0  0  0
  -18.1620   31.7810  -27.9170 C   0  0  0  0  0
  -17.0560   32.3310  -27.8230 O   0  0  0  0  0
  -19.4510   32.5020  -29.8280 C   0  0  0  0  0
  -20.2720   33.4940  -30.6490 C   0  0  0  0  0
  -19.3610   34.7350  -31.0100 C   0  0  0  0  0
  -18.2590   34.4540  -31.9650 N   0  0  0  0  0
  -17.2330   35.2790  -32.2340 C   0  0  0  0  0
  -17.1240   36.4640  -31.6180 N   0  0  0  0  0
  -16.3020   34.9080  -33.1300 N   0  0  0  0  0
  -18.3790   30.4770  -27.7450 N   0  0  0  0  0
  -17.2700   29.5630  -27.3740 C   0  0  0  0  0
  -17.8080   28.2930  -26.6950 C   0  0  0  0  0
  -16.6590   27.5030  -26.0470 C   0  0  0  0  0
  -17.2730   26.2190  -25.4480 C   0  0  0  0  0
  -16.1450   25.3120  -24.8010 C   0  0  0  0  0
  -16.6250   24.0930  -24.0590 N   0  3  0  0  0
  -16.4190   29.2270  -28.5680 C   0  0  0  0  0
  -15.2620   28.8790  -28.4440 O   0  0  0  0  0
  -17.3760   24.3570  -22.8110 C   0  0  0  0  0
  -15.4230   23.3940  -23.5390 C   0  0  0  0  0
  -17.4600   23.2690  -24.9790 C   0  0  0  0  0
  -17.0110   29.3630  -29.7430 N   0  0  0  0  0
  -16.3190   29.0320  -30.9940 C   0  0  0  0  0
  -16.4920   30.0820  -32.1140 C   0  0  0  0  0
  -17.5030   30.7480  -32.1790 O   0  0  0  0  0
  -16.8670   27.6900  -31.4580 C   0  0  0  0  0
  -16.0940   27.2550  -32.5230 O   0  0  0  0  0
  -15.5150   30.1600  -33.0270 N   0  0  0  0  0
  -15.6600   30.9890  -34.2460 C   0  0  0  0  0
  -16.7530   30.4190  -35.1870 C   0  0  0  0  0
  -17.4070   31.1630  -35.9270 O   0  0  0  0  0
  -14.2630   31.2160  -34.9660 C   0  0  0  0  0
  -13.3720   30.1400  -34.6320 O   0  0  0  0  0
  -13.6170   32.5590  -34.5130 C   0  0  0  0  0
  -16.9630   29.1020  -35.1210 N   0  0  0  0  0
  -17.9840   28.4260  -35.9280 C   0  0  0  0  0
  -17.3920   27.9390  -37.2740 C   0  0  0  0  0
  -18.1560   27.5520  -38.1990 O   0  0  0  0  0
  -16.1437   27.9297  -37.4447 O   0  0  0  0  0
  -22.7425   38.9068  -27.1525 H   0  0  0  0  0
  -24.1197   38.0627  -27.5621 H   0  0  0  0  0
  -24.1769   39.2197  -26.3642 H   0  0  0  0  0
  -22.7964   37.8673  -24.8714 H   0  0  0  0  0
  -25.0634   37.5231  -24.5504 H   0  0  0  0  0
  -23.6542   35.8946  -23.6828 H   0  0  0  0  0
  -25.2395   35.6916  -26.9940 H   0  0  0  0  0
  -26.5714   36.1528  -25.9058 H   0  0  0  0  0
  -25.7992   37.3811  -26.9382 H   0  0  0  0  0
  -21.0930   36.5143  -24.5690 H   0  0  0  0  0
  -19.5045   36.3338  -26.9436 H   0  0  0  0  0
  -18.5353   36.7572  -24.7190 H   0  0  0  0  0
  -19.0252   35.1314  -24.1824 H   0  0  0  0  0
  -17.7877   35.3155  -25.4496 H   0  0  0  0  0
  -18.7470   34.6671  -28.2331 H   0  0  0  0  0
  -20.3199   32.2073  -27.8937 H   0  0  0  0  0
  -19.9367   31.5441  -30.0141 H   0  0  0  0  0
  -18.4244   32.6888  -30.1432 H   0  0  0  0  0
  -21.1353   33.8253  -30.0719 H   0  0  0  0  0
  -20.6227   33.0152  -31.5633 H   0  0  0  0  0
  -18.8941   35.0613  -30.0807 H   0  0  0  0  0
  -20.0087   35.4704  -31.4872 H   0  0  0  0  0
  -18.2829   33.5610  -32.4574 H   0  0  0  0  0
  -17.8253   36.7501  -30.9348 H   0  0  0  0  0
  -15.5185   35.5272  -33.3374 H   0  0  0  0  0
  -16.3791   34.0073  -33.6024 H   0  0  0  0  0
  -19.3195   30.1025  -27.8700 H   0  0  0  0  0
  -16.6353   30.0809  -26.6550 H   0  0  0  0  0
  -18.2902   27.6666  -27.4455 H   0  0  0  0  0
  -18.5218   28.5790  -25.9225 H   0  0  0  0  0
  -16.1736   28.0956  -25.2716 H   0  0  0  0  0
  -15.8964   27.2567  -26.7859 H   0  0  0  0  0
  -17.7651   25.6583  -26.2427 H   0  0  0  0  0
  -17.9898   26.4969  -24.6753 H   0  0  0  0  0
  -15.6333   25.9355  -24.0678 H   0  0  0  0  0
  -15.5337   24.9475  -25.6265 H   0  0  0  0  0
  -16.7421   24.9087  -22.1168 H   0  0  0  0  0
  -18.2641   24.9458  -23.0405 H   0  0  0  0  0
  -17.6728   23.4102  -22.3599 H   0  0  0  0  0
  -14.7814   23.1083  -24.3726 H   0  0  0  0  0
  -14.8775   24.0603  -22.8707 H   0  0  0  0  0
  -15.7306   22.5020  -22.9933 H   0  0  0  0  0
  -18.3136   23.8565  -25.3171 H   0  0  0  0  0
  -16.8616   22.9673  -25.8386 H   0  0  0  0  0
  -17.8132   22.3829  -24.4515 H   0  0  0  0  0
  -17.9709   29.7059  -29.7804 H   0  0  0  0  0
  -15.2481   29.0054  -30.7928 H   0  0  0  0  0
  -17.9071   27.7950  -31.7666 H   0  0  0  0  0
  -16.8272   26.9660  -30.6442 H   0  0  0  0  0
  -16.4239   26.4078  -32.8314 H   0  0  0  0  0
  -14.6519   29.6369  -32.8796 H   0  0  0  0  0
  -16.0044   31.9789  -33.9465 H   0  0  0  0  0
  -14.4341   31.2489  -36.0420 H   0  0  0  0  0
  -12.5278   30.2781  -35.0677 H   0  0  0  0  0
  -14.2817   33.3845  -34.7676 H   0  0  0  0  0
  -13.4574   32.5385  -33.4349 H   0  0  0  0  0
  -12.6614   32.6905  -35.0206 H   0  0  0  0  0
  -16.3918   28.5452  -34.4854 H   0  0  0  0  0
  -18.7904   29.1298  -36.1341 H   0  0  0  0  0
  -18.3530   27.5625  -35.3746 H   0  0  0  0  0
  -19.0685   27.6218  -37.9091 H   0  0  0  0  0
  1  2  1  0  0  0
  2  3  1  0  0  0
  2  5  1  0  0  0
  3  4  2  0  0  0
  3  8  1  0  0  0
  5  6  1  0  0  0
  5  7  1  0  0  0
  8  9  1  0  0  0
  9 10  1  0  0  0
  9 12  1  0  0  0
 10 11  2  0  0  0
 10 13  1  0  0  0
 13 14  1  0  0  0
 14 15  1  0  0  0
 14 17  1  0  0  0
 15 16  2  0  0  0
 15 24  1  0  0  0
 17 18  1  0  0  0
 18 19  1  0  0  0
 19 20  1  0  0  0
 20 21  1  0  0  0
 21 22  2  0  0  0
 21 23  1  0  0  0
 24 25  1  0  0  0
 25 26  1  0  0  0
 25 31  1  0  0  0
 26 27  1  0  0  0
 27 28  1  0  0  0
 28 29  1  0  0  0
 29 30  1  0  0  0
 30 33  1  0  0  0
 30 34  1  0  0  0
 30 35  1  0  0  0
 31 32  2  0  0  0
 31 36  1  0  0  0
 36 37  1  0  0  0
 37 38  1  0  0  0
 37 40  1  0  0  0
 38 39  2  0  0  0
 38 42  1  0  0  0
 40 41  1  0  0  0
 42 43  1  0  0  0
 43 44  1  0  0  0
 43 46  1  0  0  0
 44 45  2  0  0  0
 44 49  1  0  0  0
 46 47  1  0  0  0
 46 48  1  0  0  0
 49 50  1  0  0  0
 50 51  1  0  0  0
 51 52  1  0  0  0
 51 53  2  0  0  0
  1 54  1  0  0  0
  1 55  1  0  0  0
  1 56  1  0  0  0
  2 57  1  0  0  0
  5 58  1  0  0  0
  6 59  1  0  0  0
  7 60  1  0  0  0
  7 61  1  0  0  0
  7 62  1  0  0  0
  8 63  1  0  0  0
  9 64  1  0  0  0
 12 65  1  0  0  0
 12 66  1  0  0  0
 12 67  1  0  0  0
 13 68  1  0  0  0
 14 69  1  0  0  0
 17 70  1  0  0  0
 17 71  1  0  0  0
 18 72  1  0  0  0
 18 73  1  0  0  0
 19 74  1  0  0  0
 19 75  1  0  0  0
 20 76  1  0  0  0
 22 77  1  0  0  0
 23 78  1  0  0  0
 23 79  1  0  0  0
 24 80  1  0  0  0
 25 81  1  0  0  0
 26 82  1  0  0  0
 26 83  1  0  0  0
 27 84  1  0  0  0
 27 85  1  0  0  0
 28 86  1  0  0  0
 28 87  1  0  0  0
 29 88  1  0  0  0
 29 89  1  0  0  0
 33 90  1  0  0  0
 33 91  1  0  0  0
 33 92  1  0  0  0
 34 93  1  0  0  0
 34 94  1  0  0  0
 34 95  1  0  0  0
 35 96  1  0  0  0
 35 97  1  0  0  0
 35 98  1  0  0  0
 36 99  1  0  0  0
 37100  1  0  0  0
 40101  1  0  0  0
 40102  1  0  0  0
 41103  1  0  0  0
 42104  1  0  0  0
 43105  1  0  0  0
 46106  1  0  0  0
 47107  1  0  0  0
 48108  1  0  0  0
 48109  1  0  0  0
 48110  1  0  0  0
 49111  1  0  0  0
 50112  1  0  0  0
 50113  1  0  0  0
 52114  1  0  0  0
M  END
$$$$
