3suf_ligand
  -I-interpret- 

104110  0  0  0  0  0  0  0  0999 V2000
   11.9670    9.2330   16.2490 C   0  0  0  0  0
   13.1790   11.1600   16.6610 N   0  0  0  0  0
   12.3930    9.0700   15.1330 O   0  0  0  0  0
   11.8800   10.4800   16.7840 C   0  0  0  0  0
   10.8070   11.3290   16.1040 C   0  0  0  0  0
   14.0500   11.3540   17.6550 C   0  0  0  0  0
   11.9050    4.9880   20.5400 N   0  0  0  0  0
   13.9780    2.4260   21.8770 C   0  0  0  0  0
   11.3410    3.2140   21.8120 C   0  0  0  0  0
   17.5070   12.2810   17.9860 C   0  0  0  0  0
   17.0570   10.9210   18.3390 C   0  0  0  0  0
   16.1280   12.0790   18.4040 C   0  0  0  0  0
    6.2580    1.8730   13.6300 C   0  0  0  0  0
    7.5360    1.6750   14.3040 C   0  0  0  0  0
    8.1450    3.0380   11.6750 O   0  0  0  0  0
    7.8500    3.9580   12.7230 S   0  0  0  0  0
   11.1930    6.0590   12.9250 C   0  0  0  0  0
    9.9970    7.3770   14.9610 O   0  0  0  0  0
   10.9810    6.7660   15.2020 C   0  0  0  0  0
   10.5390   12.5230   16.9120 C   0  0  0  0  0
   10.6070    7.9580   11.3420 C   0  0  0  0  0
   13.6170    3.5450   21.1830 C   0  0  0  0  0
   17.4860   10.3440   19.6660 C   0  0  0  0  0
    9.1050    4.6760   13.2140 N   0  0  0  0  0
   11.5890    7.3410   12.2930 C   0  0  0  0  0
   15.8020    8.4220   19.7290 C   0  0  0  0  0
   13.0020    1.7160   22.5270 C   0  0  0  0  0
   12.4530    6.7610   19.2260 O   0  0  0  0  0
    9.5160    1.2150   22.7010 C   0  0  0  0  0
   10.7970    1.3520   23.1630 O   0  0  0  0  0
   17.2940    8.8380   19.6960 C   0  0  0  0  0
   15.6030    7.0420   20.2600 C   0  0  0  0  0
   12.8010    5.6890   19.9010 C   0  0  0  0  0
   14.1310    5.3250   19.9010 C   0  0  0  0  0
   12.2880    3.9210   21.1630 C   0  0  0  0  0
   14.5180    4.2550   20.5600 N   0  0  0  0  0
   15.0610    6.0670   19.2660 C   0  0  0  0  0
   11.6810    2.0800   22.4910 C   0  0  0  0  0
    6.9040    4.9170   12.2060 O   0  0  0  0  0
    6.9880    3.0060   14.1420 C   0  0  0  0  0
    9.6900    5.4220   11.2440 O   0  0  0  0  0
   12.2550    6.1090   11.8790 C   0  0  0  0  0
    9.8980    5.3610   12.4160 C   0  0  0  0  0
   11.6070    6.0840   14.3040 N   0  0  0  0  0
   11.2260    8.7650   10.2590 C   0  0  0  0  0
   13.7370   10.8730   18.7060 O   0  0  0  0  0
   15.1830   12.0460   17.4110 O   0  0  0  0  0
   10.7850    6.0760   17.5030 C   0  0  0  0  0
   11.5330    6.8220   16.4520 C   0  0  0  0  0
   11.5010    8.2140   16.9350 N   0  0  0  0  0
   10.9200    8.2400   18.2640 C   0  0  0  0  0
   11.0830    6.8910   18.7650 C   0  0  0  0  0
    9.5070   10.6400   15.9970 C   0  0  0  0  0
   11.2740   11.7900   14.7460 C   0  0  0  0  0
   13.4360   11.5129   15.7392 H   0  0  0  0  0
   11.6021   10.3656   17.8318 H   0  0  0  0  0
   15.0189    2.1044   21.9134 H   0  0  0  0  0
   10.3036    3.5482   21.7944 H   0  0  0  0  0
   18.0433   12.7711   17.1734 H   0  0  0  0  0
   18.3362   12.9470   18.2247 H   0  0  0  0  0
   17.0833    9.9536   17.8375 H   0  0  0  0  0
   15.4978   12.5529   19.1565 H   0  0  0  0  0
    5.3882    1.4641   13.1159 H   0  0  0  0  0
    8.3235    1.0130   14.6643 H   0  0  0  0  0
    9.7958   13.1414   16.4087 H   0  0  0  0  0
   10.1614   12.2217   17.8891 H   0  0  0  0  0
   11.4613   13.0903   17.0367 H   0  0  0  0  0
    9.9783    8.6320   11.9238 H   0  0  0  0  0
   10.0679    7.1403   10.8636 H   0  0  0  0  0
   16.8766   10.7887   20.4527 H   0  0  0  0  0
   18.5430   10.5636   19.8161 H   0  0  0  0  0
    9.3399    4.6227   14.2051 H   0  0  0  0  0
   11.9360    8.3072   12.6592 H   0  0  0  0  0
   15.4244    8.4459   18.7068 H   0  0  0  0  0
   15.2753    9.1137   20.3865 H   0  0  0  0  0
   13.2869    0.8293   23.0933 H   0  0  0  0  0
    9.0476    2.1971   22.6361 H   0  0  0  0  0
    9.5346    0.7540   21.7135 H   0  0  0  0  0
    8.9492    0.5853   23.3868 H   0  0  0  0  0
   17.7655    8.4599   20.6031 H   0  0  0  0  0
   17.7344    8.4277   18.7872 H   0  0  0  0  0
   14.8737    7.1131   21.0670 H   0  0  0  0  0
   16.5823    6.6740   20.5661 H   0  0  0  0  0
   15.8576    5.4329   18.8768 H   0  0  0  0  0
   14.6207    6.5895   18.4168 H   0  0  0  0  0
    6.7671    3.8331   14.8166 H   0  0  0  0  0
   12.5127    5.5931   10.9540 H   0  0  0  0  0
   13.2705    5.7419   11.7305 H   0  0  0  0  0
   12.4257    5.5422   14.5809 H   0  0  0  0  0
   11.7999    9.5809   10.6983 H   0  0  0  0  0
   11.8870    8.1312    9.6679 H   0  0  0  0  0
   10.4436    9.1729    9.6191 H   0  0  0  0  0
   11.0916    5.0333   17.5861 H   0  0  0  0  0
    9.7191    5.9930   17.2905 H   0  0  0  0  0
   12.5258    6.3906   16.3246 H   0  0  0  0  0
    9.8728    8.5416   18.2434 H   0  0  0  0  0
   11.4080    8.9732   18.9061 H   0  0  0  0  0
   10.4566    6.5863   19.6034 H   0  0  0  0  0
    9.1519   10.3800   16.9942 H   0  0  0  0  0
    8.7863   11.2997   15.5138 H   0  0  0  0  0
    9.6256    9.7330   15.4042 H   0  0  0  0  0
   10.4957   12.3958   14.2819 H   0  0  0  0  0
   12.1808   12.3844   14.8575 H   0  0  0  0  0
   11.4818   10.9218   14.1206 H   0  0  0  0  0
  1  3  2  0  0  0
  4  1  1  0  0  0
  1 50  1  0  0  0
  2  4  1  0  0  0
  6  2  1  0  0  0
  4  5  1  0  0  0
  5 20  1  0  0  0
  5 53  1  0  0  0
  5 54  1  0  0  0
  6 46  2  0  0  0
 47  6  1  0  0  0
 33  7  4  0  0  0
  7 35  4  0  0  0
 22  8  4  0  0  0
  8 27  4  0  0  0
 35  9  4  0  0  0
  9 38  4  0  0  0
 11 10  1  0  0  0
 12 10  1  0  0  0
 11 12  1  0  0  0
 23 11  1  0  0  0
 12 47  1  0  0  0
 14 13  2  0  0  0
 40 13  1  0  0  0
 40 14  1  0  0  0
 16 15  2  0  0  0
 24 16  1  0  0  0
 16 39  2  0  0  0
 16 40  1  0  0  0
 17 25  1  0  0  0
 17 42  1  0  0  0
 17 43  1  0  0  0
 44 17  1  0  0  0
 19 18  2  0  0  0
 19 44  1  0  0  0
 49 19  1  0  0  0
 25 21  1  0  0  0
 21 45  1  0  0  0
 35 22  4  0  0  0
 36 22  4  0  0  0
 31 23  1  0  0  0
 43 24  1  0  0  0
 42 25  1  0  0  0
 26 31  1  0  0  0
 32 26  1  0  0  0
 38 27  4  0  0  0
 28 33  1  0  0  0
 52 28  1  0  0  0
 30 29  1  0  0  0
 38 30  1  0  0  0
 37 32  1  0  0  0
 33 34  4  0  0  0
 34 36  4  0  0  0
 34 37  1  0  0  0
 43 41  2  0  0  0
 48 49  1  0  0  0
 48 52  1  0  0  0
 49 50  1  0  0  0
 50 51  1  0  0  0
 51 52  1  0  0  0
  2 55  1  0  0  0
  4 56  1  0  0  0
  8 57  1  0  0  0
  9 58  1  0  0  0
 10 59  1  0  0  0
 10 60  1  0  0  0
 11 61  1  0  0  0
 12 62  1  0  0  0
 13 63  1  0  0  0
 14 64  1  0  0  0
 20 65  1  0  0  0
 20 66  1  0  0  0
 20 67  1  0  0  0
 21 68  1  0  0  0
 21 69  1  0  0  0
 23 70  1  0  0  0
 23 71  1  0  0  0
 24 72  1  0  0  0
 25 73  1  0  0  0
 26 74  1  0  0  0
 26 75  1  0  0  0
 27 76  1  0  0  0
 29 77  1  0  0  0
 29 78  1  0  0  0
 29 79  1  0  0  0
 31 80  1  0  0  0
 31 81  1  0  0  0
 32 82  1  0  0  0
 32 83  1  0  0  0
 37 84  1  0  0  0
 37 85  1  0  0  0
 40 86  1  0  0  0
 42 87  1  0  0  0
 42 88  1  0  0  0
 44 89  1  0  0  0
 45 90  1  0  0  0
 45 91  1  0  0  0
 45 92  1  0  0  0
 48 93  1  0  0  0
 48 94  1  0  0  0
 49 95  1  0  0  0
 51 96  1  0  0  0
 51 97  1  0  0  0
 52 98  1  0  0  0
 53 99  1  0  0  0
 53100  1  0  0  0
 53101  1  0  0  0
 54102  1  0  0  0
 54103  1  0  0  0
 54104  1  0  0  0
M  END
$$$$
