2n0w_ligand
  -I-interpret- 

 70 74  0  0  0  0  0  0  0  0999 V2000
   -0.8370   12.6370  -10.9040 N   0  0  0  0  0
    2.4270   13.4370  -10.6390 C   0  0  0  0  0
    0.7650   11.4090   -9.3550 C   0  0  0  0  0
   -1.1690   13.6150  -13.0820 C   0  0  0  0  0
    2.6190   12.8690  -11.9050 C   0  0  0  0  0
    3.5320   13.6300   -9.8070 C   0  0  0  0  0
    1.0520   10.4370  -10.3200 C   0  0  0  0  0
    1.1110   11.1580   -8.0220 C   0  0  0  0  0
   -2.2510   12.7650  -13.3630 C   0  0  0  0  0
   -0.6170   14.3570  -14.1430 C   0  0  0  0  0
    3.8960   12.4900  -12.3220 C   0  0  0  0  0
    4.8040   13.2530  -10.2270 C   0  0  0  0  0
    1.7020    9.9510   -7.6530 C   0  0  0  0  0
    1.6680    9.2430   -9.9520 C   0  0  0  0  0
   -2.7990   12.6860  -14.6420 C   0  0  0  0  0
   -1.1840   14.2730  -15.4170 C   0  0  0  0  0
    4.9870   12.6870  -11.4820 C   0  0  0  0  0
    1.9790    8.9860   -8.6190 C   0  0  0  0  0
   -2.2720   13.4570  -15.6710 C   0  0  0  0  0
    6.5750   12.2410  -11.9920 Cl  0  0  0  0  0
   -4.0550   12.8790  -17.3020 C   0  0  0  0  0
    2.8420   15.6370  -14.4620 C   0  0  0  0  0
    0.9230   16.9300  -15.5120 C   0  0  0  0  0
   -1.6110   19.0420  -12.3130 C   0  0  0  0  0
   -2.8460   18.6180  -12.0200 N   0  0  0  0  0
   -1.4830   20.0910  -12.9160 O   0  0  0  0  0
   -3.1100   17.3750  -11.2960 C   0  0  0  0  0
   -0.6740   16.7200  -11.5910 N   0  0  0  0  0
   -2.0890   16.2770  -11.6530 C   0  0  0  0  0
    0.2760   14.5930  -11.1720 N   0  0  0  0  0
   -2.7610   13.4300  -16.9610 O   0  0  0  0  0
   -0.4360   18.1680  -11.8840 C   0  0  0  0  0
    0.3890   15.9410  -11.2300 C   0  0  0  0  0
    1.4290   16.4770  -10.8880 O   0  0  0  0  0
   -0.6600   13.6460  -11.6720 C   0  0  0  0  0
    0.5530   15.0730  -13.9590 O   0  0  0  0  0
    0.0850   12.7240   -9.7390 C   0  0  0  0  0
    1.0430   13.8760  -10.1470 C   0  0  0  0  0
    1.4130   15.5500  -15.0250 C   0  0  0  0  0
    2.0980    7.9620  -11.2840 Br  0  0  0  0  0
    0.8750   12.0790   -7.0690 F   0  0  0  0  0
    1.7665   12.7222  -12.5681 H   0  0  0  0  0
    3.3973   14.0786   -8.8228 H   0  0  0  0  0
    0.7925   10.6149  -11.3636 H   0  0  0  0  0
   -2.6711   12.1542  -12.5639 H   0  0  0  0  0
    4.0381   12.0402  -13.3047 H   0  0  0  0  0
    5.6598   13.4025   -9.5687 H   0  0  0  0  0
    1.9477    9.7618   -6.6080 H   0  0  0  0  0
   -3.6401   12.0201  -14.8350 H   0  0  0  0  0
   -0.7598   14.8635  -16.2290 H   0  0  0  0  0
    2.4352    8.0380   -8.3339 H   0  0  0  0  0
   -4.0870   11.8272  -17.0176 H   0  0  0  0  0
   -4.8330   13.4249  -16.7683 H   0  0  0  0  0
   -4.2162   12.9714  -18.3761 H   0  0  0  0  0
    3.5169   15.9925  -15.2406 H   0  0  0  0  0
    2.8582   16.3302  -13.6210 H   0  0  0  0  0
    3.1598   14.6497  -14.1269 H   0  0  0  0  0
    0.9276   17.6310  -14.6774 H   0  0  0  0  0
    1.5862   17.2934  -16.2970 H   0  0  0  0  0
   -0.0896   16.8369  -15.9044 H   0  0  0  0  0
   -3.6391   19.1875  -12.3150 H   0  0  0  0  0
   -4.1036   17.0219  -11.5722 H   0  0  0  0  0
   -3.0353   17.5782  -10.2277 H   0  0  0  0  0
   -2.2871   15.9753  -12.6815 H   0  0  0  0  0
   -2.2081   15.4768  -10.9225 H   0  0  0  0  0
   -0.1017   18.5935  -10.9378 H   0  0  0  0  0
    0.2424   18.1729  -12.7372 H   0  0  0  0  0
   -0.4353   12.9316   -8.8039 H   0  0  0  0  0
    1.3122   14.4892   -9.2870 H   0  0  0  0  0
    1.3929   14.8735  -15.8794 H   0  0  0  0  0
 35  1  2  0  0  0
  1 37  1  0  0  0
  2  5  4  0  0  0
  2  6  4  0  0  0
 38  2  1  0  0  0
  3  7  4  0  0  0
  3  8  4  0  0  0
 37  3  1  0  0  0
  4  9  4  0  0  0
 10  4  4  0  0  0
  4 35  1  0  0  0
  5 11  4  0  0  0
  6 12  4  0  0  0
  7 14  4  0  0  0
  8 13  4  0  0  0
  8 41  1  0  0  0
  9 15  4  0  0  0
 10 16  4  0  0  0
 36 10  1  0  0  0
 11 17  4  0  0  0
 12 17  4  0  0  0
 13 18  4  0  0  0
 14 18  4  0  0  0
 14 40  1  0  0  0
 19 15  4  0  0  0
 16 19  4  0  0  0
 17 20  1  0  0  0
 19 31  1  0  0  0
 31 21  1  0  0  0
 39 22  1  0  0  0
 39 23  1  0  0  0
 24 25  1  0  0  0
 24 26  2  0  0  0
 32 24  1  0  0  0
 27 25  1  0  0  0
 29 27  1  0  0  0
 28 29  1  0  0  0
 28 32  1  0  0  0
 33 28  1  0  0  0
 30 33  1  0  0  0
 35 30  1  0  0  0
 30 38  1  0  0  0
 33 34  2  0  0  0
 36 39  1  0  0  0
 37 38  1  0  0  0
  5 42  1  0  0  0
  6 43  1  0  0  0
  7 44  1  0  0  0
  9 45  1  0  0  0
 11 46  1  0  0  0
 12 47  1  0  0  0
 13 48  1  0  0  0
 15 49  1  0  0  0
 16 50  1  0  0  0
 18 51  1  0  0  0
 21 52  1  0  0  0
 21 53  1  0  0  0
 21 54  1  0  0  0
 22 55  1  0  0  0
 22 56  1  0  0  0
 22 57  1  0  0  0
 23 58  1  0  0  0
 23 59  1  0  0  0
 23 60  1  0  0  0
 25 61  1  0  0  0
 27 62  1  0  0  0
 27 63  1  0  0  0
 29 64  1  0  0  0
 29 65  1  0  0  0
 32 66  1  0  0  0
 32 67  1  0  0  0
 37 68  1  0  0  0
 38 69  1  0  0  0
 39 70  1  0  0  0
M  END
$$$$
