1e8h_ligand
  -I-interpret- 

 42 44  0  0  0  0  0  0  0  0999 V2000
  100.4090   46.2510   75.6890 P   0  0  0  0  0
  101.5280   46.3420   74.5480 O   0  0  0  0  0
   99.8000   44.9120   75.7680 O   0  0  0  0  0
  100.7580   46.7110   77.0490 O   0  0  0  0  0
   97.8260   47.6160   75.2920 P   0  0  0  0  0
   97.6190   48.1780   76.6530 O   0  0  0  0  0
   97.0330   46.3760   75.2110 O   0  0  0  0  0
   99.4030   47.3540   75.0670 O   0  0  0  0  0
   97.4810   48.7690   74.2860 O   0  0  0  0  0
   97.8270   49.0300   72.9440 C   0  0  0  0  0
   96.6330   49.5360   72.1390 C   0  0  0  0  0
   95.9840   48.3660   71.5960 O   0  0  0  0  0
   95.5160   50.2410   72.9140 C   0  0  0  0  0
   95.7870   51.6500   73.0810 O   0  0  0  0  0
   94.3880   50.0420   71.8550 C   0  0  0  0  0
   94.7890   50.8880   70.7590 O   0  0  0  0  0
   94.6550   48.5950   71.4010 C   0  0  0  0  0
   93.8550   47.5590   72.0070 N   0  0  0  0  0
   94.2250   46.6710   72.9560 C   0  0  0  0  0
   93.4040   45.7210   73.2000 N   0  0  0  0  0
   92.4210   45.9470   72.3710 C   0  0  0  0  0
   91.2770   45.2420   72.1750 C   0  0  0  0  0
   90.9220   44.1560   72.8070 N   0  0  0  0  0
   90.4030   45.7090   71.2580 N   0  0  0  0  0
   90.7050   46.8550   70.5600 C   0  0  0  0  0
   91.8050   47.5720   70.6780 N   0  0  0  0  0
   92.6170   47.0720   71.6030 C   0  0  0  0  0
  101.8963   47.2284   74.5325 H   0  0  0  0  0
  101.1550   47.5836   76.9984 H   0  0  0  0  0
   98.1228   48.9902   76.7426 H   0  0  0  0  0
   98.1753   48.1008   72.4930 H   0  0  0  0  0
   98.5988   49.7996   72.9326 H   0  0  0  0  0
   97.0541   50.2596   71.4410 H   0  0  0  0  0
   95.3328   49.8749   73.9242 H   0  0  0  0  0
   95.0679   52.0573   73.5695 H   0  0  0  0  0
   93.3668   50.2378   72.1821 H   0  0  0  0  0
   94.1409   50.8247   70.0536 H   0  0  0  0  0
   94.3537   48.5300   70.3555 H   0  0  0  0  0
   95.1734   46.7596   73.4858 H   0  0  0  0  0
   91.5299   43.7620   73.5251 H   0  0  0  0  0
   90.0368   43.7016   72.5826 H   0  0  0  0  0
   89.9641   47.2037   69.8406 H   0  0  0  0  0
  1  2  1  0  0  0
  1  3  2  0  0  0
  1  4  1  0  0  0
  8  1  1  0  0  0
  5  6  1  0  0  0
  5  7  2  0  0  0
  5  8  1  0  0  0
  5  9  1  0  0  0
  9 10  1  0  0  0
 10 11  1  0  0  0
 11 12  1  0  0  0
 11 13  1  0  0  0
 12 17  1  0  0  0
 13 14  1  0  0  0
 13 15  1  0  0  0
 15 16  1  0  0  0
 15 17  1  0  0  0
 17 18  1  0  0  0
 18 19  4  0  0  0
 18 27  4  0  0  0
 19 20  4  0  0  0
 20 21  4  0  0  0
 21 22  4  0  0  0
 21 27  4  0  0  0
 22 23  1  0  0  0
 22 24  4  0  0  0
 24 25  4  0  0  0
 25 26  4  0  0  0
 26 27  4  0  0  0
  2 28  1  0  0  0
  4 29  1  0  0  0
  6 30  1  0  0  0
 10 31  1  0  0  0
 10 32  1  0  0  0
 11 33  1  0  0  0
 13 34  1  0  0  0
 14 35  1  0  0  0
 15 36  1  0  0  0
 16 37  1  0  0  0
 17 38  1  0  0  0
 19 39  1  0  0  0
 23 40  1  0  0  0
 23 41  1  0  0  0
 25 42  1  0  0  0
M  END
$$$$
