### 
### Created by X-TOOL on Mon Sep 10 21:12:48 2018
### 

@<TRIPOS>MOLECULE
1e8h_ligand
   39    41     1     0     0
SMALL
GAST_HUCK


@<TRIPOS>ATOM
      1 PB        100.4090   46.2510   75.6890 P.3       1 ADP         0.2069
      2 O1B       101.5280   46.3420   74.5480 O.co2     1 ADP        -0.5891
      3 O2B        99.8000   44.9120   75.7680 O.co2     1 ADP        -0.5891
      4 O3B       100.7580   46.7110   77.0490 O.co2     1 ADP        -0.5891
      5 PA         97.8260   47.6160   75.2920 P.3       1 ADP         0.3276
      6 O1A        97.6190   48.1780   76.6530 O.co2     1 ADP        -0.5556
      7 O2A        97.0330   46.3760   75.2110 O.co2     1 ADP        -0.5556
      8 O3A        99.4030   47.3540   75.0670 O.3       1 ADP        -0.1548
      9 O5         97.4810   48.7690   74.2860 O.3       1 ADP        -0.2436
     10 C5         97.8270   49.0300   72.9440 C.3       1 ADP         0.1132
     11 C4         96.6330   49.5360   72.1390 C.3       1 ADP         0.1189
     12 O4         95.9840   48.3660   71.5960 O.3       1 ADP        -0.3364
     13 C3         95.5160   50.2410   72.9140 C.3       1 ADP         0.1149
     14 O3         95.7870   51.6500   73.0810 O.3       1 ADP        -0.3864
     15 C2         94.3880   50.0420   71.8550 C.3       1 ADP         0.1385
     16 O2         94.7890   50.8880   70.7590 O.3       1 ADP        -0.3836
     17 C1         94.6550   48.5950   71.4010 C.3       1 ADP         0.2010
     18 N9         93.8550   47.5590   72.0070 N.pl3     1 ADP        -0.1919
     19 C8         94.2250   46.6710   72.9560 C.2       1 ADP         0.1123
     20 N7         93.4040   45.7210   73.2000 N.2       1 ADP        -0.2958
     21 C5         92.4210   45.9470   72.3710 C.ar      1 ADP         0.1045
     22 C6         91.2770   45.2420   72.1750 C.ar      1 ADP         0.1298
     23 N6         90.9220   44.1560   72.8070 N.pl3     1 ADP        -0.3152
     24 N1         90.4030   45.7090   71.2580 N.ar      1 ADP        -0.2698
     25 C2         90.7050   46.8550   70.5600 C.ar      1 ADP         0.0533
     26 N3         91.8050   47.5720   70.6780 N.ar      1 ADP        -0.2714
     27 C4         92.6170   47.0720   71.6030 C.ar      1 ADP         0.1613
     28 H1         98.1982   48.1018   72.4850 H         1 ADP         0.0648
     29 H2         98.6197   49.7923   72.9224 H         1 ADP         0.0648
     30 H3         96.9988   50.2012   71.3430 H         1 ADP         0.0651
     31 H4         95.2978   49.7695   73.8836 H         1 ADP         0.0648
     32 H5         95.8636   52.0599   72.2274 H         1 ADP         0.2100
     33 H6         93.3665   50.2290   72.2178 H         1 ADP         0.0676
     34 H7         94.8453   51.7876   71.0590 H         1 ADP         0.2101
     35 H8         94.4504   48.5508   70.3211 H         1 ADP         0.0996
     36 H9         95.1726   46.7596   73.4853 H         1 ADP         0.1349
     37 H10        90.0281   43.6971   72.5804 H         1 ADP         0.1820
     38 H11        91.5358   43.7582   73.5322 H         1 ADP         0.1820
     39 H12        89.9682   47.2018   69.8445 H         1 ADP         0.0996
@<TRIPOS>BOND
     1    1    2 ar 
     2    1    3 ar 
     3    1    4 ar 
     4    8    1 1  
     5    5    6 ar 
     6    5    7 ar 
     7    5    8 1  
     8    5    9 1  
     9    9   10 1  
    10   10   11 1  
    11   11   12 1  
    12   11   13 1  
    13   12   17 1  
    14   13   14 1  
    15   13   15 1  
    16   15   16 1  
    17   15   17 1  
    18   17   18 1  
    19   18   19 1  
    20   18   27 1  
    21   19   20 2  
    22   20   21 1  
    23   21   22 ar 
    24   21   27 ar 
    25   22   23 1  
    26   22   24 ar 
    27   24   25 ar 
    28   25   26 ar 
    29   26   27 ar 
    30   10   28 1  
    31   10   29 1  
    32   11   30 1  
    33   13   31 1  
    34   14   32 1  
    35   15   33 1  
    36   16   34 1  
    37   17   35 1  
    38   19   36 1  
    39   23   37 1  
    40   23   38 1  
    41   25   39 1  
@<TRIPOS>SUBSTRUCTURE
     1 ADP         1

