5a2k_ligand
  -I-interpret- 

 92 93  0  0  0  0  0  0  0  0999 V2000
   13.9590   13.2810    1.1800 N   0  3  0  0  0
   13.7960   14.2660    2.2410 C   0  0  0  0  0
   13.6350   13.8070    3.7010 C   0  0  0  0  0
   13.5430   14.6840    4.5370 O   0  0  0  0  0
   12.6930   15.2390    1.8820 C   0  0  0  0  0
   13.6440   12.4730    4.0260 N   0  0  0  0  0
   14.0190   12.1290    5.4190 C   0  0  0  0  0
   15.5550   12.1980    5.5660 C   0  0  0  0  0
   16.2280   12.9160    4.7740 O   0  0  0  0  0
   13.4630   10.7060    5.5980 C   0  0  0  0  0
   13.5790   10.1180    4.2340 C   0  0  0  0  0
   13.2570   11.2630    3.2790 C   0  0  0  0  0
   16.1150   11.5060    6.5550 N   0  0  0  0  0
   17.5550   11.5110    6.7790 C   0  0  0  0  0
   18.2350   10.6030    5.7700 C   0  0  0  0  0
   18.4710    9.4110    6.0360 O   0  0  0  0  0
   17.9330   11.0470    8.1710 C   0  0  0  0  0
   19.3960   11.3290    8.4950 C   0  0  0  0  0
   20.0910   11.8890    7.6140 O   0  0  0  0  0
   19.8440   11.0050    9.6100 O   0  0  0  0  0
   18.5700   11.1930    4.6300 N   0  0  0  0  0
   19.2360   10.4730    3.5390 C   0  0  0  0  0
   20.7610   10.4650    3.6550 C   0  0  0  0  0
   21.4490   10.0800    2.7060 O   0  0  0  0  0
   18.8450   11.0890    2.1990 C   0  0  0  0  0
   18.9050   12.5310    2.2780 O   0  0  0  0  0
   17.4190   10.6780    1.8370 C   0  0  0  0  0
   21.3030   10.8970    4.7870 N   0  0  0  0  0
   22.7360   10.8420    4.9710 C   0  0  0  0  0
   23.2090    9.3970    4.9450 C   0  0  0  0  0
   22.6480    8.5500    5.6300 O   0  0  0  0  0
   23.1610   11.4870    6.2840 C   0  0  0  0  0
   24.6460   11.2800    6.5670 C   0  0  0  0  0
   25.0260   11.8320    7.9180 C   0  0  0  0  0
   25.1240   13.2680    7.8050 N   0  0  0  0  0
   26.2610   13.9580    7.7610 C   0  0  0  0  0
   27.4430   13.3550    7.8690 N   0  0  0  0  0
   26.1990   15.2790    7.6320 N   0  0  0  0  0
   24.2730    9.1020    4.1650 N   0  0  0  0  0
   24.7810    7.7230    4.1170 C   0  0  0  0  0
   25.2390    7.1240    5.4640 C   0  0  0  0  0
   25.8880    7.8130    6.2610 O   0  0  0  0  0
   25.9550    7.8140    3.1170 C   0  0  0  0  0
   26.2550    9.2610    2.9810 C   0  0  0  0  0
   24.9570    9.9670    3.1890 C   0  0  0  0  0
   24.9580    5.9530    5.7500 O   0  0  0  0  0
   14.7038   12.6314    1.4323 H   0  0  0  0  0
   13.0860   12.7680    1.0569 H   0  0  0  0  0
   14.2009   13.7564    0.3106 H   0  0  0  0  0
   14.7861   14.7213    2.2639 H   0  0  0  0  0
   11.7261   14.7502    2.0013 H   0  0  0  0  0
   12.7468   16.1062    2.5401 H   0  0  0  0  0
   12.8148   15.5586    0.8470 H   0  0  0  0  0
   13.6230   12.8046    6.1772 H   0  0  0  0  0
   12.4391   10.6997    5.9718 H   0  0  0  0  0
   14.0080   10.1341    6.3490 H   0  0  0  0  0
   12.8991    9.2769    4.0985 H   0  0  0  0  0
   14.5739    9.7107    4.0540 H   0  0  0  0  0
   13.7915   11.1738    2.3333 H   0  0  0  0  0
   12.2061   11.2755    2.9898 H   0  0  0  0  0
   15.5193   10.9563    7.1741 H   0  0  0  0  0
   17.8857   12.5433    6.6648 H   0  0  0  0  0
   17.7757    9.9697    8.2236 H   0  0  0  0  0
   17.3164   11.5889    8.8881 H   0  0  0  0  0
   19.5515   12.0492    6.8363 H   0  0  0  0  0
   18.3568   12.1829    4.5076 H   0  0  0  0  0
   18.9020    9.4377    3.6074 H   0  0  0  0  0
   19.5400   10.7338    1.4382 H   0  0  0  0  0
   18.6573   12.9074    1.4303 H   0  0  0  0  0
   17.3624    9.5918    1.7653 H   0  0  0  0  0
   16.7341   11.0286    2.6091 H   0  0  0  0  0
   17.1465   11.1213    0.8792 H   0  0  0  0  0
   20.7080   11.2681    5.5277 H   0  0  0  0  0
   23.1931   11.3991    4.1532 H   0  0  0  0  0
   22.5922   11.0250    7.0909 H   0  0  0  0  0
   22.9730   12.5584    6.2144 H   0  0  0  0  0
   25.2218   11.8026    5.8032 H   0  0  0  0  0
   24.8563   10.2105    6.5565 H   0  0  0  0  0
   25.9803   11.4146    8.2392 H   0  0  0  0  0
   24.2724   11.5642    8.6585 H   0  0  0  0  0
   24.2525   13.7955    7.7549 H   0  0  0  0  0
   28.3005   13.9070    7.8527 H   0  0  0  0  0
   27.4911   12.3410    7.9680 H   0  0  0  0  0
   25.2930   15.7433    7.5690 H   0  0  0  0  0
   23.9827    7.0397    3.8275 H   0  0  0  0  0
   25.6943    7.3699    2.1563 H   0  0  0  0  0
   26.8236    7.2595    3.4720 H   0  0  0  0  0
   26.6772    9.4880    2.0021 H   0  0  0  0  0
   27.0013    9.5811    3.7081 H   0  0  0  0  0
   25.0808   10.9912    3.5409 H   0  0  0  0  0
   24.3913   10.0988    2.2667 H   0  0  0  0  0
   24.4560    5.5610    5.0317 H   0  0  0  0  0
  1  2  1  0  0  0
  2  3  1  0  0  0
  2  5  1  0  0  0
  3  4  2  0  0  0
  3  6  1  0  0  0
  6  7  1  0  0  0
  6 12  1  0  0  0
  7  8  1  0  0  0
  7 10  1  0  0  0
  8  9  2  0  0  0
  8 13  1  0  0  0
 10 11  1  0  0  0
 11 12  1  0  0  0
 13 14  1  0  0  0
 14 15  1  0  0  0
 14 17  1  0  0  0
 15 16  2  0  0  0
 15 21  1  0  0  0
 17 18  1  0  0  0
 18 19  1  0  0  0
 18 20  2  0  0  0
 21 22  1  0  0  0
 22 23  1  0  0  0
 22 25  1  0  0  0
 23 24  2  0  0  0
 23 28  1  0  0  0
 25 26  1  0  0  0
 25 27  1  0  0  0
 28 29  1  0  0  0
 29 30  1  0  0  0
 29 32  1  0  0  0
 30 31  2  0  0  0
 30 39  1  0  0  0
 32 33  1  0  0  0
 33 34  1  0  0  0
 34 35  1  0  0  0
 35 36  1  0  0  0
 36 37  1  0  0  0
 36 38  2  0  0  0
 39 40  1  0  0  0
 39 45  1  0  0  0
 40 41  1  0  0  0
 40 43  1  0  0  0
 41 42  2  0  0  0
 41 46  1  0  0  0
 43 44  1  0  0  0
 44 45  1  0  0  0
  1 47  1  0  0  0
  1 48  1  0  0  0
  1 49  1  0  0  0
  2 50  1  0  0  0
  5 51  1  0  0  0
  5 52  1  0  0  0
  5 53  1  0  0  0
  7 54  1  0  0  0
 10 55  1  0  0  0
 10 56  1  0  0  0
 11 57  1  0  0  0
 11 58  1  0  0  0
 12 59  1  0  0  0
 12 60  1  0  0  0
 13 61  1  0  0  0
 14 62  1  0  0  0
 17 63  1  0  0  0
 17 64  1  0  0  0
 19 65  1  0  0  0
 21 66  1  0  0  0
 22 67  1  0  0  0
 25 68  1  0  0  0
 26 69  1  0  0  0
 27 70  1  0  0  0
 27 71  1  0  0  0
 27 72  1  0  0  0
 28 73  1  0  0  0
 29 74  1  0  0  0
 32 75  1  0  0  0
 32 76  1  0  0  0
 33 77  1  0  0  0
 33 78  1  0  0  0
 34 79  1  0  0  0
 34 80  1  0  0  0
 35 81  1  0  0  0
 37 82  1  0  0  0
 37 83  1  0  0  0
 38 84  1  0  0  0
 40 85  1  0  0  0
 43 86  1  0  0  0
 43 87  1  0  0  0
 44 88  1  0  0  0
 44 89  1  0  0  0
 45 90  1  0  0  0
 45 91  1  0  0  0
 46 92  1  0  0  0
M  END
$$$$
