6m8e_ligand
  -I-interpret- 

 35 37  0  0  0  0  0  0  0  0999 V2000
    7.3080   24.7060   22.2530 C   0  0  0  0  0
    6.3180   25.6960   22.2570 C   0  0  0  0  0
    5.8630   26.2850   23.4450 C   0  0  0  0  0
    6.4550   25.8450   24.6370 C   0  0  0  0  0
    7.4440   24.8580   24.6400 C   0  0  0  0  0
    7.8830   24.2820   23.4490 C   0  0  0  0  0
    4.7560   26.9870   28.2620 C   0  0  0  0  0
    4.5250   27.4720   29.5480 C   0  0  0  0  0
    4.4190   26.6340   30.6110 O   0  0  0  0  0
    4.3940   28.8460   29.7820 C   0  0  0  0  0
    4.1670   29.2600   31.0630 O   0  0  0  0  0
    4.4950   29.7440   28.7230 C   0  0  0  0  0
    4.7300   29.2620   27.4330 C   0  0  0  0  0
    4.8470   27.8830   27.1890 C   0  0  0  0  0
    5.1020   27.3920   25.9050 C   0  0  0  0  0
    6.0570   26.4020   25.8310 O   0  0  0  0  0
    8.8620   23.3180   23.4630 O   0  0  0  0  0
    9.3280   22.3950   22.8110 C   0  0  0  0  0
    5.7510   26.1200   21.0960 O   0  0  0  0  0
    4.8680   27.2850   23.4770 C   0  0  0  0  0
    4.3090   27.6920   22.4560 O   0  0  0  0  0
    4.5170   27.8230   24.7090 C   0  0  0  0  0
    3.5590   28.7910   24.7280 O   0  0  0  0  0
    7.6303   24.2650   21.3098 H   0  0  0  0  0
    7.8779   24.5342   25.5860 H   0  0  0  0  0
    4.8653   25.9159   28.0920 H   0  0  0  0  0
    4.2614   27.1470   31.4070 H   0  0  0  0  0
    4.0982   30.2174   31.0812 H   0  0  0  0  0
    4.3915   30.8147   28.8990 H   0  0  0  0  0
    4.8238   29.9646   26.6050 H   0  0  0  0  0
    8.5569   21.6423   22.6466 H   0  0  0  0  0
    9.6804   22.7717   21.8508 H   0  0  0  0  0
   10.1608   21.9508   23.3562 H   0  0  0  0  0
    5.0978   26.7966   21.2886 H   0  0  0  0  0
    3.2660   28.9673   23.8310 H   0  0  0  0  0
  2  1  4  0  0  0
  6  1  4  0  0  0
  3  2  4  0  0  0
  2 19  1  0  0  0
  4  3  4  0  0  0
  3 20  1  0  0  0
  4  5  4  0  0  0
 16  4  1  0  0  0
  5  6  4  0  0  0
  6 17  1  0  0  0
  7  8  4  0  0  0
 14  7  4  0  0  0
  8  9  1  0  0  0
  8 10  4  0  0  0
 10 11  1  0  0  0
 12 10  4  0  0  0
 13 12  4  0  0  0
 14 13  4  0  0  0
 15 14  1  0  0  0
 15 16  1  0  0  0
 15 22  2  0  0  0
 17 18  1  0  0  0
 20 21  2  0  0  0
 20 22  1  0  0  0
 22 23  1  0  0  0
  1 24  1  0  0  0
  5 25  1  0  0  0
  7 26  1  0  0  0
  9 27  1  0  0  0
 11 28  1  0  0  0
 12 29  1  0  0  0
 13 30  1  0  0  0
 18 31  1  0  0  0
 18 32  1  0  0  0
 18 33  1  0  0  0
 19 34  1  0  0  0
 23 35  1  0  0  0
M  END
$$$$
