5ewa_ligand
  -I-interpret- 

 31 32  0  0  0  0  0  0  0  0999 V2000
    6.4840   -3.3280  -43.1810 O   0  0  0  0  0
    5.6140   -3.7090  -42.3710 C   0  0  0  0  0
    5.2290   -2.9920  -41.4200 O   0  0  0  0  0
    5.0380   -5.0830  -42.5960 C   0  0  0  0  0
    4.6930   -5.8740  -41.4020 N   0  3  0  0  0
    5.6880   -6.2420  -40.4600 C   0  0  0  0  0
    5.4360   -5.1720  -39.3840 C   0  0  0  0  0
    5.7580   -5.8390  -37.7600 S   0  0  0  0  0
    5.2030   -7.8880  -40.0860 S   0  0  0  0  0
    3.5970   -7.8740  -40.7830 C   0  0  0  0  0
    3.3640   -6.4090  -41.1790 C   0  0  0  0  0
    2.6270   -6.1640  -42.7510 S   0  0  0  0  0
    3.7970   -5.0440  -43.4860 C   0  0  0  0  0
    3.1910   -3.6280  -43.5200 C   0  0  0  0  0
    4.2640   -5.4800  -44.8840 C   0  0  0  0  0
    4.5605   -3.4622  -40.9164 H   0  0  0  0  0
    5.8775   -5.5891  -43.0727 H   0  0  0  0  0
    4.4873   -4.8781  -41.4815 H   0  0  0  0  0
    6.7529   -6.2586  -40.6919 H   0  0  0  0  0
    4.3955   -4.8518  -39.4373 H   0  0  0  0  0
    6.1013   -4.3267  -39.5599 H   0  0  0  0  0
    5.5349   -4.9003  -36.8447 H   0  0  0  0  0
    2.8436   -8.2329  -40.0818 H   0  0  0  0  0
    3.5159   -8.5464  -41.6370 H   0  0  0  0  0
    2.7313   -5.9741  -40.4053 H   0  0  0  0  0
    2.2750   -3.6403  -44.1106 H   0  0  0  0  0
    2.9650   -3.3064  -42.5033 H   0  0  0  0  0
    3.9058   -2.9390  -43.9700 H   0  0  0  0  0
    4.7425   -6.4571  -44.8175 H   0  0  0  0  0
    3.4038   -5.5399  -45.5508 H   0  0  0  0  0
    4.9757   -4.7511  -45.2716 H   0  0  0  0  0
  1  2  2  0  0  0
  2  3  1  0  0  0
  2  4  1  0  0  0
  4  5  1  0  0  0
  4 13  1  0  0  0
  5  6  1  0  0  0
  5 11  1  0  0  0
  6  7  1  0  0  0
  6  9  1  0  0  0
  7  8  1  0  0  0
  9 10  1  0  0  0
 10 11  1  0  0  0
 11 12  1  0  0  0
 12 13  1  0  0  0
 13 14  1  0  0  0
 13 15  1  0  0  0
  3 16  1  0  0  0
  4 17  1  0  0  0
  5 18  1  0  0  0
  6 19  1  0  0  0
  7 20  1  0  0  0
  7 21  1  0  0  0
  8 22  1  0  0  0
 10 23  1  0  0  0
 10 24  1  0  0  0
 11 25  1  0  0  0
 14 26  1  0  0  0
 14 27  1  0  0  0
 14 28  1  0  0  0
 15 29  1  0  0  0
 15 30  1  0  0  0
 15 31  1  0  0  0
M  END
$$$$
