1jlx_ligand
  -I-interpret- 

 64 66  0  0  0  0  0  0  0  0999 V2000
   54.4680   88.3880  -31.3650 C   0  0  0  0  0
   54.1410   87.0000  -31.8680 C   0  0  0  0  0
   53.0150   87.0570  -32.8950 C   0  0  0  0  0
   51.8130   87.7140  -32.2780 C   0  0  0  0  0
   52.1740   89.0700  -31.6540 C   0  0  0  0  0
   51.0160   89.6280  -30.8610 C   0  0  0  0  0
   55.2960   86.4320  -32.4490 O   0  0  0  0  0
   52.6550   85.7400  -33.2890 O   0  0  0  0  0
   51.2730   86.8400  -31.3070 O   0  0  0  0  0
   53.3060   88.9650  -30.7480 O   0  0  0  0  0
   51.3090   90.9360  -30.4130 O   0  0  0  0  0
   58.6450   90.1050  -29.5090 C   0  0  0  0  0
   57.7190   88.9110  -29.6630 C   0  0  0  0  0
   56.4200   89.3860  -30.3240 C   0  0  0  0  0
   55.8040   90.5250  -29.5200 C   0  0  0  0  0
   56.8140   91.6280  -29.2610 C   0  0  0  0  0
   56.3000   92.6510  -28.2690 C   0  0  0  0  0
   58.5600   86.6750  -29.9900 C   0  0  0  0  0
   59.2060   85.6570  -30.9180 C   0  0  0  0  0
   58.3510   87.8920  -30.4780 N   0  0  0  0  0
   58.9630   90.6240  -30.7780 O   0  0  0  0  0
   55.4880   88.2930  -30.4150 O   0  0  0  0  0
   55.3480   90.0250  -28.2820 O   0  0  0  0  0
   58.0120   91.0740  -28.6950 O   0  0  0  0  0
   55.0610   93.2130  -28.6840 O   0  0  0  0  0
   58.2760   86.3830  -28.8270 O   0  0  0  0  0
   60.2570   91.2380  -30.9430 C   0  0  0  0  0
   61.4180   90.3020  -31.1920 C   0  0  0  0  0
   61.2080   89.0660  -31.7870 C   0  0  0  0  0
   62.2330   88.1750  -31.9220 C   0  0  0  0  0
   63.4960   88.5030  -31.4660 C   0  0  0  0  0
   63.7220   89.7290  -30.8860 C   0  0  0  0  0
   62.6900   90.6200  -30.7530 C   0  0  0  0  0
   54.7846   89.0150  -32.1985 H   0  0  0  0  0
   53.8118   86.3845  -31.0309 H   0  0  0  0  0
   53.3538   87.6235  -33.7625 H   0  0  0  0  0
   51.0717   87.9099  -33.0527 H   0  0  0  0  0
   52.4244   89.7274  -32.4866 H   0  0  0  0  0
   50.8376   88.9887  -29.9964 H   0  0  0  0  0
   50.1327   89.6612  -31.4988 H   0  0  0  0  0
   55.9988   86.4002  -31.7958 H   0  0  0  0  0
   53.4145   85.3070  -33.6857 H   0  0  0  0  0
   51.0554   86.0008  -31.7192 H   0  0  0  0  0
   50.5642   91.2756  -29.9116 H   0  0  0  0  0
   59.5768   89.8052  -29.0294 H   0  0  0  0  0
   57.5018   88.4802  -28.6856 H   0  0  0  0  0
   56.6488   89.7466  -31.3269 H   0  0  0  0  0
   54.9774   90.9403  -30.0966 H   0  0  0  0  0
   57.0007   92.1065  -30.2224 H   0  0  0  0  0
   57.0328   93.4544  -28.1946 H   0  0  0  0  0
   56.1468   92.1530  -27.3116 H   0  0  0  0  0
   60.1587   85.3362  -30.4965 H   0  0  0  0  0
   58.5466   84.7958  -31.0259 H   0  0  0  0  0
   59.3739   86.1122  -31.8941 H   0  0  0  0  0
   58.6369   88.1114  -31.4322 H   0  0  0  0  0
   54.9593   90.7401  -27.7730 H   0  0  0  0  0
   54.7678   93.8545  -28.0328 H   0  0  0  0  0
   60.1819   91.8695  -31.8283 H   0  0  0  0  0
   60.4734   91.7455  -30.0030 H   0  0  0  0  0
   60.2142   88.8041  -32.1503 H   0  0  0  0  0
   62.0559   87.2061  -32.3888 H   0  0  0  0  0
   64.3135   87.7891  -31.5663 H   0  0  0  0  0
   64.7194   89.9912  -30.5331 H   0  0  0  0  0
   62.8739   91.5920  -30.2953 H   0  0  0  0  0
  1 10  1  0  0  0
  1  2  1  0  0  0
  2  7  1  0  0  0
  2  3  1  0  0  0
  3  8  1  0  0  0
  3  4  1  0  0  0
  4  9  1  0  0  0
  5  4  1  0  0  0
 10  5  1  0  0  0
  5  6  1  0  0  0
  6 11  1  0  0  0
 12 24  1  0  0  0
 12 21  1  0  0  0
 13 12  1  0  0  0
 13 20  1  0  0  0
 14 13  1  0  0  0
 22 14  1  0  0  0
 14 15  1  0  0  0
 15 23  1  0  0  0
 15 16  1  0  0  0
 16 24  1  0  0  0
 16 17  1  0  0  0
 17 25  1  0  0  0
 20 18  1  0  0  0
 18 26  2  0  0  0
 18 19  1  0  0  0
 27 28  1  0  0  0
 28 33  4  0  0  0
 28 29  4  0  0  0
 29 30  4  0  0  0
 30 31  4  0  0  0
 32 31  4  0  0  0
 33 32  4  0  0  0
 21 27  1  0  0  0
 22  1  1  0  0  0
  1 34  1  0  0  0
  2 35  1  0  0  0
  3 36  1  0  0  0
  4 37  1  0  0  0
  5 38  1  0  0  0
  6 39  1  0  0  0
  6 40  1  0  0  0
  7 41  1  0  0  0
  8 42  1  0  0  0
  9 43  1  0  0  0
 11 44  1  0  0  0
 12 45  1  0  0  0
 13 46  1  0  0  0
 14 47  1  0  0  0
 15 48  1  0  0  0
 16 49  1  0  0  0
 17 50  1  0  0  0
 17 51  1  0  0  0
 19 52  1  0  0  0
 19 53  1  0  0  0
 19 54  1  0  0  0
 20 55  1  0  0  0
 23 56  1  0  0  0
 25 57  1  0  0  0
 27 58  1  0  0  0
 27 59  1  0  0  0
 29 60  1  0  0  0
 30 61  1  0  0  0
 31 62  1  0  0  0
 32 63  1  0  0  0
 33 64  1  0  0  0
M  END
$$$$
