3pkd_ligand
  -I-interpret- 

 58 59  0  0  0  0  0  0  0  0999 V2000
   25.0240   -3.7110   11.1940 N   0  0  0  0  0
   25.5920    1.9260   15.2210 O   0  0  0  0  0
   26.3730   -1.6360   13.3520 O   0  0  0  0  0
   24.9880   -0.6680   15.3290 O   0  0  0  0  0
   23.9870   -1.8900   10.2950 O   0  0  0  0  0
   22.8750   -1.2990   12.6910 O   0  0  0  0  0
   25.8490    3.0370   10.4920 C   0  0  0  0  0
   26.1540    2.2770   11.7630 C   0  0  0  0  0
   25.2870    2.1310   12.7760 C   0  0  0  0  0
   25.7650    1.2360   13.9130 C   0  0  0  0  0
   24.8190    0.0280   14.0460 C   0  0  0  0  0
   25.1640   -0.9640   12.9270 C   0  0  0  0  0
   24.0740   -2.0460   12.6550 C   0  0  0  0  0
   24.4960    3.7400   10.5120 C   0  0  0  0  0
   25.8560    2.0120    9.3610 C   0  0  0  0  0
   26.9550    4.0740   10.2270 C   0  0  0  0  0
   24.3420   -2.5670   11.2900 C   0  0  0  0  0
   25.4710   -4.2520    9.9480 C   0  0  0  0  0
   26.1630   -5.6050   10.2410 C   0  0  0  0  0
   27.2130   -5.7040    9.2000 C   0  0  0  0  0
   27.4420   -4.4880    8.6190 C   0  0  0  0  0
   26.5020   -3.4370    9.1840 C   0  0  0  0  0
   27.9430   -6.8940    8.8750 C   0  0  0  0  0
   28.9530   -6.7410    7.8840 C   0  0  0  0  0
   29.1240   -5.4810    7.2720 C   0  0  0  0  0
   28.3910   -4.3080    7.5930 C   0  0  0  0  0
   21.7350   -2.1770   12.7850 C   0  0  0  0  0
   25.2362   -4.2233   12.0501 H   0  0  0  0  0
   25.8967    1.3516   15.9273 H   0  0  0  0  0
   26.6357   -2.2729   12.6835 H   0  0  0  0  0
   24.3821   -1.4114   15.3707 H   0  0  0  0  0
   27.1385    1.8198   11.8621 H   0  0  0  0  0
   24.3115    2.6172   12.7853 H   0  0  0  0  0
   26.8001    0.9719   13.6962 H   0  0  0  0  0
   23.7925    0.3892   13.9840 H   0  0  0  0  0
   25.2606   -0.4033   11.9973 H   0  0  0  0  0
   24.0443   -2.8865   13.3484 H   0  0  0  0  0
   23.7061    3.0013   10.6482 H   0  0  0  0  0
   24.4718    4.4554   11.3340 H   0  0  0  0  0
   24.3463    4.2640    9.5680 H   0  0  0  0  0
   26.8367    1.5393    9.3068 H   0  0  0  0  0
   25.0964    1.2545    9.5541 H   0  0  0  0  0
   25.6399    2.5127    8.4172 H   0  0  0  0  0
   27.0042    4.7724   11.0624 H   0  0  0  0  0
   27.9123    3.5635   10.1217 H   0  0  0  0  0
   26.7290    4.6180    9.3099 H   0  0  0  0  0
   24.5732   -4.2964    9.3315 H   0  0  0  0  0
   25.4656   -6.4419   10.2050 H   0  0  0  0  0
   26.5755   -5.6482   11.2490 H   0  0  0  0  0
   27.0167   -2.7159    9.8190 H   0  0  0  0  0
   26.0520   -2.8195    8.4066 H   0  0  0  0  0
   27.7384   -7.8513    9.3544 H   0  0  0  0  0
   29.5844   -7.5836    7.6022 H   0  0  0  0  0
   29.8794   -5.4018    6.4902 H   0  0  0  0  0
   28.5483   -3.3536    7.0906 H   0  0  0  0  0
   21.7149   -2.8382   11.9187 H   0  0  0  0  0
   21.8099   -2.7713   13.6956 H   0  0  0  0  0
   20.8216   -1.5828   12.8115 H   0  0  0  0  0
 17  1  1  0  0  0
  1 18  1  0  0  0
 10  2  1  0  0  0
 12  3  1  0  0  0
 11  4  1  0  0  0
 17  5  2  0  0  0
 13  6  1  0  0  0
  6 27  1  0  0  0
  8  7  1  0  0  0
  7 14  1  0  0  0
  7 15  1  0  0  0
  7 16  1  0  0  0
  9  8  2  0  0  0
 10  9  1  0  0  0
 11 10  1  0  0  0
 12 11  1  0  0  0
 13 12  1  0  0  0
 13 17  1  0  0  0
 18 19  1  0  0  0
 18 22  1  0  0  0
 19 20  1  0  0  0
 20 21  4  0  0  0
 20 23  4  0  0  0
 21 22  1  0  0  0
 21 26  4  0  0  0
 23 24  4  0  0  0
 24 25  4  0  0  0
 25 26  4  0  0  0
  1 28  1  0  0  0
  2 29  1  0  0  0
  3 30  1  0  0  0
  4 31  1  0  0  0
  8 32  1  0  0  0
  9 33  1  0  0  0
 10 34  1  0  0  0
 11 35  1  0  0  0
 12 36  1  0  0  0
 13 37  1  0  0  0
 14 38  1  0  0  0
 14 39  1  0  0  0
 14 40  1  0  0  0
 15 41  1  0  0  0
 15 42  1  0  0  0
 15 43  1  0  0  0
 16 44  1  0  0  0
 16 45  1  0  0  0
 16 46  1  0  0  0
 18 47  1  0  0  0
 19 48  1  0  0  0
 19 49  1  0  0  0
 22 50  1  0  0  0
 22 51  1  0  0  0
 23 52  1  0  0  0
 24 53  1  0  0  0
 25 54  1  0  0  0
 26 55  1  0  0  0
 27 56  1  0  0  0
 27 57  1  0  0  0
 27 58  1  0  0  0
M  END
$$$$
