5w2s_ligand
  -I-interpret- 

 34 35  0  0  0  0  0  0  0  0999 V2000
   20.0360  -18.2440  -42.0440 C   0  0  0  0  0
   20.2430  -19.2150  -43.2030 C   0  0  0  0  0
   20.5850  -21.0740  -44.4060 C   0  0  0  0  0
   20.4480  -20.6390  -43.0980 C   0  0  0  0  0
   20.5240  -21.5660  -42.0300 C   0  0  0  0  0
   20.7400  -22.9170  -42.3070 C   0  0  0  0  0
   21.1560  -22.4060  -38.7440 C   0  0  0  0  0
   22.2680  -23.0970  -37.9620 C   0  0  0  0  0
   23.2870  -22.1020  -37.4080 C   0  0  0  0  0
   24.3580  -22.7920  -36.5670 C   0  0  0  0  0
   20.8790  -23.3560  -43.6360 C   0  0  0  0  0
   20.8050  -22.4460  -44.6840 C   0  0  0  0  0
   20.2660  -18.8860  -44.4850 N   0  0  0  0  0
   20.4720  -19.9940  -45.2070 N   0  0  0  0  0
   20.8310  -23.8920  -41.2370 N   0  0  0  0  0
   20.0820  -24.8930  -38.9650 O   0  0  0  0  0
   18.7800  -23.1970  -39.7650 O   0  0  0  0  0
   20.1780  -23.6230  -39.6820 S   0  0  0  0  0
   19.1468  -18.5332  -41.4838 H   0  0  0  0  0
   20.9058  -18.2729  -41.3877 H   0  0  0  0  0
   19.9080  -17.2348  -42.4356 H   0  0  0  0  0
   20.4147  -21.2272  -40.9998 H   0  0  0  0  0
   21.6031  -21.6989  -39.4427 H   0  0  0  0  0
   20.4994  -21.8909  -38.0429 H   0  0  0  0  0
   22.7885  -23.7746  -38.6388 H   0  0  0  0  0
   21.8155  -23.6230  -37.1214 H   0  0  0  0  0
   22.7593  -21.3908  -36.7725 H   0  0  0  0  0
   23.7768  -21.6108  -38.2488 H   0  0  0  0  0
   23.8861  -23.3014  -35.7268 H   0  0  0  0  0
   24.8891  -23.5184  -37.1821 H   0  0  0  0  0
   25.0608  -22.0471  -36.1937 H   0  0  0  0  0
   21.0452  -24.4128  -43.8447 H   0  0  0  0  0
   20.9156  -22.7857  -45.7138 H   0  0  0  0  0
   21.3053  -24.7761  -41.4211 H   0  0  0  0  0
  2  1  1  0  0  0
  4  2  4  0  0  0
  2 13  4  0  0  0
  4  3  4  0  0  0
 12  3  4  0  0  0
  3 14  4  0  0  0
  5  4  4  0  0  0
  6  5  4  0  0  0
  6 11  4  0  0  0
 15  6  1  0  0  0
  7  8  1  0  0  0
 18  7  1  0  0  0
  8  9  1  0  0  0
  9 10  1  0  0  0
 11 12  4  0  0  0
 14 13  4  0  0  0
 15 18  1  0  0  0
 18 16  2  0  0  0
 18 17  2  0  0  0
  1 19  1  0  0  0
  1 20  1  0  0  0
  1 21  1  0  0  0
  5 22  1  0  0  0
  7 23  1  0  0  0
  7 24  1  0  0  0
  8 25  1  0  0  0
  8 26  1  0  0  0
  9 27  1  0  0  0
  9 28  1  0  0  0
 10 29  1  0  0  0
 10 30  1  0  0  0
 10 31  1  0  0  0
 11 32  1  0  0  0
 12 33  1  0  0  0
 15 34  1  0  0  0
M  END
$$$$
