4wsy_ligand
  -I-interpret- 

 37 41  0  0  0  0  0  0  0  0999 V2000
   22.8820  -40.0570   -2.3950 C   0  0  0  0  0
   23.0150  -40.2420   -3.7660 C   0  0  0  0  0
   24.1900  -40.7770   -4.2870 C   0  0  0  0  0
   24.3100  -40.9660   -5.6650 C   0  0  0  0  0
   23.2590  -40.6160   -6.5070 C   0  0  0  0  0
   22.0820  -40.0780   -5.9840 C   0  0  0  0  0
   21.9680  -39.9000   -4.6140 C   0  0  0  0  0
   20.8400  -39.3810   -4.1130 N   0  0  0  0  0
   20.6890  -39.1920   -2.8080 C   0  0  0  0  0
   21.7040  -39.5030   -1.9010 C   0  0  0  0  0
   21.5070  -39.3270   -0.5250 C   0  0  0  0  0
   20.6530  -38.3960    0.0280 C   0  0  0  0  0
   19.8450  -37.4030   -0.4900 C   0  0  0  0  0
   22.0150  -40.0340    0.4890 N   0  0  0  0  0
   21.5700  -39.6160    1.5690 N   0  0  0  0  0
   20.7360  -38.6090    1.3840 C   0  0  0  0  0
   20.0050  -37.8400    2.2580 C   0  0  0  0  0
   19.1850  -36.8430    1.7620 C   0  0  0  0  0
   19.1270  -36.6190    0.3900 C   0  0  0  0  0
   18.2780  -35.6550   -0.1020 C   0  0  0  0  0
   17.9690  -35.5390   -1.7350 S   0  0  0  0  0
   17.5230  -34.7550    0.5440 C   0  0  0  0  0
   16.7670  -33.9940   -0.2640 N   0  0  0  0  0
   16.9120  -34.3170   -1.5450 C   0  0  0  0  0
   16.2860  -33.7850   -2.5590 N   0  0  0  0  0
   23.6870  -40.3411   -1.7173 H   0  0  0  0  0
   25.0113  -41.0467   -3.6230 H   0  0  0  0  0
   25.2255  -41.3870   -6.0806 H   0  0  0  0  0
   23.3555  -40.7630   -7.5827 H   0  0  0  0  0
   21.2614  -39.8008   -6.6457 H   0  0  0  0  0
   19.7495  -38.7840   -2.4351 H   0  0  0  0  0
   19.7761  -37.2426   -1.5659 H   0  0  0  0  0
   20.0711  -38.0144    3.3319 H   0  0  0  0  0
   18.5874  -36.2360    2.4421 H   0  0  0  0  0
   17.5228  -34.6502    1.6290 H   0  0  0  0  0
   16.4539  -34.1345   -3.5024 H   0  0  0  0  0
   15.6288  -33.0197   -2.4081 H   0  0  0  0  0
  1  2  4  0  0  0
  1 10  4  0  0  0
  2  3  4  0  0  0
  2  7  4  0  0  0
  3  4  4  0  0  0
  4  5  4  0  0  0
  5  6  4  0  0  0
  6  7  4  0  0  0
  7  8  4  0  0  0
  8  9  4  0  0  0
  9 10  4  0  0  0
 10 11  1  0  0  0
 11 12  4  0  0  0
 11 14  4  0  0  0
 12 13  4  0  0  0
 12 16  4  0  0  0
 13 19  4  0  0  0
 14 15  4  0  0  0
 15 16  4  0  0  0
 16 17  4  0  0  0
 17 18  4  0  0  0
 18 19  4  0  0  0
 19 20  1  0  0  0
 20 21  4  0  0  0
 20 22  4  0  0  0
 21 24  4  0  0  0
 22 23  4  0  0  0
 23 24  4  0  0  0
 24 25  1  0  0  0
  1 26  1  0  0  0
  3 27  1  0  0  0
  4 28  1  0  0  0
  5 29  1  0  0  0
  6 30  1  0  0  0
  9 31  1  0  0  0
 13 32  1  0  0  0
 17 33  1  0  0  0
 18 34  1  0  0  0
 22 35  1  0  0  0
 25 36  1  0  0  0
 25 37  1  0  0  0
M  END
$$$$
