4tw8_ligand
  -I-interpret- 

131138  0  0  0  0  0  0  0  0999 V2000
    6.7510  -22.9770   60.2560 C   0  0  0  0  0
    6.2960  -23.7470   59.1870 C   0  0  0  0  0
    7.0990  -24.7720   58.6680 C   0  0  0  0  0
    6.6420  -25.5470   57.6010 C   0  0  0  0  0
    5.3830  -25.2950   57.0450 C   0  0  0  0  0
    4.9780  -25.9760   56.1040 O   0  0  0  0  0
    4.5750  -24.2750   57.5510 C   0  0  0  0  0
    5.0330  -23.5070   58.6210 C   0  0  0  0  0
    4.2540  -22.5000   59.1300 O   0  0  0  0  0
    4.6150  -21.8530   60.2850 C   0  0  0  0  0
    5.8700  -22.0850   60.8530 C   0  0  0  0  0
    6.2240  -21.4170   62.0240 C   0  0  0  0  0
    5.3230  -20.5270   62.6120 C   0  0  0  0  0
    4.0710  -20.3020   62.0280 C   0  0  0  0  0
    3.1700  -19.4330   62.5800 O   0  0  0  0  0
    3.6960  -20.9650   60.8500 C   0  0  0  0  0
    2.4460  -20.7520   60.2490 C   0  0  0  0  0
    2.6250  -19.9120   59.0490 N   0  0  0  0  0
    1.7240  -19.8050   58.0570 C   0  0  0  0  0
    0.6380  -20.3820   58.0300 O   0  0  0  0  0
    2.1420  -18.8700   56.9180 C   0  0  0  0  0
    2.0240  -19.5390   55.6540 O   0  0  0  0  0
    3.1960  -20.0340   55.1610 C   0  0  0  0  0
    4.4440  -19.5790   55.6120 C   0  0  0  0  0
    3.1380  -21.0160   54.1780 C   0  0  0  0  0
    4.3240  -21.5340   53.6610 C   0  0  0  0  0
    5.5670  -21.0810   54.1120 C   0  0  0  0  0
    5.6410  -20.1030   55.1090 C   0  0  0  0  0
    6.8860  -19.5950   55.5740 C   0  0  0  0  0
    7.8110  -20.6200   56.3060 C   0  0  0  0  0
    7.5360  -20.7240   57.8280 C   0  0  0  0  0
    8.3980  -20.0130   58.7130 C   0  0  0  0  0
    9.8010  -19.9440   58.6000 C   0  0  0  0  0
    7.7960  -19.3590   59.7880 C   0  0  0  0  0
    8.5380  -18.6380   60.7240 C   0  0  0  0  0
    9.9270  -18.5670   60.6110 C   0  0  0  0  0
   10.7160  -17.8680   61.4990 O   0  0  0  0  0
   10.5930  -18.3010   62.8920 C   0  0  0  0  0
   10.5660  -19.2230   59.5470 C   0  0  0  0  0
   11.9410  -19.1060   59.4730 O   0  0  0  0  0
   12.6930  -20.0060   60.3110 C   0  0  0  0  0
    7.5950  -19.0090   54.4460 O   0  0  0  0  0
    7.5410  -17.6390   54.3670 C   0  0  0  0  0
    7.2860  -16.9080   55.3240 O   0  0  0  0  0
    7.8560  -17.0780   53.1110 C   0  0  0  0  0
    7.1150  -15.7500   52.9060 C   0  0  0  0  0
    5.6330  -16.0230   52.6680 C   0  0  0  0  0
    5.4680  -16.7910   51.3710 C   0  0  0  0  0
    6.2090  -18.1300   51.4370 C   0  0  0  0  0
    7.5990  -18.0100   51.9740 N   0  0  0  0  0
    8.6420  -18.7160   51.4750 C   0  0  0  0  0
    9.7850  -18.6240   51.9220 O   0  0  0  0  0
    8.3660  -19.6780   50.3040 C   0  0  0  0  0
    9.6200  -19.7890   49.3850 C   0  0  0  0  0
    9.4380  -20.8340   48.2590 C   0  0  0  0  0
   10.6720  -20.8470   47.3580 C   0  0  0  0  0
   10.8800  -19.4750   46.7090 C   0  0  0  0  0
   10.5860  -18.4100   47.5740 C   0  0  0  0  0
    9.9730  -18.5470   48.8260 C   0  0  0  0  0
    7.9870  -20.9340   50.8040 C   0  0  0  0  0
    8.8440  -21.6780   51.6260 C   0  0  0  0  0
    6.7320  -21.4440   50.4640 C   0  0  0  0  0
    6.3320  -22.6950   50.9350 C   0  0  0  0  0
    5.1140  -23.2440   50.6400 O   0  0  0  0  0
    4.9840  -23.5980   49.2540 C   0  0  0  0  0
    7.1900  -23.4230   51.7640 C   0  0  0  0  0
    6.8040  -24.6520   52.2250 O   0  0  0  0  0
    6.1550  -24.6080   53.5000 C   0  0  0  0  0
    8.4480  -22.9260   52.1110 C   0  0  0  0  0
    9.2400  -23.7100   52.9110 O   0  0  0  0  0
    9.6360  -23.0840   54.1410 C   0  0  0  0  0
    7.7756  -23.0729   60.6154 H   0  0  0  0  0
    8.0818  -24.9641   59.0984 H   0  0  0  0  0
    7.2649  -26.3473   57.2015 H   0  0  0  0  0
    3.5956  -24.0809   57.1138 H   0  0  0  0  0
    7.1997  -21.5886   62.4786 H   0  0  0  0  0
    5.5957  -20.0054   63.5294 H   0  0  0  0  0
    2.3756  -19.4125   62.0414 H   0  0  0  0  0
    1.7814  -20.2503   60.9523 H   0  0  0  0  0
    2.0075  -21.7087   59.9652 H   0  0  0  0  0
    3.4896  -19.3771   58.9668 H   0  0  0  0  0
    3.1797  -18.5710   57.0663 H   0  0  0  0  0
    1.4914  -17.9954   56.9193 H   0  0  0  0  0
    4.4828  -18.7988   56.3722 H   0  0  0  0  0
    2.1753  -21.3767   53.8158 H   0  0  0  0  0
    4.2816  -22.3054   52.8920 H   0  0  0  0  0
    6.4821  -21.4915   53.6851 H   0  0  0  0  0
    6.6397  -18.8582   56.3386 H   0  0  0  0  0
    8.8393  -20.2805   56.1813 H   0  0  0  0  0
    7.6213  -21.6013   55.8710 H   0  0  0  0  0
    7.6717  -21.7768   58.0754 H   0  0  0  0  0
    6.5477  -20.2880   57.9741 H   0  0  0  0  0
   10.3016  -20.4510   57.7751 H   0  0  0  0  0
    6.7131  -19.4129   59.9002 H   0  0  0  0  0
    8.0320  -18.1295   61.5447 H   0  0  0  0  0
    9.5607  -18.1779   63.2196 H   0  0  0  0  0
   10.8782  -19.3500   62.9716 H   0  0  0  0  0
   11.2488  -17.6963   63.5184 H   0  0  0  0  0
   12.4278  -19.8359   61.3545 H   0  0  0  0  0
   12.4590  -21.0351   60.0385 H   0  0  0  0  0
   13.7588  -19.8252   60.1715 H   0  0  0  0  0
    8.9291  -16.8867   53.1176 H   0  0  0  0  0
    7.5314  -15.2323   52.0419 H   0  0  0  0  0
    7.2310  -15.1294   53.7945 H   0  0  0  0  0
    5.0932  -15.0782   52.6043 H   0  0  0  0  0
    5.2326  -16.6108   53.4940 H   0  0  0  0  0
    5.8826  -16.1986   50.5554 H   0  0  0  0  0
    4.4075  -16.9827   51.2073 H   0  0  0  0  0
    6.2805  -18.5177   50.4208 H   0  0  0  0  0
    5.6513  -18.7827   52.1086 H   0  0  0  0  0
    7.5474  -19.2866   49.7000 H   0  0  0  0  0
   10.4305  -20.1252   50.0316 H   0  0  0  0  0
    8.5617  -20.5740   47.6652 H   0  0  0  0  0
    9.3058  -21.8210   48.7022 H   0  0  0  0  0
   10.5291  -21.5906   46.5740 H   0  0  0  0  0
   11.5472  -21.0888   47.9611 H   0  0  0  0  0
   11.2208  -19.3402   45.6825 H   0  0  0  0  0
   10.8536  -17.4047   47.2486 H   0  0  0  0  0
   10.7343  -18.1772   49.5128 H   0  0  0  0  0
    9.0081  -18.0613   48.6804 H   0  0  0  0  0
    9.8245  -21.2805   51.8880 H   0  0  0  0  0
    6.0632  -20.8631   49.8289 H   0  0  0  0  0
    5.1055  -22.7059   48.6395 H   0  0  0  0  0
    5.7507  -24.3275   48.9932 H   0  0  0  0  0
    3.9975  -24.0282   49.0812 H   0  0  0  0  0
    6.8348  -24.1818   54.2378 H   0  0  0  0  0
    5.2597  -23.9903   53.4294 H   0  0  0  0  0
    5.8780  -25.6185   53.8003 H   0  0  0  0  0
   10.2002  -22.1777   53.9208 H   0  0  0  0  0
    8.7482  -22.8292   54.7198 H   0  0  0  0  0
   10.2592  -23.7715   54.7129 H   0  0  0  0  0
  1  2  2  0  0  0
  1 11  1  0  0  0
  2  3  1  0  0  0
  2  8  1  0  0  0
  3  4  2  0  0  0
  4  5  1  0  0  0
  5  6  2  0  0  0
  5  7  1  0  0  0
  7  8  2  0  0  0
  8  9  1  0  0  0
  9 10  1  0  0  0
 10 11  4  0  0  0
 10 16  4  0  0  0
 11 12  4  0  0  0
 12 13  4  0  0  0
 13 14  4  0  0  0
 14 15  1  0  0  0
 14 16  4  0  0  0
 16 17  1  0  0  0
 17 18  1  0  0  0
 18 19  1  0  0  0
 19 20  2  0  0  0
 19 21  1  0  0  0
 21 22  1  0  0  0
 22 23  1  0  0  0
 23 24  4  0  0  0
 23 25  4  0  0  0
 24 28  4  0  0  0
 25 26  4  0  0  0
 26 27  4  0  0  0
 27 28  4  0  0  0
 28 29  1  0  0  0
 29 30  1  0  0  0
 29 42  1  0  0  0
 30 31  1  0  0  0
 31 32  1  0  0  0
 32 33  4  0  0  0
 32 34  4  0  0  0
 33 39  4  0  0  0
 34 35  4  0  0  0
 35 36  4  0  0  0
 36 37  1  0  0  0
 36 39  4  0  0  0
 37 38  1  0  0  0
 39 40  1  0  0  0
 40 41  1  0  0  0
 42 43  1  0  0  0
 43 44  2  0  0  0
 43 45  1  0  0  0
 45 46  1  0  0  0
 45 50  1  0  0  0
 46 47  1  0  0  0
 47 48  1  0  0  0
 48 49  1  0  0  0
 49 50  1  0  0  0
 50 51  1  0  0  0
 51 52  2  0  0  0
 51 53  1  0  0  0
 53 54  1  0  0  0
 53 60  1  0  0  0
 54 55  1  0  0  0
 54 59  1  0  0  0
 55 56  1  0  0  0
 56 57  1  0  0  0
 57 58  2  0  0  0
 58 59  1  0  0  0
 60 61  4  0  0  0
 60 62  4  0  0  0
 61 69  4  0  0  0
 62 63  4  0  0  0
 63 64  1  0  0  0
 63 66  4  0  0  0
 64 65  1  0  0  0
 66 67  1  0  0  0
 66 69  4  0  0  0
 67 68  1  0  0  0
 69 70  1  0  0  0
 70 71  1  0  0  0
  1 72  1  0  0  0
  3 73  1  0  0  0
  4 74  1  0  0  0
  7 75  1  0  0  0
 12 76  1  0  0  0
 13 77  1  0  0  0
 15 78  1  0  0  0
 17 79  1  0  0  0
 17 80  1  0  0  0
 18 81  1  0  0  0
 21 82  1  0  0  0
 21 83  1  0  0  0
 24 84  1  0  0  0
 25 85  1  0  0  0
 26 86  1  0  0  0
 27 87  1  0  0  0
 29 88  1  0  0  0
 30 89  1  0  0  0
 30 90  1  0  0  0
 31 91  1  0  0  0
 31 92  1  0  0  0
 33 93  1  0  0  0
 34 94  1  0  0  0
 35 95  1  0  0  0
 38 96  1  0  0  0
 38 97  1  0  0  0
 38 98  1  0  0  0
 41 99  1  0  0  0
 41100  1  0  0  0
 41101  1  0  0  0
 45102  1  0  0  0
 46103  1  0  0  0
 46104  1  0  0  0
 47105  1  0  0  0
 47106  1  0  0  0
 48107  1  0  0  0
 48108  1  0  0  0
 49109  1  0  0  0
 49110  1  0  0  0
 53111  1  0  0  0
 54112  1  0  0  0
 55113  1  0  0  0
 55114  1  0  0  0
 56115  1  0  0  0
 56116  1  0  0  0
 57117  1  0  0  0
 58118  1  0  0  0
 59119  1  0  0  0
 59120  1  0  0  0
 61121  1  0  0  0
 62122  1  0  0  0
 65123  1  0  0  0
 65124  1  0  0  0
 65125  1  0  0  0
 68126  1  0  0  0
 68127  1  0  0  0
 68128  1  0  0  0
 71129  1  0  0  0
 71130  1  0  0  0
 71131  1  0  0  0
M  END
$$$$
