4nxu_ligand
  -I-interpret- 

 42 44  0  0  0  0  0  0  0  0999 V2000
   -5.0740  -26.8620  -11.9640 P   0  0  0  0  0
   -5.0350  -25.5020  -11.3190 O   0  0  0  0  0
   -4.3900  -26.9370  -13.3080 O   0  0  0  0  0
   -6.4310  -27.5170  -11.9170 O   0  0  0  0  0
   -4.4580  -28.1850   -9.4990 P   0  0  0  0  0
   -3.2680  -27.8730   -8.6250 O   0  0  0  0  0
   -5.8480  -27.7220   -9.1430 O   0  0  0  0  0
   -4.1390  -27.8000  -11.0370 O   0  0  0  0  0
   -4.5230  -29.7890   -9.6600 O   0  0  0  0  0
   -5.6970  -30.4320  -10.1150 C   0  0  0  0  0
   -5.4530  -31.9160  -10.1400 C   0  0  0  0  0
   -4.9830  -32.3400   -8.8570 O   0  0  0  0  0
   -6.7330  -32.6540  -10.4130 C   0  0  0  0  0
   -6.4850  -33.6500  -11.3950 O   0  0  0  0  0
   -7.1620  -33.2050   -9.0660 C   0  0  0  0  0
   -7.8500  -34.4440   -9.1270 O   0  0  0  0  0
   -5.8530  -33.3280   -8.2960 C   0  0  0  0  0
   -5.9880  -33.1200   -6.8180 N   0  0  0  0  0
   -6.7520  -32.1980   -6.1900 C   0  0  0  0  0
   -6.6270  -32.2970   -4.8380 N   0  0  0  0  0
   -5.7730  -33.2870   -4.5660 C   0  0  0  0  0
   -5.2120  -33.9020   -3.3430 C   0  0  0  0  0
   -5.5510  -33.4640   -2.1130 N   0  0  0  0  0
   -4.3390  -34.9340   -3.5310 N   0  0  0  0  0
   -4.0040  -35.3700   -4.7720 C   0  0  0  0  0
   -4.4830  -34.8500   -5.9130 N   0  0  0  0  0
   -5.3540  -33.8280   -5.8740 C   0  0  0  0  0
   -4.4581  -27.8310  -13.6510 H   0  0  0  0  0
   -6.3854  -28.3760  -12.3432 H   0  0  0  0  0
   -2.4769  -28.2502   -9.0168 H   0  0  0  0  0
   -5.9484  -30.0805  -11.1157 H   0  0  0  0  0
   -6.5276  -30.2038   -9.4470 H   0  0  0  0  0
   -4.7220  -32.1283  -10.9202 H   0  0  0  0  0
   -7.5339  -32.0368  -10.8202 H   0  0  0  0  0
   -7.2975  -34.1278  -11.5768 H   0  0  0  0  0
   -7.8921  -32.5481   -8.5932 H   0  0  0  0  0
   -8.0852  -34.7222   -8.2388 H   0  0  0  0  0
   -5.4719  -34.3444   -8.3952 H   0  0  0  0  0
   -7.3847  -31.4711   -6.6992 H   0  0  0  0  0
   -6.2087  -32.6912   -2.0101 H   0  0  0  0  0
   -5.1496  -33.9056   -1.2858 H   0  0  0  0  0
   -3.2988  -36.1978   -4.8470 H   0  0  0  0  0
  1  2  2  0  0  0
  1  3  1  0  0  0
  1  4  1  0  0  0
  8  1  1  0  0  0
  5  6  1  0  0  0
  5  7  2  0  0  0
  5  8  1  0  0  0
  5  9  1  0  0  0
  9 10  1  0  0  0
 10 11  1  0  0  0
 11 12  1  0  0  0
 11 13  1  0  0  0
 12 17  1  0  0  0
 13 14  1  0  0  0
 13 15  1  0  0  0
 15 16  1  0  0  0
 15 17  1  0  0  0
 17 18  1  0  0  0
 18 19  4  0  0  0
 18 27  4  0  0  0
 19 20  4  0  0  0
 20 21  4  0  0  0
 21 22  4  0  0  0
 21 27  4  0  0  0
 22 23  1  0  0  0
 22 24  4  0  0  0
 24 25  4  0  0  0
 25 26  4  0  0  0
 26 27  4  0  0  0
  3 28  1  0  0  0
  4 29  1  0  0  0
  6 30  1  0  0  0
 10 31  1  0  0  0
 10 32  1  0  0  0
 11 33  1  0  0  0
 13 34  1  0  0  0
 14 35  1  0  0  0
 15 36  1  0  0  0
 16 37  1  0  0  0
 17 38  1  0  0  0
 19 39  1  0  0  0
 23 40  1  0  0  0
 23 41  1  0  0  0
 25 42  1  0  0  0
M  END
$$$$
