### 
### Created by X-TOOL on Mon Sep 10 21:12:58 2018
### 

@<TRIPOS>MOLECULE
3e6v_ligand
   25    24     1     0     0
SMALL
GAST_HUCK


@<TRIPOS>ATOM
      1 N          26.0850   -9.9980   -4.6650 N.4       1 ABH         0.2327
      2 CA         25.9660  -10.0600   -6.1400 C.3       1 ABH         0.0283
      3 C          24.5180   -9.5620   -6.4670 C.2       1 ABH         0.0844
      4 O          24.0300   -9.4690   -7.5560 O.co2     1 ABH        -0.5643
      5 OT         23.8260   -9.2240   -5.3470 O.co2     1 ABH        -0.5643
      6 CB         26.2090  -11.5220   -6.6340 C.3       1 ABH         0.0024
      7 CG         25.0650  -12.5050   -6.4170 C.3       1 ABH        -0.0455
      8 CD         25.4790  -13.9580   -6.3220 C.3       1 ABH        -0.0391
      9 CE         24.2880  -14.8550   -5.9800 C.3       1 ABH         0.0528
     10 B          24.5650  -16.4070   -5.8270 Br        1 ABH         0.2050
     11 O2         23.3350  -17.1330   -5.6050 O.3       1 ABH        -0.1197
     12 O1         25.3780  -16.6580   -4.6670 O.3       1 ABH        -0.1197
     13 O3         25.2240  -17.0140   -6.9550 O.3       1 ABH        -0.1197
     14 H1         27.0032  -10.3089   -4.3887 H         1 ABH         0.2010
     15 H2         25.3883  -10.5941   -4.2463 H         1 ABH         0.2010
     16 H3         25.9446   -9.0488   -4.3562 H         1 ABH         0.2010
     17 H4         26.7052   -9.3952   -6.6108 H         1 ABH         0.1024
     18 H5         27.0914  -11.9123   -6.1058 H         1 ABH         0.0339
     19 H6         26.4161  -11.4813   -7.7136 H         1 ABH         0.0339
     20 H7         24.3643  -12.4043   -7.2589 H         1 ABH         0.0269
     21 H8         24.5550  -12.2337   -5.4809 H         1 ABH         0.0269
     22 H9         26.2428  -14.0622   -5.5373 H         1 ABH         0.0275
     23 H10        25.8999  -14.2744   -7.2878 H         1 ABH         0.0275
     24 H11        23.6763  -15.0114   -6.8807 H         1 ABH         0.0425
     25 H12        23.6779  -14.3735   -5.2016 H         1 ABH         0.0425
@<TRIPOS>BOND
     1    1    2 1  
     2    2    3 1  
     3    2    6 1  
     4    3    4 ar 
     5    3    5 ar 
     6    6    7 1  
     7    7    8 1  
     8    8    9 1  
     9    9   10 1  
    10   10   12 1  
    11   10   13 1  
    12    1   14 1  
    13    1   15 1  
    14    1   16 1  
    15    2   17 1  
    16    6   18 1  
    17    6   19 1  
    18    7   20 1  
    19    7   21 1  
    20    8   22 1  
    21    8   23 1  
    22   10   11 1  
    23    9   24 1  
    24    9   25 1  
@<TRIPOS>SUBSTRUCTURE
     1 ABH         1

