3e6v_ligand
  -I-interpret- 

 29 28  0  0  0  0  0  0  0  0999 V2000
   26.0850   -9.9980   -4.6650 N   0  3  0  0  0
   25.9660  -10.0600   -6.1400 C   0  0  0  0  0
   24.5180   -9.5620   -6.4670 C   0  0  0  0  0
   24.0300   -9.4690   -7.5560 O   0  0  0  0  0
   23.8260   -9.2240   -5.3470 O   0  0  0  0  0
   26.2090  -11.5220   -6.6340 C   0  0  0  0  0
   25.0650  -12.5050   -6.4170 C   0  0  0  0  0
   25.4790  -13.9580   -6.3220 C   0  0  0  0  0
   24.2880  -14.8550   -5.9800 C   0  0  0  0  0
   24.5650  -16.4070   -5.8270 Br  0  0  0  0  0
   23.3350  -17.1330   -5.6050 O   0  0  0  0  0
   25.3780  -16.6580   -4.6670 O   0  0  0  0  0
   25.2240  -17.0140   -6.9550 O   0  0  0  0  0
   25.9249   -9.0405   -4.3521 H   0  0  0  0  0
   25.3914  -10.6153   -4.2429 H   0  0  0  0  0
   27.0204  -10.2956   -4.3878 H   0  0  0  0  0
   26.7066   -9.4408   -6.6462 H   0  0  0  0  0
   24.3794   -9.3653   -4.5754 H   0  0  0  0  0
   27.0509  -11.9025   -6.0556 H   0  0  0  0  0
   26.3550  -11.4584   -7.7123 H   0  0  0  0  0
   24.4092  -12.4208   -7.2836 H   0  0  0  0  0
   24.6044  -12.2462   -5.4636 H   0  0  0  0  0
   26.2242  -14.0552   -5.5325 H   0  0  0  0  0
   25.8806  -14.2678   -7.2868 H   0  0  0  0  0
   23.5980  -14.7605   -6.8185 H   0  0  0  0  0
   23.9387  -14.5207   -5.0031 H   0  0  0  0  0
   23.5288  -18.0690   -5.5157 H   0  0  0  0  0
   25.5373  -17.6013   -4.5873 H   0  0  0  0  0
   25.3539  -17.9495   -6.7829 H   0  0  0  0  0
  1  2  1  0  0  0
  2  3  1  0  0  0
  2  6  1  0  0  0
  3  4  2  0  0  0
  3  5  1  0  0  0
  6  7  1  0  0  0
  7  8  1  0  0  0
  8  9  1  0  0  0
  9 10  1  0  0  0
 10 12  1  0  0  0
 10 13  1  0  0  0
 10 11  1  0  0  0
  1 14  1  0  0  0
  1 15  1  0  0  0
  1 16  1  0  0  0
  2 17  1  0  0  0
  5 18  1  0  0  0
  6 19  1  0  0  0
  6 20  1  0  0  0
  7 21  1  0  0  0
  7 22  1  0  0  0
  8 23  1  0  0  0
  8 24  1  0  0  0
  9 25  1  0  0  0
  9 26  1  0  0  0
 11 27  1  0  0  0
 12 28  1  0  0  0
 13 29  1  0  0  0
M  END
$$$$
