### 
### Created by X-TOOL on Mon Sep 10 21:12:55 2018
### 

@<TRIPOS>MOLECULE
2hmw_ligand
   43    45     1     0     0
SMALL
GAST_HUCK


@<TRIPOS>ATOM
      1 PG         47.4740   48.5180   19.0160 P.3       1 ATP         0.1879
      2 O1G        46.0210   48.5910   18.7480 O.co2     1 ATP        -0.6091
      3 O2G        47.8480   46.9780   19.2650 O.co2     1 ATP        -0.6091
      4 O3G        47.8510   49.3770   20.3280 O.co2     1 ATP        -0.6091
      5 PB         48.0380   50.6370   17.4700 P.3       1 ATP         0.3553
      6 O1B        48.5000   51.4460   18.6260 O.co2     1 ATP        -0.5652
      7 O2B        48.8640   51.0970   16.1690 O.co2     1 ATP        -0.5652
      8 O3B        48.3100   49.0550   17.7270 O.3       1 ATP        -0.1546
      9 PA         45.7650   51.8760   18.2370 P.3       1 ATP         0.3266
     10 O1A        46.3990   53.2270   18.1740 O.co2     1 ATP        -0.5692
     11 O2A        45.9290   51.2840   19.7300 O.co2     1 ATP        -0.5692
     12 O3A        46.4580   50.8650   17.1660 O.3       1 ATP        -0.1171
     13 N9         42.4670   54.7910   13.9310 N.pl3     1 ATP        -0.1919
     14 C8         42.9280   55.8010   14.7360 C.2       1 ATP         0.1123
     15 N7         42.1230   56.8250   14.6770 N.2       1 ATP        -0.2958
     16 C5         41.1020   56.5550   13.8270 C.ar      1 ATP         0.1045
     17 C6         39.9300   57.2520   13.3770 C.ar      1 ATP         0.1298
     18 N6         39.6620   58.5370   13.7870 N.pl3     1 ATP        -0.3152
     19 N1         39.1040   56.6470   12.5100 N.ar      1 ATP        -0.2698
     20 C2         39.3360   55.4010   12.0850 C.ar      1 ATP         0.0533
     21 N3         40.4130   54.7060   12.4810 N.ar      1 ATP        -0.2714
     22 C4         41.3000   55.2310   13.3560 C.ar      1 ATP         0.1613
     23 O5'        44.1820   51.9660   17.8830 O.3       1 ATP        -0.2441
     24 C5'        43.9880   52.8720   16.7920 C.3       1 ATP         0.1131
     25 C4'        43.8230   52.1000   15.4760 C.3       1 ATP         0.1189
     26 O4'        42.6450   52.5330   14.7400 O.3       1 ATP        -0.3364
     27 C3'        45.0210   52.3230   14.5470 C.3       1 ATP         0.1149
     28 O3'        45.2410   51.1530   13.7530 O.3       1 ATP        -0.3864
     29 C2'        44.6160   53.5440   13.7210 C.3       1 ATP         0.1385
     30 O2'        45.2020   53.5180   12.4100 O.3       1 ATP        -0.3836
     31 C1'        43.0680   53.4700   13.7080 C.3       1 ATP         0.2010
     32 H1         43.8348   55.7545   15.3372 H         1 ATP         0.1349
     33 H2         38.8154   59.0185   13.4519 H         1 ATP         0.1820
     34 H3         40.3079   59.0180   14.4292 H         1 ATP         0.1820
     35 H4         38.6337   54.9389   11.4007 H         1 ATP         0.0996
     36 H5         44.8604   53.5375   16.7144 H         1 ATP         0.0648
     37 H6         43.0844   53.4718   16.9757 H         1 ATP         0.0648
     38 H7         43.7342   51.0288   15.7098 H         1 ATP         0.0651
     39 H8         45.9313   52.5405   15.1250 H         1 ATP         0.0648
     40 H9         44.4669   50.9751   13.2319 H         1 ATP         0.2100
     41 H10        44.9408   54.4669   14.2238 H         1 ATP         0.0676
     42 H11        44.9142   52.7375   11.9511 H         1 ATP         0.2101
     43 H12        42.7371   53.0978   12.7272 H         1 ATP         0.0996
@<TRIPOS>BOND
     1    1    2 ar 
     2    1    3 ar 
     3    1    4 ar 
     4    8    1 1  
     5    5    6 ar 
     6    5    7 ar 
     7    5    8 1  
     8   12    5 1  
     9    9   10 ar 
    10    9   11 ar 
    11    9   12 1  
    12   23    9 1  
    13   13   14 1  
    14   13   22 1  
    15   31   13 1  
    16   14   15 2  
    17   16   15 1  
    18   16   17 ar 
    19   22   16 ar 
    20   17   18 1  
    21   17   19 ar 
    22   20   19 ar 
    23   21   20 ar 
    24   22   21 ar 
    25   24   23 1  
    26   25   24 1  
    27   26   25 1  
    28   25   27 1  
    29   26   31 1  
    30   27   28 1  
    31   27   29 1  
    32   29   30 1  
    33   29   31 1  
    34   14   32 1  
    35   18   33 1  
    36   18   34 1  
    37   20   35 1  
    38   24   36 1  
    39   24   37 1  
    40   25   38 1  
    41   27   39 1  
    42   28   40 1  
    43   29   41 1  
    44   30   42 1  
    45   31   43 1  
@<TRIPOS>SUBSTRUCTURE
     1 ATP         1

