2d41_ligand
  -I-interpret- 

 45 47  0  0  0  0  0  0  0  0999 V2000
    9.0610   32.4490   72.4310 C   0  0  0  0  0
    8.8610   33.1760   73.5840 C   0  0  0  0  0
    7.4890   33.5370   73.8300 C   0  0  0  0  0
    6.6630   33.0540   72.8140 C   0  0  0  0  0
    7.5930   32.1870   71.6260 S   0  0  0  0  0
    5.1930   33.2310   72.7220 C   0  0  0  0  0
    4.6080   32.7310   71.7430 O   0  0  0  0  0
    4.5800   33.8640   73.6070 O   0  0  0  0  0
    7.0370   34.2700   74.9450 N   0  0  0  0  0
    7.8650   35.5180   75.7150 S   0  0  0  0  0
    7.0040   36.1520   76.6860 O   0  0  0  0  0
    9.0630   34.9350   76.3010 O   0  0  0  0  0
    8.3010   36.7670   74.4830 C   0  0  0  0  0
    9.6810   36.9320   74.1700 C   0  0  0  0  0
   10.1080   37.8840   73.2120 C   0  0  0  0  0
    9.1630   38.6990   72.5400 C   0  0  0  0  0
    7.7820   38.5350   72.8510 C   0  0  0  0  0
    7.3250   37.5810   73.8130 C   0  0  0  0  0
    5.8310   37.4860   74.0660 C   0  0  0  0  0
    9.5970   39.7140   71.5210 C   0  0  0  0  0
   10.3490   31.9400   71.9220 C   0  0  0  0  0
   10.4980   30.8230   71.1280 C   0  0  0  0  0
   11.8410   30.5560   70.7840 C   0  0  0  0  0
   12.7230   31.4800   71.3220 C   0  0  0  0  0
   11.8710   32.6570   72.2370 S   0  0  0  0  0
   14.2080   31.4610   71.1380 C   0  0  0  0  0
   14.8470   30.3610   70.2990 C   0  0  0  0  0
   14.9220   32.3130   71.6490 O   0  0  0  0  0
    9.6740   33.4548   74.2544 H   0  0  0  0  0
    5.2030   34.1675   74.2714 H   0  0  0  0  0
    6.1221   34.0214   75.3213 H   0  0  0  0  0
   10.4221   36.3142   74.6772 H   0  0  0  0  0
   11.1699   37.9905   72.9902 H   0  0  0  0  0
    7.0492   39.1580   72.3381 H   0  0  0  0  0
    5.4870   36.4791   73.8294 H   0  0  0  0  0
    5.6267   37.7042   75.1142 H   0  0  0  0  0
    5.3104   38.2067   73.4354 H   0  0  0  0  0
   10.2645   40.4363   71.9910 H   0  0  0  0  0
   10.1194   39.2101   70.7078 H   0  0  0  0  0
    8.7209   40.2294   71.1275 H   0  0  0  0  0
    9.6615   30.2068   70.7983 H   0  0  0  0  0
   12.1504   29.7152   70.1632 H   0  0  0  0  0
   15.3794   30.8087   69.4599 H   0  0  0  0  0
   15.5466   29.7960   70.9150 H   0  0  0  0  0
   14.0705   29.6943   69.9241 H   0  0  0  0  0
  1  2  4  0  0  0
  1  5  4  0  0  0
  1 21  1  0  0  0
  2  3  4  0  0  0
  3  4  4  0  0  0
  3  9  1  0  0  0
  4  5  4  0  0  0
  4  6  1  0  0  0
  6  7  2  0  0  0
  6  8  1  0  0  0
  9 10  1  0  0  0
 10 11  2  0  0  0
 10 12  2  0  0  0
 10 13  1  0  0  0
 13 14  4  0  0  0
 13 18  4  0  0  0
 14 15  4  0  0  0
 15 16  4  0  0  0
 16 17  4  0  0  0
 16 20  1  0  0  0
 17 18  4  0  0  0
 18 19  1  0  0  0
 21 22  4  0  0  0
 21 25  4  0  0  0
 22 23  4  0  0  0
 23 24  4  0  0  0
 24 25  4  0  0  0
 24 26  1  0  0  0
 26 27  1  0  0  0
 26 28  2  0  0  0
  2 29  1  0  0  0
  8 30  1  0  0  0
  9 31  1  0  0  0
 14 32  1  0  0  0
 15 33  1  0  0  0
 17 34  1  0  0  0
 19 35  1  0  0  0
 19 36  1  0  0  0
 19 37  1  0  0  0
 20 38  1  0  0  0
 20 39  1  0  0  0
 20 40  1  0  0  0
 22 41  1  0  0  0
 23 42  1  0  0  0
 27 43  1  0  0  0
 27 44  1  0  0  0
 27 45  1  0  0  0
M  END
$$$$
