6chq_ligand
  -I-interpret- 

 44 47  0  0  0  0  0  0  0  0999 V2000
   38.5700  168.9960   49.3530 C   0  0  0  0  0
   39.3520  169.6120   50.3310 C   0  0  0  0  0
   38.7960  170.1670   51.4720 C   0  0  0  0  0
   34.5970  169.9120   55.6690 C   0  0  0  0  0
   34.6490  171.9790   56.1420 C   0  0  0  0  0
   34.2870  173.2540   56.8390 C   0  0  0  0  0
   33.5440  174.1900   55.9160 C   0  0  0  0  0
   34.2400  175.0680   55.0910 C   0  0  0  0  0
   33.5790  175.7870   54.1060 C   0  0  0  0  0
   32.2120  175.6540   53.9470 C   0  0  0  0  0
   31.5050  174.8110   54.7830 C   0  0  0  0  0
   32.1650  174.0890   55.7650 C   0  0  0  0  0
   36.1690  168.0320   48.5320 Cl  0  0  0  0  0
   37.1880  168.9530   49.5920 C   0  0  0  0  0
   39.1980  168.4590   48.0930 C   0  0  0  0  0
   36.6070  169.5350   50.7050 C   0  0  0  0  0
   37.4200  170.1300   51.6690 C   0  0  0  0  0
   36.8610  170.6270   52.8740 N   0  0  0  0  0
   36.1390  169.9060   53.8240 C   0  0  0  0  0
   35.4360  170.5720   54.7980 N   0  0  0  0  0
   34.4000  168.5880   55.6240 N   0  0  0  0  0
   35.0860  167.9150   54.7090 C   0  0  0  0  0
   34.8160  166.4480   54.6150 C   0  0  0  0  0
   35.9750  168.5320   53.8150 C   0  0  0  0  0
   35.4690  171.9150   55.1010 N   0  0  0  0  0
   34.0930  170.7930   56.5350 N   0  0  0  0  0
   40.4323  169.6578   50.1930 H   0  0  0  0  0
   39.4392  170.6342   52.2177 H   0  0  0  0  0
   35.2042  173.7438   57.1661 H   0  0  0  0  0
   33.6427  173.0166   57.6855 H   0  0  0  0  0
   35.3152  175.1921   55.2200 H   0  0  0  0  0
   34.1389  176.4588   53.4554 H   0  0  0  0  0
   31.6946  176.2113   53.1661 H   0  0  0  0  0
   30.4253  174.7135   54.6699 H   0  0  0  0  0
   31.5970  173.4347   56.4263 H   0  0  0  0  0
   39.6872  169.2724   47.5572 H   0  0  0  0  0
   39.9342  167.6979   48.3514 H   0  0  0  0  0
   38.4253  168.0196   47.4622 H   0  0  0  0  0
   35.5239  169.5284   50.8270 H   0  0  0  0  0
   37.0024  171.6187   53.0663 H   0  0  0  0  0
   35.0491  165.9751   55.5690 H   0  0  0  0  0
   33.7647  166.2880   54.3759 H   0  0  0  0  0
   35.4381  166.0148   53.8317 H   0  0  0  0  0
   36.5404  167.9243   53.1084 H   0  0  0  0  0
  2  1  4  0  0  0
 14  1  4  0  0  0
  1 15  1  0  0  0
  3  2  4  0  0  0
 17  3  4  0  0  0
 20  4  4  0  0  0
  4 21  4  0  0  0
  4 26  4  0  0  0
  5  6  1  0  0  0
  5 25  4  0  0  0
 26  5  4  0  0  0
  6  7  1  0  0  0
  7  8  4  0  0  0
  7 12  4  0  0  0
  8  9  4  0  0  0
  9 10  4  0  0  0
 11 10  4  0  0  0
 12 11  4  0  0  0
 14 13  1  0  0  0
 16 14  4  0  0  0
 17 16  4  0  0  0
 18 17  1  0  0  0
 19 18  1  0  0  0
 19 20  4  0  0  0
 19 24  4  0  0  0
 20 25  4  0  0  0
 21 22  4  0  0  0
 22 23  1  0  0  0
 22 24  4  0  0  0
  2 27  1  0  0  0
  3 28  1  0  0  0
  6 29  1  0  0  0
  6 30  1  0  0  0
  8 31  1  0  0  0
  9 32  1  0  0  0
 10 33  1  0  0  0
 11 34  1  0  0  0
 12 35  1  0  0  0
 15 36  1  0  0  0
 15 37  1  0  0  0
 15 38  1  0  0  0
 16 39  1  0  0  0
 18 40  1  0  0  0
 23 41  1  0  0  0
 23 42  1  0  0  0
 23 43  1  0  0  0
 24 44  1  0  0  0
M  END
$$$$
