6ct7_ligand
  -I-interpret- 

172172  0  0  0  0  0  0  0  0999 V2000
   17.6280   -4.8780    9.7220 C   0  0  0  0  0
   17.6400   -3.7680   10.2590 O   0  0  0  0  0
   16.4280   -5.3230    8.9070 C   0  0  0  0  0
   18.6350   -5.7570    9.7760 N   0  0  0  0  0
   19.8520   -5.5260   10.5560 C   0  0  0  0  0
   20.4620   -4.1520   10.2990 C   0  0  0  0  0
   20.9700   -3.5110   11.2240 O   0  0  0  0  0
   20.8760   -6.6240   10.2440 C   0  0  0  0  0
   22.3190   -6.2280   10.5130 C   0  0  0  0  0
   23.3980   -7.5760   11.0420 S   0  0  0  0  0
   24.9740   -6.9420   10.5200 C   0  0  0  0  0
   20.4380   -3.6860    9.0500 N   0  0  0  0  0
   21.0220   -2.3950    8.7100 C   0  0  0  0  0
   19.9740   -1.2940    8.5430 C   0  0  0  0  0
   20.3170   -0.1850    8.1200 O   0  0  0  0  0
   21.8760   -2.5190    7.4430 C   0  0  0  0  0
   23.2440   -3.1470    7.7140 C   0  0  0  0  0
   23.8090   -2.9110    8.8050 O   0  0  0  0  0
   23.7640   -3.8700    6.8330 O   0  0  0  0  0
   18.7130   -1.5670    8.8690 N   0  0  0  0  0
   17.6550   -0.5660    8.7820 C   0  0  0  0  0
   17.4080   -0.0970   10.2110 C   0  0  0  0  0
   16.6540   -0.7040   10.9710 O   0  0  0  0  0
   16.3920   -1.1090    8.1140 C   0  0  0  0  0
   15.2990   -0.0610    8.1400 C   0  0  0  0  0
   16.6830   -1.5460    6.6710 C   0  0  0  0  0
   18.1060    0.9660   10.5860 N   0  0  0  0  0
   17.8320    1.7210   11.8000 C   0  0  0  0  0
   18.2580    3.1560   11.5230 C   0  0  0  0  0
   18.8520    3.4420   10.4810 O   0  0  0  0  0
   18.5550    1.1130   13.0150 C   0  0  0  0  0
   20.0640    1.0270   12.8710 C   0  0  0  0  0
   20.6650   -0.0470   12.1950 C   0  0  0  0  0
   20.8740    1.9910   13.4240 C   0  0  0  0  0
   22.0550   -0.1350   12.0690 C   0  0  0  0  0
   22.2770    1.8980   13.3190 C   0  0  0  0  0
   22.8560    0.8310   12.6320 C   0  0  0  0  0
   17.9450    4.0690   12.4550 N   0  0  0  0  0
   18.2500    5.4850   12.2510 C   0  0  0  0  0
   19.7010    5.7550   12.6270 C   0  0  0  0  0
   20.1450    5.4250   13.7400 O   0  0  0  0  0
   17.3110    6.3850   13.0730 C   0  0  0  0  0
   15.8530    6.2030   12.7780 C   0  0  0  0  0
   15.4290    6.6660   11.0940 S   0  0  0  0  0
   13.6390    6.6920   11.1670 C   0  0  0  0  0
   20.4440    6.3470   11.6870 N   0  0  0  0  0
   21.8610    6.6210   11.8650 C   0  0  0  0  0
   22.1870    8.1090   11.8100 C   0  0  0  0  0
   23.3670    8.4680   11.8500 O   0  0  0  0  0
   22.6860    5.8750   10.8160 C   0  0  0  0  0
   22.8140    4.4050   11.0560 C   0  0  0  0  0
   23.1970    3.6800    9.7710 C   0  0  0  0  0
   21.9720    3.1180    9.0760 C   0  0  0  0  0
   21.8550    1.6730    9.3640 N   0  3  0  0  0
   21.1800    8.9630   11.7440 N   0  0  0  0  0
   21.3760   10.3930   11.7080 C   0  0  0  0  0
   21.7300   10.9580   10.3490 C   0  0  0  0  0
   22.1370   12.1010   10.2400 O   0  0  0  0  0
   21.5690   10.1330    9.3230 N   0  0  0  0  0
   21.8750   10.4870    7.9570 C   0  0  0  0  0
   20.9490   11.5290    7.3780 C   0  0  0  0  0
   19.7790   11.5440    7.6630 O   0  0  0  0  0
   21.8160    9.2610    7.0700 C   0  0  0  0  0
   22.5770    8.0270    7.5070 C   0  0  0  0  0
   22.3240    6.9030    6.5240 C   0  0  0  0  0
   24.0530    8.3280    7.6280 C   0  0  0  0  0
   21.5150   12.3590    6.5220 N   0  0  0  0  0
   20.8180   13.4280    5.8380 C   0  0  0  0  0
   21.1850   13.4280    4.3690 C   0  0  0  0  0
   22.0950   12.7570    3.9650 O   0  0  0  0  0
   21.1850   14.7660    6.4350 C   0  0  0  0  0
   20.1250   15.2820    7.1690 O   0  0  0  0  0
   20.4250   14.1400    3.5590 N   0  0  0  0  0
   20.7240   14.2080    2.1420 C   0  0  0  0  0
   21.9140   15.1260    1.8880 C   0  0  0  0  0
   22.1320   16.1180    2.5570 O   0  0  0  0  0
   19.5000   14.6270    1.3480 C   0  0  0  0  0
   18.3810   13.6160    1.3960 C   0  0  0  0  0
   17.2280   14.0070    0.5050 C   0  0  0  0  0
   15.9500   13.3330    0.9390 C   0  0  0  0  0
   14.7910   13.6460    0.0780 N   0  3  0  0  0
   22.7270   14.8850    1.0170 O   0  0  0  0  0
   15.5420   -5.3312    9.5419 H   0  0  0  0  0
   16.2764   -4.6312    8.0785 H   0  0  0  0  0
   16.6066   -6.3251    8.5172 H   0  0  0  0  0
   18.5511   -6.6270    9.2502 H   0  0  0  0  0
   19.5766   -5.5575   11.6102 H   0  0  0  0  0
   20.7967   -6.8435    9.1793 H   0  0  0  0  0
   20.6486   -7.4689   10.8941 H   0  0  0  0  0
   22.2989   -5.5042   11.3277 H   0  0  0  0  0
   22.7223   -5.8543    9.5719 H   0  0  0  0  0
   24.9614   -6.7837    9.4416 H   0  0  0  0  0
   25.1690   -5.9960   11.0252 H   0  0  0  0  0
   25.7548   -7.6588   10.7742 H   0  0  0  0  0
   20.0016   -4.2451    8.3169 H   0  0  0  0  0
   21.6534   -2.1004    9.5483 H   0  0  0  0  0
   22.0398   -1.5157    7.0497 H   0  0  0  0  0
   21.3445   -3.1629    6.7423 H   0  0  0  0  0
   23.1746   -3.9255    6.0773 H   0  0  0  0  0
   18.4785   -2.5063    9.1901 H   0  0  0  0  0
   17.9540    0.2671    8.1459 H   0  0  0  0  0
   16.0548   -1.9834    8.6707 H   0  0  0  0  0
   15.0736    0.2014    9.1736 H   0  0  0  0  0
   15.6353    0.8263    7.6036 H   0  0  0  0  0
   14.4042   -0.4591    7.6614 H   0  0  0  0  0
   17.0435   -0.6908    6.0994 H   0  0  0  0  0
   17.4425   -2.3278    6.6756 H   0  0  0  0  0
   15.7688   -1.9286    6.2172 H   0  0  0  0  0
   18.8767    1.2713    9.9917 H   0  0  0  0  0
   16.7729    1.6883   12.0558 H   0  0  0  0  0
   18.1866    0.0934   13.1283 H   0  0  0  0  0
   18.3521    1.7637   13.8656 H   0  0  0  0  0
   20.0374   -0.8254   11.7610 H   0  0  0  0  0
   20.4270    2.8354   13.9487 H   0  0  0  0  0
   22.5026   -0.9673   11.5258 H   0  0  0  0  0
   22.9092    2.6600   13.7747 H   0  0  0  0  0
   23.9401    0.7630   12.5416 H   0  0  0  0  0
   17.4883    3.7718   13.3172 H   0  0  0  0  0
   18.0968    5.7205   11.1978 H   0  0  0  0  0
   17.5594    7.4162   12.8219 H   0  0  0  0  0
   17.4579    6.1238   14.1210 H   0  0  0  0  0
   15.2900    6.8451   13.4554 H   0  0  0  0  0
   15.6127    5.1477   12.9074 H   0  0  0  0  0
   13.2737    5.7039   11.4470 H   0  0  0  0  0
   13.3175    7.4232   11.9086 H   0  0  0  0  0
   13.2407    6.9646   10.1897 H   0  0  0  0  0
   19.9994    6.6174   10.8097 H   0  0  0  0  0
   22.1219    6.2669   12.8623 H   0  0  0  0  0
   23.6928    6.2916   10.8475 H   0  0  0  0  0
   22.1741    5.9984    9.8616 H   0  0  0  0  0
   21.8557    4.0204   11.4051 H   0  0  0  0  0
   23.5918    4.2362   11.8008 H   0  0  0  0  0
   23.8652    2.8559   10.0211 H   0  0  0  0  0
   23.6832    4.3896    9.1016 H   0  0  0  0  0
   22.0673    3.2655    8.0002 H   0  0  0  0  0
   21.0824    3.6322    9.4398 H   0  0  0  0  0
   21.0300    1.2997    8.8946 H   0  0  0  0  0
   22.6877    1.1914    9.0248 H   0  0  0  0  0
   21.7669    1.5342   10.3707 H   0  0  0  0  0
   20.2280    8.5976   11.7175 H   0  0  0  0  0
   22.2159   10.6115   12.3674 H   0  0  0  0  0
   20.4291   10.8472   12.0000 H   0  0  0  0  0
   21.2092    9.1969    9.5092 H   0  0  0  0  0
   22.8791   10.9103    7.9840 H   0  0  0  0  0
   22.2744    9.5640    6.1286 H   0  0  0  0  0
   20.7673    8.9639    7.0584 H   0  0  0  0  0
   22.2249    7.7152    8.4903 H   0  0  0  0  0
   21.2572    6.6811    6.4944 H   0  0  0  0  0
   22.6610    7.2062    5.5327 H   0  0  0  0  0
   22.8724    6.0155    6.8398 H   0  0  0  0  0
   24.4360    8.6563    6.6617 H   0  0  0  0  0
   24.2025    9.1159    8.3662 H   0  0  0  0  0
   24.5814    7.4282    7.9430 H   0  0  0  0  0
   22.5095   12.2394    6.3295 H   0  0  0  0  0
   19.7463   13.2644    5.9516 H   0  0  0  0  0
   21.4256   15.4583    5.6282 H   0  0  0  0  0
   22.0412   14.6343    7.0965 H   0  0  0  0  0
   20.3771   16.1309    7.5397 H   0  0  0  0  0
   19.6218   14.6460    3.9322 H   0  0  0  0  0
   21.0018   13.2119    1.7974 H   0  0  0  0  0
   21.4376   16.2198    3.2120 H   0  0  0  0  0
   19.8037   14.7323    0.3065 H   0  0  0  0  0
   19.1257   15.5529    1.7847 H   0  0  0  0  0
   18.0158   13.5600    2.4215 H   0  0  0  0  0
   18.7709   12.6591    1.0489 H   0  0  0  0  0
   17.4558   13.6970   -0.5148 H   0  0  0  0  0
   17.0906   15.0865    0.5675 H   0  0  0  0  0
   15.7171   13.6912    1.9418 H   0  0  0  0  0
   16.1147   12.2569    0.8851 H   0  0  0  0  0
   13.9666   13.1587    0.4292 H   0  0  0  0  0
   14.6230   14.6520    0.0885 H   0  0  0  0  0
   14.9860   13.3426   -0.8761 H   0  0  0  0  0
  1  2  2  0  0  0
  1  3  1  0  0  0
  1  4  1  0  0  0
  4  5  1  0  0  0
  5  6  1  0  0  0
  5  8  1  0  0  0
  6  7  2  0  0  0
  6 12  1  0  0  0
  8  9  1  0  0  0
  9 10  1  0  0  0
 10 11  1  0  0  0
 12 13  1  0  0  0
 13 14  1  0  0  0
 13 16  1  0  0  0
 14 15  2  0  0  0
 14 20  1  0  0  0
 16 17  1  0  0  0
 17 18  2  0  0  0
 17 19  1  0  0  0
 20 21  1  0  0  0
 21 22  1  0  0  0
 21 24  1  0  0  0
 22 23  2  0  0  0
 22 27  1  0  0  0
 24 25  1  0  0  0
 24 26  1  0  0  0
 27 28  1  0  0  0
 28 29  1  0  0  0
 28 31  1  0  0  0
 29 30  2  0  0  0
 29 38  1  0  0  0
 31 32  1  0  0  0
 32 33  4  0  0  0
 32 34  4  0  0  0
 33 35  4  0  0  0
 34 36  4  0  0  0
 35 37  4  0  0  0
 36 37  4  0  0  0
 38 39  1  0  0  0
 39 40  1  0  0  0
 39 42  1  0  0  0
 40 41  2  0  0  0
 40 46  1  0  0  0
 42 43  1  0  0  0
 43 44  1  0  0  0
 44 45  1  0  0  0
 46 47  1  0  0  0
 47 48  1  0  0  0
 47 50  1  0  0  0
 48 49  2  0  0  0
 48 55  1  0  0  0
 50 51  1  0  0  0
 51 52  1  0  0  0
 52 53  1  0  0  0
 53 54  1  0  0  0
 55 56  1  0  0  0
 56 57  1  0  0  0
 57 58  2  0  0  0
 57 59  1  0  0  0
 59 60  1  0  0  0
 60 61  1  0  0  0
 60 63  1  0  0  0
 61 62  2  0  0  0
 61 67  1  0  0  0
 63 64  1  0  0  0
 64 65  1  0  0  0
 64 66  1  0  0  0
 67 68  1  0  0  0
 68 69  1  0  0  0
 68 71  1  0  0  0
 69 70  2  0  0  0
 69 73  1  0  0  0
 71 72  1  0  0  0
 73 74  1  0  0  0
 74 75  1  0  0  0
 74 77  1  0  0  0
 75 76  1  0  0  0
 75 82  2  0  0  0
 77 78  1  0  0  0
 78 79  1  0  0  0
 79 80  1  0  0  0
 80 81  1  0  0  0
  3 83  1  0  0  0
  3 84  1  0  0  0
  3 85  1  0  0  0
  4 86  1  0  0  0
  5 87  1  0  0  0
  8 88  1  0  0  0
  8 89  1  0  0  0
  9 90  1  0  0  0
  9 91  1  0  0  0
 11 92  1  0  0  0
 11 93  1  0  0  0
 11 94  1  0  0  0
 12 95  1  0  0  0
 13 96  1  0  0  0
 16 97  1  0  0  0
 16 98  1  0  0  0
 19 99  1  0  0  0
 20100  1  0  0  0
 21101  1  0  0  0
 24102  1  0  0  0
 25103  1  0  0  0
 25104  1  0  0  0
 25105  1  0  0  0
 26106  1  0  0  0
 26107  1  0  0  0
 26108  1  0  0  0
 27109  1  0  0  0
 28110  1  0  0  0
 31111  1  0  0  0
 31112  1  0  0  0
 33113  1  0  0  0
 34114  1  0  0  0
 35115  1  0  0  0
 36116  1  0  0  0
 37117  1  0  0  0
 38118  1  0  0  0
 39119  1  0  0  0
 42120  1  0  0  0
 42121  1  0  0  0
 43122  1  0  0  0
 43123  1  0  0  0
 45124  1  0  0  0
 45125  1  0  0  0
 45126  1  0  0  0
 46127  1  0  0  0
 47128  1  0  0  0
 50129  1  0  0  0
 50130  1  0  0  0
 51131  1  0  0  0
 51132  1  0  0  0
 52133  1  0  0  0
 52134  1  0  0  0
 53135  1  0  0  0
 53136  1  0  0  0
 54137  1  0  0  0
 54138  1  0  0  0
 54139  1  0  0  0
 55140  1  0  0  0
 56141  1  0  0  0
 56142  1  0  0  0
 59143  1  0  0  0
 60144  1  0  0  0
 63145  1  0  0  0
 63146  1  0  0  0
 64147  1  0  0  0
 65148  1  0  0  0
 65149  1  0  0  0
 65150  1  0  0  0
 66151  1  0  0  0
 66152  1  0  0  0
 66153  1  0  0  0
 67154  1  0  0  0
 68155  1  0  0  0
 71156  1  0  0  0
 71157  1  0  0  0
 72158  1  0  0  0
 73159  1  0  0  0
 74160  1  0  0  0
 76161  1  0  0  0
 77162  1  0  0  0
 77163  1  0  0  0
 78164  1  0  0  0
 78165  1  0  0  0
 79166  1  0  0  0
 79167  1  0  0  0
 80168  1  0  0  0
 80169  1  0  0  0
 81170  1  0  0  0
 81171  1  0  0  0
 81172  1  0  0  0
M  END
$$$$
