6gzm_ligand
  -I-interpret- 

 51 54  0  0  0  0  0  0  0  0999 V2000
   -2.9930    2.9020   -4.6430 F   0  0  0  0  0
   -1.9450    2.8290   -3.8320 C   0  0  0  0  0
   -1.9660    1.7900   -2.9240 C   0  0  0  0  0
   -0.9130    1.6080   -2.0440 N   0  0  0  0  0
   -0.8780    3.7230   -3.8430 C   0  0  0  0  0
    0.1820    3.5310   -2.9760 N   0  0  0  0  0
    0.1510    2.4940   -2.0880 C   0  0  0  0  0
    1.2240    2.3310   -1.2420 N   0  0  0  0  0
    2.4010    3.1660   -1.3340 C   0  0  0  0  0
    3.0870    2.9980    0.0290 C   0  0  0  0  0
    4.4270    3.6950    0.0310 C   0  0  0  0  0
    3.3570    2.7510   -2.4820 C   0  0  0  0  0
    4.7020    3.4580   -2.4640 C   0  0  0  0  0
    5.3630    3.2260   -1.0930 C   0  0  0  0  0
    6.5930    4.0240   -1.0290 N   0  3  0  0  0
   -0.7910    4.8290   -4.8430 C   0  0  0  0  0
   -1.8860    5.2730   -5.6120 C   0  0  0  0  0
   -1.4490    6.2180   -6.4360 N   0  0  0  0  0
   -0.1890    6.3570   -6.2610 N   0  0  0  0  0
    0.5640    7.3200   -7.0960 C   0  0  0  0  0
    0.3150    5.5360   -5.3100 C   0  0  0  0  0
    1.7680    5.4550   -4.8640 C   0  0  0  0  0
    2.0660    6.3430   -3.6310 C   0  0  0  0  0
    3.5280    6.8080   -3.5860 C   0  0  0  0  0
    2.4380    7.7610   -4.0350 C   0  0  0  0  0
   -2.8166    1.1088   -2.8996 H   0  0  0  0  0
    1.1881    1.6011   -0.5304 H   0  0  0  0  0
    2.1315    4.1972   -1.5621 H   0  0  0  0  0
    3.2380    1.9361    0.2229 H   0  0  0  0  0
    2.4561    3.4377    0.8015 H   0  0  0  0  0
    4.9136    3.4668    0.9793 H   0  0  0  0  0
    4.2432    4.7590   -0.1182 H   0  0  0  0  0
    2.8675    3.0178   -3.4186 H   0  0  0  0  0
    3.5538    1.6853   -2.3653 H   0  0  0  0  0
    4.5614    4.5258   -2.6314 H   0  0  0  0  0
    5.3394    3.0615   -3.2543 H   0  0  0  0  0
    5.5761    2.1640   -0.9707 H   0  0  0  0  0
    7.2287    3.7267   -1.7692 H   0  0  0  0  0
    6.3638    5.0103   -1.1518 H   0  0  0  0  0
    7.0385    3.8877   -0.1216 H   0  0  0  0  0
   -2.9099    4.9056   -5.5424 H   0  0  0  0  0
    0.4684    7.0413   -8.1454 H   0  0  0  0  0
    0.1607    8.3216   -6.9465 H   0  0  0  0  0
    1.6153    7.3036   -6.8087 H   0  0  0  0  0
    2.3904    5.8060   -5.6871 H   0  0  0  0  0
    1.9763    4.4209   -4.5895 H   0  0  0  0  0
    1.3753    5.8879   -2.9211 H   0  0  0  0  0
    4.5070    6.4664   -3.9220 H   0  0  0  0  0
    4.3710    6.7946   -2.8952 H   0  0  0  0  0
    2.1105    8.7783   -3.8206 H   0  0  0  0  0
    2.2484    8.4454   -4.8619 H   0  0  0  0  0
  1  2  1  0  0  0
  2  3  4  0  0  0
  2  5  4  0  0  0
  3  4  4  0  0  0
  4  7  4  0  0  0
  5  6  4  0  0  0
  5 16  1  0  0  0
  6  7  4  0  0  0
  7  8  1  0  0  0
  8  9  1  0  0  0
  9 10  1  0  0  0
  9 12  1  0  0  0
 10 11  1  0  0  0
 11 14  1  0  0  0
 12 13  1  0  0  0
 13 14  1  0  0  0
 14 15  1  0  0  0
 16 17  4  0  0  0
 16 21  4  0  0  0
 17 18  4  0  0  0
 18 19  4  0  0  0
 19 20  1  0  0  0
 19 21  4  0  0  0
 21 22  1  0  0  0
 22 23  1  0  0  0
 23 24  1  0  0  0
 23 25  1  0  0  0
 24 25  1  0  0  0
  3 26  1  0  0  0
  8 27  1  0  0  0
  9 28  1  0  0  0
 10 29  1  0  0  0
 10 30  1  0  0  0
 11 31  1  0  0  0
 11 32  1  0  0  0
 12 33  1  0  0  0
 12 34  1  0  0  0
 13 35  1  0  0  0
 13 36  1  0  0  0
 14 37  1  0  0  0
 15 38  1  0  0  0
 15 39  1  0  0  0
 15 40  1  0  0  0
 17 41  1  0  0  0
 20 42  1  0  0  0
 20 43  1  0  0  0
 20 44  1  0  0  0
 22 45  1  0  0  0
 22 46  1  0  0  0
 23 47  1  0  0  0
 24 48  1  0  0  0
 24 49  1  0  0  0
 25 50  1  0  0  0
 25 51  1  0  0  0
M  END
$$$$
