5ung_ligand
  -I-interpret- 

 76 82  0  0  0  0  0  0  0  0999 V2000
    9.2140    6.6990  -18.1800 N   0  0  0  0  0
   12.6700   10.4010  -13.5720 N   0  0  0  0  0
    7.2620    4.0170  -19.0370 C   0  0  0  0  0
    9.2710    8.0880  -18.1700 C   0  0  0  0  0
   10.3760    5.9200  -18.6090 C   0  0  0  0  0
   11.5270    6.0620  -17.6080 C   0  0  0  0  0
   12.7600    6.1090  -18.0760 C   0  0  0  0  0
   13.7360    6.3330  -15.8080 C   0  0  0  0  0
   14.1220    8.8320  -14.1540 C   0  0  0  0  0
   17.2060    6.7940  -13.2530 C   0  0  0  0  0
   15.9130    5.5000  -14.8270 C   0  0  0  0  0
    5.8320    8.8310  -16.8070 C   0  0  0  0  0
    5.8610   10.2390  -16.7610 C   0  0  0  0  0
    6.9960   10.9700  -17.1950 C   0  0  0  0  0
    7.3600   13.1100  -15.8640 C   0  0  0  0  0
    8.4140   11.1430  -14.4120 C   0  0  0  0  0
    7.9410   11.6950  -12.0930 C   0  0  0  0  0
    7.3730   14.2970  -15.8290 O   0  0  0  0  0
    7.6840   12.3730  -14.5550 C   0  0  0  0  0
    7.2620   12.9810  -13.0070 S   0  0  0  0  0
    8.5540   10.7310  -12.9560 C   0  0  0  0  0
    7.0260   12.4240  -17.1180 N   0  0  0  0  0
    6.7290   13.1930  -18.3250 C   0  0  0  0  0
    5.2520   13.0490  -18.6970 C   0  0  0  0  0
    4.1660   13.4720  -17.6980 C   0  0  0  0  0
    2.8890   13.3450  -18.0230 C   0  0  0  0  0
    2.4950   12.7670  -19.3900 C   0  0  0  0  0
    3.4320   12.4020  -20.2520 C   0  0  0  0  0
    4.9140   12.5480  -19.8760 C   0  0  0  0  0
    6.9490    8.1490  -17.2640 C   0  0  0  0  0
    8.1090   10.2470  -17.6500 C   0  0  0  0  0
    8.0970    8.8700  -17.6760 C   0  0  0  0  0
   10.4200    8.7840  -18.5860 O   0  0  0  0  0
    8.0080    6.0550  -17.7500 C   0  0  0  0  0
    7.8770    4.5250  -17.7340 C   0  0  0  0  0
    6.9190    6.7430  -17.3000 N   0  0  0  0  0
   11.2790    6.1490  -16.0900 C   0  0  0  0  0
   12.3020    6.2700  -15.2560 C   0  0  0  0  0
   13.9390    6.2610  -17.1140 C   0  0  0  0  0
   14.9450    6.5080  -14.8790 C   0  0  0  0  0
   17.0330    5.6380  -14.0100 C   0  0  0  0  0
   16.2570    7.8130  -13.3120 C   0  0  0  0  0
   15.1340    7.6820  -14.1300 C   0  0  0  0  0
   13.6110    9.4980  -15.3010 N   0  0  0  0  0
   12.7190   10.4650  -14.9390 N   0  0  0  0  0
   13.5330    9.3980  -13.0830 N   0  0  0  0  0
    6.2710    4.4529  -19.1637 H   0  0  0  0  0
    7.8973    4.3062  -19.8741 H   0  0  0  0  0
    7.1804    2.9307  -18.9995 H   0  0  0  0  0
    9.5676    7.4921  -19.0331 H   0  0  0  0  0
   10.7073    6.2891  -19.5796 H   0  0  0  0  0
   10.0914    4.8696  -18.6701 H   0  0  0  0  0
   12.9382    6.0394  -19.1491 H   0  0  0  0  0
   18.0830    6.9018  -12.6148 H   0  0  0  0  0
   15.7904    4.6002  -15.4298 H   0  0  0  0  0
    4.9438    8.2858  -16.4878 H   0  0  0  0  0
    4.9921   10.7781  -16.3836 H   0  0  0  0  0
    8.8190   10.5735  -15.2485 H   0  0  0  0  0
    7.9095   11.6228  -11.0059 H   0  0  0  0  0
    9.0535    9.8243  -12.6148 H   0  0  0  0  0
    7.3406   12.8175  -19.1454 H   0  0  0  0  0
    6.9482   14.2445  -18.1397 H   0  0  0  0  0
    4.4453   13.8754  -16.7247 H   0  0  0  0  0
    2.1155   13.6514  -17.3187 H   0  0  0  0  0
    1.4425   12.6569  -19.6514 H   0  0  0  0  0
    3.1522   11.9992  -21.2254 H   0  0  0  0  0
    5.6876   12.2394  -20.5791 H   0  0  0  0  0
    8.9960   10.7829  -17.9878 H   0  0  0  0  0
   11.0861    8.1560  -18.8748 H   0  0  0  0  0
    8.8698    4.0893  -17.6217 H   0  0  0  0  0
    7.2300    4.2372  -16.9054 H   0  0  0  0  0
   10.2613    6.1110  -15.7015 H   0  0  0  0  0
   12.1273    6.3247  -14.1815 H   0  0  0  0  0
   14.9545    6.3104  -17.5069 H   0  0  0  0  0
   17.7745    4.8405  -13.9633 H   0  0  0  0  0
   16.3925    8.7160  -12.7168 H   0  0  0  0  0
  1  4  1  0  0  0
  5  1  1  0  0  0
  1 34  1  0  0  0
  2 45  4  0  0  0
 46  2  4  0  0  0
 35  3  1  0  0  0
  4 32  1  0  0  0
  4 33  1  0  0  0
  6  5  1  0  0  0
  7  6  4  0  0  0
 37  6  4  0  0  0
 39  7  4  0  0  0
  8 38  4  0  0  0
  8 39  4  0  0  0
 40  8  1  0  0  0
 43  9  1  0  0  0
  9 44  4  0  0  0
  9 46  4  0  0  0
 41 10  4  0  0  0
 10 42  4  0  0  0
 40 11  4  0  0  0
 11 41  4  0  0  0
 12 13  4  0  0  0
 30 12  4  0  0  0
 14 13  4  0  0  0
 14 22  1  0  0  0
 31 14  4  0  0  0
 15 18  2  0  0  0
 15 19  1  0  0  0
 22 15  1  0  0  0
 19 16  4  0  0  0
 16 21  4  0  0  0
 20 17  4  0  0  0
 17 21  4  0  0  0
 19 20  4  0  0  0
 22 23  1  0  0  0
 23 24  1  0  0  0
 24 25  4  0  0  0
 24 29  4  0  0  0
 25 26  4  0  0  0
 26 27  4  0  0  0
 28 27  4  0  0  0
 29 28  4  0  0  0
 32 30  4  0  0  0
 36 30  1  0  0  0
 32 31  4  0  0  0
 34 35  1  0  0  0
 34 36  2  0  0  0
 38 37  4  0  0  0
 40 43  4  0  0  0
 42 43  4  0  0  0
 44 45  4  0  0  0
  3 47  1  0  0  0
  3 48  1  0  0  0
  3 49  1  0  0  0
  4 50  1  0  0  0
  5 51  1  0  0  0
  5 52  1  0  0  0
  7 53  1  0  0  0
 10 54  1  0  0  0
 11 55  1  0  0  0
 12 56  1  0  0  0
 13 57  1  0  0  0
 16 58  1  0  0  0
 17 59  1  0  0  0
 21 60  1  0  0  0
 23 61  1  0  0  0
 23 62  1  0  0  0
 25 63  1  0  0  0
 26 64  1  0  0  0
 27 65  1  0  0  0
 28 66  1  0  0  0
 29 67  1  0  0  0
 31 68  1  0  0  0
 33 69  1  0  0  0
 35 70  1  0  0  0
 35 71  1  0  0  0
 37 72  1  0  0  0
 38 73  1  0  0  0
 39 74  1  0  0  0
 41 75  1  0  0  0
 42 76  1  0  0  0
M  END
$$$$
