### 
### Created by X-TOOL on Mon Sep 10 21:13:15 2018
### 

@<TRIPOS>MOLECULE
4ezt_ligand
  157   158     1     0     0
SMALL
GAST_HUCK


@<TRIPOS>ATOM
      1 N          61.6690   85.1730   22.2290 N.4       1 PRO         0.2461
      2 CA         60.9930   84.3420   23.2090 C.3       1 PRO         0.0670
      3 C          59.7640   85.0700   23.7540 C.2       1 PRO         0.2268
      4 O          59.6470   86.2840   23.5740 O.2       1 PRO        -0.3907
      5 CB         62.0440   84.2190   24.3100 C.3       1 PRO         0.0127
      6 CG         63.3260   84.1970   23.5550 C.3       1 PRO        -0.0053
      7 CD         63.1370   85.1240   22.3800 C.3       1 PRO        -0.0313
      8 N          58.8580   84.3620   24.4090 N.am      1 ARG        -0.2610
      9 CA         57.7470   85.0370   25.0430 C.3       1 ARG         0.1312
     10 C          58.0880   86.2260   25.9690 C.2       1 ARG         0.2039
     11 O          59.2050   86.3570   26.4800 O.2       1 ARG        -0.3944
     12 CB         56.8620   84.0230   25.7570 C.3       1 ARG        -0.0092
     13 CG         56.2380   83.0720   24.7530 C.3       1 ARG        -0.0156
     14 CD         55.1980   83.7980   23.8840 C.3       1 ARG         0.0627
     15 NE         53.8430   83.7830   24.4550 N.pl3     1 ARG        -0.2723
     16 CZ         53.2250   82.6700   24.8490 C.cat     1 ARG         0.2882
     17 NH1        51.9980   82.6880   25.3360 N.pl3     1 ARG        -0.2849
     18 NH2        53.8570   81.5160   24.7540 N.pl3     1 ARG        -0.2849
     19 N          57.1080   87.1150   26.1470 N.am      1 ARG        -0.2637
     20 CA         57.2320   88.1600   27.1560 C.3       1 ARG         0.1313
     21 C          56.9110   87.5130   28.5000 C.2       1 ARG         0.2064
     22 O          56.2190   86.5080   28.5400 O.2       1 ARG        -0.3942
     23 CB         56.2360   89.2770   26.8200 C.3       1 ARG        -0.0092
     24 CG         56.5080   89.9170   25.4590 C.3       1 ARG        -0.0156
     25 CD         57.8770   90.5330   25.4960 C.3       1 ARG         0.0627
     26 NE         58.4150   91.0800   24.2400 N.pl3     1 ARG        -0.2723
     27 CZ         58.8790   90.3580   23.2180 C.cat     1 ARG         0.2882
     28 NH1        58.8470   89.0290   23.2310 N.pl3     1 ARG        -0.2849
     29 NH2        59.3660   90.9670   22.1630 N.pl3     1 ARG        -0.2849
     30 N          57.4610   88.0660   29.5970 N.am      1 PRO        -0.2498
     31 CA         57.0550   87.6780   30.9480 C.3       1 PRO         0.1338
     32 C          55.5900   87.9570   31.2260 C.2       1 PRO         0.2041
     33 O          55.0220   88.9390   30.7120 O.2       1 PRO        -0.3944
     34 CB         57.9730   88.5130   31.8710 C.3       1 PRO        -0.0104
     35 CG         59.0030   89.1710   30.9590 C.3       1 PRO        -0.0281
     36 CD         58.3940   89.2010   29.5690 C.3       1 PRO         0.0369
     37 N          55.0060   87.0890   32.0370 N.am      1 VAL        -0.2635
     38 CA         53.6480   87.1550   32.4950 C.3       1 VAL         0.1332
     39 C          53.7160   87.6240   33.9150 C.2       1 VAL         0.2042
     40 O          54.6090   87.1530   34.6460 O.2       1 VAL        -0.3944
     41 CB         53.1750   85.7300   32.5730 C.3       1 VAL        -0.0063
     42 CG1        51.7490   85.6340   33.0850 C.3       1 VAL        -0.0584
     43 CG2        53.3230   85.1700   31.1740 C.3       1 VAL        -0.0584
     44 N          52.8320   88.5490   34.3230 N.am      1 ILE        -0.2635
     45 CA         52.7500   88.9350   35.7420 C.3       1 ILE         0.1335
     46 C          52.4880   87.6260   36.4870 C.2       1 ILE         0.2042
     47 O          51.4790   86.9850   36.2300 O.2       1 ILE        -0.3944
     48 CB         51.6440   89.9920   36.0360 C.3       1 ILE        -0.0037
     49 CG1        52.0660   91.3720   35.5190 C.3       1 ILE        -0.0491
     50 CG2        51.3850   90.1130   37.5560 C.3       1 ILE        -0.0582
     51 CD1        51.5930   91.7030   34.1160 C.3       1 ILE        -0.0648
     52 N          53.4400   87.1840   37.3160 N.am      1 MET        -0.2637
     53 CA         53.2690   85.9210   38.0760 C.3       1 MET         0.1317
     54 C          51.9760   85.9730   38.8850 C.2       1 MET         0.2039
     55 O          51.5840   87.0330   39.4130 O.2       1 MET        -0.3944
     56 CB         54.4640   85.5970   38.9880 C.3       1 MET        -0.0034
     57 CG         54.4900   84.1410   39.4940 C.3       1 MET        -0.0024
     58 SD         55.6430   83.7490   40.8430 S.3       1 MET        -0.1639
     59 CE         55.7940   81.9820   40.6930 C.3       1 MET        -0.0181
     60 N          51.3070   84.8230   38.9070 N.am      1 ARG        -0.2637
     61 CA         50.0940   84.5760   39.6780 C.3       1 ARG         0.1307
     62 C          50.4980   84.4960   41.1590 C.2       1 ARG         0.1992
     63 O          51.5560   83.9400   41.5120 O.2       1 ARG        -0.3947
     64 CB         49.4180   83.2640   39.1990 C.3       1 ARG        -0.0092
     65 CG         49.0220   83.1860   37.7050 C.3       1 ARG        -0.0156
     66 CD         50.1580   82.8950   36.6870 C.3       1 ARG         0.0627
     67 NE         50.1320   81.6140   35.9300 N.pl3     1 ARG        -0.2723
     68 CZ         49.0910   80.7800   35.7690 C.cat     1 ARG         0.2882
     69 NH1        47.8930   81.0350   36.2970 N.pl3     1 ARG        -0.2849
     70 NH2        49.2460   79.6690   35.0550 N.pl3     1 ARG        -0.2849
     71 N          49.6840   85.0870   42.0170 N.am      1 ARG        -0.2990
     72 H1         61.3618   86.1262   22.3434 H         1 PRO         0.2035
     73 H2         61.4260   84.8501   21.3056 H         1 PRO         0.2035
     74 H3         60.7103   83.3629   22.7949 H         1 PRO         0.1099
     75 H4         61.9079   83.2902   24.8833 H         1 PRO         0.0347
     76 H5         62.0030   85.0806   24.9926 H         1 PRO         0.0347
     77 H6         63.5453   83.1775   23.2051 H         1 PRO         0.0320
     78 H7         64.1500   84.5514   24.1918 H         1 PRO         0.0320
     79 H8         63.5461   86.1224   22.5942 H         1 PRO         0.0814
     80 H9         63.6142   84.7185   21.4757 H         1 PRO         0.0814
     81 H10        58.9409   83.3670   24.4652 H         1 ARG         0.1884
     82 H11        57.1492   85.4631   24.2238 H         1 ARG         0.0800
     83 H12        56.0650   84.5539   26.2982 H         1 ARG         0.0313
     84 H13        57.4706   83.4490   26.4712 H         1 ARG         0.0313
     85 H14        55.7454   82.2501   25.2932 H         1 ARG         0.0301
     86 H15        57.0273   82.6637   24.1047 H         1 ARG         0.0301
     87 H16        55.1659   83.3100   22.8987 H         1 ARG         0.0689
     88 H17        55.5139   84.8449   23.7646 H         1 ARG         0.0689
     89 H18        53.3457   84.6793   24.5557 H         1 ARG         0.2642
     90 H19        51.5484   81.8098   25.6317 H         1 ARG         0.2615
     91 H20        51.4904   83.5803   25.4202 H         1 ARG         0.2615
     92 H21        54.8147   81.4829   24.3765 H         1 ARG         0.2615
     93 H22        53.3927   80.6481   25.0574 H         1 ARG         0.2615
     94 H23        56.2830   87.0637   25.5842 H         1 ARG         0.1883
     95 H24        58.2539   88.5667   27.1689 H         1 ARG         0.0800
     96 H25        56.3042   90.0547   27.5949 H         1 ARG         0.0313
     97 H26        55.2208   88.8537   26.8136 H         1 ARG         0.0313
     98 H27        55.7557   90.6933   25.2554 H         1 ARG         0.0301
     99 H28        56.4659   89.1500   24.6716 H         1 ARG         0.0301
    100 H29        58.5766   89.7584   25.8433 H         1 ARG         0.0689
    101 H30        57.8479   91.3549   26.2264 H         1 ARG         0.0689
    102 H31        58.4351   92.1051   24.1416 H         1 ARG         0.2642
    103 H32        59.2122   88.4972   22.4281 H         1 ARG         0.2615
    104 H33        58.4570   88.5312   24.0440 H         1 ARG         0.2615
    105 H34        59.4001   91.9960   22.1323 H         1 ARG         0.2615
    106 H35        59.7143   90.4162   21.3654 H         1 ARG         0.2615
    107 H36        57.2397   86.6043   31.1000 H         1 PRO         0.0802
    108 H37        58.4723   87.8617   32.6035 H         1 PRO         0.0313
    109 H38        57.3873   89.2789   32.4005 H         1 PRO         0.0313
    110 H39        59.9340   88.5852   30.9530 H         1 PRO         0.0287
    111 H40        59.2157   90.1941   31.3025 H         1 PRO         0.0287
    112 H41        57.8618   90.1469   29.3901 H         1 PRO         0.0524
    113 H42        59.1642   89.0617   28.7961 H         1 PRO         0.0524
    114 H43        55.5594   86.3206   32.3583 H         1 VAL         0.1883
    115 H44        53.0104   87.7885   31.8608 H         1 VAL         0.0802
    116 H45        53.8235   85.1670   33.2604 H         1 VAL         0.0343
    117 H46        51.4445   84.5778   33.1261 H         1 VAL         0.0234
    118 H47        51.0784   86.1828   32.4075 H         1 VAL         0.0234
    119 H48        51.6909   86.0717   34.0925 H         1 VAL         0.0234
    120 H49        54.3703   85.2629   30.8508 H         1 VAL         0.0234
    121 H50        52.6753   85.7308   30.4841 H         1 VAL         0.0234
    122 H51        53.0310   84.1095   31.1707 H         1 VAL         0.0234
    123 H52        52.2234   88.9800   33.6568 H         1 ILE         0.1883
    124 H53        53.7150   89.3561   36.0604 H         1 ILE         0.0803
    125 H54        50.7161   89.6823   35.5329 H         1 ILE         0.0345
    126 H55        53.1650   91.4186   35.5285 H         1 ILE         0.0267
    127 H56        51.6608   92.1315   36.2038 H         1 ILE         0.0267
    128 H57        51.0796   89.1344   37.9549 H         1 ILE         0.0235
    129 H58        50.5857   90.8473   37.7345 H         1 ILE         0.0235
    130 H59        52.3055   90.4432   38.0597 H         1 ILE         0.0235
    131 H60        51.9444   92.7076   33.8381 H         1 ILE         0.0230
    132 H61        50.4938   91.6772   34.0840 H         1 ILE         0.0230
    133 H62        51.9979   90.9643   33.4087 H         1 ILE         0.0230
    134 H63        54.2812   87.7136   37.4255 H         1 MET         0.1883
    135 H64        53.1815   85.1035   37.3452 H         1 MET         0.0800
    136 H65        54.4246   86.2657   39.8605 H         1 MET         0.0320
    137 H66        55.3899   85.7838   38.4244 H         1 MET         0.0320
    138 H67        54.7501   83.4987   38.6397 H         1 MET         0.0378
    139 H68        53.4765   83.8942   39.8432 H         1 MET         0.0378
    140 H69        56.4789   81.6055   41.4670 H         1 MET         0.0340
    141 H70        56.1912   81.7310   39.6984 H         1 MET         0.0340
    142 H71        54.8052   81.5173   40.8209 H         1 MET         0.0340
    143 H72        51.6631   84.0708   38.3526 H         1 ARG         0.1883
    144 H73        49.3902   85.4095   39.5372 H         1 ARG         0.0800
    145 H74        48.5027   83.1256   39.7931 H         1 ARG         0.0313
    146 H75        50.1152   82.4376   39.4016 H         1 ARG         0.0313
    147 H76        48.5705   84.1509   37.4309 H         1 ARG         0.0301
    148 H77        48.2722   82.3878   37.6020 H         1 ARG         0.0301
    149 H78        51.1061   82.9219   37.2442 H         1 ARG         0.0689
    150 H79        50.1446   83.7083   35.9465 H         1 ARG         0.0689
    151 H80        51.0139   81.3345   35.4772 H         1 ARG         0.2642
    152 H81        47.1160   80.3741   36.1543 H         1 ARG         0.2615
    153 H82        47.7448   81.8929   36.8475 H         1 ARG         0.2615
    154 H83        50.1612   79.4492   34.6366 H         1 ARG         0.2615
    155 H84        48.4509   79.0283   34.9203 H         1 ARG         0.2615
    156 H85        49.8910   85.0705   42.9952 H         1 ARG         0.1815
    157 H86        48.8613   85.5505   41.6877 H         1 ARG         0.1815
@<TRIPOS>BOND
     1    1    2 1  
     2    1    7 1  
     3    2    3 1  
     4    2    5 1  
     5    3    4 2  
     6    3    8 am 
     7    5    6 1  
     8    6    7 1  
     9    8    9 1  
    10    9   10 1  
    11    9   12 1  
    12   10   11 2  
    13   10   19 am 
    14   12   13 1  
    15   13   14 1  
    16   14   15 1  
    17   15   16 ar 
    18   16   17 ar 
    19   16   18 ar 
    20   19   20 1  
    21   20   21 1  
    22   20   23 1  
    23   21   22 2  
    24   21   30 am 
    25   23   24 1  
    26   24   25 1  
    27   25   26 1  
    28   26   27 ar 
    29   27   28 ar 
    30   27   29 ar 
    31   30   31 1  
    32   30   36 1  
    33   31   32 1  
    34   31   34 1  
    35   32   33 2  
    36   32   37 am 
    37   34   35 1  
    38   35   36 1  
    39   37   38 1  
    40   38   39 1  
    41   38   41 1  
    42   39   40 2  
    43   39   44 am 
    44   41   42 1  
    45   41   43 1  
    46   44   45 1  
    47   45   46 1  
    48   45   48 1  
    49   46   47 2  
    50   46   52 am 
    51   48   49 1  
    52   48   50 1  
    53   49   51 1  
    54   52   53 1  
    55   53   54 1  
    56   53   56 1  
    57   54   55 2  
    58   54   60 am 
    59   56   57 1  
    60   57   58 1  
    61   58   59 1  
    62   60   61 1  
    63   61   62 1  
    64   61   64 1  
    65   62   63 2  
    66   62   71 am 
    67   64   65 1  
    68   65   66 1  
    69   66   67 1  
    70   67   68 ar 
    71   68   69 ar 
    72   68   70 ar 
    73    1   72 1  
    74    1   73 1  
    75    2   74 1  
    76    5   75 1  
    77    5   76 1  
    78    6   77 1  
    79    6   78 1  
    80    7   79 1  
    81    7   80 1  
    82    8   81 1  
    83    9   82 1  
    84   12   83 1  
    85   12   84 1  
    86   13   85 1  
    87   13   86 1  
    88   14   87 1  
    89   14   88 1  
    90   15   89 1  
    91   17   90 1  
    92   17   91 1  
    93   18   92 1  
    94   18   93 1  
    95   19   94 1  
    96   20   95 1  
    97   23   96 1  
    98   23   97 1  
    99   24   98 1  
   100   24   99 1  
   101   25  100 1  
   102   25  101 1  
   103   26  102 1  
   104   28  103 1  
   105   28  104 1  
   106   29  105 1  
   107   29  106 1  
   108   31  107 1  
   109   34  108 1  
   110   34  109 1  
   111   35  110 1  
   112   35  111 1  
   113   36  112 1  
   114   36  113 1  
   115   37  114 1  
   116   38  115 1  
   117   41  116 1  
   118   42  117 1  
   119   42  118 1  
   120   42  119 1  
   121   43  120 1  
   122   43  121 1  
   123   43  122 1  
   124   44  123 1  
   125   45  124 1  
   126   48  125 1  
   127   49  126 1  
   128   49  127 1  
   129   50  128 1  
   130   50  129 1  
   131   50  130 1  
   132   51  131 1  
   133   51  132 1  
   134   51  133 1  
   135   52  134 1  
   136   53  135 1  
   137   56  136 1  
   138   56  137 1  
   139   57  138 1  
   140   57  139 1  
   141   59  140 1  
   142   59  141 1  
   143   59  142 1  
   144   60  143 1  
   145   61  144 1  
   146   64  145 1  
   147   64  146 1  
   148   65  147 1  
   149   65  148 1  
   150   66  149 1  
   151   66  150 1  
   152   67  151 1  
   153   69  152 1  
   154   69  153 1  
   155   70  154 1  
   156   70  155 1  
   157   71  156 1  
   158   71  157 1  
@<TRIPOS>SUBSTRUCTURE
     1 PRO         1

