4ezt_ligand
  -I-interpret- 

154155  0  0  0  0  0  0  0  0999 V2000
   61.6690   85.1730   22.2290 N   0  3  0  0  0
   60.9930   84.3420   23.2090 C   0  0  0  0  0
   59.7640   85.0700   23.7540 C   0  0  0  0  0
   59.6470   86.2840   23.5740 O   0  0  0  0  0
   62.0440   84.2190   24.3100 C   0  0  0  0  0
   63.3260   84.1970   23.5550 C   0  0  0  0  0
   63.1370   85.1240   22.3800 C   0  0  0  0  0
   58.8580   84.3620   24.4090 N   0  0  0  0  0
   57.7470   85.0370   25.0430 C   0  0  0  0  0
   58.0880   86.2260   25.9690 C   0  0  0  0  0
   59.2050   86.3570   26.4800 O   0  0  0  0  0
   56.8620   84.0230   25.7570 C   0  0  0  0  0
   56.2380   83.0720   24.7530 C   0  0  0  0  0
   55.1980   83.7980   23.8840 C   0  0  0  0  0
   53.8430   83.7830   24.4550 N   0  0  0  0  0
   53.2250   82.6700   24.8490 C   0  0  0  0  0
   51.9980   82.6880   25.3360 N   0  0  0  0  0
   53.8570   81.5160   24.7540 N   0  0  0  0  0
   57.1080   87.1150   26.1470 N   0  0  0  0  0
   57.2320   88.1600   27.1560 C   0  0  0  0  0
   56.9110   87.5130   28.5000 C   0  0  0  0  0
   56.2190   86.5080   28.5400 O   0  0  0  0  0
   56.2360   89.2770   26.8200 C   0  0  0  0  0
   56.5080   89.9170   25.4590 C   0  0  0  0  0
   57.8770   90.5330   25.4960 C   0  0  0  0  0
   58.4150   91.0800   24.2400 N   0  0  0  0  0
   58.8790   90.3580   23.2180 C   0  0  0  0  0
   58.8470   89.0290   23.2310 N   0  0  0  0  0
   59.3660   90.9670   22.1630 N   0  0  0  0  0
   57.4610   88.0660   29.5970 N   0  0  0  0  0
   57.0550   87.6780   30.9480 C   0  0  0  0  0
   55.5900   87.9570   31.2260 C   0  0  0  0  0
   55.0220   88.9390   30.7120 O   0  0  0  0  0
   57.9730   88.5130   31.8710 C   0  0  0  0  0
   59.0030   89.1710   30.9590 C   0  0  0  0  0
   58.3940   89.2010   29.5690 C   0  0  0  0  0
   55.0060   87.0890   32.0370 N   0  0  0  0  0
   53.6480   87.1550   32.4950 C   0  0  0  0  0
   53.7160   87.6240   33.9150 C   0  0  0  0  0
   54.6090   87.1530   34.6460 O   0  0  0  0  0
   53.1750   85.7300   32.5730 C   0  0  0  0  0
   51.7490   85.6340   33.0850 C   0  0  0  0  0
   53.3230   85.1700   31.1740 C   0  0  0  0  0
   52.8320   88.5490   34.3230 N   0  0  0  0  0
   52.7500   88.9350   35.7420 C   0  0  0  0  0
   52.4880   87.6260   36.4870 C   0  0  0  0  0
   51.4790   86.9850   36.2300 O   0  0  0  0  0
   51.6440   89.9920   36.0360 C   0  0  0  0  0
   52.0660   91.3720   35.5190 C   0  0  0  0  0
   51.3850   90.1130   37.5560 C   0  0  0  0  0
   51.5930   91.7030   34.1160 C   0  0  0  0  0
   53.4400   87.1840   37.3160 N   0  0  0  0  0
   53.2690   85.9210   38.0760 C   0  0  0  0  0
   51.9760   85.9730   38.8850 C   0  0  0  0  0
   51.5840   87.0330   39.4130 O   0  0  0  0  0
   54.4640   85.5970   38.9880 C   0  0  0  0  0
   54.4900   84.1410   39.4940 C   0  0  0  0  0
   55.6430   83.7490   40.8430 S   0  0  0  0  0
   55.7940   81.9820   40.6930 C   0  0  0  0  0
   51.3070   84.8230   38.9070 N   0  0  0  0  0
   50.0940   84.5760   39.6780 C   0  0  0  0  0
   50.4980   84.4960   41.1590 C   0  0  0  0  0
   51.5560   83.9400   41.5120 O   0  0  0  0  0
   49.4180   83.2640   39.1990 C   0  0  0  0  0
   49.0220   83.1860   37.7050 C   0  0  0  0  0
   50.1580   82.8950   36.6870 C   0  0  0  0  0
   50.1320   81.6140   35.9300 N   0  0  0  0  0
   49.0910   80.7800   35.7690 C   0  0  0  0  0
   47.8930   81.0350   36.2970 N   0  0  0  0  0
   49.2460   79.6690   35.0550 N   0  0  0  0  0
   49.6840   85.0870   42.0170 N   0  0  0  0  0
   61.3665   86.1374   22.3658 H   0  0  0  0  0
   61.4324   84.8262   21.2994 H   0  0  0  0  0
   60.6478   83.3873   22.8121 H   0  0  0  0  0
   61.9043   83.3317   24.9275 H   0  0  0  0  0
   61.9947   85.0346   25.0314 H   0  0  0  0  0
   63.5705   83.1876   23.2243 H   0  0  0  0  0
   64.1572   84.5205   24.1816 H   0  0  0  0  0
   63.5782   86.1074   22.5423 H   0  0  0  0  0
   63.6429   84.7742   21.4801 H   0  0  0  0  0
   58.9426   83.3471   24.4664 H   0  0  0  0  0
   57.2134   85.5115   24.2195 H   0  0  0  0  0
   56.0699   84.5519   26.2869 H   0  0  0  0  0
   57.4693   83.4518   26.4592 H   0  0  0  0  0
   55.7420   82.2663   25.2943 H   0  0  0  0  0
   57.0230   82.6797   24.1065 H   0  0  0  0  0
   55.1550   83.2819   22.9249 H   0  0  0  0  0
   55.5081   84.8399   23.8038 H   0  0  0  0  0
   53.3505   84.6706   24.5547 H   0  0  0  0  0
   51.5538   81.8187   25.6315 H   0  0  0  0  0
   51.4942   83.5712   25.4167 H   0  0  0  0  0
   54.8065   81.4836   24.3827 H   0  0  0  0  0
   56.2665   87.0627   25.5730 H   0  0  0  0  0
   58.2305   88.5960   27.1880 H   0  0  0  0  0
   56.3321   90.0520   27.5804 H   0  0  0  0  0
   55.2381   88.8393   26.7915 H   0  0  0  0  0
   55.7591   90.6801   25.2472 H   0  0  0  0  0
   56.4572   89.1632   24.6733 H   0  0  0  0  0
   58.5530   89.7250   25.7756 H   0  0  0  0  0
   57.7962   91.3831   26.1735 H   0  0  0  0  0
   58.4349   92.0951   24.1426 H   0  0  0  0  0
   59.1971   88.5026   22.4305 H   0  0  0  0  0
   58.4724   88.5358   24.0414 H   0  0  0  0  0
   59.3883   91.9861   22.1274 H   0  0  0  0  0
   57.1578   86.6041   31.1036 H   0  0  0  0  0
   58.4545   87.8850   32.6206 H   0  0  0  0  0
   57.4023   89.2592   32.4238 H   0  0  0  0  0
   59.9392   88.6128   30.9622 H   0  0  0  0  0
   59.2403   90.1780   31.3022 H   0  0  0  0  0
   57.9036   90.1475   29.3413 H   0  0  0  0  0
   59.1391   89.1180   28.7778 H   0  0  0  0  0
   55.5705   86.3052   32.3648 H   0  0  0  0  0
   53.0208   87.7851   31.8643 H   0  0  0  0  0
   53.7642   85.1545   33.2870 H   0  0  0  0  0
   51.6927   86.0681   34.0832 H   0  0  0  0  0
   51.0856   86.1782   32.4128 H   0  0  0  0  0
   51.4485   84.5870   33.1252 H   0  0  0  0  0
   52.7127   85.7529   30.4842 H   0  0  0  0  0
   54.3686   85.2244   30.8710 H   0  0  0  0  0
   52.9939   84.1309   31.1632 H   0  0  0  0  0
   52.2112   88.9886   33.6434 H   0  0  0  0  0
   53.6696   89.4249   36.0621 H   0  0  0  0  0
   50.7377   89.6595   35.5298 H   0  0  0  0  0
   53.1557   91.3789   35.4936 H   0  0  0  0  0
   51.6162   92.1086   36.1848 H   0  0  0  0  0
   51.0606   89.1482   37.9459 H   0  0  0  0  0
   52.3038   90.4183   38.0567 H   0  0  0  0  0
   50.6087   90.8575   37.7329 H   0  0  0  0  0
   51.9948   90.9703   33.4162 H   0  0  0  0  0
   50.5037   91.6771   34.0856 H   0  0  0  0  0
   51.9418   92.6986   33.8418 H   0  0  0  0  0
   54.2980   87.7242   37.4277 H   0  0  0  0  0
   53.2151   85.1142   37.3451 H   0  0  0  0  0
   54.3870   86.2421   39.8632 H   0  0  0  0  0
   55.3696   85.7517   38.4015 H   0  0  0  0  0
   54.8133   83.5389   38.6448 H   0  0  0  0  0
   53.4936   83.9487   39.8919 H   0  0  0  0  0
   54.8136   81.5228   40.8199 H   0  0  0  0  0
   56.1876   81.7347   39.7071 H   0  0  0  0  0
   56.4729   81.6102   41.4604 H   0  0  0  0  0
   51.6702   84.0557   38.3415 H   0  0  0  0  0
   49.3686   85.3777   39.5392 H   0  0  0  0  0
   48.4863   83.1863   39.7593 H   0  0  0  0  0
   50.1538   82.4750   39.3545 H   0  0  0  0  0
   48.6382   84.1732   37.4476 H   0  0  0  0  0
   48.3295   82.3481   37.6247 H   0  0  0  0  0
   51.0684   82.8512   37.2848 H   0  0  0  0  0
   50.0640   83.6727   35.9291 H   0  0  0  0  0
   51.0053   81.3372   35.4816 H   0  0  0  0  0
   47.1215   80.3844   36.1490 H   0  0  0  0  0
   47.7484   81.8806   36.8488 H   0  0  0  0  0
   50.1502   79.4551   34.6343 H   0  0  0  0  0
   49.9125   85.0995   43.0110 H   0  0  0  0  0
   48.8275   85.5304   41.6849 H   0  0  0  0  0
  1  2  1  0  0  0
  1  7  1  0  0  0
  2  3  1  0  0  0
  2  5  1  0  0  0
  3  4  2  0  0  0
  3  8  1  0  0  0
  5  6  1  0  0  0
  6  7  1  0  0  0
  8  9  1  0  0  0
  9 10  1  0  0  0
  9 12  1  0  0  0
 10 11  2  0  0  0
 10 19  1  0  0  0
 12 13  1  0  0  0
 13 14  1  0  0  0
 14 15  1  0  0  0
 15 16  1  0  0  0
 16 17  1  0  0  0
 16 18  2  0  0  0
 19 20  1  0  0  0
 20 21  1  0  0  0
 20 23  1  0  0  0
 21 22  2  0  0  0
 21 30  1  0  0  0
 23 24  1  0  0  0
 24 25  1  0  0  0
 25 26  1  0  0  0
 26 27  1  0  0  0
 27 28  1  0  0  0
 27 29  2  0  0  0
 30 31  1  0  0  0
 30 36  1  0  0  0
 31 32  1  0  0  0
 31 34  1  0  0  0
 32 33  2  0  0  0
 32 37  1  0  0  0
 34 35  1  0  0  0
 35 36  1  0  0  0
 37 38  1  0  0  0
 38 39  1  0  0  0
 38 41  1  0  0  0
 39 40  2  0  0  0
 39 44  1  0  0  0
 41 42  1  0  0  0
 41 43  1  0  0  0
 44 45  1  0  0  0
 45 46  1  0  0  0
 45 48  1  0  0  0
 46 47  2  0  0  0
 46 52  1  0  0  0
 48 49  1  0  0  0
 48 50  1  0  0  0
 49 51  1  0  0  0
 52 53  1  0  0  0
 53 54  1  0  0  0
 53 56  1  0  0  0
 54 55  2  0  0  0
 54 60  1  0  0  0
 56 57  1  0  0  0
 57 58  1  0  0  0
 58 59  1  0  0  0
 60 61  1  0  0  0
 61 62  1  0  0  0
 61 64  1  0  0  0
 62 63  2  0  0  0
 62 71  1  0  0  0
 64 65  1  0  0  0
 65 66  1  0  0  0
 66 67  1  0  0  0
 67 68  1  0  0  0
 68 69  1  0  0  0
 68 70  2  0  0  0
  1 72  1  0  0  0
  1 73  1  0  0  0
  2 74  1  0  0  0
  5 75  1  0  0  0
  5 76  1  0  0  0
  6 77  1  0  0  0
  6 78  1  0  0  0
  7 79  1  0  0  0
  7 80  1  0  0  0
  8 81  1  0  0  0
  9 82  1  0  0  0
 12 83  1  0  0  0
 12 84  1  0  0  0
 13 85  1  0  0  0
 13 86  1  0  0  0
 14 87  1  0  0  0
 14 88  1  0  0  0
 15 89  1  0  0  0
 17 90  1  0  0  0
 17 91  1  0  0  0
 18 92  1  0  0  0
 19 93  1  0  0  0
 20 94  1  0  0  0
 23 95  1  0  0  0
 23 96  1  0  0  0
 24 97  1  0  0  0
 24 98  1  0  0  0
 25 99  1  0  0  0
 25100  1  0  0  0
 26101  1  0  0  0
 28102  1  0  0  0
 28103  1  0  0  0
 29104  1  0  0  0
 31105  1  0  0  0
 34106  1  0  0  0
 34107  1  0  0  0
 35108  1  0  0  0
 35109  1  0  0  0
 36110  1  0  0  0
 36111  1  0  0  0
 37112  1  0  0  0
 38113  1  0  0  0
 41114  1  0  0  0
 42115  1  0  0  0
 42116  1  0  0  0
 42117  1  0  0  0
 43118  1  0  0  0
 43119  1  0  0  0
 43120  1  0  0  0
 44121  1  0  0  0
 45122  1  0  0  0
 48123  1  0  0  0
 49124  1  0  0  0
 49125  1  0  0  0
 50126  1  0  0  0
 50127  1  0  0  0
 50128  1  0  0  0
 51129  1  0  0  0
 51130  1  0  0  0
 51131  1  0  0  0
 52132  1  0  0  0
 53133  1  0  0  0
 56134  1  0  0  0
 56135  1  0  0  0
 57136  1  0  0  0
 57137  1  0  0  0
 59138  1  0  0  0
 59139  1  0  0  0
 59140  1  0  0  0
 60141  1  0  0  0
 61142  1  0  0  0
 64143  1  0  0  0
 64144  1  0  0  0
 65145  1  0  0  0
 65146  1  0  0  0
 66147  1  0  0  0
 66148  1  0  0  0
 67149  1  0  0  0
 69150  1  0  0  0
 69151  1  0  0  0
 70152  1  0  0  0
 71153  1  0  0  0
 71154  1  0  0  0
M  END
$$$$
