5u11_ligand
  -I-interpret- 

 26 27  0  0  0  0  0  0  0  0999 V2000
    9.5110    0.5780   24.4480 C   0  0  0  0  0
    9.8280    0.1630   25.7240 C   0  0  0  0  0
   10.3040    1.4910   23.7950 C   0  0  0  0  0
   11.6330    1.4970   25.6870 C   0  0  0  0  0
    8.0580   -0.8790   25.2020 C   0  0  0  0  0
    6.2460   -2.8030   22.6030 C   0  0  0  0  0
    5.0630   -3.8240   20.6500 C   0  0  0  0  0
    5.7930   -1.7940   23.6560 C   0  0  0  0  0
   10.9050    0.6090   26.3830 N   0  0  0  0  0
    8.9140   -0.7390   26.1910 N   0  0  0  0  0
   11.3810    1.9470   24.4420 N   0  0  0  0  0
    8.3740   -0.0970   24.1270 N   0  0  0  0  0
   12.7540    2.0040   26.3320 N   0  0  0  0  0
    5.4300   -2.7000   21.4780 N   0  0  0  0  0
    7.1880   -3.5890   22.7160 O   0  0  0  0  0
   10.0380    1.9410   22.5240 O   0  0  0  0  0
    6.6660   -1.9340   25.2410 S   0  0  0  0  0
    5.9634   -4.2785   20.2366 H   0  0  0  0  0
    4.5277   -4.5580   21.2524 H   0  0  0  0  0
    4.4217   -3.4814   19.8379 H   0  0  0  0  0
    4.7376   -1.9839   23.8514 H   0  0  0  0  0
    6.0008   -0.7999   23.2603 H   0  0  0  0  0
   12.0023    2.6248   24.0004 H   0  0  0  0  0
   12.9803    1.6974   27.2781 H   0  0  0  0  0
   13.3508    2.6829   25.8595 H   0  0  0  0  0
    5.0721   -1.7788   21.2255 H   0  0  0  0  0
  1  2  4  0  0  0
  1  3  1  0  0  0
 12  1  4  0  0  0
  2  9  1  0  0  0
 10  2  4  0  0  0
  3 11  1  0  0  0
  3 16  2  0  0  0
  9  4  2  0  0  0
 11  4  1  0  0  0
  4 13  1  0  0  0
  5 10  4  0  0  0
  5 12  4  0  0  0
 17  5  1  0  0  0
  8  6  1  0  0  0
  6 14  1  0  0  0
  6 15  2  0  0  0
 14  7  1  0  0  0
  8 17  1  0  0  0
  7 18  1  0  0  0
  7 19  1  0  0  0
  7 20  1  0  0  0
  8 21  1  0  0  0
  8 22  1  0  0  0
 11 23  1  0  0  0
 13 24  1  0  0  0
 13 25  1  0  0  0
 14 26  1  0  0  0
M  END
$$$$
