1ggd_ligand
  -I-interpret- 

 48 48  0  0  0  0  0  0  0  0999 V2000
   31.5080    2.0840   42.0320 C   0  0  0  0  0
   30.6660    2.9800   42.1110 O   0  0  0  0  0
   32.1850    1.5580   43.2890 C   0  0  0  0  0
   31.8720    1.5300   40.8810 N   0  0  0  0  0
   31.3140    1.9880   39.6180 C   0  0  0  0  0
   32.2020    1.5480   38.4560 C   0  0  0  0  0
   33.5960    2.1670   38.4130 C   0  0  0  0  0
   34.0640    2.2360   36.9660 C   0  0  0  0  0
   33.5790    3.5520   39.0390 C   0  0  0  0  0
   29.9050    1.4630   39.4010 C   0  0  0  0  0
   29.6170    0.2960   39.6390 O   0  0  0  0  0
   29.0250    2.3360   38.9340 N   0  0  0  0  0
   27.6430    1.9550   38.6950 C   0  0  0  0  0
   26.6950    3.0600   39.1890 C   0  0  0  0  0
   26.6600    3.2170   40.7010 C   0  0  0  0  0
   27.0500    2.1730   41.5310 C   0  0  0  0  0
   26.2360    4.4090   41.2900 C   0  0  0  0  0
   27.0210    2.3050   42.9230 C   0  0  0  0  0
   26.2010    4.5570   42.6830 C   0  0  0  0  0
   26.5950    3.4970   43.5030 C   0  0  0  0  0
   27.4750    1.7290   37.2060 C   0  0  0  0  0
   26.3130    0.9760   36.9940 O   0  0  0  0  0
   32.7143    2.3728   43.7831 H   0  0  0  0  0
   31.4312    1.1511   43.9630 H   0  0  0  0  0
   32.8929    0.7746   43.0182 H   0  0  0  0  0
   32.5537    0.7713   40.8827 H   0  0  0  0  0
   31.2709    3.0764   39.6587 H   0  0  0  0  0
   31.6959    1.8663   37.5446 H   0  0  0  0  0
   32.3460    0.4735   38.5688 H   0  0  0  0  0
   34.2882    1.5494   38.9853 H   0  0  0  0  0
   33.3867    2.8724   36.3964 H   0  0  0  0  0
   35.0710    2.6516   36.9306 H   0  0  0  0  0
   34.0681    1.2333   36.5386 H   0  0  0  0  0
   34.5839    3.9735   39.0129 H   0  0  0  0  0
   32.8996    4.1943   38.4787 H   0  0  0  0  0
   33.2414    3.4780   40.0728 H   0  0  0  0  0
   29.3224    3.2920   38.7388 H   0  0  0  0  0
   27.3980    1.0432   39.2397 H   0  0  0  0  0
   25.6889    2.7887   38.8694 H   0  0  0  0  0
   27.0541    4.0022   38.7750 H   0  0  0  0  0
   27.3845    1.2344   41.0892 H   0  0  0  0  0
   25.9266    5.2394   40.6554 H   0  0  0  0  0
   27.3324    1.4733   43.5550 H   0  0  0  0  0
   25.8675    5.4959   43.1251 H   0  0  0  0  0
   26.5692    3.6021   44.5876 H   0  0  0  0  0
   28.3396    1.1941   36.8129 H   0  0  0  0  0
   27.3938    2.6873   36.6930 H   0  0  0  0  0
   26.1969    0.8269   36.0528 H   0  0  0  0  0
  1  2  2  0  0  0
  1  3  1  0  0  0
  1  4  1  0  0  0
  4  5  1  0  0  0
  5  6  1  0  0  0
  5 10  1  0  0  0
  6  7  1  0  0  0
  7  8  1  0  0  0
  7  9  1  0  0  0
 10 11  2  0  0  0
 10 12  1  0  0  0
 12 13  1  0  0  0
 13 14  1  0  0  0
 13 21  1  0  0  0
 14 15  1  0  0  0
 15 16  4  0  0  0
 15 17  4  0  0  0
 16 18  4  0  0  0
 17 19  4  0  0  0
 18 20  4  0  0  0
 19 20  4  0  0  0
 21 22  1  0  0  0
  3 23  1  0  0  0
  3 24  1  0  0  0
  3 25  1  0  0  0
  4 26  1  0  0  0
  5 27  1  0  0  0
  6 28  1  0  0  0
  6 29  1  0  0  0
  7 30  1  0  0  0
  8 31  1  0  0  0
  8 32  1  0  0  0
  8 33  1  0  0  0
  9 34  1  0  0  0
  9 35  1  0  0  0
  9 36  1  0  0  0
 12 37  1  0  0  0
 13 38  1  0  0  0
 14 39  1  0  0  0
 14 40  1  0  0  0
 16 41  1  0  0  0
 17 42  1  0  0  0
 18 43  1  0  0  0
 19 44  1  0  0  0
 20 45  1  0  0  0
 21 46  1  0  0  0
 21 47  1  0  0  0
 22 48  1  0  0  0
M  END
$$$$
