#	Name:			3wax_ligand
#	Creating user name:	wangrx
#	Creation time:		Wed Aug  4 16:57:53 2021

#	Modifying user name:	wangrx
#	Modification time:	Wed Aug  4 16:58:57 2021

@<TRIPOS>MOLECULE
3wax_ligand
   56    59     1     0     0
SMALL
GAST_HUCK


@<TRIPOS>ATOM
      1 OBD        23.4950   35.7970   14.6940 O.3       1 DWX        -0.4105 
      2 BBC        23.6060   37.2740   14.7400 B         1 DWX         3.0000 
      3 OBE        24.1350   38.0610   13.5920 O.3       1 DWX        -0.4105 
      4 CAZ        22.7360   38.1400   16.0470 C.ar      1 DWX        -0.1918 
      5 CBA        21.6270   37.5430   16.7210 C.ar      1 DWX        -0.1723 
      6 CAY        23.1920   39.4230   16.4220 C.ar      1 DWX        -0.1707 
      7 CAX        22.5550   40.1210   17.4640 C.ar      1 DWX        -0.1827 
      8 CAW        21.4520   39.5240   18.1340 C.ar      1 DWX        -0.1701 
      9 CBB        20.9960   38.2450   17.7660 C.ar      1 DWX        -0.0975 
     10 CAV        19.8280   37.6500   18.4820 C.3       1 DWX        -0.0163 
     11 NAS        18.6280   38.4500   18.2530 N.4       1 DWX         0.2489 
     12 CAT        17.5110   38.1360   19.1260 C.3       1 DWX        -0.0091 
     13 CAU        16.2720   38.9420   18.8740 C.3       1 DWX         0.0748 
     14 CAR        18.2320   38.6090   16.8760 C.3       1 DWX        -0.0091 
     15 CAQ        17.0170   39.4440   16.6750 C.3       1 DWX         0.0748 
     16 NAP        15.9690   38.9410   17.4790 N.pl3     1 DWX        -0.2650 
     17 CAJ        14.6910   38.3850   17.0730 C.2       1 DWX         0.1726 
     18 SAI        14.1440   38.1570   15.4950 S.3       1 DWX         0.0003 
     19 NAK        13.7400   37.8960   17.9280 N.2       1 DWX        -0.2989 
     20 CAL        12.6200   37.3870   17.2940 C.2       1 DWX         0.1012 
     21 OAO        11.5480   36.8560   18.0450 O.3       1 DWX        -0.3515 
     22 CAH        12.6270   37.4270   15.8980 C.2       1 DWX         0.0415 
     23 CAG        11.5080   36.9460   15.0920 C.3       1 DWX         0.0090 
     24 CAF        11.4660   37.0300   13.5890 C.ar      1 DWX        -0.0364 
     25 CAA        11.8870   38.1610   12.8840 C.ar      1 DWX        -0.0450 
     26 CAB        11.7980   38.1800   11.4710 C.ar      1 DWX         0.0476 
     27 CLN        12.3260   39.5600   10.5850 Cl        1 DWX        -0.0719 
     28 CAC        11.2720   37.0740   10.7830 C.ar      1 DWX         0.0467 
     29 CLM        11.1520   37.1030    9.0490 Cl        1 DWX        -0.0766 
     30 CAD        10.8360   35.9500   11.4820 C.ar      1 DWX        -0.0542 
     31 CAE        10.9280   35.9280   12.8870 C.ar      1 DWX        -0.0586 
     32 H1         22.9202   35.5459   13.9807 H         1 DWX         0.2052 
     33 H2         22.9201   35.5458   13.9806 H         1 DWX         0.2052 
     34 H3         23.5889   37.9121   12.8290 H         1 DWX         0.2052 
     35 H4         23.5890   37.9121   12.8291 H         1 DWX         0.2052 
     36 H6         21.2748   36.5597   16.4310 H         1 DWX        -0.0189 
     37 H7         24.0339   39.8704   15.9062 H         1 DWX         0.0331 
     38 H8         22.9022   41.1061   17.7539 H         1 DWX        -0.0146 
     39 H9         20.9576   40.0597   18.9363 H         1 DWX        -0.0187 
     40 H10        20.0419   37.6184   19.5605 H         1 DWX         0.0964 
     41 H11        19.6583   36.6282   18.1118 H         1 DWX         0.0964 
     42 H12        18.9061   39.3773   18.5336 H         1 DWX         0.2049 
     43 H13        17.8282   38.3113   20.1646 H         1 DWX         0.0835 
     44 H14        17.2609   37.0731   18.9934 H         1 DWX         0.0835 
     45 H15        16.4344   39.9763   19.2115 H         1 DWX         0.0582 
     46 H16        15.4311   38.5024   19.4305 H         1 DWX         0.0582 
     47 H17        18.0357   37.6108   16.4577 H         1 DWX         0.0835 
     48 H18        19.0647   39.0777   16.3311 H         1 DWX         0.0835 
     49 H19        16.7179   39.4097   15.6170 H         1 DWX         0.0582 
     50 H20        17.2337   40.4837   16.9613 H         1 DWX         0.0582 
     51 H21        10.8681   36.5537   17.4543 H         1 DWX         0.2373 
     52 H22        10.6239   37.4953   15.4479 H         1 DWX         0.0525 
     53 H23        11.3994   35.8789   15.3359 H         1 DWX         0.0525 
     54 H24        12.2798   39.0196   13.4165 H         1 DWX         0.0563 
     55 H25        10.4290   35.0989   10.9481 H         1 DWX         0.0605 
     56 H26        10.5832   35.0584   13.4346 H         1 DWX         0.0559 
@<TRIPOS>BOND
     1    1    2 1    
     2    2    3 1    
     3    2    4 1    
     4    4    5 ar   
     5    4    6 ar   
     6    5    9 ar   
     7    6    7 ar   
     8    7    8 ar   
     9    8    9 ar   
    10    9   10 1    
    11   10   11 1    
    12   11   12 1    
    13   11   14 1    
    14   12   13 1    
    15   13   16 1    
    16   14   15 1    
    17   15   16 1    
    18   16   17 1    
    19   17   18 1    
    20   17   19 2    
    21   18   22 1    
    22   19   20 1    
    23   20   21 1    
    24   20   22 2    
    25   22   23 1    
    26   23   24 1    
    27   24   25 ar   
    28   24   31 ar   
    29   25   26 ar   
    30   26   27 1    
    31   26   28 ar   
    32   28   29 1    
    33   28   30 ar   
    34   30   31 ar   
    35    1   32 1    
    36    1   33 1    
    37    3   34 1    
    38    3   35 1    
    39    5   36 1    
    40    6   37 1    
    41    7   38 1    
    42    8   39 1    
    43   10   40 1    
    44   10   41 1    
    45   11   42 1    
    46   12   43 1    
    47   12   44 1    
    48   13   45 1    
    49   13   46 1    
    50   14   47 1    
    51   14   48 1    
    52   15   49 1    
    53   15   50 1    
    54   21   51 1    
    55   23   52 1    
    56   23   53 1    
    57   25   54 1    
    58   30   55 1    
    59   31   56 1    
@<TRIPOS>SUBSTRUCTURE
     1 DWX         1 PERM              0 ****  ****    0 ROOT 
