3wax_ligand

Created by X-TOOL on Fri Nov 18 17:27:39 2016
 57 60  0  0  0  0  0  0  0  0999 V2000
   23.4950   35.7970   14.6940  O 0  0  0  3  0  3
   23.6060   37.2740   14.7400  B 0  0  0  1  0  3
   24.1350   38.0610   13.5920  O 0  0  0  3  0  3
   22.7360   38.1400   16.0470  C 0  0  0  2  0  4
   21.6270   37.5430   16.7210  C 0  0  0  2  0  3
   23.1920   39.4230   16.4220  C 0  0  0  2  0  3
   22.5550   40.1210   17.4640  C 0  0  0  2  0  3
   21.4520   39.5240   18.1340  C 0  0  0  2  0  3
   20.9960   38.2450   17.7660  C 0  0  0  1  0  3
   19.8280   37.6500   18.4820  C 0  0  0  3  0  4
   18.6280   38.4500   18.2530  N 0  3  0  2  0  4
   17.5110   38.1360   19.1260  C 0  0  0  3  0  4
   16.2720   38.9420   18.8740  C 0  0  0  3  0  4
   18.2320   38.6090   16.8760  C 0  0  0  3  0  4
   17.0170   39.4440   16.6750  C 0  0  0  3  0  4
   15.9690   38.9410   17.4790  N 0  0  0  1  0  3
   14.6910   38.3850   17.0730  C 0  0  0  1  0  3
   14.1440   38.1570   15.4950  S 0  0  0  1  0  2
   13.7400   37.8960   17.9280  N 0  0  0  1  0  2
   12.6200   37.3870   17.2940  C 0  0  0  1  0  3
   11.5480   36.8560   18.0450  O 0  0  0  2  0  2
   12.6270   37.4270   15.8980  C 0  0  0  1  0  3
   11.5080   36.9460   15.0920  C 0  0  0  3  0  4
   11.4660   37.0300   13.5890  C 0  0  0  1  0  3
   11.8870   38.1610   12.8840  C 0  0  0  2  0  3
   11.7980   38.1800   11.4710  C 0  0  0  1  0  3
   12.3260   39.5600   10.5850 Cl 0  0  0  1  0  1
   11.2720   37.0740   10.7830  C 0  0  0  1  0  3
   11.1520   37.1030    9.0490 Cl 0  0  0  1  0  1
   10.8360   35.9500   11.4820  C 0  0  0  2  0  3
   10.9280   35.9280   12.8870  C 0  0  0  2  0  3
   22.9202   35.5459   13.9807  H 0  0  0  1  0  1
   22.9201   35.5458   13.9806  H 0  0  0  1  0  1
   23.5889   37.9121   12.8290  H 0  0  0  1  0  1
   23.5890   37.9121   12.8291  H 0  0  0  1  0  1
   23.2301   37.6056   15.2437  H 0  0  0  1  0  1
   21.2748   36.5597   16.4310  H 0  0  0  1  0  1
   24.0339   39.8704   15.9062  H 0  0  0  1  0  1
   22.9022   41.1061   17.7539  H 0  0  0  1  0  1
   20.9576   40.0597   18.9363  H 0  0  0  1  0  1
   20.0419   37.6184   19.5605  H 0  0  0  1  0  1
   19.6583   36.6282   18.1118  H 0  0  0  1  0  1
   18.9061   39.3773   18.5336  H 0  0  0  1  0  1
   17.8282   38.3113   20.1646  H 0  0  0  1  0  1
   17.2609   37.0731   18.9934  H 0  0  0  1  0  1
   16.4344   39.9763   19.2115  H 0  0  0  1  0  1
   15.4311   38.5024   19.4305  H 0  0  0  1  0  1
   18.0357   37.6108   16.4577  H 0  0  0  1  0  1
   19.0647   39.0777   16.3311  H 0  0  0  1  0  1
   16.7179   39.4097   15.6170  H 0  0  0  1  0  1
   17.2337   40.4837   16.9613  H 0  0  0  1  0  1
   10.8681   36.5537   17.4543  H 0  0  0  1  0  1
   10.6239   37.4953   15.4479  H 0  0  0  1  0  1
   11.3994   35.8789   15.3359  H 0  0  0  1  0  1
   12.2798   39.0196   13.4165  H 0  0  0  1  0  1
   10.4290   35.0989   10.9481  H 0  0  0  1  0  1
   10.5832   35.0584   13.4346  H 0  0  0  1  0  1
  1  2  1  0  0  2
  2  3  1  0  0  2
  2  4  1  0  0  2
  4  5  4  0  0  1
  4  6  4  0  0  1
  5  9  4  0  0  1
  6  7  4  0  0  1
  7  8  4  0  0  1
  8  9  4  0  0  1
  9 10  1  0  0  2
 10 11  1  0  0  2
 11 12  1  0  0  1
 11 14  1  0  0  1
 12 13  1  0  0  1
 13 16  1  0  0  1
 14 15  1  0  0  1
 15 16  1  0  0  1
 16 17  1  0  0  2
 17 18  1  0  0  1
 17 19  2  0  0  1
 18 22  1  0  0  1
 19 20  1  0  0  1
 20 21  1  0  0  2
 20 22  2  0  0  1
 22 23  1  0  0  2
 23 24  1  0  0  2
 24 25  4  0  0  1
 24 31  4  0  0  1
 25 26  4  0  0  1
 26 27  1  0  0  2
 26 28  4  0  0  1
 28 29  1  0  0  2
 28 30  4  0  0  1
 30 31  4  0  0  1
  1 32  1  0  0  2
  1 33  1  0  0  2
  3 34  1  0  0  2
  3 35  1  0  0  2
  4 36  1  0  0  2
  5 37  1  0  0  2
  6 38  1  0  0  2
  7 39  1  0  0  2
  8 40  1  0  0  2
 10 41  1  0  0  2
 10 42  1  0  0  2
 11 43  1  0  0  2
 12 44  1  0  0  2
 12 45  1  0  0  2
 13 46  1  0  0  2
 13 47  1  0  0  2
 14 48  1  0  0  2
 14 49  1  0  0  2
 15 50  1  0  0  2
 15 51  1  0  0  2
 21 52  1  0  0  2
 23 53  1  0  0  2
 23 54  1  0  0  2
 25 55  1  0  0  2
 30 56  1  0  0  2
 31 57  1  0  0  2
M  END
> <MOLECULAR_FORMULA>
C21H26N3O3SCl2B

> <MOLECULAR_WEIGHT>
482.0

> <NUM_HB_ATOMS>
5  

> <NUM_ROTOR>
5  

> <XLOGP2>
4.73 

$$$$
