5cst_ligand
  -I-interpret- 

 40 41  0  0  0  0  0  0  0  0999 V2000
  -14.4740  -16.5750   11.8300 O   0  0  0  0  0
  -14.2120  -15.3610   10.9470 P   0  0  0  0  0
  -12.7640  -15.1620   10.7050 O   0  0  0  0  0
  -14.8710  -14.0960   11.4610 O   0  0  0  0  0
  -14.9150  -15.7730    9.5280 O   0  0  0  0  0
  -15.8520  -17.1030    9.2200 P   0  0  0  0  0
  -15.1280  -18.4330    9.1780 O   0  0  0  0  0
  -17.1090  -17.0290   10.0660 O   0  0  0  0  0
  -16.2470  -16.8110    7.6760 O   0  0  0  0  0
  -16.7960  -15.5280    7.4970 C   0  0  0  0  0
  -17.1180  -15.1660    6.0650 C   0  0  0  0  0
  -15.9200  -15.0060    5.3030 O   0  0  0  0  0
  -17.9270  -16.2360    5.3510 C   0  0  0  0  0
  -19.2890  -16.2620    5.7920 O   0  0  0  0  0
  -17.7060  -15.7740    3.9380 C   0  0  0  0  0
  -18.5470  -14.6390    3.6480 O   0  0  0  0  0
  -16.2290  -15.3360    3.9540 C   0  0  0  0  0
  -15.2690  -16.3630    3.4290 N   0  0  0  0  0
  -15.0310  -16.4370    2.0320 C   0  0  0  0  0
  -15.6220  -15.6970    1.1980 O   0  0  0  0  0
  -14.1540  -17.3690    1.5720 N   0  0  0  0  0
  -13.5460  -18.2150    2.4080 C   0  0  0  0  0
  -12.7090  -19.0710    1.8810 N   0  0  0  0  0
  -13.7660  -18.1880    3.7840 C   0  0  0  0  0
  -14.6500  -17.2330    4.2610 C   0  0  0  0  0
  -15.4194  -16.6729   11.9652 H   0  0  0  0  0
  -15.8056  -14.2599   11.6066 H   0  0  0  0  0
  -17.4764  -16.1436   10.0145 H   0  0  0  0  0
  -16.0478  -14.8143    7.8417 H   0  0  0  0  0
  -17.7374  -15.5088    8.0461 H   0  0  0  0  0
  -17.6942  -14.2429    6.1271 H   0  0  0  0  0
  -17.6428  -17.2745    5.5207 H   0  0  0  0  0
  -19.7644  -16.9488    5.3187 H   0  0  0  0  0
  -17.9336  -16.5350    3.1915 H   0  0  0  0  0
  -18.3968  -14.3536    2.7438 H   0  0  0  0  0
  -16.1120  -14.4890    3.2780 H   0  0  0  0  0
  -13.9573  -17.4229    0.5726 H   0  0  0  0  0
  -12.5461  -19.0712    0.8741 H   0  0  0  0  0
  -13.2655  -18.8864    4.4547 H   0  0  0  0  0
  -14.8514  -17.1813    5.3310 H   0  0  0  0  0
  1  2  1  0  0  0
  2  3  2  0  0  0
  2  4  1  0  0  0
  2  5  1  0  0  0
  5  6  1  0  0  0
  6  7  2  0  0  0
  6  8  1  0  0  0
  6  9  1  0  0  0
  9 10  1  0  0  0
 10 11  1  0  0  0
 11 12  1  0  0  0
 11 13  1  0  0  0
 12 17  1  0  0  0
 13 14  1  0  0  0
 13 15  1  0  0  0
 15 16  1  0  0  0
 15 17  1  0  0  0
 17 18  1  0  0  0
 18 19  1  0  0  0
 18 25  1  0  0  0
 19 20  2  0  0  0
 19 21  1  0  0  0
 21 22  1  0  0  0
 22 23  2  0  0  0
 22 24  1  0  0  0
 24 25  2  0  0  0
  1 26  1  0  0  0
  4 27  1  0  0  0
  8 28  1  0  0  0
 10 29  1  0  0  0
 10 30  1  0  0  0
 11 31  1  0  0  0
 13 32  1  0  0  0
 14 33  1  0  0  0
 15 34  1  0  0  0
 16 35  1  0  0  0
 17 36  1  0  0  0
 21 37  1  0  0  0
 23 38  1  0  0  0
 24 39  1  0  0  0
 25 40  1  0  0  0
M  END
$$$$
