4qpd_ligand
  -I-interpret- 

 55 57  0  0  0  0  0  0  0  0999 V2000
   26.8190    9.3920   39.6470 N   0  0  0  0  0
   28.0230    9.8210   40.0860 C   0  0  0  0  0
   28.1670   10.9210   40.8770 N   0  0  0  0  0
   27.1010   11.6100   41.2440 C   0  0  0  0  0
   25.8400   11.2130   40.8080 C   0  0  0  0  0
   25.7650   10.1010   40.0230 C   0  0  0  0  0
   27.2390   12.7640   42.0520 N   0  0  0  0  0
   26.0750   13.1280   42.7360 C   0  0  0  0  0
   25.0230   13.3090   41.6960 C   0  0  0  0  0
   24.6950   11.9840   41.2060 N   0  3  0  0  0
   23.8170   13.9850   42.3150 C   0  0  0  0  0
   22.8200   14.3460   41.2940 N   0  0  0  0  0
   23.0400   15.4830   40.3860 C   0  0  0  0  0
   24.0860   16.4140   40.6340 C   0  0  0  0  0
   24.2790   17.4900   39.7670 C   0  0  0  0  0
   23.4270   17.6400   38.6430 C   0  0  0  0  0
   22.4000   16.7300   38.4070 C   0  0  0  0  0
   22.2030   15.6440   39.2850 C   0  0  0  0  0
   23.6430   18.8450   37.6810 C   0  0  0  0  0
   24.4560   19.8970   38.0960 N   0  0  0  0  0
   24.6650   21.0090   37.2390 C   0  0  0  0  0
   25.9110   20.7610   36.4110 C   0  0  0  0  0
   26.9220   20.1880   36.9210 O   0  0  0  0  0
   25.9260   21.1270   35.1970 O   0  0  0  0  0
   24.8420   22.2400   38.0930 C   0  0  0  0  0
   24.5900   23.4980   37.2560 C   0  0  0  0  0
   25.0030   24.7010   38.0900 C   0  0  0  0  0
   25.0340   24.6080   39.3450 O   0  0  0  0  0
   25.3180   25.7820   37.5160 O   0  0  0  0  0
   23.1080   18.8810   36.5920 O   0  0  0  0  0
   24.6640    9.7310   39.6330 O   0  0  0  0  0
   29.1710    9.0990   39.7140 N   0  0  0  0  0
   24.7934   11.0933   40.5279 H   0  0  0  0  0
   28.1124   13.2852   42.1287 H   0  0  0  0  0
   26.2247   14.0437   43.3079 H   0  0  0  0  0
   25.7874   12.3636   43.4579 H   0  0  0  0  0
   25.3616   13.9391   40.8735 H   0  0  0  0  0
   24.2402   11.4817   41.9684 H   0  0  0  0  0
   24.1061   12.1018   40.3815 H   0  0  0  0  0
   24.1486   14.8965   42.8122 H   0  0  0  0  0
   23.3558   13.2926   43.0193 H   0  0  0  0  0
   21.9627   13.7991   41.2146 H   0  0  0  0  0
   24.7358   16.2872   41.4999 H   0  0  0  0  0
   25.0773   18.2088   39.9518 H   0  0  0  0  0
   21.7477   16.8570   37.5430 H   0  0  0  0  0
   21.3977   14.9326   39.1021 H   0  0  0  0  0
   24.9002   19.8684   39.0137 H   0  0  0  0  0
   23.8160   21.1495   36.5700 H   0  0  0  0  0
   26.7409   19.9807   37.8407 H   0  0  0  0  0
   25.8606   22.2647   38.4803 H   0  0  0  0  0
   24.1306   22.2096   38.9183 H   0  0  0  0  0
   23.5363   23.5683   36.9859 H   0  0  0  0  0
   25.1684   23.4607   36.3329 H   0  0  0  0  0
   25.2378   25.6735   36.5655 H   0  0  0  0  0
   29.0840    8.2708   39.1250 H   0  0  0  0  0
  1  2  4  0  0  0
  1  6  1  0  0  0
  2  3  4  0  0  0
  2 32  2  0  0  0
  3  4  2  0  0  0
  4  5  1  0  0  0
  4  7  1  0  0  0
  5  6  1  0  0  0
  5 10  1  0  0  0
  6 31  2  0  0  0
  7  8  1  0  0  0
  8  9  1  0  0  0
  9 10  1  0  0  0
  9 11  1  0  0  0
 11 12  1  0  0  0
 12 13  1  0  0  0
 13 14  4  0  0  0
 13 18  4  0  0  0
 14 15  4  0  0  0
 15 16  4  0  0  0
 16 17  4  0  0  0
 16 19  1  0  0  0
 17 18  4  0  0  0
 19 20  1  0  0  0
 19 30  2  0  0  0
 20 21  1  0  0  0
 21 22  1  0  0  0
 21 25  1  0  0  0
 22 23  1  0  0  0
 22 24  2  0  0  0
 25 26  1  0  0  0
 26 27  1  0  0  0
 27 28  2  0  0  0
 27 29  1  0  0  0
  5 33  1  0  0  0
  7 34  1  0  0  0
  8 35  1  0  0  0
  8 36  1  0  0  0
  9 37  1  0  0  0
 10 38  1  0  0  0
 10 39  1  0  0  0
 11 40  1  0  0  0
 11 41  1  0  0  0
 12 42  1  0  0  0
 14 43  1  0  0  0
 15 44  1  0  0  0
 17 45  1  0  0  0
 18 46  1  0  0  0
 20 47  1  0  0  0
 21 48  1  0  0  0
 23 49  1  0  0  0
 25 50  1  0  0  0
 25 51  1  0  0  0
 26 52  1  0  0  0
 26 53  1  0  0  0
 29 54  1  0  0  0
 32 55  1  0  0  0
M  END
$$$$
