6d3z_ligand
  -I-interpret- 

221228  0  0  0  0  0  0  0  0999 V2000
  -13.3460   93.6820    4.8830 N   0  0  0  0  0
  -12.8960   92.9700    6.0660 C   0  0  0  0  0
  -11.4070   93.0990    6.3610 C   0  0  0  0  0
  -10.9300   92.6340    7.4130 O   0  0  0  0  0
  -10.6770   93.7200    5.4310 N   0  0  0  0  0
   -9.2490   93.9670    5.6160 C   0  0  0  0  0
   -9.0010   94.8020    6.8610 C   0  0  0  0  0
   -9.6100   95.8590    7.0400 O   0  0  0  0  0
   -8.6730   94.7140    4.4140 C   0  0  0  0  0
   -8.5520   93.9270    3.1490 C   0  0  0  0  0
   -7.6620   94.6720    2.1610 C   0  0  0  0  0
   -7.9770   94.2380    0.8130 N   0  0  0  0  0
   -7.0740   94.0030   -0.1220 C   0  0  0  0  0
   -5.7890   94.1800    0.1590 N   0  0  0  0  0
   -7.4590   93.5920   -1.3320 N   0  0  0  0  0
   -8.0890   94.3470    7.7100 N   0  0  0  0  0
   -7.5250   95.1960    8.7510 C   0  0  0  0  0
   -6.0240   95.2340    8.5420 C   0  0  0  0  0
   -5.3550   94.1980    8.6280 O   0  0  0  0  0
   -7.8540   94.6980   10.1620 C   0  0  0  0  0
   -9.5340   95.0460   10.7460 S   0  0  0  0  0
   -5.5040   96.4160    8.2510 N   0  0  0  0  0
   -4.0670   96.6160    8.1930 C   0  0  0  0  0
   -3.5330   96.6800    9.6160 C   0  0  0  0  0
   -4.1820   97.2380   10.5050 O   0  0  0  0  0
   -3.7510   97.8800    7.4020 C   0  0  0  0  0
   -3.9590   97.6230    5.9220 C   0  0  0  0  0
   -5.2340   97.6860    5.3570 C   0  0  0  0  0
   -2.8910   97.2490    5.1060 C   0  0  0  0  0
   -5.4370   97.4130    4.0220 C   0  0  0  0  0
   -3.0840   96.9690    3.7530 C   0  0  0  0  0
   -4.3580   97.0550    3.2190 C   0  0  0  0  0
   -4.5560   96.7820    1.8830 O   0  0  0  0  0
   -2.3540   96.0880    9.8390 N   0  0  0  0  0
   -1.9850   95.6370   11.1770 C   0  0  0  0  0
   -1.1790   96.6600   11.9890 C   0  0  0  0  0
   -0.3890   96.2600   12.8620 O   0  0  0  0  0
   -1.2460   94.3020   11.0740 C   0  0  0  0  0
   -2.2220   93.1280   10.9720 C   0  0  0  0  0
   -1.5380   91.8140   10.6120 C   0  0  0  0  0
   -2.5810   90.7430   10.2530 C   0  0  0  0  0
   -1.9640   89.3980   10.1560 N   0  3  0  0  0
   -1.3640   97.9600   11.7570 N   0  0  0  0  0
   -0.8100   98.9600   12.6760 C   0  0  0  0  0
   -1.5530   98.9280   14.0190 C   0  0  0  0  0
   -2.5290   98.1900   14.2060 O   0  0  0  0  0
   -0.8850  100.3630   12.0660 C   0  0  0  0  0
   -2.2150  100.7260   11.7040 O   0  0  0  0  0
   -1.1020   99.7520   14.9620 N   0  0  0  0  0
   -1.8140   99.9620   16.2280 C   0  0  0  0  0
   -2.1090  101.4470   16.4200 C   0  0  0  0  0
   -1.1660  102.2470   16.5710 O   0  0  0  0  0
   -1.0220   99.4330   17.4260 C   0  0  0  0  0
   -1.7690   99.6020   18.7680 C   0  0  0  0  0
   -0.8810  100.1190   19.8860 C   0  0  0  0  0
   -1.5290  100.0110   21.1960 N   0  0  0  0  0
   -0.9280  100.2520   22.3620 C   0  0  0  0  0
   -1.6010  100.1250   23.4980 N   0  0  0  0  0
    0.3480  100.6200   22.3950 N   0  0  0  0  0
   -3.3800  101.8780   16.4230 N   0  0  0  0  0
   -4.5680  101.0610   16.1230 C   0  0  0  0  0
   -4.5960  100.5840   14.6530 C   0  0  0  0  0
   -3.9060  101.1760   13.8210 O   0  0  0  0  0
   -5.7420  102.0110   16.4310 C   0  0  0  0  0
   -5.1530  103.3890   16.4760 C   0  0  0  0  0
   -3.7220  103.2430   16.8710 C   0  0  0  0  0
   -5.3490   99.5260   14.3510 N   0  0  0  0  0
   -5.3940   99.0160   12.9710 C   0  0  0  0  0
   -6.2560   99.8810   12.0600 C   0  0  0  0  0
   -7.1390  100.6140   12.5060 O   0  0  0  0  0
   -6.0030   97.6140   13.1260 C   0  0  0  0  0
   -6.8110   97.6800   14.3970 C   0  0  0  0  0
   -6.1080   98.6790   15.2960 C   0  0  0  0  0
   -5.9870   99.7740   10.7570 N   0  0  0  0  0
   -6.7930  100.4190    9.7200 C   0  0  0  0  0
   -7.6990   99.3540    9.1070 C   0  0  0  0  0
   -7.2340   98.4930    8.3470 O   0  0  0  0  0
   -5.9220  101.0890    8.6460 C   0  0  0  0  0
   -4.7740  101.8730    9.2820 C   0  0  0  0  0
   -6.7690  101.9950    7.7500 C   0  0  0  0  0
   -3.9290  102.6100    8.2670 C   0  0  0  0  0
   -8.9980   99.4220    9.4210 N   0  0  0  0  0
   -9.9690   98.4010    9.0420 C   0  0  0  0  0
  -11.0020   98.9660    8.0760 C   0  0  0  0  0
  -11.2840  100.1700    8.0680 O   0  0  0  0  0
  -10.6740   97.8290   10.2720 C   0  0  0  0  0
   -9.5370   96.9870   11.3940 S   0  0  0  0  0
  -11.5720   98.0790    7.2710 N   0  0  0  0  0
  -12.4910   98.4450    6.2050 C   0  0  0  0  0
  -13.6600   97.4740    6.1960 C   0  0  0  0  0
  -13.5800   96.3900    6.7890 O   0  0  0  0  0
  -11.7750   98.4470    4.8470 C   0  0  0  0  0
  -10.6650   99.4570    4.7580 C   0  0  0  0  0
   -9.3790   99.1320    5.1650 C   0  0  0  0  0
  -10.9120  100.7390    4.2870 C   0  0  0  0  0
   -8.3550  100.0660    5.0960 C   0  0  0  0  0
   -9.8920  101.6780    4.2170 C   0  0  0  0  0
   -8.6130  101.3400    4.6230 C   0  0  0  0  0
  -14.7770   97.8450    5.5530 N   0  0  0  0  0
  -15.8970   96.8960    5.4410 C   0  0  0  0  0
  -15.5810   95.6820    4.5770 C   0  0  0  0  0
  -16.1520   94.6110    4.8170 O   0  0  0  0  0
  -17.0240   97.7470    4.8310 C   0  0  0  0  0
  -16.6340   99.1670    5.0970 C   0  0  0  0  0
  -15.1370   99.1780    5.0350 C   0  0  0  0  0
  -14.6820   95.8060    3.5970 N   0  0  0  0  0
  -14.3070   94.6770    2.7370 C   0  0  0  0  0
  -13.6540   93.5370    3.5300 C   0  0  0  0  0
  -13.1110   92.5950    2.9440 O   0  0  0  0  0
  -13.3690   95.1370    1.5990 C   0  0  0  0  0
  -12.0420   95.7320    2.1030 C   0  0  0  0  0
  -11.5480   95.3880    3.1780 O   0  0  0  0  0
  -11.4610   96.6250    1.3060 N   0  0  0  0  0
  -13.6630   93.5460    4.7650 O   0  0  0  0  0
  -13.0188   92.3777    6.9728 H   0  0  0  0  0
  -11.1277   94.0296    4.5700 H   0  0  0  0  0
   -8.7615   92.9977    5.7207 H   0  0  0  0  0
   -7.6598   95.0047    4.6914 H   0  0  0  0  0
   -9.3636   95.5301    4.2015 H   0  0  0  0  0
   -9.5415   93.7922    2.7122 H   0  0  0  0  0
   -8.1107   92.9551    3.3699 H   0  0  0  0  0
   -6.6155   94.4584    2.3786 H   0  0  0  0  0
   -7.8353   95.7445    2.2496 H   0  0  0  0  0
   -8.9592   94.1058    0.5716 H   0  0  0  0  0
   -5.5087   94.4940    1.0881 H   0  0  0  0  0
   -6.7623   93.4098   -2.0543 H   0  0  0  0  0
   -8.4500   93.4600   -1.5344 H   0  0  0  0  0
   -7.7751   93.3796    7.6322 H   0  0  0  0  0
   -7.9628   96.1912    8.6737 H   0  0  0  0  0
   -7.1775   95.2195   10.8391 H   0  0  0  0  0
   -7.7542   93.6129   10.1376 H   0  0  0  0  0
   -6.1257   97.2026    8.0636 H   0  0  0  0  0
   -3.5802   95.7879    7.6778 H   0  0  0  0  0
   -2.7136   98.1653    7.5766 H   0  0  0  0  0
   -4.4129   98.6833    7.7255 H   0  0  0  0  0
   -6.0842   97.9560    5.9834 H   0  0  0  0  0
   -1.8905   97.1744    5.5321 H   0  0  0  0  0
   -6.4384   97.4771    3.5964 H   0  0  0  0  0
   -2.2407   96.6856    3.1233 H   0  0  0  0  0
   -3.7169   96.5534    1.4765 H   0  0  0  0  0
   -1.7051   95.9502    9.0642 H   0  0  0  0  0
   -2.9124   95.5110   11.7357 H   0  0  0  0  0
   -0.6413   94.1717   11.9715 H   0  0  0  0  0
   -0.6287   94.3172   10.1758 H   0  0  0  0  0
   -2.9363   93.3579   10.1815 H   0  0  0  0  0
   -2.6920   93.0013   11.9473 H   0  0  0  0  0
   -0.9589   91.4704   11.4691 H   0  0  0  0  0
   -0.8886   91.9774    9.7520 H   0  0  0  0  0
   -3.0167   90.9945    9.2861 H   0  0  0  0  0
   -3.3382   90.7208   11.0367 H   0  0  0  0  0
   -2.6809   88.7128    9.9172 H   0  0  0  0  0
   -1.2454   89.4063    9.4322 H   0  0  0  0  0
   -1.5429   89.1530   11.0521 H   0  0  0  0  0
   -1.8925   98.2600   10.9378 H   0  0  0  0  0
    0.2379   98.7145   12.8486 H   0  0  0  0  0
   -0.2747  100.3718   11.1629 H   0  0  0  0  0
   -0.5316  101.0750   12.8118 H   0  0  0  0  0
   -2.2133  101.6092   11.3276 H   0  0  0  0  0
   -0.2301  100.2556   14.7989 H   0  0  0  0  0
   -2.7482   99.4030   16.1750 H   0  0  0  0  0
   -0.0952  100.0032   17.4885 H   0  0  0  0  0
   -0.8578   98.3668   17.2701 H   0  0  0  0  0
   -2.1381   98.6208   19.0664 H   0  0  0  0  0
   -2.5642  100.3313   18.6138 H   0  0  0  0  0
   -0.6708  101.1714   19.6954 H   0  0  0  0  0
    0.0282   99.5180   19.9048 H   0  0  0  0  0
   -2.5097   99.7315   21.2176 H   0  0  0  0  0
   -2.5809   99.8423   23.4814 H   0  0  0  0  0
    0.8032  100.8026   23.2894 H   0  0  0  0  0
    0.8726  100.7200   21.5260 H   0  0  0  0  0
   -4.5967  100.1411   16.7069 H   0  0  0  0  0
   -6.2219  101.7544   17.3754 H   0  0  0  0  0
   -6.5206  101.9376   15.6717 H   0  0  0  0  0
   -5.6878  104.0123   17.1926 H   0  0  0  0  0
   -5.2356  103.8742   15.5035 H   0  0  0  0  0
   -3.0840  104.0033   16.4206 H   0  0  0  0  0
   -3.5668  103.3835   17.9407 H   0  0  0  0  0
   -4.4086   99.0142   12.5051 H   0  0  0  0  0
   -5.2348   96.8422   13.1745 H   0  0  0  0  0
   -6.6191   97.3434   12.2685 H   0  0  0  0  0
   -6.8748   96.7013   14.8726 H   0  0  0  0  0
   -7.8366   97.9885   14.1943 H   0  0  0  0  0
   -6.8059   99.2554   15.9033 H   0  0  0  0  0
   -5.4644   98.1962   16.0314 H   0  0  0  0  0
   -5.1821   99.2167   10.4708 H   0  0  0  0  0
   -7.3882  101.2164   10.1648 H   0  0  0  0  0
   -5.4888  100.3047    8.0253 H   0  0  0  0  0
   -4.1294  101.1601    9.7961 H   0  0  0  0  0
   -5.2091  102.6138    9.9529 H   0  0  0  0  0
   -7.5395  101.4005    7.2590 H   0  0  0  0  0
   -7.2377  102.7692    8.3576 H   0  0  0  0  0
   -6.1311  102.4584    6.9974 H   0  0  0  0  0
   -3.4954  101.8941    7.5687 H   0  0  0  0  0
   -4.5531  103.3184    7.7223 H   0  0  0  0  0
   -3.1316  103.1467    8.7810 H   0  0  0  0  0
   -9.3260  100.2286    9.9523 H   0  0  0  0  0
   -9.4229   97.5983    8.5465 H   0  0  0  0  0
  -11.4086   97.1003    9.9293 H   0  0  0  0  0
  -11.1284   98.6581   10.8144 H   0  0  0  0  0
  -11.3550   97.0916    7.4064 H   0  0  0  0  0
  -12.8642   99.4534    6.3836 H   0  0  0  0  0
  -12.5133   98.7027    4.0870 H   0  0  0  0  0
  -11.3331   97.4604    4.7074 H   0  0  0  0  0
   -9.1706   98.1313    5.5434 H   0  0  0  0  0
  -11.9182  101.0116    3.9685 H   0  0  0  0  0
   -7.3481   99.7959    5.4143 H   0  0  0  0  0
  -10.0984  102.6807    3.8426 H   0  0  0  0  0
   -7.8107  102.0760    4.5702 H   0  0  0  0  0
  -16.1533   96.4600    6.4066 H   0  0  0  0  0
  -17.9916   97.5072    5.2719 H   0  0  0  0  0
  -17.1390   97.5555    3.7641 H   0  0  0  0  0
  -17.0001   99.5114    6.0642 H   0  0  0  0  0
  -17.0728   99.8490    4.3687 H   0  0  0  0  0
  -14.7560   99.3590    4.0299 H   0  0  0  0  0
  -14.6951   99.9903    5.6121 H   0  0  0  0  0
  -14.2425   96.7132    3.4414 H   0  0  0  0  0
  -15.2297   94.2924    2.3025 H   0  0  0  0  0
  -13.8875   95.9166    1.0409 H   0  0  0  0  0
  -13.1284   94.2606    0.9972 H   0  0  0  0  0
  -10.5748   97.0508    1.5777 H   0  0  0  0  0
  -11.9018   96.8838    0.4233 H   0  0  0  0  0
  1  2  1  0  0  0
  1108  1  0  0  0
  1114  1  0  0  0
  2  3  1  0  0  0
  2114  1  0  0  0
  3  4  2  0  0  0
  3  5  1  0  0  0
  5  6  1  0  0  0
  6  7  1  0  0  0
  6  9  1  0  0  0
  7  8  2  0  0  0
  7 16  1  0  0  0
  9 10  1  0  0  0
 10 11  1  0  0  0
 11 12  1  0  0  0
 12 13  1  0  0  0
 13 14  2  0  0  0
 13 15  1  0  0  0
 16 17  1  0  0  0
 17 18  1  0  0  0
 17 20  1  0  0  0
 18 19  2  0  0  0
 18 22  1  0  0  0
 20 21  1  0  0  0
 21 87  1  0  0  0
 22 23  1  0  0  0
 23 24  1  0  0  0
 23 26  1  0  0  0
 24 25  2  0  0  0
 24 34  1  0  0  0
 26 27  1  0  0  0
 27 28  4  0  0  0
 27 29  4  0  0  0
 28 30  4  0  0  0
 29 31  4  0  0  0
 30 32  4  0  0  0
 31 32  4  0  0  0
 32 33  1  0  0  0
 34 35  1  0  0  0
 35 36  1  0  0  0
 35 38  1  0  0  0
 36 37  2  0  0  0
 36 43  1  0  0  0
 38 39  1  0  0  0
 39 40  1  0  0  0
 40 41  1  0  0  0
 41 42  1  0  0  0
 43 44  1  0  0  0
 44 45  1  0  0  0
 44 47  1  0  0  0
 45 46  2  0  0  0
 45 49  1  0  0  0
 47 48  1  0  0  0
 49 50  1  0  0  0
 50 51  1  0  0  0
 50 53  1  0  0  0
 51 52  2  0  0  0
 51 60  1  0  0  0
 53 54  1  0  0  0
 54 55  1  0  0  0
 55 56  1  0  0  0
 56 57  1  0  0  0
 57 58  2  0  0  0
 57 59  1  0  0  0
 60 61  1  0  0  0
 60 66  1  0  0  0
 61 62  1  0  0  0
 61 64  1  0  0  0
 62 63  2  0  0  0
 62 67  1  0  0  0
 64 65  1  0  0  0
 65 66  1  0  0  0
 67 68  1  0  0  0
 67 73  1  0  0  0
 68 69  1  0  0  0
 68 71  1  0  0  0
 69 70  2  0  0  0
 69 74  1  0  0  0
 71 72  1  0  0  0
 72 73  1  0  0  0
 74 75  1  0  0  0
 75 76  1  0  0  0
 75 78  1  0  0  0
 76 77  2  0  0  0
 76 82  1  0  0  0
 78 79  1  0  0  0
 78 80  1  0  0  0
 79 81  1  0  0  0
 82 83  1  0  0  0
 83 84  1  0  0  0
 83 86  1  0  0  0
 84 85  2  0  0  0
 84 88  1  0  0  0
 86 87  1  0  0  0
 88 89  1  0  0  0
 89 90  1  0  0  0
 89 92  1  0  0  0
 90 91  2  0  0  0
 90 99  1  0  0  0
 92 93  1  0  0  0
 93 94  4  0  0  0
 93 95  4  0  0  0
 94 96  4  0  0  0
 95 97  4  0  0  0
 96 98  4  0  0  0
 97 98  4  0  0  0
 99100  1  0  0  0
 99105  1  0  0  0
100101  1  0  0  0
100103  1  0  0  0
101102  2  0  0  0
101106  1  0  0  0
103104  1  0  0  0
104105  1  0  0  0
106107  1  0  0  0
107108  1  0  0  0
107110  1  0  0  0
108109  2  0  0  0
110111  1  0  0  0
111112  2  0  0  0
111113  1  0  0  0
  2115  1  0  0  0
  5116  1  0  0  0
  6117  1  0  0  0
  9118  1  0  0  0
  9119  1  0  0  0
 10120  1  0  0  0
 10121  1  0  0  0
 11122  1  0  0  0
 11123  1  0  0  0
 12124  1  0  0  0
 14125  1  0  0  0
 15126  1  0  0  0
 15127  1  0  0  0
 16128  1  0  0  0
 17129  1  0  0  0
 20130  1  0  0  0
 20131  1  0  0  0
 22132  1  0  0  0
 23133  1  0  0  0
 26134  1  0  0  0
 26135  1  0  0  0
 28136  1  0  0  0
 29137  1  0  0  0
 30138  1  0  0  0
 31139  1  0  0  0
 33140  1  0  0  0
 34141  1  0  0  0
 35142  1  0  0  0
 38143  1  0  0  0
 38144  1  0  0  0
 39145  1  0  0  0
 39146  1  0  0  0
 40147  1  0  0  0
 40148  1  0  0  0
 41149  1  0  0  0
 41150  1  0  0  0
 42151  1  0  0  0
 42152  1  0  0  0
 42153  1  0  0  0
 43154  1  0  0  0
 44155  1  0  0  0
 47156  1  0  0  0
 47157  1  0  0  0
 48158  1  0  0  0
 49159  1  0  0  0
 50160  1  0  0  0
 53161  1  0  0  0
 53162  1  0  0  0
 54163  1  0  0  0
 54164  1  0  0  0
 55165  1  0  0  0
 55166  1  0  0  0
 56167  1  0  0  0
 58168  1  0  0  0
 59169  1  0  0  0
 59170  1  0  0  0
 61171  1  0  0  0
 64172  1  0  0  0
 64173  1  0  0  0
 65174  1  0  0  0
 65175  1  0  0  0
 66176  1  0  0  0
 66177  1  0  0  0
 68178  1  0  0  0
 71179  1  0  0  0
 71180  1  0  0  0
 72181  1  0  0  0
 72182  1  0  0  0
 73183  1  0  0  0
 73184  1  0  0  0
 74185  1  0  0  0
 75186  1  0  0  0
 78187  1  0  0  0
 79188  1  0  0  0
 79189  1  0  0  0
 80190  1  0  0  0
 80191  1  0  0  0
 80192  1  0  0  0
 81193  1  0  0  0
 81194  1  0  0  0
 81195  1  0  0  0
 82196  1  0  0  0
 83197  1  0  0  0
 86198  1  0  0  0
 86199  1  0  0  0
 88200  1  0  0  0
 89201  1  0  0  0
 92202  1  0  0  0
 92203  1  0  0  0
 94204  1  0  0  0
 95205  1  0  0  0
 96206  1  0  0  0
 97207  1  0  0  0
 98208  1  0  0  0
100209  1  0  0  0
103210  1  0  0  0
103211  1  0  0  0
104212  1  0  0  0
104213  1  0  0  0
105214  1  0  0  0
105215  1  0  0  0
106216  1  0  0  0
107217  1  0  0  0
110218  1  0  0  0
110219  1  0  0  0
113220  1  0  0  0
113221  1  0  0  0
M  END
$$$$
