### 
### Created by X-TOOL on Mon Aug  2 16:12:54 2021
### 

@<TRIPOS>MOLECULE
6d3z_ligand
  223   230     1     0     0
SMALL
GAST_HUCK


@<TRIPOS>ATOM
      1 N         -13.3460   93.6820    4.8830 N.am      1 GLY        -0.0890
      2 CA        -12.8960   92.9700    6.0660 C.3       1 GLY         0.2896
      3 C         -11.4070   93.0990    6.3610 C.2       1 GLY         0.2370
      4 O         -10.9300   92.6340    7.4130 O.2       1 GLY        -0.3915
      5 N         -10.6770   93.7200    5.4310 N.am      1 GLY        -0.2615
      6 CA         -9.2490   93.9670    5.6160 C.3       1 GLY         0.1312
      7 C          -9.0010   94.8020    6.8610 C.2       1 GLY         0.2039
      8 O          -9.6100   95.8590    7.0400 O.2       1 GLY        -0.3944
      9 CB         -8.6730   94.7140    4.4140 C.3       1 GLY        -0.0092
     10 CG         -8.5520   93.9270    3.1490 C.3       1 GLY        -0.0156
     11 CD         -7.6620   94.6720    2.1610 C.3       1 GLY         0.0627
     12 NE         -7.9770   94.2380    0.8130 N.pl3     1 GLY        -0.2723
     13 CZ         -7.0740   94.0030   -0.1220 C.cat     1 GLY         0.2882
     14 NH1        -5.7890   94.1800    0.1590 N.pl3     1 GLY        -0.2849
     15 NH2        -7.4590   93.5920   -1.3320 N.pl3     1 GLY        -0.2849
     16 N          -8.0890   94.3470    7.7100 N.am      1 GLY        -0.2629
     17 CA         -7.5250   95.1960    8.7510 C.3       1 GLY         0.1406
     18 C          -6.0240   95.2340    8.5420 C.2       1 GLY         0.2048
     19 O          -5.3550   94.1980    8.6280 O.2       1 GLY        -0.3943
     20 CB         -7.8540   94.6980   10.1620 C.3       1 GLY         0.0443
     21 SG         -9.5340   95.0460   10.7460 S.3       1 GLY        -0.0882
     22 N          -5.5040   96.4160    8.2510 N.am      1 GLY        -0.2621
     23 CA         -4.0670   96.6160    8.1930 C.3       1 GLY         0.1390
     24 C          -3.5330   96.6800    9.6160 C.2       1 GLY         0.2057
     25 O          -4.1820   97.2380   10.5050 O.2       1 GLY        -0.3942
     26 CB         -3.7510   97.8800    7.4020 C.3       1 GLY         0.0163
     27 CG         -3.9590   97.6230    5.9220 C.ar      1 GLY        -0.0493
     28 CD1        -5.2340   97.6860    5.3570 C.ar      1 GLY        -0.0685
     29 CD2        -2.8910   97.2490    5.1060 C.ar      1 GLY        -0.0685
     30 CE1        -5.4370   97.4130    4.0220 C.ar      1 GLY        -0.0398
     31 CE2        -3.0840   96.9690    3.7530 C.ar      1 GLY        -0.0398
     32 CZ         -4.3580   97.0550    3.2190 C.ar      1 GLY         0.0805
     33 OH         -4.5560   96.7820    1.8830 O.3       1 GLY        -0.3376
     34 N          -2.3540   96.0880    9.8390 N.am      1 GLY        -0.2636
     35 CA         -1.9850   95.6370   11.1770 C.3       1 GLY         0.1310
     36 C          -1.1790   96.6600   11.9890 C.2       1 GLY         0.2040
     37 O          -0.3890   96.2600   12.8620 O.2       1 GLY        -0.3944
     38 CB         -1.2460   94.3020   11.0740 C.3       1 GLY        -0.0122
     39 CG         -2.2220   93.1280   10.9720 C.3       1 GLY        -0.0440
     40 CD         -1.5380   91.8140   10.6120 C.3       1 GLY        -0.0124
     41 CE         -2.5810   90.7430   10.2530 C.3       1 GLY        -0.0354
     42 NZ         -1.9640   89.3980   10.1560 N.4       1 GLY         0.2185
     43 N          -1.3640   97.9600   11.7570 N.am      1 GLY        -0.2616
     44 CA         -0.8100   98.9600   12.6760 C.3       1 GLY         0.1539
     45 C          -1.5530   98.9280   14.0190 C.2       1 GLY         0.2062
     46 O          -2.5290   98.1900   14.2060 O.2       1 GLY        -0.3943
     47 CB         -0.8850  100.3630   12.0660 C.3       1 GLY         0.0843
     48 OG         -2.2150  100.7260   11.7040 O.3       1 GLY        -0.3903
     49 N          -1.1020   99.7520   14.9620 N.am      1 GLY        -0.2637
     50 CA         -1.8140   99.9620   16.2280 C.3       1 GLY         0.1313
     51 C          -2.1090  101.4470   16.4200 C.2       1 GLY         0.2064
     52 O          -1.1660  102.2470   16.5710 O.2       1 GLY        -0.3942
     53 CB         -1.0220   99.4330   17.4260 C.3       1 GLY        -0.0092
     54 CG         -1.7690   99.6020   18.7680 C.3       1 GLY        -0.0156
     55 CD         -0.8810  100.1190   19.8860 C.3       1 GLY         0.0627
     56 NE         -1.5290  100.0110   21.1960 N.pl3     1 GLY        -0.2723
     57 CZ         -0.9280  100.2520   22.3620 C.cat     1 GLY         0.2882
     58 NH1        -1.6010  100.1250   23.4980 N.pl3     1 GLY        -0.2849
     59 NH2         0.3480  100.6200   22.3950 N.pl3     1 GLY        -0.2849
     60 N          -3.3800  101.8780   16.4230 N.am      1 GLY        -0.2498
     61 CA         -4.5680  101.0610   16.1230 C.3       1 GLY         0.1340
     62 C          -4.5960  100.5840   14.6530 C.2       1 GLY         0.2066
     63 O          -3.9060  101.1760   13.8210 O.2       1 GLY        -0.3942
     64 CB         -5.7420  102.0110   16.4310 C.3       1 GLY        -0.0104
     65 CG         -5.1530  103.3890   16.4760 C.3       1 GLY        -0.0281
     66 CD         -3.7220  103.2430   16.8710 C.3       1 GLY         0.0369
     67 N          -5.3490   99.5260   14.3510 N.am      1 GLY        -0.2498
     68 CA         -5.3940   99.0160   12.9710 C.3       1 GLY         0.1338
     69 C          -6.2560   99.8810   12.0600 C.2       1 GLY         0.2041
     70 O          -7.1390  100.6140   12.5060 O.2       1 GLY        -0.3944
     71 CB         -6.0030   97.6140   13.1260 C.3       1 GLY        -0.0104
     72 CG         -6.8110   97.6800   14.3970 C.3       1 GLY        -0.0281
     73 CD         -6.1080   98.6790   15.2960 C.3       1 GLY         0.0369
     74 N          -5.9870   99.7740   10.7570 N.am      1 GLY        -0.2635
     75 CA         -6.7930  100.4190    9.7200 C.3       1 GLY         0.1335
     76 C          -7.6990   99.3540    9.1070 C.2       1 GLY         0.2042
     77 O          -7.2340   98.4930    8.3470 O.2       1 GLY        -0.3944
     78 CB         -5.9220  101.0890    8.6460 C.3       1 GLY        -0.0037
     79 CG1        -4.7740  101.8730    9.2820 C.3       1 GLY        -0.0491
     80 CG2        -6.7690  101.9950    7.7500 C.3       1 GLY        -0.0582
     81 CD1        -3.9290  102.6100    8.2670 C.3       1 GLY        -0.0648
     82 N          -8.9980   99.4220    9.4210 N.am      1 GLY        -0.2629
     83 CA         -9.9690   98.4010    9.0420 C.3       1 GLY         0.1406
     84 C         -11.0020   98.9660    8.0760 C.2       1 GLY         0.2049
     85 O         -11.2840  100.1700    8.0680 O.2       1 GLY        -0.3943
     86 CB        -10.6740   97.8290   10.2720 C.3       1 GLY         0.0443
     87 SG         -9.5370   96.9870   11.3940 S.3       1 GLY        -0.0882
     88 N         -11.5720   98.0790    7.2710 N.am      1 GLY        -0.2619
     89 CA        -12.4910   98.4450    6.2050 C.3       1 GLY         0.1406
     90 C         -13.6600   97.4740    6.1960 C.2       1 GLY         0.2085
     91 O         -13.5800   96.3900    6.7890 O.2       1 GLY        -0.3940
     92 CB        -11.7750   98.4470    4.8470 C.3       1 GLY         0.0214
     93 CG        -10.6650   99.4570    4.7580 C.ar      1 GLY        -0.0386
     94 CD1        -9.3790   99.1320    5.1650 C.ar      1 GLY        -0.0601
     95 CD2       -10.9120  100.7390    4.2870 C.ar      1 GLY        -0.0601
     96 CE1        -8.3550  100.0660    5.0960 C.ar      1 GLY        -0.0686
     97 CE2        -9.8920  101.6780    4.2170 C.ar      1 GLY        -0.0686
     98 CZ         -8.6130  101.3400    4.6230 C.ar      1 GLY        -0.0687
     99 N         -14.7770   97.8450    5.5530 N.am      1 GLY        -0.2497
    100 CA        -15.8970   96.8960    5.4410 C.3       1 GLY         0.1338
    101 C         -15.5810   95.6820    4.5770 C.2       1 GLY         0.2042
    102 O         -16.1520   94.6110    4.8170 O.2       1 GLY        -0.3944
    103 CB        -17.0240   97.7470    4.8310 C.3       1 GLY        -0.0104
    104 CG        -16.6340   99.1670    5.0970 C.3       1 GLY        -0.0281
    105 CD        -15.1370   99.1780    5.0350 C.3       1 GLY         0.0369
    106 N         -14.6820   95.8060    3.5970 N.am      1 GLY        -0.2616
    107 CA        -14.3070   94.6770    2.7370 C.3       1 GLY         0.1496
    108 C         -13.6540   93.5370    3.5300 C.2       1 GLY         0.2349
    109 O         -13.1110   92.5950    2.9440 O.2       1 GLY        -0.3937
    110 CB        -13.3690   95.1370    1.5990 C.3       1 GLY         0.0773
    111 CG        -12.0420   95.7320    2.1030 C.2       1 GLY         0.1780
    112 OD1       -11.5480   95.3880    3.1780 O.2       1 GLY        -0.3970
    113 ND2       -11.4610   96.6250    1.3060 N.am      1 GLY        -0.3007
    114 OXT       -13.6630   93.5460    4.7650 O.3       1 GLY        -0.1970
    115 H1        -13.4428   92.6169    6.9528 H         1 GLY         0.1177
    116 H2        -11.1189   94.0235    4.5868 H         1 GLY         0.1884
    117 H3         -8.7347   93.0004    5.7216 H         1 GLY         0.0800
    118 H4         -7.6679   95.0675    4.6877 H         1 GLY         0.0313
    119 H5         -9.3231   95.5780    4.2117 H         1 GLY         0.0313
    120 H6         -9.5503   93.7880    2.7084 H         1 GLY         0.0301
    121 H7         -8.1091   92.9449    3.3708 H         1 GLY         0.0301
    122 H8         -6.6063   94.4541    2.3802 H         1 GLY         0.0689
    123 H9         -7.8392   95.7540    2.2498 H         1 GLY         0.0689
    124 H10        -8.9688   94.1045    0.5693 H         1 GLY         0.2642
    125 H11        -5.0748   94.0003   -0.5611 H         1 GLY         0.2615
    126 H12        -5.5059   94.4971    1.0972 H         1 GLY         0.2615
    127 H13        -8.4597   93.4588   -1.5364 H         1 GLY         0.2615
    128 H14        -6.7554   93.4081   -2.0614 H         1 GLY         0.2615
    129 H15        -7.7812   93.3986    7.6337 H         1 GLY         0.1884
    130 H16        -7.9331   96.2115    8.6404 H         1 GLY         0.0808
    131 H17        -7.1485   95.1714   10.8606 H         1 GLY         0.0432
    132 H18        -7.7098   93.6076   10.1778 H         1 GLY         0.0432
    133 H19        -6.1135   97.1872    8.0673 H         1 GLY         0.1885
    134 H20        -3.6035   95.7602    7.6803 H         1 GLY         0.0821
    135 H21        -2.7048   98.1701    7.5791 H         1 GLY         0.0453
    136 H22        -4.4171   98.6920    7.7291 H         1 GLY         0.0453
    137 H23        -6.0795   97.9546    5.9799 H         1 GLY         0.0530
    138 H24        -1.8960   97.1748    5.5297 H         1 GLY         0.0530
    139 H25        -6.4329   97.4767    3.5987 H         1 GLY         0.0525
    140 H26        -2.2453   96.6871    3.1267 H         1 GLY         0.0525
    141 H27        -4.0416   97.3841    1.3583 H         1 GLY         0.2458
    142 H28        -1.7178   95.9529    9.0794 H         1 GLY         0.1883
    143 H29        -2.9201   95.4605   11.7288 H         1 GLY         0.0800
    144 H30        -0.6200   94.1698   11.9688 H         1 GLY         0.0312
    145 H31        -0.6075   94.3149   10.1784 H         1 GLY         0.0312
    146 H32        -2.9679   93.3586   10.1971 H         1 GLY         0.0269
    147 H33        -2.7264   93.0063   11.9419 H         1 GLY         0.0269
    148 H34        -0.9449   91.4676   11.4712 H         1 GLY         0.0317
    149 H35        -0.8744   91.9760    9.7498 H         1 GLY         0.0317
    150 H36        -3.0373   90.9980    9.2852 H         1 GLY         0.0813
    151 H37        -3.3580   90.7250   11.0314 H         1 GLY         0.0813
    152 H38        -2.6716   88.7200    9.9200 H         1 GLY         0.1994
    153 H39        -1.5475   89.1548   11.0411 H         1 GLY         0.1994
    154 H40        -1.2536   89.4050    9.4409 H         1 GLY         0.1994
    155 H41        -1.8821   98.2541   10.9539 H         1 GLY         0.1884
    156 H42         0.2472   98.7157   12.8565 H         1 GLY         0.0823
    157 H43        -0.2534  100.3914   11.1659 H         1 GLY         0.0606
    158 H44        -0.5082  101.0890   12.8015 H         1 GLY         0.0606
    159 H45        -2.7676  100.7109   12.4766 H         1 GLY         0.2097
    160 H46        -0.2472  100.2458   14.8021 H         1 GLY         0.1883
    161 H47        -2.7686   99.4176   16.1793 H         1 GLY         0.0800
    162 H48        -0.0690   99.9792   17.4845 H         1 GLY         0.0313
    163 H49        -0.8223   98.3628   17.2688 H         1 GLY         0.0313
    164 H50        -2.1749   98.6246   19.0677 H         1 GLY         0.0301
    165 H51        -2.5955  100.3128   18.6210 H         1 GLY         0.0301
    166 H52        -0.6453  101.1759   19.6925 H         1 GLY         0.0689
    167 H53         0.0495   99.5325   19.9006 H         1 GLY         0.0689
    168 H54        -2.5194   99.7288   21.2178 H         1 GLY         0.2642
    169 H55        -1.1341  100.3118   24.3969 H         1 GLY         0.2615
    170 H56        -2.5905   99.8396   23.4812 H         1 GLY         0.2615
    171 H57         0.8777  100.7209   21.5175 H         1 GLY         0.2615
    172 H58         0.8076  100.8044   23.2981 H         1 GLY         0.2615
    173 H59        -4.6023  100.1803   16.7812 H         1 GLY         0.0802
    174 H60        -6.1960  101.7569   17.4002 H         1 GLY         0.0313
    175 H61        -6.5044  101.9462   15.6407 H         1 GLY         0.0313
    176 H62        -5.6874  104.0036   17.2154 H         1 GLY         0.0287
    177 H63        -5.2244  103.8622   15.4855 H         1 GLY         0.0287
    178 H64        -3.0956  103.9919   16.3643 H         1 GLY         0.0524
    179 H65        -3.6025  103.3412   17.9601 H         1 GLY         0.0524
    180 H66        -4.3790   98.9555   12.5514 H         1 GLY         0.0802
    181 H67        -5.2111   96.8552   13.2100 H         1 GLY         0.0313
    182 H68        -6.6495   97.3760   12.2685 H         1 GLY         0.0313
    183 H69        -6.8447   96.6917   14.8788 H         1 GLY         0.0287
    184 H70        -7.8353   98.0174   14.1803 H         1 GLY         0.0287
    185 H71        -6.8365   99.2781   15.8619 H         1 GLY         0.0524
    186 H72        -5.4307   98.1681   15.9961 H         1 GLY         0.0524
    187 H73        -5.1979   99.2276   10.4764 H         1 GLY         0.1883
    188 H74        -7.4175  101.1946   10.1873 H         1 GLY         0.0803
    189 H75        -5.4869  100.2979    8.0177 H         1 GLY         0.0345
    190 H76        -4.1299  101.1694    9.8297 H         1 GLY         0.0267
    191 H77        -5.1969  102.6061    9.9846 H         1 GLY         0.0267
    192 H78        -7.5868  101.4093    7.3048 H         1 GLY         0.0235
    193 H79        -6.1393  102.4122    6.9504 H         1 GLY         0.0235
    194 H80        -7.1900  102.8148    8.3506 H         1 GLY         0.0235
    195 H81        -3.1239  103.1521    8.7846 H         1 GLY         0.0230
    196 H82        -4.5577  103.3253    7.7166 H         1 GLY         0.0230
    197 H83        -3.4907  101.8886    7.5617 H         1 GLY         0.0230
    198 H84        -9.3196  100.2127    9.9419 H         1 GLY         0.1884
    199 H85        -9.4305   97.5846    8.5385 H         1 GLY         0.0808
    200 H86       -11.4369   97.1102    9.9385 H         1 GLY         0.0432
    201 H87       -11.1593   98.6532   10.8152 H         1 GLY         0.0432
    202 H88       -11.3593   97.1109    7.4037 H         1 GLY         0.1885
    203 H89       -12.8734   99.4579    6.3991 H         1 GLY         0.0823
    204 H90       -12.5139   98.6714    4.0637 H         1 GLY         0.0474
    205 H91       -11.3507   97.4468    4.6752 H         1 GLY         0.0474
    206 H92        -9.1717   98.1368    5.5413 H         1 GLY         0.0557
    207 H93       -11.9126  101.0101    3.9703 H         1 GLY         0.0557
    208 H94        -7.3536   99.7974    5.4125 H         1 GLY         0.0599
    209 H95       -10.0972  102.6751    3.8446 H         1 GLY         0.0599
    210 H96        -7.8151  102.0719    4.5705 H         1 GLY         0.0559
    211 H97       -16.1869   96.5409    6.4409 H         1 GLY         0.0802
    212 H98       -17.9856   97.5149    5.3120 H         1 GLY         0.0313
    213 H99       -17.1018   97.5650    3.7490 H         1 GLY         0.0313
    214 H100      -16.9817   99.4833    6.0915 H         1 GLY         0.0287
    215 H101      -17.0572   99.8338    4.3313 H         1 GLY         0.0287
    216 H102      -14.7846   99.3095    4.0013 H         1 GLY         0.0524
    217 H103      -14.7204   99.9748    5.6687 H         1 GLY         0.0524
    218 H104      -14.2511   96.6954    3.4444 H         1 GLY         0.1885
    219 H105      -15.2283   94.2849    2.2814 H         1 GLY         0.0825
    220 H106      -13.8906   95.9019    1.0050 H         1 GLY         0.0551
    221 H107      -13.1423   94.2694    0.9619 H         1 GLY         0.0551
    222 H108      -10.5965   97.0487    1.5763 H         1 GLY         0.1814
    223 H109      -11.8888   96.8725    0.4367 H         1 GLY         0.1814
@<TRIPOS>BOND
     1    1    2 1  
     2    1  108 am 
     3    1  114 1  
     4    2    3 1  
     5    2  114 1  
     6    3    4 2  
     7    3    5 am 
     8    5    6 1  
     9    6    7 1  
    10    6    9 1  
    11    7    8 2  
    12    7   16 am 
    13    9   10 1  
    14   10   11 1  
    15   11   12 1  
    16   12   13 ar 
    17   13   14 ar 
    18   13   15 ar 
    19   16   17 1  
    20   17   18 1  
    21   17   20 1  
    22   18   19 2  
    23   18   22 am 
    24   20   21 1  
    25   21   87 1  
    26   22   23 1  
    27   23   24 1  
    28   23   26 1  
    29   24   25 2  
    30   24   34 am 
    31   26   27 1  
    32   27   28 ar 
    33   27   29 ar 
    34   28   30 ar 
    35   29   31 ar 
    36   30   32 ar 
    37   31   32 ar 
    38   32   33 1  
    39   34   35 1  
    40   35   36 1  
    41   35   38 1  
    42   36   37 2  
    43   36   43 am 
    44   38   39 1  
    45   39   40 1  
    46   40   41 1  
    47   41   42 1  
    48   43   44 1  
    49   44   45 1  
    50   44   47 1  
    51   45   46 2  
    52   45   49 am 
    53   47   48 1  
    54   49   50 1  
    55   50   51 1  
    56   50   53 1  
    57   51   52 2  
    58   51   60 am 
    59   53   54 1  
    60   54   55 1  
    61   55   56 1  
    62   56   57 ar 
    63   57   58 ar 
    64   57   59 ar 
    65   60   61 1  
    66   60   66 1  
    67   61   62 1  
    68   61   64 1  
    69   62   63 2  
    70   62   67 am 
    71   64   65 1  
    72   65   66 1  
    73   67   68 1  
    74   67   73 1  
    75   68   69 1  
    76   68   71 1  
    77   69   70 2  
    78   69   74 am 
    79   71   72 1  
    80   72   73 1  
    81   74   75 1  
    82   75   76 1  
    83   75   78 1  
    84   76   77 2  
    85   76   82 am 
    86   78   79 1  
    87   78   80 1  
    88   79   81 1  
    89   82   83 1  
    90   83   84 1  
    91   83   86 1  
    92   84   85 2  
    93   84   88 am 
    94   86   87 1  
    95   88   89 1  
    96   89   90 1  
    97   89   92 1  
    98   90   91 2  
    99   90   99 am 
   100   92   93 1  
   101   93   94 ar 
   102   93   95 ar 
   103   94   96 ar 
   104   95   97 ar 
   105   96   98 ar 
   106   97   98 ar 
   107   99  100 1  
   108   99  105 1  
   109  100  101 1  
   110  100  103 1  
   111  101  102 2  
   112  101  106 am 
   113  103  104 1  
   114  104  105 1  
   115  106  107 1  
   116  107  108 1  
   117  107  110 1  
   118  108  109 2  
   119  110  111 1  
   120  111  112 2  
   121  111  113 am 
   122    2  115 1  
   123    5  116 1  
   124    6  117 1  
   125    9  118 1  
   126    9  119 1  
   127   10  120 1  
   128   10  121 1  
   129   11  122 1  
   130   11  123 1  
   131   12  124 1  
   132   14  125 1  
   133   14  126 1  
   134   15  127 1  
   135   15  128 1  
   136   16  129 1  
   137   17  130 1  
   138   20  131 1  
   139   20  132 1  
   140   22  133 1  
   141   23  134 1  
   142   26  135 1  
   143   26  136 1  
   144   28  137 1  
   145   29  138 1  
   146   30  139 1  
   147   31  140 1  
   148   33  141 1  
   149   34  142 1  
   150   35  143 1  
   151   38  144 1  
   152   38  145 1  
   153   39  146 1  
   154   39  147 1  
   155   40  148 1  
   156   40  149 1  
   157   41  150 1  
   158   41  151 1  
   159   42  152 1  
   160   42  153 1  
   161   42  154 1  
   162   43  155 1  
   163   44  156 1  
   164   47  157 1  
   165   47  158 1  
   166   48  159 1  
   167   49  160 1  
   168   50  161 1  
   169   53  162 1  
   170   53  163 1  
   171   54  164 1  
   172   54  165 1  
   173   55  166 1  
   174   55  167 1  
   175   56  168 1  
   176   58  169 1  
   177   58  170 1  
   178   59  171 1  
   179   59  172 1  
   180   61  173 1  
   181   64  174 1  
   182   64  175 1  
   183   65  176 1  
   184   65  177 1  
   185   66  178 1  
   186   66  179 1  
   187   68  180 1  
   188   71  181 1  
   189   71  182 1  
   190   72  183 1  
   191   72  184 1  
   192   73  185 1  
   193   73  186 1  
   194   74  187 1  
   195   75  188 1  
   196   78  189 1  
   197   79  190 1  
   198   79  191 1  
   199   80  192 1  
   200   80  193 1  
   201   80  194 1  
   202   81  195 1  
   203   81  196 1  
   204   81  197 1  
   205   82  198 1  
   206   83  199 1  
   207   86  200 1  
   208   86  201 1  
   209   88  202 1  
   210   89  203 1  
   211   92  204 1  
   212   92  205 1  
   213   94  206 1  
   214   95  207 1  
   215   96  208 1  
   216   97  209 1  
   217   98  210 1  
   218  100  211 1  
   219  103  212 1  
   220  103  213 1  
   221  104  214 1  
   222  104  215 1  
   223  105  216 1  
   224  105  217 1  
   225  106  218 1  
   226  107  219 1  
   227  110  220 1  
   228  110  221 1  
   229  113  222 1  
   230  113  223 1  
@<TRIPOS>SUBSTRUCTURE
     1 GLY         1

