### 
### Created by X-TOOL on Mon Sep 10 21:13:02 2018
### 

@<TRIPOS>MOLECULE
2ke1_ligand
  171   170     1     0     0
SMALL
GAST_HUCK


@<TRIPOS>ATOM
      1 N           0.5420   -1.1410    9.1190 N.4       1 ALA         0.2377
      2 CA          0.9300   -1.2010    7.6910 C.3       1 ALA         0.0621
      3 C           2.1270   -2.1240    7.5180 C.2       1 ALA         0.2264
      4 O           2.9300   -2.2750    8.4380 O.2       1 ALA        -0.3907
      5 CB          1.2470    0.1950    7.1740 C.3       1 ALA        -0.0040
      6 N           2.2440   -2.7460    6.3480 N.am      1 ARG        -0.2610
      7 CA          3.3570   -3.6470    6.0740 C.3       1 ARG         0.1312
      8 C           4.5880   -2.8270    5.7000 C.2       1 ARG         0.2040
      9 O           5.0460   -2.8410    4.5580 O.2       1 ARG        -0.3944
     10 CB          2.9880   -4.6190    4.9470 C.3       1 ARG        -0.0092
     11 CG          3.9360   -5.8030    4.8090 C.3       1 ARG        -0.0156
     12 CD          3.5350   -6.7150    3.6600 C.3       1 ARG         0.0627
     13 NE          2.0900   -6.9380    3.5860 N.pl3     1 ARG        -0.2723
     14 CZ          1.4060   -7.7320    4.4120 C.cat     1 ARG         0.2882
     15 NH1         2.0280   -8.3980    5.3740 N.pl3     1 ARG        -0.2849
     16 NH2         0.0960   -7.8740    4.2610 N.pl3     1 ARG        -0.2849
     17 N           5.0950   -2.0900    6.6660 N.am      1 THR        -0.2613
     18 CA          6.1860   -1.1660    6.4360 C.3       1 THR         0.1565
     19 C           7.5190   -1.9020    6.2950 C.2       1 THR         0.2065
     20 O           7.7760   -2.8900    6.9870 O.2       1 THR        -0.3943
     21 CB          6.2720   -0.1620    7.5940 C.3       1 THR         0.0924
     22 OG1         4.9490    0.1570    8.0430 O.3       1 THR        -0.3874
     23 CG2         6.9720    1.1150    7.1650 C.3       1 THR        -0.0346
     24 N           8.3520   -1.4060    5.3960 N.am      1 LYS        -0.2637
     25 CA          9.6660   -1.9780    5.1410 C.3       1 LYS         0.1310
     26 C          10.7070   -0.8710    5.1510 C.2       1 LYS         0.2039
     27 O          10.4040    0.2730    4.8230 O.2       1 LYS        -0.3944
     28 CB          9.7030   -2.6760    3.7750 C.3       1 LYS        -0.0122
     29 CG          8.7090   -3.8140    3.6130 C.3       1 LYS        -0.0440
     30 CD          8.5790   -4.2300    2.1530 C.3       1 LYS        -0.0124
     31 CE          9.9170   -4.6380    1.5470 C.3       1 LYS        -0.0354
     32 NZ         10.4830   -5.8620    2.1720 N.4       1 LYS         0.2185
     33 N          11.9270   -1.2080    5.5290 N.am      1 GLN        -0.2636
     34 CA         13.0240   -0.2560    5.4830 C.3       1 GLN         0.1330
     35 C          14.2160   -0.8710    4.7680 C.2       1 GLN         0.2041
     36 O          15.1900   -1.2920    5.3960 O.2       1 GLN        -0.3944
     37 CB         13.4120    0.2060    6.8910 C.3       1 GLN         0.0045
     38 CG         12.4390    1.2110    7.4900 C.3       1 GLN         0.0412
     39 CD         12.9030    1.7710    8.8210 C.2       1 GLN         0.1737
     40 OE1        12.6400    2.9310    9.1400 O.2       1 GLN        -0.3973
     41 NE2        13.5740    0.9540    9.6180 N.am      1 GLN        -0.3009
     42 N          14.1250   -0.9320    3.4510 N.am      1 THR        -0.2613
     43 CA         15.1770   -1.5130    2.6350 C.3       1 THR         0.1565
     44 C          16.2000   -0.4530    2.2360 C.2       1 THR         0.2065
     45 O          16.1510    0.6850    2.7130 O.2       1 THR        -0.3943
     46 CB         14.5900   -2.1720    1.3690 C.3       1 THR         0.0924
     47 OG1        13.6830   -1.2660    0.7230 O.3       1 THR        -0.3874
     48 CG2        13.8640   -3.4670    1.7090 C.3       1 THR        -0.0346
     49 N          17.1380   -0.8310    1.3870 N.am      1 ALA        -0.2639
     50 CA         18.1090    0.1130    0.8660 C.3       1 ALA         0.1282
     51 C          17.5120    0.9080   -0.2860 C.2       1 ALA         0.2036
     52 O          16.8240    0.3500   -1.1430 O.2       1 ALA        -0.3944
     53 CB         19.3630   -0.6150    0.4090 C.3       1 ALA        -0.0244
     54 N          17.7560    2.2130   -0.2870 N.am      1 ARG        -0.2637
     55 CA         17.3190    3.0710   -1.3810 C.3       1 ARG         0.1311
     56 C          18.1230    2.7430   -2.6260 C.2       1 ARG         0.2039
     57 O          19.3130    2.4350   -2.5410 O.2       1 ARG        -0.3944
     58 CB         17.5110    4.5470   -1.0240 C.3       1 ARG        -0.0092
     59 CG         16.7250    5.0090    0.1930 C.3       1 ARG        -0.0156
     60 CD         15.2660    5.2870   -0.1320 C.3       1 ARG         0.0627
     61 NE         15.1100    6.3160   -1.1610 N.pl3     1 ARG        -0.2723
     62 CZ         14.6030    7.5280   -0.9360 C.cat     1 ARG         0.2882
     63 NH1        14.1150    7.8440    0.2610 N.pl3     1 ARG        -0.2849
     64 NH2        14.5450    8.4150   -1.9250 N.pl3     1 ARG        -0.2849
     65 N          17.4720    2.8050   -3.7680 N.am      1 LYS        -0.2637
     66 CA         18.1080    2.4880   -5.0330 C.3       1 LYS         0.1309
     67 C          18.4490    3.7750   -5.7680 C.2       1 LYS         0.2034
     68 O          19.5090    3.8860   -6.3830 O.2       1 LYS        -0.3944
     69 CB         17.1760    1.6310   -5.8920 C.3       1 LYS        -0.0122
     70 CG         16.5850    0.4400   -5.1530 C.3       1 LYS        -0.0440
     71 CD         17.6610   -0.4750   -4.5860 C.3       1 LYS        -0.0124
     72 CE         17.0440   -1.6320   -3.8150 C.3       1 LYS        -0.0354
     73 NZ         16.2500   -2.5280   -4.6970 N.4       1 LYS         0.2185
     74 N          17.5340    4.7400   -5.6810 N.am      1 SER        -0.2672
     75 CA         17.6950    6.0500   -6.3000 C.3       1 SER         0.1173
     76 C          17.9420    5.9290   -7.8040 C.2       1 SER         0.0623
     77 O          19.1120    5.9960   -8.2360 O.co2     1 SER        -0.5665
     78 CB         18.8170    6.8320   -5.6110 C.3       1 SER         0.0789
     79 OG         18.4820    7.0950   -4.2540 O.3       1 SER        -0.3910
     80 OXT        16.9550    5.7550   -8.5470 O.co2     1 SER        -0.5665
     81 H1         -0.2511   -0.5282    9.2262 H         1 ALA         0.2015
     82 H2          1.3144   -0.7890    9.6626 H         1 ALA         0.2015
     83 H3          0.2985   -2.0649    9.4401 H         1 ALA         0.2015
     84 H4          0.0869   -1.6062    7.1122 H         1 ALA         0.1095
     85 H5          1.5335    0.1370    6.1135 H         1 ALA         0.0310
     86 H6          2.0777    0.6215    7.7554 H         1 ALA         0.0310
     87 H7          0.3589    0.8355    7.2793 H         1 ALA         0.0310
     88 H8          1.5536   -2.5923    5.6411 H         1 ARG         0.1884
     89 H9          3.5787   -4.2278    6.9814 H         1 ARG         0.0800
     90 H10         2.9896   -4.0633    3.9977 H         1 ARG         0.0313
     91 H11         1.9776   -5.0071    5.1430 H         1 ARG         0.0313
     92 H12         3.9221   -6.3815    5.7445 H         1 ARG         0.0301
     93 H13         4.9530   -5.4258    4.6262 H         1 ARG         0.0301
     94 H14         4.0335   -7.6865    3.7928 H         1 ARG         0.0689
     95 H15         3.8681   -6.2579    2.7166 H         1 ARG         0.0689
     96 H16         1.5659   -6.4490    2.8464 H         1 ARG         0.2642
     97 H17         1.4921   -9.0087    6.0071 H         1 ARG         0.2615
     98 H18         3.0474   -8.3050    5.4887 H         1 ARG         0.2615
     99 H19        -0.3952   -7.3600    3.5158 H         1 ARG         0.2615
    100 H20        -0.4301   -8.4983    4.8890 H         1 ARG         0.2615
    101 H21         4.7148   -2.1708    7.5874 H         1 THR         0.1884
    102 H22         5.9884   -0.6173    5.5034 H         1 THR         0.0826
    103 H23         6.8369   -0.6185    8.4202 H         1 THR         0.0639
    104 H24         4.5168   -0.6353    8.3396 H         1 THR         0.2101
    105 H25         7.0172    1.8117    8.0151 H         1 THR         0.0257
    106 H26         6.4133    1.5798    6.3393 H         1 THR         0.0257
    107 H27         7.9927    0.8788    6.8298 H         1 THR         0.0257
    108 H28         8.0676   -0.6048    4.8695 H         1 LYS         0.1883
    109 H29         9.8993   -2.7099    5.9284 H         1 LYS         0.0800
    110 H30        10.7145   -3.0815    3.6253 H         1 LYS         0.0312
    111 H31         9.4911   -1.9240    3.0007 H         1 LYS         0.0312
    112 H32         7.7257   -3.4864    3.9814 H         1 LYS         0.0269
    113 H33         9.0526   -4.6769    4.2024 H         1 LYS         0.0269
    114 H34         8.1738   -3.3839    1.5787 H         1 LYS         0.0317
    115 H35         7.8866   -5.0823    2.0882 H         1 LYS         0.0317
    116 H36        10.6307   -3.8120    1.6825 H         1 LYS         0.0813
    117 H37         9.7736   -4.8261    0.4728 H         1 LYS         0.0813
    118 H38        11.3636   -6.0856    1.7355 H         1 LYS         0.1994
    119 H39         9.8419   -6.6299    2.0479 H         1 LYS         0.1994
    120 H40        10.6274   -5.7006    3.1565 H         1 LYS         0.1994
    121 H41        12.0994   -2.1380    5.8537 H         1 GLN         0.1883
    122 H42        12.6940    0.6245    4.9123 H         1 GLN         0.0801
    123 H43        14.4075    0.6715    6.8427 H         1 GLN         0.0337
    124 H44        13.4508   -0.6752    7.5482 H         1 GLN         0.0337
    125 H45        11.4695    0.7131    7.6390 H         1 GLN         0.0504
    126 H46        12.3181    2.0449    6.7829 H         1 GLN         0.0504
    127 H47        13.9004    1.2780   10.5059 H         1 GLN         0.1814
    128 H48        13.7544    0.0129    9.3320 H         1 GLN         0.1814
    129 H49        13.3084   -0.5677    3.0033 H         1 THR         0.1884
    130 H50        15.6872   -2.2866    3.2276 H         1 THR         0.0826
    131 H51        15.4151   -2.4024    0.6790 H         1 THR         0.0639
    132 H52        13.3259   -1.6782   -0.0549 H         1 THR         0.2101
    133 H53        13.4577   -3.9120    0.7887 H         1 THR         0.0257
    134 H54        13.0413   -3.2537    2.4073 H         1 THR         0.0257
    135 H55        14.5686   -4.1706    2.1764 H         1 THR         0.0257
    136 H56        17.1800   -1.7872    1.0972 H         1 ALA         0.1883
    137 H57        18.3830    0.8125    1.6695 H         1 ALA         0.0797
    138 H58        20.0879    0.1138    0.0174 H         1 ALA         0.0277
    139 H59        19.1021   -1.3338   -0.3818 H         1 ALA         0.0277
    140 H60        19.8064   -1.1517    1.2607 H         1 ALA         0.0277
    141 H61        18.2518    2.6171    0.4817 H         1 ARG         0.1883
    142 H62        16.2526    2.8862   -1.5778 H         1 ARG         0.0800
    143 H63        17.1962    5.1528   -1.8865 H         1 ARG         0.0313
    144 H64        18.5799    4.7167   -0.8273 H         1 ARG         0.0313
    145 H65        17.1827    5.9312    0.5802 H         1 ARG         0.0301
    146 H66        16.7724    4.2248    0.9629 H         1 ARG         0.0301
    147 H67        14.7579    5.6234    0.7838 H         1 ARG         0.0689
    148 H68        14.8002    4.3568   -0.4892 H         1 ARG         0.0689
    149 H69        15.4110    6.0893   -2.1196 H         1 ARG         0.2642
    150 H70        13.7250    8.7828    0.4267 H         1 ARG         0.2615
    151 H71        14.1273    7.1498    1.0218 H         1 ARG         0.2615
    152 H72        14.9211    8.1762   -2.8537 H         1 ARG         0.2615
    153 H73        14.1240    9.3409   -1.7624 H         1 ARG         0.2615
    154 H74        16.5102    3.0788   -3.7638 H         1 LYS         0.1883
    155 H75        19.0341    1.9269   -4.8393 H         1 LYS         0.0800
    156 H76        17.7461    1.2561   -6.7548 H         1 LYS         0.0312
    157 H77        16.3495    2.2648   -6.2460 H         1 LYS         0.0312
    158 H78        15.9614   -0.1369   -5.8518 H         1 LYS         0.0269
    159 H79        15.9621    0.8099   -4.3253 H         1 LYS         0.0269
    160 H80        18.3058    0.1047   -3.9091 H         1 LYS         0.0317
    161 H81        18.2646   -0.8759   -5.4136 H         1 LYS         0.0317
    162 H82        16.3841   -1.2266   -3.0339 H         1 LYS         0.0813
    163 H83        17.8496   -2.2169   -3.3472 H         1 LYS         0.0813
    164 H84        15.8597   -3.2788   -4.1493 H         1 LYS         0.1994
    165 H85        16.8475   -2.9100   -5.4133 H         1 LYS         0.1994
    166 H86        15.5045   -2.0026   -5.1262 H         1 LYS         0.1994
    167 H87        16.6965    4.5566   -5.1662 H         1 SER         0.1876
    168 H88        16.7578    6.6083   -6.1587 H         1 SER         0.0749
    169 H89        18.9692    7.7858   -6.1374 H         1 SER         0.0599
    170 H90        19.7443    6.2414   -5.6467 H         1 SER         0.0599
    171 H91        19.1880    7.5799   -3.8430 H         1 SER         0.2096
@<TRIPOS>BOND
     1    1    2 1  
     2    2    3 1  
     3    2    5 1  
     4    3    4 2  
     5    3    6 am 
     6    6    7 1  
     7    7    8 1  
     8    7   10 1  
     9    8    9 2  
    10    8   17 am 
    11   10   11 1  
    12   11   12 1  
    13   12   13 1  
    14   13   14 ar 
    15   14   15 ar 
    16   14   16 ar 
    17   17   18 1  
    18   18   19 1  
    19   18   21 1  
    20   19   20 2  
    21   19   24 am 
    22   21   22 1  
    23   21   23 1  
    24   24   25 1  
    25   25   26 1  
    26   25   28 1  
    27   26   27 2  
    28   26   33 am 
    29   28   29 1  
    30   29   30 1  
    31   30   31 1  
    32   31   32 1  
    33   33   34 1  
    34   34   35 1  
    35   34   37 1  
    36   35   36 2  
    37   35   42 am 
    38   37   38 1  
    39   38   39 1  
    40   39   40 2  
    41   39   41 am 
    42   42   43 1  
    43   43   44 1  
    44   43   46 1  
    45   44   45 2  
    46   44   49 am 
    47   46   47 1  
    48   46   48 1  
    49   49   50 1  
    50   50   51 1  
    51   50   53 1  
    52   51   52 2  
    53   51   54 am 
    54   54   55 1  
    55   55   56 1  
    56   55   58 1  
    57   56   57 2  
    58   56   65 am 
    59   58   59 1  
    60   59   60 1  
    61   60   61 1  
    62   61   62 ar 
    63   62   63 ar 
    64   62   64 ar 
    65   65   66 1  
    66   66   67 1  
    67   66   69 1  
    68   67   68 2  
    69   67   74 am 
    70   69   70 1  
    71   70   71 1  
    72   71   72 1  
    73   72   73 1  
    74   74   75 1  
    75   75   76 1  
    76   75   78 1  
    77   76   77 ar 
    78   76   80 ar 
    79   78   79 1  
    80    1   81 1  
    81    1   82 1  
    82    1   83 1  
    83    2   84 1  
    84    5   85 1  
    85    5   86 1  
    86    5   87 1  
    87    6   88 1  
    88    7   89 1  
    89   10   90 1  
    90   10   91 1  
    91   11   92 1  
    92   11   93 1  
    93   12   94 1  
    94   12   95 1  
    95   13   96 1  
    96   15   97 1  
    97   15   98 1  
    98   16   99 1  
    99   16  100 1  
   100   17  101 1  
   101   18  102 1  
   102   21  103 1  
   103   22  104 1  
   104   23  105 1  
   105   23  106 1  
   106   23  107 1  
   107   24  108 1  
   108   25  109 1  
   109   28  110 1  
   110   28  111 1  
   111   29  112 1  
   112   29  113 1  
   113   30  114 1  
   114   30  115 1  
   115   31  116 1  
   116   31  117 1  
   117   32  118 1  
   118   32  119 1  
   119   32  120 1  
   120   33  121 1  
   121   34  122 1  
   122   37  123 1  
   123   37  124 1  
   124   38  125 1  
   125   38  126 1  
   126   41  127 1  
   127   41  128 1  
   128   42  129 1  
   129   43  130 1  
   130   46  131 1  
   131   47  132 1  
   132   48  133 1  
   133   48  134 1  
   134   48  135 1  
   135   49  136 1  
   136   50  137 1  
   137   53  138 1  
   138   53  139 1  
   139   53  140 1  
   140   54  141 1  
   141   55  142 1  
   142   58  143 1  
   143   58  144 1  
   144   59  145 1  
   145   59  146 1  
   146   60  147 1  
   147   60  148 1  
   148   61  149 1  
   149   63  150 1  
   150   63  151 1  
   151   64  152 1  
   152   64  153 1  
   153   65  154 1  
   154   66  155 1  
   155   69  156 1  
   156   69  157 1  
   157   70  158 1  
   158   70  159 1  
   159   71  160 1  
   160   71  161 1  
   161   72  162 1  
   162   72  163 1  
   163   73  164 1  
   164   73  165 1  
   165   73  166 1  
   166   74  167 1  
   167   75  168 1  
   168   78  169 1  
   169   78  170 1  
   170   79  171 1  
@<TRIPOS>SUBSTRUCTURE
     1 ALA         1

