2ke1_ligand
  -I-interpret- 

170169  0  0  0  0  0  0  0  0999 V2000
    0.5420   -1.1410    9.1190 N   0  3  0  0  0
    0.9300   -1.2010    7.6910 C   0  0  0  0  0
    2.1270   -2.1240    7.5180 C   0  0  0  0  0
    2.9300   -2.2750    8.4380 O   0  0  0  0  0
    1.2470    0.1950    7.1740 C   0  0  0  0  0
    2.2440   -2.7460    6.3480 N   0  0  0  0  0
    3.3570   -3.6470    6.0740 C   0  0  0  0  0
    4.5880   -2.8270    5.7000 C   0  0  0  0  0
    5.0460   -2.8410    4.5580 O   0  0  0  0  0
    2.9880   -4.6190    4.9470 C   0  0  0  0  0
    3.9360   -5.8030    4.8090 C   0  0  0  0  0
    3.5350   -6.7150    3.6600 C   0  0  0  0  0
    2.0900   -6.9380    3.5860 N   0  0  0  0  0
    1.4060   -7.7320    4.4120 C   0  0  0  0  0
    2.0280   -8.3980    5.3740 N   0  0  0  0  0
    0.0960   -7.8740    4.2610 N   0  0  0  0  0
    5.0950   -2.0900    6.6660 N   0  0  0  0  0
    6.1860   -1.1660    6.4360 C   0  0  0  0  0
    7.5190   -1.9020    6.2950 C   0  0  0  0  0
    7.7760   -2.8900    6.9870 O   0  0  0  0  0
    6.2720   -0.1620    7.5940 C   0  0  0  0  0
    4.9490    0.1570    8.0430 O   0  0  0  0  0
    6.9720    1.1150    7.1650 C   0  0  0  0  0
    8.3520   -1.4060    5.3960 N   0  0  0  0  0
    9.6660   -1.9780    5.1410 C   0  0  0  0  0
   10.7070   -0.8710    5.1510 C   0  0  0  0  0
   10.4040    0.2730    4.8230 O   0  0  0  0  0
    9.7030   -2.6760    3.7750 C   0  0  0  0  0
    8.7090   -3.8140    3.6130 C   0  0  0  0  0
    8.5790   -4.2300    2.1530 C   0  0  0  0  0
    9.9170   -4.6380    1.5470 C   0  0  0  0  0
   10.4830   -5.8620    2.1720 N   0  3  0  0  0
   11.9270   -1.2080    5.5290 N   0  0  0  0  0
   13.0240   -0.2560    5.4830 C   0  0  0  0  0
   14.2160   -0.8710    4.7680 C   0  0  0  0  0
   15.1900   -1.2920    5.3960 O   0  0  0  0  0
   13.4120    0.2060    6.8910 C   0  0  0  0  0
   12.4390    1.2110    7.4900 C   0  0  0  0  0
   12.9030    1.7710    8.8210 C   0  0  0  0  0
   12.6400    2.9310    9.1400 O   0  0  0  0  0
   13.5740    0.9540    9.6180 N   0  0  0  0  0
   14.1250   -0.9320    3.4510 N   0  0  0  0  0
   15.1770   -1.5130    2.6350 C   0  0  0  0  0
   16.2000   -0.4530    2.2360 C   0  0  0  0  0
   16.1510    0.6850    2.7130 O   0  0  0  0  0
   14.5900   -2.1720    1.3690 C   0  0  0  0  0
   13.6830   -1.2660    0.7230 O   0  0  0  0  0
   13.8640   -3.4670    1.7090 C   0  0  0  0  0
   17.1380   -0.8310    1.3870 N   0  0  0  0  0
   18.1090    0.1130    0.8660 C   0  0  0  0  0
   17.5120    0.9080   -0.2860 C   0  0  0  0  0
   16.8240    0.3500   -1.1430 O   0  0  0  0  0
   19.3630   -0.6150    0.4090 C   0  0  0  0  0
   17.7560    2.2130   -0.2870 N   0  0  0  0  0
   17.3190    3.0710   -1.3810 C   0  0  0  0  0
   18.1230    2.7430   -2.6260 C   0  0  0  0  0
   19.3130    2.4350   -2.5410 O   0  0  0  0  0
   17.5110    4.5470   -1.0240 C   0  0  0  0  0
   16.7250    5.0090    0.1930 C   0  0  0  0  0
   15.2660    5.2870   -0.1320 C   0  0  0  0  0
   15.1100    6.3160   -1.1610 N   0  0  0  0  0
   14.6030    7.5280   -0.9360 C   0  0  0  0  0
   14.1150    7.8440    0.2610 N   0  0  0  0  0
   14.5450    8.4150   -1.9250 N   0  0  0  0  0
   17.4720    2.8050   -3.7680 N   0  0  0  0  0
   18.1080    2.4880   -5.0330 C   0  0  0  0  0
   18.4490    3.7750   -5.7680 C   0  0  0  0  0
   19.5090    3.8860   -6.3830 O   0  0  0  0  0
   17.1760    1.6310   -5.8920 C   0  0  0  0  0
   16.5850    0.4400   -5.1530 C   0  0  0  0  0
   17.6610   -0.4750   -4.5860 C   0  0  0  0  0
   17.0440   -1.6320   -3.8150 C   0  0  0  0  0
   16.2500   -2.5280   -4.6970 N   0  3  0  0  0
   17.5340    4.7400   -5.6810 N   0  0  0  0  0
   17.6950    6.0500   -6.3000 C   0  0  0  0  0
   17.9420    5.9290   -7.8040 C   0  0  0  0  0
   19.1120    5.9960   -8.2360 O   0  0  0  0  0
   18.8170    6.8320   -5.6110 C   0  0  0  0  0
   18.4820    7.0950   -4.2540 O   0  0  0  0  0
   16.9550    5.7550   -8.5470 O   0  0  0  0  0
    0.3324   -2.0817    9.4529 H   0  0  0  0  0
    1.3109   -0.7493    9.6628 H   0  0  0  0  0
   -0.2836   -0.5508    9.2213 H   0  0  0  0  0
    0.0976   -1.5996    7.1110 H   0  0  0  0  0
    2.0908    0.6039    7.7297 H   0  0  0  0  0
    1.4999    0.1402    6.1152 H   0  0  0  0  0
    0.3765    0.8371    7.3082 H   0  0  0  0  0
    1.5398   -2.5892    5.6269 H   0  0  0  0  0
    3.5789   -4.2338    6.9654 H   0  0  0  0  0
    3.0332   -4.0600    4.0123 H   0  0  0  0  0
    2.0021   -5.0216    5.1793 H   0  0  0  0  0
    3.9011   -6.3799    5.7331 H   0  0  0  0  0
    4.9367   -5.4198    4.6096 H   0  0  0  0  0
    4.0129   -7.6815    3.8202 H   0  0  0  0  0
    3.8456   -6.2362    2.7314 H   0  0  0  0  0
    1.5710   -6.4537    2.8535 H   0  0  0  0  0
    3.0375   -8.3059    5.4876 H   0  0  0  0  0
   -0.4250   -8.4922    4.8829 H   0  0  0  0  0
   -0.3905   -7.3650    3.5230 H   0  0  0  0  0
    4.7072   -2.1724    7.6058 H   0  0  0  0  0
    5.9880   -0.6375    5.5035 H   0  0  0  0  0
    6.8484   -0.6178    8.3990 H   0  0  0  0  0
    5.0008    0.7849    8.7673 H   0  0  0  0  0
    7.9832    0.8796    6.8331 H   0  0  0  0  0
    6.4174    1.5746    6.3469 H   0  0  0  0  0
    7.0162    1.8044    8.0081 H   0  0  0  0  0
    8.0619   -0.5888    4.8590 H   0  0  0  0  0
    9.8787   -2.7105    5.9196 H   0  0  0  0  0
   10.6981   -3.1076    3.6673 H   0  0  0  0  0
    9.4471   -1.9240    3.0286 H   0  0  0  0  0
    7.7345   -3.4771    3.9664 H   0  0  0  0  0
    9.0636   -4.6695    4.1878 H   0  0  0  0  0
    8.1988   -3.3771    1.5907 H   0  0  0  0  0
    7.9095   -5.0887    2.1042 H   0  0  0  0  0
   10.6210   -3.8225    1.7126 H   0  0  0  0  0
    9.7546   -4.8476    0.4897 H   0  0  0  0  0
   11.3740   -6.0873    1.7296 H   0  0  0  0  0
   10.6286   -5.6975    3.1681 H   0  0  0  0  0
    9.8334   -6.6382    2.0458 H   0  0  0  0  0
   12.1028   -2.1566    5.8602 H   0  0  0  0  0
   12.6966    0.6222    4.9265 H   0  0  0  0  0
   14.3841    0.6939    6.8193 H   0  0  0  0  0
   13.4130   -0.6731    7.5355 H   0  0  0  0  0
   11.4940    0.6951    7.6599 H   0  0  0  0  0
   12.3536    2.0443    6.7926 H   0  0  0  0  0
   13.8918    1.2792   10.5310 H   0  0  0  0  0
   13.7731   -0.0006    9.3190 H   0  0  0  0  0
   13.2921   -0.5604    2.9943 H   0  0  0  0  0
   15.6747   -2.2780    3.2310 H   0  0  0  0  0
   15.4149   -2.4075    0.6965 H   0  0  0  0  0
   13.3221   -1.6825   -0.0631 H   0  0  0  0  0
   14.5632   -4.1632    2.1721 H   0  0  0  0  0
   13.0491   -3.2543    2.4010 H   0  0  0  0  0
   13.4619   -3.9070    0.7964 H   0  0  0  0  0
   17.1809   -1.8063    1.0914 H   0  0  0  0  0
   18.3791    0.8056    1.6631 H   0  0  0  0  0
   19.8013   -1.1464    1.2538 H   0  0  0  0  0
   19.1031   -1.3269   -0.3745 H   0  0  0  0  0
   20.0804    0.1082    0.0212 H   0  0  0  0  0
   18.2617    2.6252    0.4971 H   0  0  0  0  0
   16.2589    2.8940   -1.5627 H   0  0  0  0  0
   17.1549    5.1296   -1.8737 H   0  0  0  0  0
   18.5672    4.6843   -0.7925 H   0  0  0  0  0
   17.1732    5.9352    0.5527 H   0  0  0  0  0
   16.7594    4.2147    0.9386 H   0  0  0  0  0
   14.7798    5.6422    0.7766 H   0  0  0  0  0
   14.8224    4.3648   -0.5072 H   0  0  0  0  0
   15.4081    6.0915   -2.1103 H   0  0  0  0  0
   13.6993    8.7624    0.4160 H   0  0  0  0  0
   14.1567    7.1678    1.0235 H   0  0  0  0  0
   14.8880    8.1672   -2.8531 H   0  0  0  0  0
   16.4910    3.0843   -3.7637 H   0  0  0  0  0
   19.0228    1.9273   -4.8409 H   0  0  0  0  0
   17.7654    1.2399   -6.7213 H   0  0  0  0  0
   16.3461    2.2650   -6.2042 H   0  0  0  0  0
   15.9876   -0.1358   -5.8599 H   0  0  0  0  0
   15.9883    0.8177   -4.3227 H   0  0  0  0  0
   18.2879    0.1025   -3.9066 H   0  0  0  0  0
   18.2468   -0.8787   -5.4118 H   0  0  0  0  0
   16.3768   -1.2200   -3.0579 H   0  0  0  0  0
   17.8511   -2.2163   -3.3731 H   0  0  0  0  0
   15.8556   -3.2873   -4.1418 H   0  0  0  0  0
   15.4961   -1.9952   -5.1307 H   0  0  0  0  0
   16.8556   -2.9139   -5.4214 H   0  0  0  0  0
   16.6798    4.5530   -5.1559 H   0  0  0  0  0
   16.7653    6.6041   -6.1705 H   0  0  0  0  0
   19.7156    6.1321   -7.5020 H   0  0  0  0  0
   18.9581    7.7798   -6.1305 H   0  0  0  0  0
   19.7313    6.2393   -5.6411 H   0  0  0  0  0
   19.1954    7.5850   -3.8386 H   0  0  0  0  0
  1  2  1  0  0  0
  2  3  1  0  0  0
  2  5  1  0  0  0
  3  4  2  0  0  0
  3  6  1  0  0  0
  6  7  1  0  0  0
  7  8  1  0  0  0
  7 10  1  0  0  0
  8  9  2  0  0  0
  8 17  1  0  0  0
 10 11  1  0  0  0
 11 12  1  0  0  0
 12 13  1  0  0  0
 13 14  1  0  0  0
 14 15  2  0  0  0
 14 16  1  0  0  0
 17 18  1  0  0  0
 18 19  1  0  0  0
 18 21  1  0  0  0
 19 20  2  0  0  0
 19 24  1  0  0  0
 21 22  1  0  0  0
 21 23  1  0  0  0
 24 25  1  0  0  0
 25 26  1  0  0  0
 25 28  1  0  0  0
 26 27  2  0  0  0
 26 33  1  0  0  0
 28 29  1  0  0  0
 29 30  1  0  0  0
 30 31  1  0  0  0
 31 32  1  0  0  0
 33 34  1  0  0  0
 34 35  1  0  0  0
 34 37  1  0  0  0
 35 36  2  0  0  0
 35 42  1  0  0  0
 37 38  1  0  0  0
 38 39  1  0  0  0
 39 40  2  0  0  0
 39 41  1  0  0  0
 42 43  1  0  0  0
 43 44  1  0  0  0
 43 46  1  0  0  0
 44 45  2  0  0  0
 44 49  1  0  0  0
 46 47  1  0  0  0
 46 48  1  0  0  0
 49 50  1  0  0  0
 50 51  1  0  0  0
 50 53  1  0  0  0
 51 52  2  0  0  0
 51 54  1  0  0  0
 54 55  1  0  0  0
 55 56  1  0  0  0
 55 58  1  0  0  0
 56 57  2  0  0  0
 56 65  1  0  0  0
 58 59  1  0  0  0
 59 60  1  0  0  0
 60 61  1  0  0  0
 61 62  1  0  0  0
 62 63  1  0  0  0
 62 64  2  0  0  0
 65 66  1  0  0  0
 66 67  1  0  0  0
 66 69  1  0  0  0
 67 68  2  0  0  0
 67 74  1  0  0  0
 69 70  1  0  0  0
 70 71  1  0  0  0
 71 72  1  0  0  0
 72 73  1  0  0  0
 74 75  1  0  0  0
 75 76  1  0  0  0
 75 78  1  0  0  0
 76 77  1  0  0  0
 76 80  2  0  0  0
 78 79  1  0  0  0
  1 81  1  0  0  0
  1 82  1  0  0  0
  1 83  1  0  0  0
  2 84  1  0  0  0
  5 85  1  0  0  0
  5 86  1  0  0  0
  5 87  1  0  0  0
  6 88  1  0  0  0
  7 89  1  0  0  0
 10 90  1  0  0  0
 10 91  1  0  0  0
 11 92  1  0  0  0
 11 93  1  0  0  0
 12 94  1  0  0  0
 12 95  1  0  0  0
 13 96  1  0  0  0
 15 97  1  0  0  0
 16 98  1  0  0  0
 16 99  1  0  0  0
 17100  1  0  0  0
 18101  1  0  0  0
 21102  1  0  0  0
 22103  1  0  0  0
 23104  1  0  0  0
 23105  1  0  0  0
 23106  1  0  0  0
 24107  1  0  0  0
 25108  1  0  0  0
 28109  1  0  0  0
 28110  1  0  0  0
 29111  1  0  0  0
 29112  1  0  0  0
 30113  1  0  0  0
 30114  1  0  0  0
 31115  1  0  0  0
 31116  1  0  0  0
 32117  1  0  0  0
 32118  1  0  0  0
 32119  1  0  0  0
 33120  1  0  0  0
 34121  1  0  0  0
 37122  1  0  0  0
 37123  1  0  0  0
 38124  1  0  0  0
 38125  1  0  0  0
 41126  1  0  0  0
 41127  1  0  0  0
 42128  1  0  0  0
 43129  1  0  0  0
 46130  1  0  0  0
 47131  1  0  0  0
 48132  1  0  0  0
 48133  1  0  0  0
 48134  1  0  0  0
 49135  1  0  0  0
 50136  1  0  0  0
 53137  1  0  0  0
 53138  1  0  0  0
 53139  1  0  0  0
 54140  1  0  0  0
 55141  1  0  0  0
 58142  1  0  0  0
 58143  1  0  0  0
 59144  1  0  0  0
 59145  1  0  0  0
 60146  1  0  0  0
 60147  1  0  0  0
 61148  1  0  0  0
 63149  1  0  0  0
 63150  1  0  0  0
 64151  1  0  0  0
 65152  1  0  0  0
 66153  1  0  0  0
 69154  1  0  0  0
 69155  1  0  0  0
 70156  1  0  0  0
 70157  1  0  0  0
 71158  1  0  0  0
 71159  1  0  0  0
 72160  1  0  0  0
 72161  1  0  0  0
 73162  1  0  0  0
 73163  1  0  0  0
 73164  1  0  0  0
 74165  1  0  0  0
 75166  1  0  0  0
 77167  1  0  0  0
 78168  1  0  0  0
 78169  1  0  0  0
 79170  1  0  0  0
M  END
$$$$
