3nti_ligand
  -I-interpret- 

112111  0  0  0  0  0  0  0  0999 V2000
    6.6750    0.8040   -1.2920 N   0  3  0  0  0
    7.4230   -0.2220   -0.4880 C   0  0  0  0  0
    8.2860   -1.1400   -1.3330 C   0  0  0  0  0
    8.4260   -0.9230   -2.5300 O   0  0  0  0  0
    6.4470   -1.1030    0.2870 C   0  0  0  0  0
    5.2660   -1.7140   -0.5050 C   0  0  0  0  0
    4.5740   -2.6940    0.4500 C   0  0  0  0  0
    3.1990   -3.0390    0.0950 N   0  0  0  0  0
    2.4160   -3.8140    0.8450 C   0  0  0  0  0
    2.8790   -4.3130    1.9790 N   0  0  0  0  0
    1.1750   -4.1040    0.4690 N   0  0  0  0  0
    8.8370   -2.1840   -0.7180 N   0  0  0  0  0
    9.6170   -3.1230   -1.4870 C   0  0  0  0  0
   11.0990   -3.0560   -1.2850 C   0  0  0  0  0
   11.6260   -3.1770   -0.1760 O   0  0  0  0  0
   11.7690   -2.8170   -2.3940 N   0  0  0  0  0
   13.2020   -2.7780   -2.4000 C   0  0  0  0  0
   13.6660   -2.2260   -3.7300 C   0  0  0  0  0
   13.0520   -2.4920   -4.7520 O   0  0  0  0  0
   13.7050   -4.2000   -2.2380 C   0  0  0  0  0
   14.1190   -4.5620   -0.8560 C   0  0  0  0  0
   15.2150   -3.6220   -0.4940 C   0  0  0  0  0
   16.1220   -4.1550    0.5070 N   0  0  0  0  0
   17.3000   -3.6090    0.7840 C   0  0  0  0  0
   17.7040   -2.5240    0.1330 N   0  0  0  0  0
   18.0720   -4.1450    1.7100 N   0  0  0  0  0
   14.7720   -1.4980   -3.7270 N   0  0  0  0  0
   15.2570   -0.9370   -4.9650 C   0  0  0  0  0
   14.2070    0.0120   -5.4880 C   0  0  0  0  0
   13.9010    0.0250   -6.6790 O   0  0  0  0  0
   13.6090    0.7900   -4.5960 N   0  0  0  0  0
   12.6210    1.7500   -5.0510 C   0  0  0  0  0
   11.6810    2.1770   -3.9220 C   0  0  0  0  0
   10.4040    1.3490   -3.8590 C   0  0  0  0  0
    9.6940    1.3480   -5.2250 C   0  0  0  0  0
    8.4610    0.5710   -5.2350 N   0  0  0  0  0
    7.6330    0.4840   -6.2590 C   0  0  0  0  0
    7.9120    1.1290   -7.3860 N   0  0  0  0  0
    7.3350    0.5970   -8.5820 C   0  0  0  0  0
    6.5130   -0.2410   -6.1170 N   0  0  0  0  0
    6.1400   -0.8220   -4.8070 C   0  0  0  0  0
   13.4480    2.9190   -5.5520 C   0  0  0  0  0
   13.2800    3.3900   -6.6690 O   0  0  0  0  0
   14.3850    3.3660   -4.7400 N   0  0  0  0  0
   15.2150    4.4650   -5.1830 C   0  0  0  0  0
   14.5980    5.8460   -5.0540 C   0  0  0  0  0
   13.8340    6.2920   -5.9090 O   0  0  0  0  0
   14.9450    6.5330   -3.9720 N   0  0  0  0  0
   14.4480    7.8830   -3.7180 C   0  0  0  0  0
   14.9000    8.3110   -2.3260 C   0  0  0  0  0
   15.5766    7.4963   -1.6434 O   0  0  0  0  0
   12.9150    7.9250   -3.8130 C   0  0  0  0  0
   14.6050    9.4483   -1.8709 O   0  0  0  0  0
    7.3399    1.3842   -1.8035 H   0  0  0  0  0
    6.0560    0.3323   -1.9513 H   0  0  0  0  0
    6.1232    1.3894   -0.6649 H   0  0  0  0  0
    8.0710    0.3477    0.1781 H   0  0  0  0  0
    5.9962   -0.4556    1.0391 H   0  0  0  0  0
    7.0325   -1.9493    0.6462 H   0  0  0  0  0
    5.6157   -2.2214   -1.4041 H   0  0  0  0  0
    4.5764   -0.9403   -0.8426 H   0  0  0  0  0
    4.5338   -2.2071    1.4244 H   0  0  0  0  0
    5.1479   -3.6202    0.4193 H   0  0  0  0  0
    2.8176   -2.6662   -0.7745 H   0  0  0  0  0
    3.8320   -4.1042    2.2766 H   0  0  0  0  0
    0.5925   -4.7045    1.0525 H   0  0  0  0  0
    0.8049   -3.7261   -0.4031 H   0  0  0  0  0
    8.7093   -2.3185    0.2850 H   0  0  0  0  0
    9.4377   -2.8868   -2.5359 H   0  0  0  0  0
    9.3067   -4.1174   -1.1662 H   0  0  0  0  0
   11.2595   -2.6570   -3.2630 H   0  0  0  0  0
   13.5810   -2.1491   -1.5944 H   0  0  0  0  0
   14.5889   -4.2966   -2.8685 H   0  0  0  0  0
   12.8791   -4.8598   -2.5039 H   0  0  0  0  0
   14.4550   -5.5976   -0.8039 H   0  0  0  0  0
   13.2839   -4.4800   -0.1604 H   0  0  0  0  0
   14.7558   -2.7252   -0.0781 H   0  0  0  0  0
   15.7960   -3.4304   -1.3962 H   0  0  0  0  0
   15.8404   -4.9891    1.0221 H   0  0  0  0  0
   18.6093   -2.1069    0.3494 H   0  0  0  0  0
   17.1089   -2.1078   -0.5833 H   0  0  0  0  0
   17.7635   -4.9777    2.2119 H   0  0  0  0  0
   15.2774   -1.3349   -2.8562 H   0  0  0  0  0
   15.4444   -1.7290   -5.6901 H   0  0  0  0  0
   16.1945   -0.4069   -4.7971 H   0  0  0  0  0
   13.8401    0.7146   -3.6054 H   0  0  0  0  0
   11.9688    1.3363   -5.8201 H   0  0  0  0  0
   11.3945    3.2127   -4.1046 H   0  0  0  0  0
   12.2116    2.0380   -2.9801 H   0  0  0  0  0
    9.7372    1.7826   -3.1137 H   0  0  0  0  0
   10.6597    0.3236   -3.5921 H   0  0  0  0  0
   10.3731    0.8965   -5.9483 H   0  0  0  0  0
    9.4344    2.3799   -5.4614 H   0  0  0  0  0
    7.8944    1.0510   -4.5358 H   0  0  0  0  0
    7.5491    0.1365   -7.2887 H   0  0  0  0  0
    8.9229    1.0654   -7.5063 H   0  0  0  0  0
    7.6827   -0.4257   -8.7279 H   0  0  0  0  0
    6.2486    0.6036   -8.4939 H   0  0  0  0  0
    7.6356    1.2091   -9.4323 H   0  0  0  0  0
    6.6682   -1.0544   -6.7126 H   0  0  0  0  0
    6.9254   -1.5011   -4.4753 H   0  0  0  0  0
    6.0181   -0.0214   -4.0774 H   0  0  0  0  0
    5.2029   -1.3696   -4.9074 H   0  0  0  0  0
   14.5218    2.9467   -3.8203 H   0  0  0  0  0
   15.3983    4.3058   -6.2456 H   0  0  0  0  0
   16.1000    4.4606   -4.5468 H   0  0  0  0  0
   15.5785    6.1047   -3.2970 H   0  0  0  0  0
   14.8479    8.5654   -4.4680 H   0  0  0  0  0
   12.6056    7.6175   -4.8119 H   0  0  0  0  0
   12.4878    7.2471   -3.0741 H   0  0  0  0  0
   12.5680    8.9401   -3.6202 H   0  0  0  0  0
   14.0905    9.9292   -2.5233 H   0  0  0  0  0
  1  2  1  0  0  0
  2  3  1  0  0  0
  2  5  1  0  0  0
  3  4  2  0  0  0
  3 12  1  0  0  0
  5  6  1  0  0  0
  6  7  1  0  0  0
  7  8  1  0  0  0
  8  9  1  0  0  0
  9 10  2  0  0  0
  9 11  1  0  0  0
 12 13  1  0  0  0
 13 14  1  0  0  0
 14 15  2  0  0  0
 14 16  1  0  0  0
 16 17  1  0  0  0
 17 18  1  0  0  0
 17 20  1  0  0  0
 18 19  2  0  0  0
 18 27  1  0  0  0
 20 21  1  0  0  0
 21 22  1  0  0  0
 22 23  1  0  0  0
 23 24  1  0  0  0
 24 25  1  0  0  0
 24 26  2  0  0  0
 27 28  1  0  0  0
 28 29  1  0  0  0
 29 30  2  0  0  0
 29 31  1  0  0  0
 31 32  1  0  0  0
 32 33  1  0  0  0
 32 42  1  0  0  0
 33 34  1  0  0  0
 34 35  1  0  0  0
 35 36  1  0  0  0
 36 37  1  0  0  0
 37 38  1  0  0  0
 37 40  1  0  0  0
 38 39  1  0  0  0
 40 41  1  0  0  0
 42 43  2  0  0  0
 42 44  1  0  0  0
 44 45  1  0  0  0
 45 46  1  0  0  0
 46 47  2  0  0  0
 46 48  1  0  0  0
 48 49  1  0  0  0
 49 50  1  0  0  0
 49 52  1  0  0  0
 50 51  2  0  0  0
 50 53  1  0  0  0
  1 54  1  0  0  0
  1 55  1  0  0  0
  1 56  1  0  0  0
  2 57  1  0  0  0
  5 58  1  0  0  0
  5 59  1  0  0  0
  6 60  1  0  0  0
  6 61  1  0  0  0
  7 62  1  0  0  0
  7 63  1  0  0  0
  8 64  1  0  0  0
 10 65  1  0  0  0
 11 66  1  0  0  0
 11 67  1  0  0  0
 12 68  1  0  0  0
 13 69  1  0  0  0
 13 70  1  0  0  0
 16 71  1  0  0  0
 17 72  1  0  0  0
 20 73  1  0  0  0
 20 74  1  0  0  0
 21 75  1  0  0  0
 21 76  1  0  0  0
 22 77  1  0  0  0
 22 78  1  0  0  0
 23 79  1  0  0  0
 25 80  1  0  0  0
 25 81  1  0  0  0
 26 82  1  0  0  0
 27 83  1  0  0  0
 28 84  1  0  0  0
 28 85  1  0  0  0
 31 86  1  0  0  0
 32 87  1  0  0  0
 33 88  1  0  0  0
 33 89  1  0  0  0
 34 90  1  0  0  0
 34 91  1  0  0  0
 35 92  1  0  0  0
 35 93  1  0  0  0
 36 94  1  0  0  0
 37 95  1  0  0  0
 38 96  1  0  0  0
 39 97  1  0  0  0
 39 98  1  0  0  0
 39 99  1  0  0  0
 40100  1  0  0  0
 41101  1  0  0  0
 41102  1  0  0  0
 41103  1  0  0  0
 44104  1  0  0  0
 45105  1  0  0  0
 45106  1  0  0  0
 48107  1  0  0  0
 49108  1  0  0  0
 52109  1  0  0  0
 52110  1  0  0  0
 52111  1  0  0  0
 53112  1  0  0  0
M  END
$$$$
