### 
### Created by X-TOOL on Mon Sep 10 21:13:04 2018
### 

@<TRIPOS>MOLECULE
3nti_ligand
  112   111     1     0     0
SMALL
GAST_HUCK


@<TRIPOS>ATOM
      1 N           6.6750    0.8040   -1.2920 N.4       1 ARG         0.2379
      2 CA          7.4230   -0.2220   -0.4880 C.3       1 ARG         0.0651
      3 C           8.2860   -1.1400   -1.3330 C.2       1 ARG         0.2265
      4 O           8.4260   -0.9230   -2.5300 O.2       1 ARG        -0.3907
      5 CB          6.4470   -1.1030    0.2870 C.3       1 ARG         0.0110
      6 CG          5.2660   -1.7140   -0.5050 C.3       1 ARG        -0.0125
      7 CD          4.5740   -2.6940    0.4500 C.3       1 ARG         0.0629
      8 NE          3.1990   -3.0390    0.0950 N.pl3     1 ARG        -0.2723
      9 CZ          2.4160   -3.8140    0.8450 C.cat     1 ARG         0.2882
     10 NH1         2.8790   -4.3130    1.9790 N.pl3     1 ARG        -0.2849
     11 NH2         1.1750   -4.1040    0.4690 N.pl3     1 ARG        -0.2849
     12 N           8.8370   -2.1840   -0.7180 N.am      1 GLY        -0.2637
     13 CA          9.6170   -3.1230   -1.4870 C.3       1 GLY         0.1202
     14 C          11.0990   -3.0560   -1.2850 C.2       1 GLY         0.2007
     15 O          11.6260   -3.1770   -0.1760 O.2       1 GLY        -0.3947
     16 N          11.7690   -2.8170   -2.3940 N.am      1 ARG        -0.2640
     17 CA         13.2020   -2.7780   -2.4000 C.3       1 ARG         0.1311
     18 C          13.6660   -2.2260   -3.7300 C.2       1 ARG         0.2037
     19 O          13.0520   -2.4920   -4.7520 O.2       1 ARG        -0.3944
     20 CB         13.7050   -4.2000   -2.2380 C.3       1 ARG        -0.0092
     21 CG         14.1190   -4.5620   -0.8560 C.3       1 ARG        -0.0156
     22 CD         15.2150   -3.6220   -0.4940 C.3       1 ARG         0.0627
     23 NE         16.1220   -4.1550    0.5070 N.pl3     1 ARG        -0.2723
     24 CZ         17.3000   -3.6090    0.7840 C.cat     1 ARG         0.2882
     25 NH1        17.7040   -2.5240    0.1330 N.pl3     1 ARG        -0.2849
     26 NH2        18.0720   -4.1450    1.7100 N.pl3     1 ARG        -0.2849
     27 N          14.7720   -1.4980   -3.7270 N.am      1 GLY        -0.2664
     28 CA         15.2570   -0.9370   -4.9650 C.3       1 GLY         0.1201
     29 C          14.2070    0.0120   -5.4880 C.2       1 GLY         0.2007
     30 O          13.9010    0.0250   -6.6790 O.2       1 GLY        -0.3947
     31 N          13.6090    0.7900   -4.5960 N.am      1 2MR        -0.2640
     32 CA         12.6210    1.7500   -5.0510 C.3       1 2MR         0.1311
     33 CB         11.6810    2.1770   -3.9220 C.3       1 2MR        -0.0092
     34 CG         10.4040    1.3490   -3.8590 C.3       1 2MR        -0.0156
     35 CD          9.6940    1.3480   -5.2250 C.3       1 2MR         0.0627
     36 NE          8.4610    0.5710   -5.2350 N.pl3     1 2MR        -0.2721
     37 CZ          7.6330    0.4840   -6.2590 C.cat     1 2MR         0.2920
     38 NH1         7.9120    1.1290   -7.3860 N.pl3     1 2MR        -0.2748
     39 CQ1         7.3350    0.5970   -8.5820 C.3       1 2MR         0.0514
     40 NH2         6.5130   -0.2410   -6.1170 N.pl3     1 2MR        -0.2748
     41 CQ2         6.1400   -0.8220   -4.8070 C.3       1 2MR         0.0514
     42 C          13.4480    2.9190   -5.5520 C.2       1 2MR         0.2037
     43 O          13.2800    3.3900   -6.6690 O.2       1 2MR        -0.3944
     44 N          14.3850    3.3660   -4.7400 N.am      1 GLY        -0.2664
     45 CA         15.2150    4.4650   -5.1830 C.3       1 GLY         0.1201
     46 C          14.5980    5.8460   -5.0540 C.2       1 GLY         0.2002
     47 O          13.8340    6.2920   -5.9090 O.2       1 GLY        -0.3947
     48 N          14.9450    6.5330   -3.9720 N.am      1 ARG        -0.2700
     49 CA         14.4480    7.8830   -3.7180 C.3       1 ARG         0.0916
     50 C          14.9000    8.3110   -2.3260 C.2       1 ARG         0.0598
     51 O          15.5766    7.4963   -1.6434 O.co2     1 ARG        -0.5666
     52 CB         12.9150    7.9250   -3.8130 C.3       1 ARG        -0.0300
     53 H           7.3399    1.3842   -1.8035 H         1 ARG         0.2015
     54 H           6.0560    0.3323   -1.9513 H         1 ARG         0.2015
     55 H           6.1232    1.3894   -0.6649 H         1 ARG         0.2015
     56 H           8.0710    0.3477    0.1781 H         1 ARG         0.1098
     57 H           5.9962   -0.4556    1.0391 H         1 ARG         0.0347
     58 H           7.0325   -1.9493    0.6462 H         1 ARG         0.0347
     59 H           5.6157   -2.2214   -1.4041 H         1 ARG         0.0302
     60 H           4.5764   -0.9403   -0.8426 H         1 ARG         0.0302
     61 H           4.5338   -2.2071    1.4244 H         1 ARG         0.0689
     62 H           5.1479   -3.6202    0.4193 H         1 ARG         0.0689
     63 H           2.8176   -2.6662   -0.7745 H         1 ARG         0.2642
     64 H           3.8320   -4.1042    2.2766 H         1 ARG         0.2615
     65 H           2.2830   -4.9066    2.5560 H         1 ARG         0.2615
     66 H           0.8072   -3.7317   -0.4065 H         1 ARG         0.2615
     67 H           0.5901   -4.6989    1.0559 H         1 ARG         0.2615
     68 H           8.7093   -2.3185    0.2850 H         1 GLY         0.1882
     69 H           9.4377   -2.8868   -2.5359 H         1 GLY         0.0763
     70 H           9.3067   -4.1174   -1.1662 H         1 GLY         0.0763
     71 H          11.2595   -2.6570   -3.2630 H         1 ARG         0.1883
     72 H          13.5810   -2.1491   -1.5944 H         1 ARG         0.0800
     73 H          14.5889   -4.2966   -2.8685 H         1 ARG         0.0313
     74 H          12.8791   -4.8598   -2.5039 H         1 ARG         0.0313
     75 H          14.4550   -5.5976   -0.8039 H         1 ARG         0.0301
     76 H          13.2839   -4.4800   -0.1604 H         1 ARG         0.0301
     77 H          14.7558   -2.7252   -0.0781 H         1 ARG         0.0689
     78 H          15.7960   -3.4304   -1.3962 H         1 ARG         0.0689
     79 H          15.8404   -4.9891    1.0221 H         1 ARG         0.2642
     80 H          17.1085   -2.1073   -0.5826 H         1 ARG         0.2615
     81 H          18.6097   -2.1075    0.3487 H         1 ARG         0.2615
     82 H          17.7635   -4.9777    2.2119 H         1 ARG         0.2615
     83 H          18.9773   -3.7267    1.9240 H         1 ARG         0.2615
     84 H          15.2774   -1.3349   -2.8562 H         1 GLY         0.1881
     85 H          15.4444   -1.7290   -5.6901 H         1 GLY         0.0763
     86 H          16.1945   -0.4069   -4.7971 H         1 GLY         0.0763
     87 H          13.8401    0.7146   -3.6054 H         1 2MR         0.1883
     88 H          11.9688    1.3363   -5.8201 H         1 2MR         0.0800
     89 H          11.3945    3.2127   -4.1046 H         1 2MR         0.0313
     90 H          12.2116    2.0380   -2.9801 H         1 2MR         0.0313
     91 H           9.7372    1.7826   -3.1137 H         1 2MR         0.0301
     92 H          10.6597    0.3236   -3.5921 H         1 2MR         0.0301
     93 H          10.3731    0.8965   -5.9483 H         1 2MR         0.0689
     94 H           9.4344    2.3799   -5.4614 H         1 2MR         0.0689
     95 H           8.2202    0.0564   -4.3879 H         1 2MR         0.2642
     96 H           8.5054    1.9585   -7.3981 H         1 2MR         0.2639
     97 H           7.6827   -0.4257   -8.7279 H         1 2MR         0.0652
     98 H           6.2486    0.6036   -8.4939 H         1 2MR         0.0652
     99 H           7.6356    1.2091   -9.4323 H         1 2MR         0.0652
    100 H           5.9088   -0.3944   -6.9243 H         1 2MR         0.2639
    101 H           6.9254   -1.5011   -4.4753 H         1 2MR         0.0652
    102 H           6.0181   -0.0214   -4.0774 H         1 2MR         0.0652
    103 H           5.2029   -1.3696   -4.9074 H         1 2MR         0.0652
    104 H          14.5218    2.9467   -3.8203 H         1 GLY         0.1881
    105 H          15.3983    4.3058   -6.2456 H         1 GLY         0.0763
    106 H          16.1000    4.4606   -4.5468 H         1 GLY         0.0763
    107 H          15.5785    6.1047   -3.2970 H         1 ARG         0.1875
    108 H          14.8479    8.5654   -4.4680 H         1 ARG         0.0723
    109 O          14.6050    9.4483   -1.8709 O.co2     1 ARG        -0.5666
    110 H          12.6056    7.6175   -4.8119 H         1 ARG         0.0270
    111 H          12.4878    7.2471   -3.0741 H         1 ARG         0.0270
    112 H          12.5680    8.9401   -3.6202 H         1 ARG         0.0270
@<TRIPOS>BOND
     1    1    2 1  
     2    2    3 1  
     3    2    5 1  
     4    3    4 2  
     5    3   12 am 
     6    5    6 1  
     7    6    7 1  
     8    7    8 1  
     9    8    9 ar 
    10    9   10 ar 
    11    9   11 ar 
    12   12   13 1  
    13   13   14 1  
    14   14   15 2  
    15   14   16 am 
    16   16   17 1  
    17   17   18 1  
    18   17   20 1  
    19   18   19 2  
    20   18   27 am 
    21   20   21 1  
    22   21   22 1  
    23   22   23 1  
    24   23   24 ar 
    25   24   25 ar 
    26   24   26 ar 
    27   27   28 1  
    28   28   29 1  
    29   29   30 2  
    30   29   31 am 
    31   31   32 1  
    32   32   33 1  
    33   32   42 1  
    34   33   34 1  
    35   34   35 1  
    36   35   36 1  
    37   36   37 ar 
    38   37   38 ar 
    39   37   40 ar 
    40   38   39 1  
    41   40   41 1  
    42   42   43 2  
    43   42   44 am 
    44   44   45 1  
    45   45   46 1  
    46   46   47 2  
    47   46   48 am 
    48   48   49 1  
    49   49   50 1  
    50   49   52 1  
    51   50   51 ar 
    52    1   53 1  
    53    1   54 1  
    54    1   55 1  
    55    2   56 1  
    56    5   57 1  
    57    5   58 1  
    58    6   59 1  
    59    6   60 1  
    60    7   61 1  
    61    7   62 1  
    62    8   63 1  
    63   10   64 1  
    64   10   65 1  
    65   11   66 1  
    66   11   67 1  
    67   12   68 1  
    68   13   69 1  
    69   13   70 1  
    70   16   71 1  
    71   17   72 1  
    72   20   73 1  
    73   20   74 1  
    74   21   75 1  
    75   21   76 1  
    76   22   77 1  
    77   22   78 1  
    78   23   79 1  
    79   25   80 1  
    80   25   81 1  
    81   26   82 1  
    82   26   83 1  
    83   27   84 1  
    84   28   85 1  
    85   28   86 1  
    86   31   87 1  
    87   32   88 1  
    88   33   89 1  
    89   33   90 1  
    90   34   91 1  
    91   34   92 1  
    92   35   93 1  
    93   35   94 1  
    94   36   95 1  
    95   38   96 1  
    96   39   97 1  
    97   39   98 1  
    98   39   99 1  
    99   40  100 1  
   100   41  101 1  
   101   41  102 1  
   102   41  103 1  
   103   44  104 1  
   104   45  105 1  
   105   45  106 1  
   106   48  107 1  
   107   49  108 1  
   108   50  109 ar 
   109   52  110 1  
   110   52  111 1  
   111   52  112 1  
@<TRIPOS>SUBSTRUCTURE
     1 ARG         1

