2sim_ligand
  -I-interpret- 

 37 37  0  0  0  0  0  0  0  0999 V2000
   43.1440   51.8930   45.7220 C   0  0  0  0  0
   42.9540   51.5700   47.0740 C   0  0  0  0  0
   41.6990   51.1110   47.5000 C   0  0  0  0  0
   41.5320   50.4770   48.8760 C   0  0  0  0  0
   42.6710   50.9260   49.8030 C   0  0  0  0  0
   44.0010   50.6440   49.0790 C   0  0  0  0  0
   45.2100   51.0200   49.9070 C   0  0  0  0  0
   46.4760   50.7660   49.0570 C   0  0  0  0  0
   47.7450   51.1770   49.8680 C   0  0  0  0  0
   42.7660   50.7610   52.2420 C   0  0  0  0  0
   42.3930   49.9380   53.4740 C   0  0  0  0  0
   42.5120   50.2100   51.0570 N   0  0  0  0  0
   42.2370   52.2040   44.9500 O   0  0  0  0  0
   44.2840   51.8270   45.2450 O   0  0  0  0  0
   40.2990   50.8100   49.5070 O   0  0  0  0  0
   44.0580   51.4470   47.8980 O   0  0  0  0  0
   45.0550   52.3880   50.2550 O   0  0  0  0  0
   46.5260   49.3690   48.6880 O   0  0  0  0  0
   47.8820   50.3710   51.0250 O   0  0  0  0  0
   43.3710   51.8420   52.3360 O   0  0  0  0  0
   40.8359   51.2085   46.8415 H   0  0  0  0  0
   41.5483   49.3996   48.7115 H   0  0  0  0  0
   42.6575   51.9910   50.0345 H   0  0  0  0  0
   44.0273   49.5739   48.8732 H   0  0  0  0  0
   45.3057   50.4308   50.8190 H   0  0  0  0  0
   46.4442   51.3672   48.1484 H   0  0  0  0  0
   47.6460   52.2186   50.1736 H   0  0  0  0  0
   48.6246   51.0425   49.2385 H   0  0  0  0  0
   43.2989   49.6670   54.0162 H   0  0  0  0  0
   41.7438   50.5282   54.1207 H   0  0  0  0  0
   41.8711   49.0337   53.1609 H   0  0  0  0  0
   42.1915   49.2421   51.0283 H   0  0  0  0  0
   44.9041   51.5781   45.9343 H   0  0  0  0  0
   39.5696   50.5383   48.9450 H   0  0  0  0  0
   44.2585   52.4952   50.7801 H   0  0  0  0  0
   47.3110   49.2066   48.1598 H   0  0  0  0  0
   48.6665   50.6388   51.5091 H   0  0  0  0  0
  1 14  1  0  0  0
  1 13  2  0  0  0
  1  2  1  0  0  0
  2 16  1  0  0  0
  2  3  2  0  0  0
  3  4  1  0  0  0
  4 15  1  0  0  0
  4  5  1  0  0  0
  5 12  1  0  0  0
  5  6  1  0  0  0
  6 16  1  0  0  0
  6  7  1  0  0  0
  7 17  1  0  0  0
  7  8  1  0  0  0
  8 18  1  0  0  0
  8  9  1  0  0  0
  9 19  1  0  0  0
 12 10  1  0  0  0
 10 20  2  0  0  0
 10 11  1  0  0  0
  3 21  1  0  0  0
  4 22  1  0  0  0
  5 23  1  0  0  0
  6 24  1  0  0  0
  7 25  1  0  0  0
  8 26  1  0  0  0
  9 27  1  0  0  0
  9 28  1  0  0  0
 11 29  1  0  0  0
 11 30  1  0  0  0
 11 31  1  0  0  0
 12 32  1  0  0  0
 14 33  1  0  0  0
 15 34  1  0  0  0
 17 35  1  0  0  0
 18 36  1  0  0  0
 19 37  1  0  0  0
M  END
$$$$
