6mv3_ligand
  -I-interpret- 

 44 45  0  0  0  0  0  0  0  0999 V2000
    4.6900   -2.6900    5.3100 S   0  0  0  0  0
    5.5540   -2.2550    6.5040 O   0  0  0  0  0
    5.5440   -3.6230    4.4370 O   0  0  0  0  0
    3.3880   -3.5130    5.8630 N   0  0  0  0  0
    3.2370    1.1090    3.1880 C   0  0  0  0  0
    3.2590    1.0090    4.5760 C   0  0  0  0  0
    3.7040   -0.1470    5.1890 C   0  0  0  0  0
    4.1370   -1.2320    4.4270 C   0  0  0  0  0
    4.1160   -1.1390    3.0090 C   0  0  0  0  0
    3.6640    0.0340    2.3840 C   0  0  0  0  0
    3.1160    1.5000    0.0530 Cl  0  0  0  0  0
    3.6550    0.1000    0.9460 C   0  0  0  0  0
    4.0880   -0.9970    0.2110 C   0  0  0  0  0
    4.5200   -2.1320    0.8460 C   0  0  0  0  0
    4.5390   -2.2030    2.2260 C   0  0  0  0  0
    2.6060   -4.0740    4.7460 C   0  0  0  0  0
    1.1130   -4.0390    5.0720 C   0  0  0  0  0
    0.4900   -6.2160    6.1450 C   0  0  0  0  0
    0.4970   -5.4160    4.8360 C   0  0  0  0  0
   -0.8650   -6.0720    6.8360 C   0  0  0  0  0
   -0.6810   -5.4020    8.1980 C   0  0  0  0  0
   -1.4080   -6.1350    9.2420 N   0  3  0  0  0
    3.1494   -3.6231    6.8486 H   0  0  0  0  0
    2.8860    2.0280    2.7186 H   0  0  0  0  0
    2.9227    1.8487    5.1842 H   0  0  0  0  0
    3.7167   -0.2113    6.2770 H   0  0  0  0  0
    4.0840   -0.9544   -0.8782 H   0  0  0  0  0
    4.8518   -2.9870    0.2569 H   0  0  0  0  0
    4.8936   -3.1136    2.7090 H   0  0  0  0  0
    2.9101   -5.1080    4.5831 H   0  0  0  0  0
    2.7884   -3.4797    3.8506 H   0  0  0  0  0
    0.6214   -3.3101    4.4277 H   0  0  0  0  0
    0.9797   -3.7599    6.1172 H   0  0  0  0  0
    1.2711   -5.8352    6.8030 H   0  0  0  0  0
    0.6706   -7.2680    5.9241 H   0  0  0  0  0
    1.0863   -5.9506    4.0910 H   0  0  0  0  0
   -0.5271   -5.2960    4.4825 H   0  0  0  0  0
   -1.3058   -7.0591    6.9757 H   0  0  0  0  0
   -1.5221   -5.4598    6.2183 H   0  0  0  0  0
   -1.0714   -4.3857    8.1454 H   0  0  0  0  0
    0.3803   -5.3965    8.4465 H   0  0  0  0  0
   -1.2710   -5.6708   10.1398 H   0  0  0  0  0
   -2.4022   -6.1515    9.0146 H   0  0  0  0  0
   -1.0541   -7.0902    9.2943 H   0  0  0  0  0
  1  2  2  0  0  0
  1  3  2  0  0  0
  1  4  1  0  0  0
  8  1  1  0  0  0
  4 16  1  0  0  0
  6  5  4  0  0  0
  5 10  4  0  0  0
  7  6  4  0  0  0
  7  8  4  0  0  0
  8  9  4  0  0  0
  9 10  4  0  0  0
  9 15  4  0  0  0
 10 12  4  0  0  0
 12 11  1  0  0  0
 12 13  4  0  0  0
 13 14  4  0  0  0
 14 15  4  0  0  0
 16 17  1  0  0  0
 17 19  1  0  0  0
 19 18  1  0  0  0
 18 20  1  0  0  0
 20 21  1  0  0  0
 21 22  1  0  0  0
  4 23  1  0  0  0
  5 24  1  0  0  0
  6 25  1  0  0  0
  7 26  1  0  0  0
 13 27  1  0  0  0
 14 28  1  0  0  0
 15 29  1  0  0  0
 16 30  1  0  0  0
 16 31  1  0  0  0
 17 32  1  0  0  0
 17 33  1  0  0  0
 18 34  1  0  0  0
 18 35  1  0  0  0
 19 36  1  0  0  0
 19 37  1  0  0  0
 20 38  1  0  0  0
 20 39  1  0  0  0
 21 40  1  0  0  0
 21 41  1  0  0  0
 22 42  1  0  0  0
 22 43  1  0  0  0
 22 44  1  0  0  0
M  END
$$$$
