### 
### Created by X-TOOL on Mon Sep 10 21:13:20 2018
### 

@<TRIPOS>MOLECULE
4njd_ligand
   50    54     1     0     0
SMALL
GAST_HUCK


@<TRIPOS>ATOM
      1 CAJ       -20.9560   -3.0750   15.0930 C.ar      1 NJD        -0.0225
      2 CBA       -21.9390   -3.3670   15.9770 C.ar      1 NJD         0.0234
      3 CAH       -22.4120   -4.5300   16.4260 C.2       1 NJD         0.1065
      4 NAM       -23.4140   -4.2960   17.2820 N.pl3     1 NJD        -0.2460
      5 NAT       -23.5340   -2.9370   17.3850 N.2       1 NJD        -0.3408
      6 CBB       -22.6400   -2.3860   16.6020 C.ar      1 NJD        -0.0262
      7 CAG       -22.3990   -1.1060   16.3660 C.ar      1 NJD        -0.0683
      8 CAD       -21.4130   -0.7230   15.4700 C.ar      1 NJD        -0.0374
      9 CAV       -20.6720   -1.7020   14.7990 C.ar      1 NJD         0.0687
     10 NAR       -19.7480   -1.2300   13.9060 N.pl3     1 NJD        -0.2409
     11 CAY       -19.0310   -1.9920   13.0680 C.ar      1 NJD         0.1950
     12 NAN       -19.1600   -3.3050   12.9670 N.ar      1 NJD        -0.2296
     13 NAP       -18.1100   -1.3900   12.3080 N.ar      1 NJD        -0.2198
     14 CAZ       -17.3430   -2.0610   11.4510 C.ar      1 NJD         0.2293
     15 OAU       -16.4190   -1.3800   10.7120 O.3       1 NJD        -0.2787
     16 CAA       -16.8420   -0.0080   10.5040 C.3       1 NJD         0.0702
     17 NAO       -17.4680   -3.4010   11.3580 N.ar      1 NJD        -0.2230
     18 CAX       -18.3550   -4.0240   12.1400 C.ar      1 NJD         0.1760
     19 NAQ       -18.5530   -5.3510   12.0820 N.pl3     1 NJD        -0.2871
     20 CAK       -19.9860   -5.7010   11.8650 C.3       1 NJD         0.0368
     21 CAL       -20.1550   -7.0920   12.1470 C.3       1 NJD        -0.0154
     22 CAW       -21.3010   -7.4120   13.0510 C.2       1 NJD        -0.0443
     23 CBD       -21.3330   -8.6540   13.5180 C.ar      1 NJD        -0.0215
     24 CAF       -20.4690   -9.6670   13.3210 C.ar      1 NJD        -0.0747
     25 CAC       -20.6950  -10.8990   13.9550 C.ar      1 NJD        -0.0792
     26 CAB       -21.8410  -10.9730   14.7800 C.ar      1 NJD        -0.0768
     27 CAE       -22.6820   -9.8530   14.9300 C.ar      1 NJD        -0.0443
     28 CBC       -22.4150   -8.7070   14.2990 C.ar      1 NJD         0.0603
     29 NAS       -23.0350   -7.4880   14.2620 N.pl3     1 NJD        -0.2891
     30 CAI       -22.3280   -6.6830   13.4650 C.2       1 NJD         0.0165
     31 H         -20.3924   -3.8681   14.6150 H         1 NJD         0.0550
     32 H         -22.0419   -5.5139   16.1415 H         1 NJD         0.1367
     33 H         -23.9842   -5.0022   17.7688 H         1 NJD         0.2934
     34 H         -22.9796   -0.3482   16.8795 H         1 NJD         0.0588
     35 H         -21.2174    0.3280   15.2904 H         1 NJD         0.0539
     36 H         -19.5919   -0.2123   13.8757 H         1 NJD         0.2209
     37 H         -16.0852    0.5226    9.9076 H         1 NJD         0.0595
     38 H         -16.9581    0.4915   11.4772 H         1 NJD         0.0595
     39 H         -17.8034    0.0023    9.9695 H         1 NJD         0.0595
     40 H         -17.8004   -6.0478   12.1767 H         1 NJD         0.1896
     41 H         -20.2650   -5.4965   10.8208 H         1 NJD         0.0543
     42 H         -20.6206   -5.1052   12.5376 H         1 NJD         0.0543
     43 H         -19.2326   -7.4601   12.6200 H         1 NJD         0.0369
     44 H         -20.3135   -7.6179   11.1939 H         1 NJD         0.0369
     45 H         -19.6063   -9.5328   12.6785 H         1 NJD         0.0540
     46 H         -20.0298  -11.7442   13.8200 H         1 NJD         0.0510
     47 H         -22.0734  -11.8957   15.2993 H         1 NJD         0.0530
     48 H         -23.5572   -9.9224   15.5659 H         1 NJD         0.0541
     49 H         -23.8987   -7.2347   14.7628 H         1 NJD         0.2216
     50 H         -22.5482   -5.6476   13.2094 H         1 NJD         0.0795
@<TRIPOS>BOND
     1    1    2 ar 
     2    1    9 ar 
     3    2    3 2  
     4    2    6 ar 
     5    3    4 1  
     6    4    5 1  
     7    5    6 2  
     8    6    7 ar 
     9    7    8 ar 
    10    8    9 ar 
    11    9   10 1  
    12   10   11 1  
    13   11   12 ar 
    14   11   13 ar 
    15   12   18 ar 
    16   13   14 ar 
    17   14   15 1  
    18   14   17 ar 
    19   15   16 1  
    20   17   18 ar 
    21   18   19 1  
    22   19   20 1  
    23   20   21 1  
    24   21   22 1  
    25   22   23 1  
    26   22   30 2  
    27   23   24 ar 
    28   23   28 ar 
    29   24   25 ar 
    30   25   26 ar 
    31   26   27 ar 
    32   27   28 ar 
    33   28   29 1  
    34   29   30 1  
    35    1   31 1  
    36    3   32 1  
    37    4   33 1  
    38    7   34 1  
    39    8   35 1  
    40   10   36 1  
    41   16   37 1  
    42   16   38 1  
    43   16   39 1  
    44   19   40 1  
    45   20   41 1  
    46   20   42 1  
    47   21   43 1  
    48   21   44 1  
    49   24   45 1  
    50   25   46 1  
    51   26   47 1  
    52   27   48 1  
    53   29   49 1  
    54   30   50 1  
@<TRIPOS>SUBSTRUCTURE
     1 NJD         1

