4njd_ligand
  -I-interpret- 

 48 52  0  0  0  0  0  0  0  0999 V2000
  -20.9560   -3.0750   15.0930 C   0  0  0  0  0
  -21.9390   -3.3670   15.9770 C   0  0  0  0  0
  -22.4120   -4.5300   16.4260 C   0  0  0  0  0
  -23.4140   -4.2960   17.2820 N   0  0  0  0  0
  -23.5340   -2.9370   17.3850 N   0  0  0  0  0
  -22.6400   -2.3860   16.6020 C   0  0  0  0  0
  -22.3990   -1.1060   16.3660 C   0  0  0  0  0
  -21.4130   -0.7230   15.4700 C   0  0  0  0  0
  -20.6720   -1.7020   14.7990 C   0  0  0  0  0
  -19.7480   -1.2300   13.9060 N   0  0  0  0  0
  -19.0310   -1.9920   13.0680 C   0  0  0  0  0
  -19.1600   -3.3050   12.9670 N   0  0  0  0  0
  -18.1100   -1.3900   12.3080 N   0  0  0  0  0
  -17.3430   -2.0610   11.4510 C   0  0  0  0  0
  -16.4190   -1.3800   10.7120 O   0  0  0  0  0
  -16.8420   -0.0080   10.5040 C   0  0  0  0  0
  -17.4680   -3.4010   11.3580 N   0  0  0  0  0
  -18.3550   -4.0240   12.1400 C   0  0  0  0  0
  -18.5530   -5.3510   12.0820 N   0  0  0  0  0
  -19.9860   -5.7010   11.8650 C   0  0  0  0  0
  -20.1550   -7.0920   12.1470 C   0  0  0  0  0
  -21.3010   -7.4120   13.0510 C   0  0  0  0  0
  -21.3330   -8.6540   13.5180 C   0  0  0  0  0
  -20.4690   -9.6670   13.3210 C   0  0  0  0  0
  -20.6950  -10.8990   13.9550 C   0  0  0  0  0
  -21.8410  -10.9730   14.7800 C   0  0  0  0  0
  -22.6820   -9.8530   14.9300 C   0  0  0  0  0
  -22.4150   -8.7070   14.2990 C   0  0  0  0  0
  -23.0350   -7.4880   14.2620 N   0  0  0  0  0
  -22.3280   -6.6830   13.4650 C   0  0  0  0  0
  -20.3893   -3.8724   14.6123 H   0  0  0  0  0
  -22.0415   -5.5148   16.1412 H   0  0  0  0  0
  -22.9828   -0.3440   16.8824 H   0  0  0  0  0
  -21.2163    0.3338   15.2894 H   0  0  0  0  0
  -19.5934   -0.2222   13.8760 H   0  0  0  0  0
  -17.7946    0.0008    9.9744 H   0  0  0  0  0
  -16.9567    0.4858   11.4690 H   0  0  0  0  0
  -16.0914    0.5166    9.9129 H   0  0  0  0  0
  -17.8077   -6.0411   12.1757 H   0  0  0  0  0
  -20.2705   -5.4909   10.8340 H   0  0  0  0  0
  -20.6202   -5.1062   12.5223 H   0  0  0  0  0
  -19.2491   -7.4250   12.6536 H   0  0  0  0  0
  -20.3538   -7.5863   11.1961 H   0  0  0  0  0
  -19.6015   -9.5320   12.6750 H   0  0  0  0  0
  -20.0261  -11.7489   13.8192 H   0  0  0  0  0
  -22.0747  -11.9008   15.3022 H   0  0  0  0  0
  -23.5620   -9.9228   15.5694 H   0  0  0  0  0
  -22.5485   -5.6466   13.2092 H   0  0  0  0  0
  1  2  4  0  0  0
  1  9  4  0  0  0
  2  3  4  0  0  0
  2  6  4  0  0  0
  3  4  4  0  0  0
  4  5  4  0  0  0
  5  6  4  0  0  0
  6  7  4  0  0  0
  7  8  4  0  0  0
  8  9  4  0  0  0
  9 10  1  0  0  0
 10 11  1  0  0  0
 11 12  4  0  0  0
 11 13  4  0  0  0
 12 18  4  0  0  0
 13 14  4  0  0  0
 14 15  1  0  0  0
 14 17  4  0  0  0
 15 16  1  0  0  0
 17 18  4  0  0  0
 18 19  1  0  0  0
 19 20  1  0  0  0
 20 21  1  0  0  0
 21 22  1  0  0  0
 22 23  4  0  0  0
 22 30  4  0  0  0
 23 24  4  0  0  0
 23 28  4  0  0  0
 24 25  4  0  0  0
 25 26  4  0  0  0
 26 27  4  0  0  0
 27 28  4  0  0  0
 28 29  4  0  0  0
 29 30  4  0  0  0
  1 31  1  0  0  0
  3 32  1  0  0  0
  7 33  1  0  0  0
  8 34  1  0  0  0
 10 35  1  0  0  0
 16 36  1  0  0  0
 16 37  1  0  0  0
 16 38  1  0  0  0
 19 39  1  0  0  0
 20 40  1  0  0  0
 20 41  1  0  0  0
 21 42  1  0  0  0
 21 43  1  0  0  0
 24 44  1  0  0  0
 25 45  1  0  0  0
 26 46  1  0  0  0
 27 47  1  0  0  0
 30 48  1  0  0  0
M  END
$$$$
