3oku_ligand
  -I-interpret- 

 53 56  0  0  0  0  0  0  0  0999 V2000
   -6.7240    4.1750   16.4140 C   0  0  0  0  0
   -0.2850    8.9990   15.1130 C   0  0  0  0  0
   -5.2380   -0.7320   16.1660 N   0  0  0  0  0
   -0.4820   11.3020   12.9780 O   0  0  0  0  0
   -4.5650    1.4860   17.2250 O   0  0  0  0  0
   -6.8030    1.2810   16.2330 O   0  0  0  0  0
   -3.0300    2.8160   14.2230 C   0  0  0  0  0
   -4.5470    5.1080   14.2470 C   0  0  0  0  0
   -6.5800    3.9380   14.9060 C   0  0  0  0  0
    1.0360    9.5030   12.2250 C   0  0  0  0  0
   -0.9480    3.9950   13.5660 C   0  0  0  0  0
    1.0410    8.0560   12.7670 C   0  0  0  0  0
   -0.5400    5.2410   12.7690 C   0  0  0  0  0
   -3.0080    7.7990   14.4070 C   0  0  0  0  0
   -2.4230    9.1140   13.8130 C   0  0  0  0  0
   -4.8470    1.3800   14.8310 O   0  0  0  0  0
   -0.1720   10.1120   12.9560 C   0  0  0  0  0
   -5.1200    3.8690   14.5660 C   0  0  0  0  0
   -2.4390    4.0490   13.9100 C   0  0  0  0  0
   -4.3710    2.6790   14.5630 C   0  0  0  0  0
   -3.1870    5.2270   13.9430 C   0  0  0  0  0
   -2.5400    6.5710   13.5700 C   0  0  0  0  0
   -0.9870    6.4970   13.5250 C   0  0  0  0  0
   -0.4780    7.7990   12.8700 C   0  0  0  0  0
   -0.8970    9.0000   13.7150 C   0  0  0  0  0
   -5.3660    0.8870   16.1510 S   0  0  0  0  0
   -6.2558    3.3533   16.9560 H   0  0  0  0  0
   -6.2367    5.1126   16.6813 H   0  0  0  0  0
   -7.7815    4.2270   16.6730 H   0  0  0  0  0
   -0.5447    9.9269   15.6226 H   0  0  0  0  0
   -0.6738    8.1517   15.6778 H   0  0  0  0  0
    0.7991    8.9177   15.0336 H   0  0  0  0  0
   -4.6550   -1.1910   16.8659 H   0  0  0  0  0
   -5.7406   -1.2897   15.4755 H   0  0  0  0  0
   -2.4074    1.9216   14.1984 H   0  0  0  0  0
   -5.1754    5.9985   14.2356 H   0  0  0  0  0
   -7.0495    4.7541   14.3568 H   0  0  0  0  0
   -7.0686    3.0035   14.6301 H   0  0  0  0  0
    0.9569    9.5577   11.1392 H   0  0  0  0  0
    1.9678   10.0373   12.4102 H   0  0  0  0  0
   -0.3707    3.9587   14.4899 H   0  0  0  0  0
   -0.7537    3.1077   12.9634 H   0  0  0  0  0
    1.5824    7.9295   13.7045 H   0  0  0  0  0
    1.5755    7.3431   12.1391 H   0  0  0  0  0
   -1.0152    5.2178   11.7883 H   0  0  0  0  0
    0.5429    5.2561   12.6458 H   0  0  0  0  0
   -4.0965    7.8515   14.3829 H   0  0  0  0  0
   -2.6565    7.6850   15.4324 H   0  0  0  0  0
   -2.6828    9.9511   14.4610 H   0  0  0  0  0
   -2.8385    9.2785   12.8188 H   0  0  0  0  0
   -2.9124    6.7504   12.5614 H   0  0  0  0  0
   -0.5624    6.4166   14.5257 H   0  0  0  0  0
   -0.8948    7.6788   11.8700 H   0  0  0  0  0
  9  1  1  0  0  0
 25  2  1  0  0  0
 26  3  1  0  0  0
 17  4  2  0  0  0
 26  5  2  0  0  0
 26  6  2  0  0  0
 19  7  4  0  0  0
  7 20  4  0  0  0
  8 18  4  0  0  0
 21  8  4  0  0  0
 18  9  1  0  0  0
 10 12  1  0  0  0
 17 10  1  0  0  0
 11 13  1  0  0  0
 19 11  1  0  0  0
 12 24  1  0  0  0
 13 23  1  0  0  0
 14 15  1  0  0  0
 22 14  1  0  0  0
 15 25  1  0  0  0
 20 16  1  0  0  0
 16 26  1  0  0  0
 25 17  1  0  0  0
 18 20  4  0  0  0
 21 19  4  0  0  0
 21 22  1  0  0  0
 22 23  1  0  0  0
 23 24  1  0  0  0
 24 25  1  0  0  0
  1 27  1  0  0  0
  1 28  1  0  0  0
  1 29  1  0  0  0
  2 30  1  0  0  0
  2 31  1  0  0  0
  2 32  1  0  0  0
  3 33  1  0  0  0
  3 34  1  0  0  0
  7 35  1  0  0  0
  8 36  1  0  0  0
  9 37  1  0  0  0
  9 38  1  0  0  0
 10 39  1  0  0  0
 10 40  1  0  0  0
 11 41  1  0  0  0
 11 42  1  0  0  0
 12 43  1  0  0  0
 12 44  1  0  0  0
 13 45  1  0  0  0
 13 46  1  0  0  0
 14 47  1  0  0  0
 14 48  1  0  0  0
 15 49  1  0  0  0
 15 50  1  0  0  0
 22 51  1  0  0  0
 23 52  1  0  0  0
 24 53  1  0  0  0
M  END
$$$$
