4e5i_ligand
  -I-interpret- 

 25 26  0  0  0  0  0  0  0  0999 V2000
  -11.2720  -16.2040  -22.9060 O   0  0  0  0  0
  -11.2890  -15.7930  -24.0890 C   0  0  0  0  0
  -10.5540  -14.8570  -24.4860 O   0  0  0  0  0
  -12.2340  -16.4340  -25.0630 C   0  0  0  0  0
  -13.3610  -17.2710  -24.5870 C   0  0  0  0  0
  -13.5750  -17.4930  -23.2620 O   0  0  0  0  0
  -12.0820  -16.2630  -26.3970 N   0  0  0  0  0
  -12.9350  -16.8260  -27.2930 C   0  0  0  0  0
  -13.9720  -17.5960  -26.9130 N   0  0  0  0  0
  -14.2430  -17.8520  -25.6240 C   0  0  0  0  0
  -15.2210  -18.5630  -25.3000 O   0  0  0  0  0
  -12.7010  -16.6100  -28.7490 C   0  0  0  0  0
  -13.2970  -15.7150  -29.5610 N   0  0  0  0  0
  -12.7780  -15.8830  -30.7990 C   0  0  0  0  0
  -11.8700  -16.8700  -30.7680 N   0  0  0  0  0
  -11.0700  -17.3700  -31.9160 C   0  0  0  0  0
  -11.8040  -17.3350  -29.5180 C   0  0  0  0  0
  -10.7183  -14.6958  -25.4180 H   0  0  0  0  0
  -14.3460  -18.0545  -23.1532 H   0  0  0  0  0
  -11.3061  -15.6962  -26.7393 H   0  0  0  0  0
  -13.0541  -15.3072  -31.6824 H   0  0  0  0  0
  -11.7410  -17.7420  -32.6902 H   0  0  0  0  0
  -10.4654  -16.5568  -32.3175 H   0  0  0  0  0
  -10.4188  -18.1767  -31.5795 H   0  0  0  0  0
  -11.1600  -18.1406  -29.1654 H   0  0  0  0  0
  1  2  2  0  0  0
  2  3  1  0  0  0
  2  4  1  0  0  0
  4  5  2  0  0  0
  4  7  1  0  0  0
  5  6  1  0  0  0
  5 10  1  0  0  0
  7  8  1  0  0  0
  8  9  2  0  0  0
  8 12  1  0  0  0
  9 10  1  0  0  0
 10 11  2  0  0  0
 12 13  4  0  0  0
 12 17  4  0  0  0
 13 14  4  0  0  0
 14 15  4  0  0  0
 15 16  1  0  0  0
 15 17  4  0  0  0
  3 18  1  0  0  0
  6 19  1  0  0  0
  7 20  1  0  0  0
 14 21  1  0  0  0
 16 22  1  0  0  0
 16 23  1  0  0  0
 16 24  1  0  0  0
 17 25  1  0  0  0
M  END
$$$$
