4wn5_ligand
  -I-interpret- 

 65 64  0  0  0  0  0  0  0  0999 V2000
    7.8640  -47.6000  -10.0570 C   0  0  0  0  0
    0.9800  -50.8650  -13.8290 C   0  0  0  0  0
   -0.4270  -50.2390  -13.6190 C   0  0  0  0  0
    7.3430  -48.8160  -10.8020 C   0  0  0  0  0
    2.1000  -49.8370  -14.0400 C   0  0  0  0  0
   -0.9210  -49.4600  -14.8570 C   0  0  0  0  0
   -7.0630  -44.6340  -10.8190 C   0  0  0  0  0
    6.5610  -48.4310  -12.0370 C   0  0  0  0  0
    3.4920  -50.4540  -14.2210 C   0  0  0  0  0
   -2.3880  -48.9870  -14.7600 C   0  0  0  0  0
    6.2130  -49.6250  -12.9280 C   0  0  0  0  0
    4.0060  -51.0010  -12.8750 C   0  0  0  0  0
   -2.6070  -48.0300  -13.5670 C   0  0  0  0  0
    5.1950  -50.6000  -12.3140 C   0  0  0  0  0
   -4.0410  -47.5430  -13.4370 C   0  0  0  0  0
   -4.2020  -46.6220  -12.2390 C   0  0  0  0  0
   -8.0640  -42.8400   -9.3670 C   0  0  0  0  0
   -6.8000  -43.4060   -9.9700 C   0  0  0  0  0
   -6.5820  -46.5930  -12.6410 O   0  0  0  0  0
   -5.6380  -46.1880  -12.0090 C   0  0  0  0  0
   -5.7530  -45.1500  -11.0860 O   0  0  0  0  0
   -6.1430  -42.4360  -10.7650 O   0  0  0  0  0
   -8.9140  -42.4040  -10.4100 O   0  0  0  0  0
    8.5080  -47.9040   -8.7320 C   0  0  0  0  0
    9.0870  -46.6680   -8.0920 C   0  0  0  0  0
    7.0053  -46.9603   -9.8534 H   0  0  0  0  0
    8.6301  -47.1464  -10.6859 H   0  0  0  0  0
    0.9294  -51.4755  -14.7306 H   0  0  0  0  0
    1.2220  -51.4236  -12.9248 H   0  0  0  0  0
   -0.3617  -49.5388  -12.7862 H   0  0  0  0  0
   -1.1303  -51.0501  -13.4305 H   0  0  0  0  0
    6.6785  -49.3655  -10.1352 H   0  0  0  0  0
    8.1974  -49.4171  -11.1131 H   0  0  0  0  0
    2.1377  -49.2139  -13.1465 H   0  0  0  0  0
    1.8682  -49.2914  -14.9547 H   0  0  0  0  0
   -0.8555  -50.1351  -15.7102 H   0  0  0  0  0
   -0.2999  -48.5687  -14.9463 H   0  0  0  0  0
   -7.6110  -44.3988  -11.7314 H   0  0  0  0  0
   -7.7005  -45.3597  -10.3140 H   0  0  0  0  0
    7.1817  -47.7525  -12.6222 H   0  0  0  0  0
    5.6244  -47.9812  -11.7075 H   0  0  0  0  0
    4.1789  -49.6888  -14.5826 H   0  0  0  0  0
    3.4311  -51.2709  -14.9400 H   0  0  0  0  0
   -3.0207  -49.8628  -14.6162 H   0  0  0  0  0
   -2.6361  -48.4525  -15.6770 H   0  0  0  0  0
    7.1349  -50.1840  -13.0883 H   0  0  0  0  0
    5.7649  -49.2255  -13.8377 H   0  0  0  0  0
    3.4010  -51.7370  -12.3455 H   0  0  0  0  0
   -1.9769  -47.1553  -13.7283 H   0  0  0  0  0
   -2.3633  -48.5788  -12.6573 H   0  0  0  0  0
    5.4407  -51.0146  -11.3363 H   0  0  0  0  0
   -4.6911  -48.4073  -13.3012 H   0  0  0  0  0
   -4.3038  -46.9900  -14.3388 H   0  0  0  0  0
   -3.6119  -45.7255  -12.4293 H   0  0  0  0  0
   -3.8762  -47.1696  -11.3546 H   0  0  0  0  0
   -7.8181  -42.0004   -8.7168 H   0  0  0  0  0
   -8.5669  -43.6072   -8.7783 H   0  0  0  0  0
   -6.1662  -43.6958   -9.1319 H   0  0  0  0  0
   -5.9716  -41.6533  -10.2362 H   0  0  0  0  0
   -9.7202  -42.0427  -10.0344 H   0  0  0  0  0
    9.3183  -48.6133   -8.9004 H   0  0  0  0  0
    7.7457  -48.3086   -8.0662 H   0  0  0  0  0
    9.8435  -46.2401   -8.7499 H   0  0  0  0  0
    8.2929  -45.9397   -7.9273 H   0  0  0  0  0
    9.5418  -46.9336   -7.1377 H   0  0  0  0  0
  4  1  1  0  0  0
  1 24  1  0  0  0
  3  2  1  0  0  0
  2  5  1  0  0  0
  6  3  1  0  0  0
  8  4  1  0  0  0
  5  9  1  0  0  0
 10  6  1  0  0  0
  7 18  1  0  0  0
 21  7  1  0  0  0
 11  8  1  0  0  0
  9 12  1  0  0  0
 13 10  1  0  0  0
 14 11  1  0  0  0
 12 14  2  0  0  0
 15 13  1  0  0  0
 16 15  1  0  0  0
 20 16  1  0  0  0
 18 17  1  0  0  0
 17 23  1  0  0  0
 18 22  1  0  0  0
 20 19  2  0  0  0
 20 21  1  0  0  0
 24 25  1  0  0  0
  1 26  1  0  0  0
  1 27  1  0  0  0
  2 28  1  0  0  0
  2 29  1  0  0  0
  3 30  1  0  0  0
  3 31  1  0  0  0
  4 32  1  0  0  0
  4 33  1  0  0  0
  5 34  1  0  0  0
  5 35  1  0  0  0
  6 36  1  0  0  0
  6 37  1  0  0  0
  7 38  1  0  0  0
  7 39  1  0  0  0
  8 40  1  0  0  0
  8 41  1  0  0  0
  9 42  1  0  0  0
  9 43  1  0  0  0
 10 44  1  0  0  0
 10 45  1  0  0  0
 11 46  1  0  0  0
 11 47  1  0  0  0
 12 48  1  0  0  0
 13 49  1  0  0  0
 13 50  1  0  0  0
 14 51  1  0  0  0
 15 52  1  0  0  0
 15 53  1  0  0  0
 16 54  1  0  0  0
 16 55  1  0  0  0
 17 56  1  0  0  0
 17 57  1  0  0  0
 18 58  1  0  0  0
 22 59  1  0  0  0
 23 60  1  0  0  0
 24 61  1  0  0  0
 24 62  1  0  0  0
 25 63  1  0  0  0
 25 64  1  0  0  0
 25 65  1  0  0  0
M  END
$$$$
