2r3l_ligand
  -I-interpret- 

 38 41  0  0  0  0  0  0  0  0999 V2000
   -0.2380   32.4840    8.9900 C   0  0  0  0  0
    0.3290   31.2830    9.2310 N   0  0  0  0  0
    1.4830   31.2310    8.5100 C   0  0  0  0  0
    1.6860   32.3760    7.7960 N   0  0  0  0  0
    0.6140   33.1620    8.1100 C   0  0  0  0  0
   -0.1050   30.2270   10.0320 C   0  0  0  0  0
    0.6450   29.0810   10.1100 C   0  0  0  0  0
    1.8580   28.9920    9.3700 C   0  0  0  0  0
    2.3060   30.0460    8.5660 C   0  0  0  0  0
    3.4780   30.0760    7.8630 N   0  0  0  0  0
    0.2280   27.9800   11.0170 C   0  0  0  0  0
    4.5170   29.0810    8.1980 C   0  0  0  0  0
    4.5630   28.0330    7.1280 C   0  0  0  0  0
    4.4060   26.6620    7.4060 C   0  0  0  0  0
    4.4410   25.7230    6.4390 N   0  0  0  0  0
    4.6710   26.1820    5.1890 C   0  0  0  0  0
    4.8420   27.4550    4.8090 N   0  0  0  0  0
    4.7840   28.3680    5.7850 C   0  0  0  0  0
   -0.3740   28.2700   12.2510 C   0  0  0  0  0
   -0.7540   27.2360   13.1210 C   0  0  0  0  0
   -0.5090   25.9080   12.7800 C   0  0  0  0  0
    0.1190   25.6050   11.5630 C   0  0  0  0  0
    0.4850   26.6340   10.6880 C   0  0  0  0  0
   -1.8380   33.0930    9.6980 Br  0  0  0  0  0
    0.4463   34.1701    7.7308 H   0  0  0  0  0
   -1.0355   30.3118   10.5933 H   0  0  0  0  0
    2.4524   28.0804    9.4312 H   0  0  0  0  0
    3.6307   30.7662    7.1277 H   0  0  0  0  0
    4.2810   28.6152    9.1548 H   0  0  0  0  0
    5.4863   29.5748    8.2668 H   0  0  0  0  0
    4.2508   26.3487    8.4384 H   0  0  0  0  0
    4.7233   25.4312    4.4006 H   0  0  0  0  0
    4.9143   29.4184    5.5245 H   0  0  0  0  0
   -0.5481   29.3074   12.5365 H   0  0  0  0  0
   -1.2423   27.4731   14.0662 H   0  0  0  0  0
   -0.8045   25.1064   13.4570 H   0  0  0  0  0
    0.3221   24.5673   11.2986 H   0  0  0  0  0
    0.9731   26.3923    9.7438 H   0  0  0  0  0
  1  2  4  0  0  0
  1  5  4  0  0  0
  1 24  1  0  0  0
  2  3  4  0  0  0
  2  6  4  0  0  0
  3  4  4  0  0  0
  3  9  4  0  0  0
  4  5  4  0  0  0
  6  7  4  0  0  0
  7  8  4  0  0  0
  7 11  1  0  0  0
  8  9  4  0  0  0
  9 10  1  0  0  0
 10 12  1  0  0  0
 11 19  4  0  0  0
 11 23  4  0  0  0
 12 13  1  0  0  0
 13 14  4  0  0  0
 13 18  4  0  0  0
 14 15  4  0  0  0
 15 16  4  0  0  0
 16 17  4  0  0  0
 17 18  4  0  0  0
 19 20  4  0  0  0
 20 21  4  0  0  0
 21 22  4  0  0  0
 22 23  4  0  0  0
  5 25  1  0  0  0
  6 26  1  0  0  0
  8 27  1  0  0  0
 10 28  1  0  0  0
 12 29  1  0  0  0
 12 30  1  0  0  0
 14 31  1  0  0  0
 16 32  1  0  0  0
 18 33  1  0  0  0
 19 34  1  0  0  0
 20 35  1  0  0  0
 21 36  1  0  0  0
 22 37  1  0  0  0
 23 38  1  0  0  0
M  END
$$$$
