### 
### Created by X-TOOL on Mon Sep 10 21:12:54 2018
### 

@<TRIPOS>MOLECULE
2nyr_ligand
  120   127     1     0     0
SMALL
GAST_HUCK


@<TRIPOS>ATOM
      1 O35        18.3120  -29.5950   13.5870 O.co2     1 SVR        -0.4797
      2 S31        17.7710  -28.5320   14.4640 S.o2      1 SVR        -0.1636
      3 O36        18.7700  -28.0920   15.4260 O.co2     1 SVR        -0.4797
      4 O34        16.5620  -29.0330   15.1680 O.co2     1 SVR        -0.4797
      5 C22        17.3320  -27.2850   13.5550 C.ar      1 SVR         0.0494
      6 C18        17.0410  -26.0490   14.1140 C.ar      1 SVR        -0.0210
      7 C11        16.7070  -24.9360   13.3340 C.ar      1 SVR         0.0599
      8 S17        16.3200  -23.6790   14.2640 S.o2      1 SVR        -0.1625
      9 O23        16.7430  -23.9110   15.6530 O.co2     1 SVR        -0.4795
     10 O24        16.9910  -22.4880   13.7130 O.co2     1 SVR        -0.4795
     11 O25        14.8590  -23.5220   14.1780 O.co2     1 SVR        -0.4795
     12 C16        17.2540  -27.4250   12.1810 C.ar      1 SVR        -0.0371
     13 C10        16.8910  -26.3650   11.3530 C.ar      1 SVR        -0.0062
     14 C15        16.8670  -26.6130    9.9620 C.ar      1 SVR         0.0386
     15 S21        17.0990  -28.0700    9.2780 S.o2      1 SVR        -0.1723
     16 O28        18.5500  -28.3820    9.3820 O.co2     1 SVR        -0.4823
     17 O29        16.2920  -29.0460    9.9380 O.co2     1 SVR        -0.4823
     18 O30        16.7320  -27.9190    7.8480 O.co2     1 SVR        -0.4823
     19 C12        16.4860  -25.5890    9.1150 C.ar      1 SVR        -0.0595
     20 C7         16.1940  -24.3380    9.6250 C.ar      1 SVR        -0.0414
     21 C6         16.5920  -25.0820   11.9150 C.ar      1 SVR         0.0350
     22 C3         16.1990  -24.0660   10.9930 C.ar      1 SVR         0.0824
     23 N1         15.9340  -22.7050   11.2590 N.am      1 SVR        -0.2285
     24 C2         15.0440  -21.8930   10.6820 C.2       1 SVR         0.2279
     25 O4         14.2090  -22.2700    9.8720 O.2       1 SVR        -0.3740
     26 C5         15.0730  -20.4370   11.0520 C.ar      1 SVR         0.0364
     27 C8         14.3400  -19.5410   10.2760 C.ar      1 SVR        -0.0272
     28 C9         15.8690  -19.9520   12.0920 C.ar      1 SVR        -0.0632
     29 C14        15.8850  -18.5810   12.3740 C.ar      1 SVR        -0.0675
     30 C20        15.1310  -17.6900   11.6100 C.ar      1 SVR        -0.0191
     31 C27        15.1750  -16.2170   11.9530 C.3       1 SVR        -0.0327
     32 C13        14.3540  -18.1740   10.5530 C.ar      1 SVR         0.0740
     33 N19        13.5530  -17.3490    9.7490 N.am      1 SVR        -0.2354
     34 C26        14.0470  -16.5240    8.8200 C.2       1 SVR         0.2270
     35 O32        15.2430  -16.4080    8.6150 O.2       1 SVR        -0.3740
     36 C33        13.0890  -15.6990    8.0130 C.ar      1 SVR         0.0419
     37 C37        11.7860  -15.4960    8.4650 C.ar      1 SVR        -0.0214
     38 C38        13.5100  -15.1370    6.8070 C.ar      1 SVR        -0.0571
     39 C40        12.6390  -14.3750    6.0430 C.ar      1 SVR        -0.0701
     40 C42        11.3380  -14.1740    6.4940 C.ar      1 SVR        -0.0372
     41 C39        10.9090  -14.7400    7.7010 C.ar      1 SVR         0.0725
     42 N41         9.5910  -14.4760    8.0760 N.am      1 SVR        -0.2134
     43 C43         8.9790  -14.6340    9.2490 C.2       1 SVR         0.3170
     44 O45         9.4960  -15.1060   10.2420 O.2       1 SVR        -0.3803
     45 N44         7.7080  -14.2430    9.2000 N.am      1 SVR        -0.2134
     46 C46         6.7410  -14.2310   10.2030 C.ar      1 SVR         0.0725
     47 C47         5.8690  -13.1690   10.0980 C.ar      1 SVR        -0.0214
     48 C48         6.5870  -15.1520   11.2460 C.ar      1 SVR        -0.0372
     49 C50         5.5410  -14.9630   12.1670 C.ar      1 SVR        -0.0701
     50 C52         4.6570  -13.8800   12.0520 C.ar      1 SVR        -0.0571
     51 C49         4.8490  -12.9710   11.0090 C.ar      1 SVR         0.0419
     52 C51         3.9730  -11.7870   10.7380 C.2       1 SVR         0.2270
     53 O54         3.9180  -11.3760    9.5820 O.2       1 SVR        -0.3740
     54 N53         3.2550  -11.1980   11.6750 N.am      1 SVR        -0.2354
     55 C55         2.4630  -10.1330   11.2140 C.ar      1 SVR         0.0740
     56 C56         3.0010   -8.8530   11.1170 C.ar      1 SVR        -0.0272
     57 C57         1.1340  -10.3700   10.8280 C.ar      1 SVR        -0.0191
     58 C59         0.5270  -11.7510   10.9030 C.3       1 SVR        -0.0327
     59 C60         0.3420   -9.3230   10.3680 C.ar      1 SVR        -0.0675
     60 C62         0.8800   -8.0420   10.2870 C.ar      1 SVR        -0.0632
     61 C58         2.2080   -7.8070   10.6540 C.ar      1 SVR         0.0364
     62 C61         2.7880   -6.4240   10.5800 C.2       1 SVR         0.2279
     63 O64         3.9570   -6.2630   10.9200 O.2       1 SVR        -0.3740
     64 N63         1.9870   -5.4410   10.1510 N.am      1 SVR        -0.2285
     65 C65         2.3620   -4.0940   10.0420 C.ar      1 SVR         0.0824
     66 C67         2.7800   -3.5240   11.2440 C.ar      1 SVR        -0.0414
     67 C70         3.1700   -2.1960   11.3110 C.ar      1 SVR        -0.0595
     68 C71         3.1630   -1.3980   10.1750 C.ar      1 SVR         0.0386
     69 S75         3.5720    0.1510   10.4250 S.o2      1 SVR        -0.1723
     70 O80         3.8850    0.2900   11.9070 O.co2     1 SVR        -0.4823
     71 O81         4.7830    0.4380    9.6660 O.co2     1 SVR        -0.4823
     72 O82         2.4740    1.0150   10.0740 O.co2     1 SVR        -0.4823
     73 C66         2.3050   -3.3170    8.8520 C.ar      1 SVR         0.0350
     74 C68         2.7090   -1.9490    8.9580 C.ar      1 SVR        -0.0062
     75 C72         2.6940   -1.1210    7.8310 C.ar      1 SVR        -0.0371
     76 C69         1.9010   -3.8040    7.5670 C.ar      1 SVR         0.0599
     77 S73         1.3350   -5.2770    7.1570 S.o2      1 SVR        -0.1625
     78 O77         1.0070   -5.2520    5.7350 O.co2     1 SVR        -0.4795
     79 O78         0.2090   -5.6240    7.9830 O.co2     1 SVR        -0.4795
     80 O79         2.4530   -6.2930    7.3790 O.co2     1 SVR        -0.4795
     81 C74         1.8880   -2.9220    6.4820 C.ar      1 SVR        -0.0210
     82 C76         2.2630   -1.5890    6.5980 C.ar      1 SVR         0.0494
     83 S83         2.3030   -0.6120    5.3150 S.o2      1 SVR        -0.1636
     84 O85         3.1160    0.5810    5.5870 O.co2     1 SVR        -0.4797
     85 O86         2.9250   -1.3890    4.1970 O.co2     1 SVR        -0.4797
     86 O84         0.9310   -0.2640    4.9660 O.co2     1 SVR        -0.4797
     87 H1         17.0735  -25.9416   15.1922 H         1 SVR         0.0614
     88 H2         17.4818  -28.3868   11.7359 H         1 SVR         0.0606
     89 H3         16.4161  -25.7677    8.0481 H         1 SVR         0.0583
     90 H4         15.9518  -23.5375    8.9353 H         1 SVR         0.0443
     91 H5         16.4901  -22.2912   11.9798 H         1 SVR         0.2306
     92 H6         13.7505  -19.9117    9.4452 H         1 SVR         0.0529
     93 H7         16.4724  -20.6350   12.6789 H         1 SVR         0.0525
     94 H8         16.4888  -18.2083   13.1935 H         1 SVR         0.0527
     95 H9         15.8439  -16.0604   12.8121 H         1 SVR         0.0372
     96 H10        14.1630  -15.8695   12.2082 H         1 SVR         0.0372
     97 H11        15.5501  -15.6502   11.0882 H         1 SVR         0.0372
     98 H12        12.5617  -17.3796    9.8774 H         1 SVR         0.2231
     99 H13        11.4608  -15.9254    9.4057 H         1 SVR         0.0551
    100 H14        14.5260  -15.2974    6.4647 H         1 SVR         0.0538
    101 H15        12.9677  -13.9411    5.1056 H         1 SVR         0.0588
    102 H16        10.6515  -13.5749    5.9067 H         1 SVR         0.0536
    103 H17         9.0128  -14.1092    7.3471 H         1 SVR         0.2262
    104 H18         7.4007  -13.9074    8.3095 H         1 SVR         0.2262
    105 H19         5.9865  -12.4697    9.2781 H         1 SVR         0.0551
    106 H20         7.2614  -15.9952   11.3420 H         1 SVR         0.0536
    107 H21         5.4156  -15.6676   12.9812 H         1 SVR         0.0588
    108 H22         3.8433  -13.7514   12.7566 H         1 SVR         0.0538
    109 H23         3.2729  -11.4853   12.6327 H         1 SVR         0.2231
    110 H24         4.0315   -8.6718   11.4004 H         1 SVR         0.0529
    111 H25        -0.5160  -11.7124   10.5557 H         1 SVR         0.0372
    112 H26         0.5541  -12.1075   11.9433 H         1 SVR         0.0372
    113 H27         1.1008  -12.4389   10.2646 H         1 SVR         0.0372
    114 H28        -0.6859   -9.5034   10.0750 H         1 SVR         0.0527
    115 H29         0.2649   -7.2209    9.9369 H         1 SVR         0.0525
    116 H30         1.0532   -5.6849    9.8892 H         1 SVR         0.2306
    117 H31         2.8002   -4.1306   12.1421 H         1 SVR         0.0443
    118 H32         3.4837   -1.7761   12.2599 H         1 SVR         0.0583
    119 H33         3.0257   -0.0931    7.9226 H         1 SVR         0.0606
    120 H34         1.5733   -3.2924    5.5131 H         1 SVR         0.0614
@<TRIPOS>BOND
     1    1    2 ar 
     2    2    3 ar 
     3    2    4 ar 
     4    2    5 1  
     5    5    6 ar 
     6    5   12 ar 
     7    6    7 ar 
     8    7    8 1  
     9    7   21 ar 
    10    8    9 ar 
    11    8   10 ar 
    12    8   11 ar 
    13   12   13 ar 
    14   13   14 ar 
    15   13   21 ar 
    16   14   15 1  
    17   14   19 ar 
    18   15   16 ar 
    19   15   17 ar 
    20   15   18 ar 
    21   19   20 ar 
    22   20   22 ar 
    23   21   22 ar 
    24   22   23 1  
    25   23   24 am 
    26   24   25 2  
    27   24   26 1  
    28   26   27 ar 
    29   26   28 ar 
    30   27   32 ar 
    31   28   29 ar 
    32   29   30 ar 
    33   30   31 1  
    34   30   32 ar 
    35   32   33 1  
    36   33   34 am 
    37   34   35 2  
    38   34   36 1  
    39   36   37 ar 
    40   36   38 ar 
    41   37   41 ar 
    42   38   39 ar 
    43   39   40 ar 
    44   40   41 ar 
    45   41   42 1  
    46   42   43 am 
    47   43   44 2  
    48   43   45 am 
    49   45   46 1  
    50   46   47 ar 
    51   46   48 ar 
    52   47   51 ar 
    53   48   49 ar 
    54   49   50 ar 
    55   50   51 ar 
    56   51   52 1  
    57   52   53 2  
    58   52   54 am 
    59   54   55 1  
    60   55   56 ar 
    61   55   57 ar 
    62   56   61 ar 
    63   57   58 1  
    64   57   59 ar 
    65   59   60 ar 
    66   60   61 ar 
    67   61   62 1  
    68   62   63 2  
    69   62   64 am 
    70   64   65 1  
    71   65   66 ar 
    72   65   73 ar 
    73   66   67 ar 
    74   67   68 ar 
    75   68   69 1  
    76   68   74 ar 
    77   69   70 ar 
    78   69   71 ar 
    79   69   72 ar 
    80   73   74 ar 
    81   73   76 ar 
    82   74   75 ar 
    83   75   82 ar 
    84   76   77 1  
    85   76   81 ar 
    86   77   78 ar 
    87   77   79 ar 
    88   77   80 ar 
    89   81   82 ar 
    90   82   83 1  
    91   83   84 ar 
    92   83   85 ar 
    93   83   86 ar 
    94    6   87 1  
    95   12   88 1  
    96   19   89 1  
    97   20   90 1  
    98   23   91 1  
    99   27   92 1  
   100   28   93 1  
   101   29   94 1  
   102   31   95 1  
   103   31   96 1  
   104   31   97 1  
   105   33   98 1  
   106   37   99 1  
   107   38  100 1  
   108   39  101 1  
   109   40  102 1  
   110   42  103 1  
   111   45  104 1  
   112   47  105 1  
   113   48  106 1  
   114   49  107 1  
   115   50  108 1  
   116   54  109 1  
   117   56  110 1  
   118   58  111 1  
   119   58  112 1  
   120   58  113 1  
   121   59  114 1  
   122   60  115 1  
   123   64  116 1  
   124   66  117 1  
   125   67  118 1  
   126   75  119 1  
   127   81  120 1  
@<TRIPOS>SUBSTRUCTURE
     1 SVR         1

