2zzu_ligand
  -I-interpret- 

 88 91  0  0  0  0  0  0  0  0999 V2000
   35.6070    6.9670   10.2740 C   0  0  0  0  0
   34.6730    7.2320   11.0260 O   0  0  0  0  0
   35.6660    7.3770    8.9700 N   0  0  0  0  0
   34.5450    8.1630    8.4640 C   0  0  0  0  0
   34.6340    8.5000    6.9820 C   0  0  0  0  0
   35.9580    9.2630    6.6040 C   0  0  0  0  0
   33.2690    7.4270    8.7640 C   0  0  0  0  0
   33.1880    6.2170    8.5900 O   0  0  0  0  0
   32.3000    8.2480    9.2370 N   0  0  0  0  0
   31.0230    7.6640    9.5170 C   0  0  0  0  0
   31.6110    6.4550   11.6610 C   0  0  0  0  0
   31.3500    6.1970   13.0110 C   0  0  0  0  0
   30.2870    6.8330   13.6850 C   0  0  0  0  0
   29.4510    7.6940   12.9690 C   0  0  0  0  0
   29.6960    7.9470   11.6170 C   0  0  0  0  0
   30.7790    7.3410   10.9600 C   0  0  0  0  0
   30.0800    6.6260   15.1230 C   0  0  0  0  0
   30.7350    5.6690   15.7560 N   0  0  0  0  0
   35.9300    9.7200    5.1650 C   0  0  0  0  0
   35.7300    8.9300    4.2700 O   0  0  0  0  0
   36.0600   11.0330    4.9540 N   0  0  0  0  0
   37.7500    6.9510   11.6390 C   0  0  0  0  0
   36.3240    5.0420   11.6560 N   0  0  0  0  0
   36.8040    6.1100   10.7990 C   0  0  0  0  0
   36.2080    3.4640   11.0080 S   0  0  0  0  0
   35.7290    3.6980    9.6870 O   0  0  0  0  0
   35.4220    2.7870   11.9800 O   0  0  0  0  0
   37.8360    2.8160   10.9480 C   0  0  0  0  0
   38.2570    2.3730   12.3580 C   0  0  0  0  0
   29.2460    7.3820   15.8280 N   0  0  0  0  0
   42.7420    5.3820   10.3270 C   0  0  0  0  0
   42.3470    4.9620   11.6550 C   0  0  0  0  0
   41.0740    5.2210   12.1740 C   0  0  0  0  0
   40.1140    5.8920   11.3490 C   0  0  0  0  0
   40.4700    6.2840   10.0630 C   0  0  0  0  0
   41.7830    6.0790    9.5190 C   0  0  0  0  0
   40.4840    5.1150   13.4220 N   0  0  0  0  0
   39.2260    5.6910   13.4000 C   0  0  0  0  0
   38.9540    6.1810   12.1190 C   0  0  0  0  0
   41.9960    6.7080    8.2810 O   0  0  0  0  0
   43.2180    7.4380    8.0820 C   0  0  0  0  0
   44.1600   11.0980   10.2420 C   0  0  0  0  0
   45.0120    9.9930   10.3140 C   0  0  0  0  0
   44.6740    8.8090    9.6350 C   0  0  0  0  0
   43.5050    8.7070    8.8600 C   0  0  0  0  0
   42.6790    9.8370    8.7750 C   0  0  0  0  0
   42.9870   11.0200    9.4760 C   0  0  0  0  0
   42.0410   12.1240    9.4580 C   0  0  0  0  0
   42.4610   13.2920    9.6010 O   0  0  0  0  0
   40.8300   11.8470    9.3260 O   0  0  0  0  0
   36.4611    7.1429    8.3756 H   0  0  0  0  0
   34.5717    9.1260    8.9740 H   0  0  0  0  0
   33.7942    9.1507    6.7381 H   0  0  0  0  0
   34.6207    7.5622    6.4266 H   0  0  0  0  0
   36.8014    8.5858    6.7386 H   0  0  0  0  0
   36.0515   10.1386    7.2463 H   0  0  0  0  0
   32.4734    9.2418    9.3875 H   0  0  0  0  0
   30.9809    6.7213    8.9714 H   0  0  0  0  0
   30.2705    8.3970    9.2263 H   0  0  0  0  0
   32.4506    5.9735   11.1598 H   0  0  0  0  0
   31.9801    5.4911   13.5521 H   0  0  0  0  0
   28.6057    8.1694   13.4666 H   0  0  0  0  0
   29.0400    8.6215   11.0667 H   0  0  0  0  0
   31.3859    5.0725   15.2452 H   0  0  0  0  0
   35.9914   11.4067    4.0074 H   0  0  0  0  0
   36.2279   11.6616    5.7395 H   0  0  0  0  0
   37.2013    7.2908   12.5174 H   0  0  0  0  0
   38.1070    7.7713   11.0163 H   0  0  0  0  0
   36.0615    5.2285   12.6238 H   0  0  0  0  0
   37.3178    5.7133    9.9234 H   0  0  0  0  0
   38.5213    3.5825   10.5860 H   0  0  0  0  0
   37.8643    1.9609   10.2726 H   0  0  0  0  0
   38.2289    3.2304   13.0304 H   0  0  0  0  0
   37.5707    1.6059   12.7165 H   0  0  0  0  0
   39.2690    1.9696   12.3237 H   0  0  0  0  0
   29.1269    7.2149   16.8271 H   0  0  0  0  0
   28.7246    8.1297   15.3703 H   0  0  0  0  0
   43.7434    5.1738    9.9503 H   0  0  0  0  0
   43.0671    4.4249   12.2724 H   0  0  0  0  0
   39.7184    6.7687    9.4399 H   0  0  0  0  0
   38.5495    5.7533   14.2523 H   0  0  0  0  0
   43.1614    7.7705    7.0455 H   0  0  0  0  0
   43.9950    6.7466    8.4082 H   0  0  0  0  0
   44.4051   12.0151   10.7777 H   0  0  0  0  0
   45.9336   10.0485   10.8933 H   0  0  0  0  0
   45.3362    7.9466    9.7114 H   0  0  0  0  0
   41.7828    9.7996    8.1557 H   0  0  0  0  0
   43.4173   13.2790    9.6842 H   0  0  0  0  0
  1  2  2  0  0  0
  1  3  1  0  0  0
 24  1  1  0  0  0
  3  4  1  0  0  0
  4  5  1  0  0  0
  4  7  1  0  0  0
  5  6  1  0  0  0
  6 19  1  0  0  0
  7  8  2  0  0  0
  7  9  1  0  0  0
  9 10  1  0  0  0
 10 16  1  0  0  0
 11 12  4  0  0  0
 16 11  4  0  0  0
 12 13  4  0  0  0
 14 13  4  0  0  0
 13 17  1  0  0  0
 15 14  4  0  0  0
 16 15  4  0  0  0
 17 18  2  0  0  0
 17 30  1  0  0  0
 19 20  2  0  0  0
 19 21  1  0  0  0
 22 24  1  0  0  0
 39 22  1  0  0  0
 24 23  1  0  0  0
 23 25  1  0  0  0
 25 26  2  0  0  0
 25 27  2  0  0  0
 25 28  1  0  0  0
 28 29  1  0  0  0
 31 32  4  0  0  0
 36 31  4  0  0  0
 32 33  4  0  0  0
 34 33  4  0  0  0
 33 37  4  0  0  0
 35 34  4  0  0  0
 34 39  4  0  0  0
 36 35  4  0  0  0
 40 36  1  0  0  0
 38 37  4  0  0  0
 39 38  4  0  0  0
 41 40  1  0  0  0
 45 41  1  0  0  0
 43 42  4  0  0  0
 42 47  4  0  0  0
 44 43  4  0  0  0
 44 45  4  0  0  0
 45 46  4  0  0  0
 46 47  4  0  0  0
 47 48  1  0  0  0
 48 49  1  0  0  0
 48 50  2  0  0  0
  3 51  1  0  0  0
  4 52  1  0  0  0
  5 53  1  0  0  0
  5 54  1  0  0  0
  6 55  1  0  0  0
  6 56  1  0  0  0
  9 57  1  0  0  0
 10 58  1  0  0  0
 10 59  1  0  0  0
 11 60  1  0  0  0
 12 61  1  0  0  0
 14 62  1  0  0  0
 15 63  1  0  0  0
 18 64  1  0  0  0
 21 65  1  0  0  0
 21 66  1  0  0  0
 22 67  1  0  0  0
 22 68  1  0  0  0
 23 69  1  0  0  0
 24 70  1  0  0  0
 28 71  1  0  0  0
 28 72  1  0  0  0
 29 73  1  0  0  0
 29 74  1  0  0  0
 29 75  1  0  0  0
 30 76  1  0  0  0
 30 77  1  0  0  0
 31 78  1  0  0  0
 32 79  1  0  0  0
 35 80  1  0  0  0
 38 81  1  0  0  0
 41 82  1  0  0  0
 41 83  1  0  0  0
 42 84  1  0  0  0
 43 85  1  0  0  0
 44 86  1  0  0  0
 46 87  1  0  0  0
 49 88  1  0  0  0
M  END
$$$$
