5jat_ligand
  -I-interpret- 

 46 48  0  0  0  0  0  0  0  0999 V2000
   14.4640   10.5170   -4.4650 C   0  0  0  0  0
   15.2020   10.8350   -5.7380 C   0  0  0  0  0
   15.1910   12.1380   -6.2270 C   0  0  0  0  0
   16.5480   11.4900   -8.0830 C   0  0  0  0  0
   16.5820   10.1930   -7.6130 C   0  0  0  0  0
   15.9040    9.8460   -6.4480 C   0  0  0  0  0
   16.0030    8.4270   -5.9900 C   0  0  0  0  0
   17.4190    6.7530   -4.9610 C   0  0  0  0  0
   19.9110    6.7620   -4.7680 C   0  0  0  0  0
   22.1290    7.0090   -4.6050 C   0  0  0  0  0
   23.4160    6.9150   -3.8540 C   0  0  0  0  0
   23.4760    7.9750   -2.7690 C   0  0  0  0  0
   21.9160    7.4880   -5.8510 C   0  0  0  0  0
   16.3930    5.8220   -5.0870 C   0  0  0  0  0
   15.1860    6.1800   -5.6630 C   0  0  0  0  0
   14.9710    7.4770   -6.1250 C   0  0  0  0  0
   13.6430    7.8250   -6.7510 C   0  0  0  0  0
   15.8560   12.4580   -7.3920 C   0  0  0  0  0
   17.2070    8.0490   -5.4070 C   0  0  0  0  0
   18.6540    6.4300   -4.3650 N   0  0  0  0  0
   20.9540    6.6010   -3.9960 N   0  0  0  0  0
   24.6560    7.8510   -1.8390 C   0  0  0  0  0
   24.6340    6.6150   -1.1460 O   0  0  0  0  0
   20.2650    7.4400   -6.3210 S   0  0  0  0  0
   14.8731   11.1146   -3.6504 H   0  0  0  0  0
   13.4065   10.7489   -4.5920 H   0  0  0  0  0
   14.5799    9.4580   -4.2342 H   0  0  0  0  0
   14.6512   12.9135   -5.6836 H   0  0  0  0  0
   17.0707   11.7483   -9.0040 H   0  0  0  0  0
   17.1440    9.4346   -8.1581 H   0  0  0  0  0
   24.2429    7.0699   -4.5470 H   0  0  0  0  0
   23.4856    5.9303   -3.3918 H   0  0  0  0  0
   22.5779    7.8615   -2.1619 H   0  0  0  0  0
   23.5640    8.9393   -3.2695 H   0  0  0  0  0
   22.7118    7.8665   -6.4926 H   0  0  0  0  0
   16.5405    4.8029   -4.7295 H   0  0  0  0  0
   14.3934    5.4375   -5.7563 H   0  0  0  0  0
   13.1694    8.6210   -6.1764 H   0  0  0  0  0
   13.8026    8.1604   -7.7758 H   0  0  0  0  0
   13.0010    6.9441   -6.7515 H   0  0  0  0  0
   15.8334   13.4813   -7.7667 H   0  0  0  0  0
   18.0016    8.7871   -5.2980 H   0  0  0  0  0
   18.5985    5.8702   -3.5142 H   0  0  0  0  0
   24.6110    8.6598   -1.1097 H   0  0  0  0  0
   25.5711    7.9031   -2.4289 H   0  0  0  0  0
   25.3946    6.5630   -0.5626 H   0  0  0  0  0
  2  1  1  0  0  0
  2  3  4  0  0  0
  6  2  4  0  0  0
  3 18  4  0  0  0
  5  4  4  0  0  0
  4 18  4  0  0  0
  6  5  4  0  0  0
  7  6  1  0  0  0
  7 16  4  0  0  0
 19  7  4  0  0  0
  8 14  4  0  0  0
  8 19  4  0  0  0
 20  8  1  0  0  0
  9 20  1  0  0  0
 21  9  4  0  0  0
  9 24  4  0  0  0
 10 11  1  0  0  0
 10 13  4  0  0  0
 10 21  4  0  0  0
 11 12  1  0  0  0
 12 22  1  0  0  0
 13 24  4  0  0  0
 14 15  4  0  0  0
 15 16  4  0  0  0
 16 17  1  0  0  0
 22 23  1  0  0  0
  1 25  1  0  0  0
  1 26  1  0  0  0
  1 27  1  0  0  0
  3 28  1  0  0  0
  4 29  1  0  0  0
  5 30  1  0  0  0
 11 31  1  0  0  0
 11 32  1  0  0  0
 12 33  1  0  0  0
 12 34  1  0  0  0
 13 35  1  0  0  0
 14 36  1  0  0  0
 15 37  1  0  0  0
 17 38  1  0  0  0
 17 39  1  0  0  0
 17 40  1  0  0  0
 18 41  1  0  0  0
 19 42  1  0  0  0
 20 43  1  0  0  0
 22 44  1  0  0  0
 22 45  1  0  0  0
 23 46  1  0  0  0
M  END
$$$$
