1pgp_ligand
  -I-interpret- 

 30 29  0  0  0  0  0  0  0  0999 V2000
   20.2160   29.9130   38.8060 C   0  0  0  0  0
   20.3270   28.4720   39.3500 C   0  0  0  0  0
   21.8460   27.9720   39.4820 C   0  0  0  0  0
   22.8470   28.5740   40.5780 C   0  0  0  0  0
   24.4050   28.2270   40.2800 C   0  0  0  0  0
   25.2040   29.0020   39.1600 C   0  0  0  0  0
   21.2790   30.6310   38.5290 O   0  0  0  0  0
   19.1050   30.4010   38.5710 O   0  0  0  0  0
   19.6830   28.3710   40.6190 O   0  0  0  0  0
   22.3540   28.1650   38.1800 O   0  0  0  0  0
   22.7960   29.9890   40.7620 O   0  0  0  0  0
   25.1860   28.3860   41.4580 O   0  0  0  0  0
   25.7830   30.3680   39.4700 O   0  0  0  0  0
   27.3900   30.6110   39.6170 P   0  0  0  0  0
   27.7430   30.0220   40.9760 O   0  0  0  0  0
   27.7890   32.0490   39.7730 O   0  0  0  0  0
   28.2410   29.8860   38.4890 O   0  0  0  0  0
   19.8312   27.8270   38.6245 H   0  0  0  0  0
   21.7988   26.9572   39.8770 H   0  0  0  0  0
   22.4820   28.0837   41.4805 H   0  0  0  0  0
   24.2860   27.2110   39.9035 H   0  0  0  0  0
   24.4729   29.1826   38.3720 H   0  0  0  0  0
   26.0703   28.3740   38.9520 H   0  0  0  0  0
   22.0679   30.1348   38.7593 H   0  0  0  0  0
   18.7742   28.6701   40.5401 H   0  0  0  0  0
   21.7397   27.7975   37.5403 H   0  0  0  0  0
   21.8914   30.2546   40.9430 H   0  0  0  0  0
   24.7563   27.9354   42.1887 H   0  0  0  0  0
   27.5238   29.0874   40.9851 H   0  0  0  0  0
   27.9603   28.9708   38.4165 H   0  0  0  0  0
  2  1  1  0  0  0
  1  7  1  0  0  0
  1  8  2  0  0  0
  2  3  1  0  0  0
  2  9  1  0  0  0
  3  4  1  0  0  0
  3 10  1  0  0  0
  4  5  1  0  0  0
  4 11  1  0  0  0
  5  6  1  0  0  0
  5 12  1  0  0  0
  6 13  1  0  0  0
 13 14  1  0  0  0
 14 15  1  0  0  0
 14 16  2  0  0  0
 14 17  1  0  0  0
  2 18  1  0  0  0
  3 19  1  0  0  0
  4 20  1  0  0  0
  5 21  1  0  0  0
  6 22  1  0  0  0
  6 23  1  0  0  0
  7 24  1  0  0  0
  9 25  1  0  0  0
 10 26  1  0  0  0
 11 27  1  0  0  0
 12 28  1  0  0  0
 15 29  1  0  0  0
 17 30  1  0  0  0
M  END
$$$$
