1t4j_ligand
  -I-interpret- 

 60 64  0  0  0  0  0  0  0  0999 V2000
   63.2570   34.3370   23.6600 O   0  0  0  0  0
   62.0380   33.5910   24.0420 S   0  0  0  0  0
   62.3910   32.6040   25.0870 O   0  0  0  0  0
   60.8520   34.6750   24.6580 N   0  0  0  0  0
   59.9690   34.2110   25.6890 C   0  0  0  0  0
   60.0220   32.9750   26.1900 N   0  0  0  0  0
   59.0610   32.8340   27.1420 C   0  0  0  0  0
   58.3010   33.9790   27.3290 C   0  0  0  0  0
   58.8050   35.2310   26.3010 S   0  0  0  0  0
   61.4410   32.8150   22.6180 C   0  0  0  0  0
   60.5580   33.4940   21.7690 C   0  0  0  0  0
   60.0840   32.8750   20.6140 C   0  0  0  0  0
   61.8530   31.5180   22.3010 C   0  0  0  0  0
   61.3770   30.9000   21.1460 C   0  0  0  0  0
   60.4890   31.5730   20.3050 C   0  0  0  0  0
   60.0520   30.9390   19.1870 N   0  0  0  0  0
   58.5750   31.3190   18.3950 S   0  0  0  0  0
   58.4170   30.3380   17.3030 O   0  0  0  0  0
   58.5930   32.6890   17.8380 O   0  0  0  0  0
   57.2850   31.1410   19.5120 C   0  0  0  0  0
   56.2520   32.0960   19.6320 C   0  0  0  0  0
   57.3150   29.9900   20.2930 C   0  0  0  0  0
   56.2840   29.8260   21.1900 C   0  0  0  0  0
   56.0860   28.7980   22.0490 O   0  0  0  0  0
   55.2070   30.8100   21.3240 C   0  0  0  0  0
   55.1930   31.9540   20.5440 C   0  0  0  0  0
   54.3580   30.3330   22.4570 C   0  0  0  0  0
   54.8680   29.1160   22.7810 C   0  0  0  0  0
   54.3410   28.1640   23.8370 C   0  0  0  0  0
   55.3440   27.0520   24.1310 C   0  0  0  0  0
   53.1240   30.6690   22.7650 C   0  0  0  0  0
   52.4580   30.9860   21.7920 O   0  0  0  0  0
   52.2670   30.4680   23.9520 C   0  0  0  0  0
   52.9930   30.0740   25.0670 C   0  0  0  0  0
   52.4290   29.8970   26.3060 C   0  0  0  0  0
   53.4780   29.3240   27.7420 Br  0  0  0  0  0
   51.0050   30.1780   26.4840 C   0  0  0  0  0
   50.4470   30.0430   27.5920 O   0  0  0  0  0
   50.2750   30.6310   25.2900 C   0  0  0  0  0
   50.9090   30.7880   24.0560 C   0  0  0  0  0
   48.4610   30.9660   25.5520 Br  0  0  0  0  0
   60.7784   35.6265   24.2980 H   0  0  0  0  0
   58.9037   31.9125   27.7025 H   0  0  0  0  0
   57.4838   34.0637   28.0453 H   0  0  0  0  0
   60.2411   34.5082   22.0121 H   0  0  0  0  0
   59.3986   33.4050   19.9526 H   0  0  0  0  0
   62.5459   30.9901   22.9563 H   0  0  0  0  0
   61.6990   29.8884   20.8987 H   0  0  0  0  0
   60.6319   30.1967   18.7958 H   0  0  0  0  0
   56.2772   32.9779   18.9920 H   0  0  0  0  0
   58.1146   29.2552   20.1993 H   0  0  0  0  0
   54.4050   32.7019   20.6326 H   0  0  0  0  0
   53.4201   27.7122   23.4684 H   0  0  0  0  0
   54.1667   28.7257   24.7547 H   0  0  0  0  0
   55.5361   26.4872   23.2188 H   0  0  0  0  0
   56.2748   27.4900   24.4915 H   0  0  0  0  0
   54.9350   26.3874   24.8920 H   0  0  0  0  0
   54.0625   29.8965   24.9536 H   0  0  0  0  0
   49.5184   30.2727   27.5114 H   0  0  0  0  0
   50.3565   31.1529   23.1902 H   0  0  0  0  0
  1  2  2  0  0  0
  2  3  2  0  0  0
  2  4  1  0  0  0
  2 10  1  0  0  0
  4  5  1  0  0  0
  5  6  4  0  0  0
  5  9  4  0  0  0
  6  7  4  0  0  0
  7  8  4  0  0  0
  8  9  4  0  0  0
 10 11  4  0  0  0
 10 13  4  0  0  0
 11 12  4  0  0  0
 12 15  4  0  0  0
 13 14  4  0  0  0
 14 15  4  0  0  0
 15 16  1  0  0  0
 16 17  1  0  0  0
 17 18  2  0  0  0
 17 19  2  0  0  0
 17 20  1  0  0  0
 20 21  4  0  0  0
 20 22  4  0  0  0
 21 26  4  0  0  0
 22 23  4  0  0  0
 23 24  4  0  0  0
 23 25  4  0  0  0
 24 28  4  0  0  0
 25 26  4  0  0  0
 25 27  4  0  0  0
 27 28  4  0  0  0
 27 31  1  0  0  0
 28 29  1  0  0  0
 29 30  1  0  0  0
 31 32  2  0  0  0
 31 33  1  0  0  0
 33 34  4  0  0  0
 33 40  4  0  0  0
 34 35  4  0  0  0
 35 36  1  0  0  0
 35 37  4  0  0  0
 37 38  1  0  0  0
 37 39  4  0  0  0
 39 40  4  0  0  0
 39 41  1  0  0  0
  4 42  1  0  0  0
  7 43  1  0  0  0
  8 44  1  0  0  0
 11 45  1  0  0  0
 12 46  1  0  0  0
 13 47  1  0  0  0
 14 48  1  0  0  0
 16 49  1  0  0  0
 21 50  1  0  0  0
 22 51  1  0  0  0
 26 52  1  0  0  0
 29 53  1  0  0  0
 29 54  1  0  0  0
 30 55  1  0  0  0
 30 56  1  0  0  0
 30 57  1  0  0  0
 34 58  1  0  0  0
 38 59  1  0  0  0
 40 60  1  0  0  0
M  END
$$$$
