5myr_ligand
  -I-interpret- 

 31 34  0  0  0  0  0  0  0  0999 V2000
  -14.2110  -28.3960    2.6440 C   0  0  0  0  0
  -13.2050  -27.3600    2.7320 N   0  0  0  0  0
  -11.7770  -27.2750    2.9970 C   0  0  0  0  0
   -9.7310  -27.0680    4.0250 C   0  0  0  0  0
   -7.4700  -26.8400    4.9180 C   0  0  0  0  0
   -9.2320  -26.9180    2.7620 C   0  0  0  0  0
  -18.6520  -30.9830    0.1260 C   0  0  0  0  0
  -18.0750  -31.1560   -1.1120 C   0  0  0  0  0
  -16.7680  -30.8660   -1.3790 C   0  0  0  0  0
  -16.0220  -30.3560   -0.4370 N   0  0  0  0  0
  -16.5420  -30.1550    0.7440 C   0  0  0  0  0
  -17.8370  -30.4560    1.0840 C   0  0  0  0  0
  -15.7810  -29.6600    1.7330 C   0  0  0  0  0
  -15.9910  -30.1960    2.9760 C   0  0  0  0  0
  -14.8630  -29.3420    3.9270 S   0  0  0  0  0
  -14.8740  -28.7250    1.5560 N   0  0  0  0  0
  -11.0840  -27.2400    4.1280 N   0  0  0  0  0
   -8.8260  -27.0220    5.1160 C   0  0  0  0  0
   -6.9680  -26.6970    3.6270 C   0  0  0  0  0
   -7.8610  -26.7320    2.5540 C   0  0  0  0  0
  -10.6330  -27.0280    1.7300 S   0  0  0  0  0
   -5.6280  -26.5170    3.4030 F   0  0  0  0  0
  -13.6063  -26.4378    2.5619 H   0  0  0  0  0
   -6.7938  -26.8084    5.7723 H   0  0  0  0  0
  -19.6898  -31.2492    0.3268 H   0  0  0  0  0
  -18.6938  -31.5446   -1.9208 H   0  0  0  0  0
  -16.3519  -31.0582   -2.3679 H   0  0  0  0  0
  -18.2050  -30.2783    2.0945 H   0  0  0  0  0
  -16.6972  -30.9691    3.2789 H   0  0  0  0  0
   -9.2073  -27.1324    6.1311 H   0  0  0  0  0
   -7.4840  -26.6125    1.5383 H   0  0  0  0  0
  1  2  1  0  0  0
  1 15  4  0  0  0
 16  1  4  0  0  0
  2  3  1  0  0  0
  3 17  4  0  0  0
  3 21  4  0  0  0
  6  4  4  0  0  0
 17  4  4  0  0  0
  4 18  4  0  0  0
 18  5  4  0  0  0
  5 19  4  0  0  0
  6 20  4  0  0  0
 21  6  4  0  0  0
  7  8  4  0  0  0
 12  7  4  0  0  0
  9  8  4  0  0  0
 10  9  4  0  0  0
 11 10  4  0  0  0
 11 12  4  0  0  0
 13 11  1  0  0  0
 13 14  4  0  0  0
 13 16  4  0  0  0
 14 15  4  0  0  0
 19 20  4  0  0  0
 19 22  1  0  0  0
  2 23  1  0  0  0
  5 24  1  0  0  0
  7 25  1  0  0  0
  8 26  1  0  0  0
  9 27  1  0  0  0
 12 28  1  0  0  0
 14 29  1  0  0  0
 18 30  1  0  0  0
 20 31  1  0  0  0
M  END
$$$$
