4x7q_ligand
  -I-interpret- 

 45 48  0  0  0  0  0  0  0  0999 V2000
   55.1730   19.7320    0.3910 O   0  0  0  0  0
   56.6850   21.0320    1.5760 C   0  0  0  0  0
   57.7340   21.0290    0.6860 C   0  0  0  0  0
   55.3940   20.3670    1.3970 C   0  0  0  0  0
   53.3520   19.9180    2.4980 C   0  0  0  0  0
   52.8720   19.0100    1.5620 C   0  0  0  0  0
   58.1090   22.3110    2.7730 C   0  0  0  0  0
   59.5960   24.6650    5.9250 C   0  0  0  0  0
   60.3710   24.4110    4.8130 C   0  0  0  0  0
   58.3230   24.1270    5.9870 C   0  0  0  0  0
   57.8460   23.3450    4.9330 C   0  0  0  0  0
   58.6240   23.0970    3.8110 C   0  0  0  0  0
   53.1570   21.0930    4.5570 O   0  0  0  0  0
   59.8870   23.6250    3.7590 C   0  0  0  0  0
   58.9570   21.9210    1.3300 S   0  0  0  0  0
   56.9130   21.7340    2.6930 N   0  0  0  0  0
   56.6080   22.8200    5.0390 F   0  0  0  0  0
   60.6480   23.4190    2.6700 F   0  0  0  0  0
   54.5430   20.5480    2.3910 N   0  0  0  0  0
   52.6300   20.1940    3.6550 C   0  0  0  0  0
   51.4180   19.5650    3.8600 C   0  0  0  0  0
   50.9850   18.6840    2.8870 C   0  0  0  0  0
   51.7050   18.4310    1.7810 N   0  0  0  0  0
   52.5730   21.3300    5.8500 C   0  0  0  0  0
   51.4500   22.3560    5.7020 C   0  0  0  0  0
   52.1850   23.5920    5.8140 N   0  3  0  0  0
   53.5220   23.4570    6.3600 C   0  0  0  0  0
   53.6080   21.9970    6.7360 C   0  0  0  0  0
   57.7517   20.5230   -0.2792 H   0  0  0  0  0
   53.4469   18.7801    0.6650 H   0  0  0  0  0
   59.9795   25.2785    6.7403 H   0  0  0  0  0
   61.3761   24.8284    4.7531 H   0  0  0  0  0
   57.6934   24.3132    6.8571 H   0  0  0  0  0
   54.8016   21.2063    3.1259 H   0  0  0  0  0
   50.8255   19.7559    4.7548 H   0  0  0  0  0
   50.0288   18.1782    3.0211 H   0  0  0  0  0
   52.2198   20.3844    6.2614 H   0  0  0  0  0
   50.6559   22.2482    6.4408 H   0  0  0  0  0
   50.8878   22.2615    4.7730 H   0  0  0  0  0
   51.6627   24.1903    6.4540 H   0  0  0  0  0
   52.2869   23.9627    4.8692 H   0  0  0  0  0
   53.6928   24.1167    7.2107 H   0  0  0  0  0
   54.2938   23.7497    5.6482 H   0  0  0  0  0
   54.6073   21.5889    6.5843 H   0  0  0  0  0
   53.4145   21.8306    7.7957 H   0  0  0  0  0
  4  1  2  0  0  0
  2  3  4  0  0  0
  2  4  1  0  0  0
 16  2  4  0  0  0
 15  3  4  0  0  0
  4 19  1  0  0  0
  5  6  4  0  0  0
 19  5  1  0  0  0
  5 20  4  0  0  0
  6 23  4  0  0  0
 12  7  1  0  0  0
  7 15  4  0  0  0
  7 16  4  0  0  0
  8  9  4  0  0  0
 10  8  4  0  0  0
  9 14  4  0  0  0
 11 10  4  0  0  0
 11 12  4  0  0  0
 11 17  1  0  0  0
 12 14  4  0  0  0
 20 13  1  0  0  0
 13 24  1  0  0  0
 14 18  1  0  0  0
 20 21  4  0  0  0
 21 22  4  0  0  0
 22 23  4  0  0  0
 24 25  1  0  0  0
 24 28  1  0  0  0
 25 26  1  0  0  0
 26 27  1  0  0  0
 27 28  1  0  0  0
  3 29  1  0  0  0
  6 30  1  0  0  0
  8 31  1  0  0  0
  9 32  1  0  0  0
 10 33  1  0  0  0
 19 34  1  0  0  0
 21 35  1  0  0  0
 22 36  1  0  0  0
 24 37  1  0  0  0
 25 38  1  0  0  0
 25 39  1  0  0  0
 26 40  1  0  0  0
 26 41  1  0  0  0
 27 42  1  0  0  0
 27 43  1  0  0  0
 28 44  1  0  0  0
 28 45  1  0  0  0
M  END
$$$$
