3lpk_ligand
  -I-interpret- 

 91 95  0  0  0  0  0  0  0  0999 V2000
   26.8180   15.4440   24.4540 C   0  0  0  0  0
   26.8000   10.9570   18.7530 F   0  0  0  0  0
   28.5350   13.7020   21.9030 N   0  0  0  0  0
   29.2400   13.5910   24.0520 O   0  0  0  0  0
   17.8210   12.9150   25.2690 S   0  0  0  0  0
   26.9870   14.2580   23.6810 C   0  0  0  0  0
   22.6960   13.2920   18.1430 F   0  0  0  0  0
   23.6440   11.7320   23.2570 N   0  0  0  0  0
   22.2620   13.5200   23.1620 O   0  0  0  0  0
   25.8400   13.4740   23.3350 C   0  0  0  0  0
   21.1940    9.9620   26.3420 N   0  3  0  0  0
   21.1370    8.9980   23.6200 O   0  0  0  0  0
   24.5400   13.8700   23.7460 C   0  0  0  0  0
   19.2910   12.0850   25.7630 N   0  0  0  0  0
   24.3740   15.0610   24.5160 C   0  0  0  0  0
   29.2820   11.2170   22.5620 O   0  0  0  0  0
   25.5140   15.8460   24.8690 C   0  0  0  0  0
   17.3120   13.5330   26.4560 O   0  0  0  0  0
   28.3340   13.8310   23.2550 C   0  0  0  0  0
   18.1980   13.7170   24.1460 O   0  0  0  0  0
   29.8470   13.2800   21.4110 C   0  0  0  0  0
   27.5740   13.9570   20.8380 C   0  0  0  0  0
   28.3900   14.2350   19.6000 C   0  0  0  0  0
   29.8250   13.9050   20.0090 C   0  0  0  0  0
   29.7950   11.7450   21.3470 C   0  0  0  0  0
   25.3430   17.0730   25.6640 C   0  0  0  0  0
   23.3810   13.0550   23.3680 C   0  0  0  0  0
   22.5430   10.8400   22.8710 C   0  0  0  0  0
   22.0720    9.9840   24.0820 C   0  0  0  0  0
   23.0140    9.9060   21.7430 C   0  0  0  0  0
   23.6170   10.6880   20.5880 C   0  0  0  0  0
   24.9680   10.4490   20.2010 C   0  0  0  0  0
   25.5380   11.1780   19.1160 C   0  0  0  0  0
   24.7650   12.1420   18.4180 C   0  0  0  0  0
   23.4180   12.3830   18.8020 C   0  0  0  0  0
   22.8400   11.6570   19.8850 C   0  0  0  0  0
   20.0450   11.3900   24.6920 C   0  0  0  0  0
   19.1820   11.1940   26.9420 C   0  0  0  0  0
   20.5470   10.7280   27.4120 C   0  0  0  0  0
   21.3940   10.8400   25.1800 C   0  0  0  0  0
   15.6250    9.8930   21.5440 C   0  0  0  0  0
   29.5580    9.8250   22.6760 C   0  0  0  0  0
   15.9480   10.9250   25.7200 C   0  0  0  0  0
   15.0680    9.8830   25.3110 C   0  0  0  0  0
   14.9630    9.5440   23.9330 C   0  0  0  0  0
   15.7360   10.2450   22.9650 C   0  0  0  0  0
   16.6170   11.2870   23.3730 C   0  0  0  0  0
   16.7220   11.6270   24.7510 C   0  0  0  0  0
   27.6859   16.0439   24.7280 H   0  0  0  0  0
   24.5789   11.3654   23.4361 H   0  0  0  0  0
   25.9662   12.5632   22.7497 H   0  0  0  0  0
   20.6047    9.1720   26.0793 H   0  0  0  0  0
   22.0946    9.6100   26.6667 H   0  0  0  0  0
   20.8419    8.4658   24.3625 H   0  0  0  0  0
   23.3785   15.3708   24.8341 H   0  0  0  0  0
   30.7277   13.5625   21.9878 H   0  0  0  0  0
   26.9278   14.8000   21.0826 H   0  0  0  0  0
   26.9116   13.1039   20.6911 H   0  0  0  0  0
   28.2867   15.2670   19.2646 H   0  0  0  0  0
   28.0593   13.6393   18.7492 H   0  0  0  0  0
   30.2449   13.1957   19.2958 H   0  0  0  0  0
   30.4130   14.8227   20.0185 H   0  0  0  0  0
   29.1436   11.4453   20.5261 H   0  0  0  0  0
   30.8032   11.3614   21.1903 H   0  0  0  0  0
   25.9015   16.9816   26.5956 H   0  0  0  0  0
   25.7160   17.9263   25.0976 H   0  0  0  0  0
   24.2854   17.2165   25.8854 H   0  0  0  0  0
   21.7071   11.4504   22.5293 H   0  0  0  0  0
   22.9541    9.5176   24.5206 H   0  0  0  0  0
   22.1524    9.3511   21.3718 H   0  0  0  0  0
   23.7768    9.2382   22.1435 H   0  0  0  0  0
   25.5651    9.7093   20.7342 H   0  0  0  0  0
   25.2037   12.6968   17.5886 H   0  0  0  0  0
   21.8058   11.8420   20.1755 H   0  0  0  0  0
   20.2440   12.1116   23.8997 H   0  0  0  0  0
   19.4432   10.5477   24.3508 H   0  0  0  0  0
   18.5953   10.3192   26.6616 H   0  0  0  0  0
   18.7077   11.7482   27.7519 H   0  0  0  0  0
   21.1608   11.5930   27.6632 H   0  0  0  0  0
   20.4331   10.0975   28.2938 H   0  0  0  0  0
   22.0174   11.6968   25.4356 H   0  0  0  0  0
   15.9104    8.8501   21.4060 H   0  0  0  0  0
   14.5957   10.0360   21.2149 H   0  0  0  0  0
   16.2867   10.5325   20.9598 H   0  0  0  0  0
   29.0957    9.2949   21.8433 H   0  0  0  0  0
   30.6363    9.6668   22.6554 H   0  0  0  0  0
   29.1526    9.4513   23.6163 H   0  0  0  0  0
   16.0297   11.1859   26.7751 H   0  0  0  0  0
   14.4759    9.3460   26.0521 H   0  0  0  0  0
   14.2898    8.7466   23.6184 H   0  0  0  0  0
   17.2095   11.8229   22.6315 H   0  0  0  0  0
  6  1  4  0  0  0
 17  1  4  0  0  0
 33  2  1  0  0  0
 19  3  1  0  0  0
  3 21  1  0  0  0
  3 22  1  0  0  0
 19  4  2  0  0  0
  5 14  1  0  0  0
  5 18  2  0  0  0
  5 20  2  0  0  0
 48  5  1  0  0  0
 10  6  4  0  0  0
  6 19  1  0  0  0
 35  7  1  0  0  0
  8 27  1  0  0  0
 28  8  1  0  0  0
 27  9  2  0  0  0
 13 10  4  0  0  0
 39 11  1  0  0  0
 40 11  1  0  0  0
 29 12  1  0  0  0
 13 15  4  0  0  0
 27 13  1  0  0  0
 14 37  1  0  0  0
 14 38  1  0  0  0
 15 17  4  0  0  0
 25 16  1  0  0  0
 16 42  1  0  0  0
 17 26  1  0  0  0
 21 24  1  0  0  0
 21 25  1  0  0  0
 22 23  1  0  0  0
 23 24  1  0  0  0
 29 28  1  0  0  0
 28 30  1  0  0  0
 40 29  1  0  0  0
 30 31  1  0  0  0
 31 32  4  0  0  0
 31 36  4  0  0  0
 32 33  4  0  0  0
 33 34  4  0  0  0
 35 34  4  0  0  0
 36 35  4  0  0  0
 37 40  1  0  0  0
 38 39  1  0  0  0
 46 41  1  0  0  0
 44 43  4  0  0  0
 43 48  4  0  0  0
 45 44  4  0  0  0
 45 46  4  0  0  0
 46 47  4  0  0  0
 47 48  4  0  0  0
  1 49  1  0  0  0
  8 50  1  0  0  0
 10 51  1  0  0  0
 11 52  1  0  0  0
 11 53  1  0  0  0
 12 54  1  0  0  0
 15 55  1  0  0  0
 21 56  1  0  0  0
 22 57  1  0  0  0
 22 58  1  0  0  0
 23 59  1  0  0  0
 23 60  1  0  0  0
 24 61  1  0  0  0
 24 62  1  0  0  0
 25 63  1  0  0  0
 25 64  1  0  0  0
 26 65  1  0  0  0
 26 66  1  0  0  0
 26 67  1  0  0  0
 28 68  1  0  0  0
 29 69  1  0  0  0
 30 70  1  0  0  0
 30 71  1  0  0  0
 32 72  1  0  0  0
 34 73  1  0  0  0
 36 74  1  0  0  0
 37 75  1  0  0  0
 37 76  1  0  0  0
 38 77  1  0  0  0
 38 78  1  0  0  0
 39 79  1  0  0  0
 39 80  1  0  0  0
 40 81  1  0  0  0
 41 82  1  0  0  0
 41 83  1  0  0  0
 41 84  1  0  0  0
 42 85  1  0  0  0
 42 86  1  0  0  0
 42 87  1  0  0  0
 43 88  1  0  0  0
 44 89  1  0  0  0
 45 90  1  0  0  0
 47 91  1  0  0  0
M  END
$$$$
