6suo_ligand
  -I-interpret- 

 60 63  0  0  0  0  0  0  0  0999 V2000
   31.6380    8.9810   10.4270 C   0  0  0  0  0
   30.7290    8.8240   11.6450 C   0  0  0  0  0
   29.5990    9.8130   11.6070 C   0  0  0  0  0
   25.8310   10.4540   13.3600 C   0  0  0  0  0
   26.4990    9.3020   13.7740 C   0  0  0  0  0
   27.7540    8.9860   13.2630 C   0  0  0  0  0
   28.3600    9.8360   12.3390 C   0  0  0  0  0
   30.7570   11.3940    9.9510 C   0  0  0  0  0
   30.1370   11.2770    8.5520 C   0  0  0  0  0
   33.0460   10.6770    9.2310 C   0  0  0  0  0
   34.4380   10.6510    9.8410 C   0  0  0  0  0
   35.4910   11.0000    8.8170 C   0  0  0  0  0
   34.5290   11.5750   11.0320 C   0  0  0  0  0
   31.8980   15.1560   10.0420 C   0  0  0  0  0
   32.0250   15.3660   11.4220 C   0  0  0  0  0
   32.4670   16.6650   11.9590 C   0  0  0  0  0
   32.8000   17.7600   11.2760 C   0  0  0  0  0
   31.7770   14.3180   12.3150 C   0  0  0  0  0
   31.1450   12.1220   12.7380 F   0  0  0  0  0
   31.3740   13.0970   11.8340 C   0  0  0  0  0
   33.3620   18.9810   11.9070 C   0  0  0  0  0
   33.6440   19.9560   11.0860 O   0  0  0  0  0
   33.5550   19.0570   13.1200 O   0  0  0  0  0
   31.4730   13.9340    9.5750 C   0  0  0  0  0
   31.3600   13.7740    8.2360 F   0  0  0  0  0
   31.1850   12.7890   10.4150 C   0  0  0  0  0
   31.9000   10.4200   10.1170 N   0  3  0  0  0
   34.7280    9.3860   10.2960 F   0  0  0  0  0
   31.1480    8.1420    9.2480 C   0  0  0  0  0
   29.6250   10.9440   10.8360 C   0  0  0  0  0
   28.4780   11.6820   11.0470 N   0  0  0  0  0
   27.6810   11.0100   11.9560 C   0  0  0  0  0
   26.4110   11.3210   12.4420 C   0  0  0  0  0
   32.6183    8.5699   10.6678 H   0  0  0  0  0
   31.3178    9.0013   12.5450 H   0  0  0  0  0
   30.3117    7.8171   11.6415 H   0  0  0  0  0
   24.8423   10.6769   13.7612 H   0  0  0  0  0
   26.0330    8.6421   14.5057 H   0  0  0  0  0
   28.2618    8.0766   13.5842 H   0  0  0  0  0
   29.2363   11.8888    8.5028 H   0  0  0  0  0
   30.8542   11.6236    7.8080 H   0  0  0  0  0
   29.8817   10.2358    8.3550 H   0  0  0  0  0
   33.0347    9.8678    8.5008 H   0  0  0  0  0
   32.9082   11.6953    8.8673 H   0  0  0  0  0
   35.4554   10.2785    8.0007 H   0  0  0  0  0
   35.3003   12.0002    8.4281 H   0  0  0  0  0
   36.4748   10.9724    9.2855 H   0  0  0  0  0
   34.3053   12.5943   10.7173 H   0  0  0  0  0
   33.8106   11.2613   11.7894 H   0  0  0  0  0
   35.5365   11.5340   11.4459 H   0  0  0  0  0
   32.1349   15.9574    9.3421 H   0  0  0  0  0
   32.5291   16.7393   13.0447 H   0  0  0  0  0
   32.6518   17.7592   10.1961 H   0  0  0  0  0
   31.9031   14.4701   13.3869 H   0  0  0  0  0
   33.4187   19.6939   10.1904 H   0  0  0  0  0
   32.1852   10.6871   11.0592 H   0  0  0  0  0
   30.2116    8.5556    8.8737 H   0  0  0  0  0
   31.8965    8.1588    8.4558 H   0  0  0  0  0
   30.9876    7.1151    9.5763 H   0  0  0  0  0
   25.8885   12.2185   12.1111 H   0  0  0  0  0
  1  2  1  0  0  0
 27  1  1  0  0  0
  1 29  1  0  0  0
  3  2  1  0  0  0
  3  7  4  0  0  0
 30  3  4  0  0  0
  5  4  4  0  0  0
  4 33  4  0  0  0
  6  5  4  0  0  0
  7  6  4  0  0  0
  7 32  4  0  0  0
  8  9  1  0  0  0
 26  8  1  0  0  0
  8 27  1  0  0  0
  8 30  1  0  0  0
 10 11  1  0  0  0
 27 10  1  0  0  0
 11 12  1  0  0  0
 11 13  1  0  0  0
 11 28  1  0  0  0
 15 14  4  0  0  0
 14 24  4  0  0  0
 15 16  1  0  0  0
 18 15  4  0  0  0
 16 17  2  0  0  0
 17 21  1  0  0  0
 20 18  4  0  0  0
 20 19  1  0  0  0
 20 26  4  0  0  0
 21 22  1  0  0  0
 21 23  2  0  0  0
 24 25  1  0  0  0
 24 26  4  0  0  0
 30 31  4  0  0  0
 31 32  4  0  0  0
 32 33  4  0  0  0
  1 34  1  0  0  0
  2 35  1  0  0  0
  2 36  1  0  0  0
  4 37  1  0  0  0
  5 38  1  0  0  0
  6 39  1  0  0  0
  9 40  1  0  0  0
  9 41  1  0  0  0
  9 42  1  0  0  0
 10 43  1  0  0  0
 10 44  1  0  0  0
 12 45  1  0  0  0
 12 46  1  0  0  0
 12 47  1  0  0  0
 13 48  1  0  0  0
 13 49  1  0  0  0
 13 50  1  0  0  0
 14 51  1  0  0  0
 16 52  1  0  0  0
 17 53  1  0  0  0
 18 54  1  0  0  0
 22 55  1  0  0  0
 27 56  1  0  0  0
 29 57  1  0  0  0
 29 58  1  0  0  0
 29 59  1  0  0  0
 33 60  1  0  0  0
M  END
$$$$
