4ovz_ligand
  -I-interpret- 

 57 60  0  0  0  0  0  0  0  0999 V2000
   -7.4620   45.9030  -43.4420 F   0  0  0  0  0
   -8.1640   46.5600  -42.5280 C   0  0  0  0  0
   -9.2240   45.9240  -41.8140 C   0  0  0  0  0
   -9.9250   46.6530  -40.8640 C   0  0  0  0  0
   -7.8590   47.9510  -42.2370 C   0  0  0  0  0
   -8.5490   48.6710  -41.2710 C   0  0  0  0  0
   -9.5760   48.0340  -40.5620 C   0  0  0  0  0
  -10.4100   48.7790  -39.5700 C   0  0  0  0  0
  -11.8180   48.4360  -39.8070 N   0  0  0  0  0
  -12.6300   47.9630  -38.7550 C   0  0  0  0  0
  -12.2050   47.8670  -37.6470 O   0  0  0  0  0
  -14.0810   47.5870  -39.0210 C   0  0  0  0  0
  -14.1210   46.1350  -39.2260 C   0  0  0  0  0
  -15.4680   45.7020  -39.7240 C   0  0  0  0  0
  -16.6190   46.1040  -38.8530 N   0  3  0  0  0
  -16.3930   47.3730  -38.0970 C   0  0  0  0  0
  -14.9970   47.9410  -37.9190 C   0  0  0  0  0
  -18.0950   45.9920  -39.4280 C   0  0  0  0  0
  -19.2720   46.1120  -38.5340 C   0  0  0  0  0
  -18.2270   44.5750  -40.1400 C   0  0  0  0  0
  -18.3020   43.4700  -39.3570 C   0  0  0  0  0
  -18.3950   42.1220  -39.9630 C   0  0  0  0  0
  -18.3820   41.9970  -41.3190 C   0  0  0  0  0
  -18.3130   43.1940  -42.1660 C   0  0  0  0  0
  -18.2230   44.4390  -41.6090 C   0  0  0  0  0
  -18.2990   43.0470  -43.5660 C   0  0  0  0  0
  -18.1990   44.2060  -44.3860 C   0  0  0  0  0
  -18.1120   45.4640  -43.8290 C   0  0  0  0  0
  -18.1080   45.6090  -42.4460 C   0  0  0  0  0
   -9.4785   44.8828  -42.0119 H   0  0  0  0  0
  -10.7530   46.1827  -40.3335 H   0  0  0  0  0
   -7.0633   48.4446  -42.7949 H   0  0  0  0  0
   -8.2966   49.7118  -41.0681 H   0  0  0  0  0
  -10.2608   49.8526  -39.6853 H   0  0  0  0  0
  -10.1222   48.5033  -38.5555 H   0  0  0  0  0
  -12.2128   48.5408  -40.7416 H   0  0  0  0  0
  -14.4212   48.1474  -39.8918 H   0  0  0  0  0
  -13.9235   45.6410  -38.2747 H   0  0  0  0  0
  -13.3694   45.8648  -39.9678 H   0  0  0  0  0
  -15.4591   44.6124  -39.7537 H   0  0  0  0  0
  -15.6184   46.1845  -40.6898 H   0  0  0  0  0
  -16.6038   45.3296  -38.1893 H   0  0  0  0  0
  -16.7124   47.1358  -37.0822 H   0  0  0  0  0
  -16.9114   48.1279  -38.6882 H   0  0  0  0  0
  -15.0826   49.0274  -37.8964 H   0  0  0  0  0
  -14.5852   47.5240  -37.0000 H   0  0  0  0  0
  -18.1587   46.8833  -40.0522 H   0  0  0  0  0
  -19.2331   45.3287  -37.7770 H   0  0  0  0  0
  -19.2605   47.0883  -38.0494 H   0  0  0  0  0
  -20.1846   46.0070  -39.1208 H   0  0  0  0  0
  -18.2937   43.5751  -38.2721 H   0  0  0  0  0
  -18.4731   41.2383  -39.3297 H   0  0  0  0  0
  -18.4228   41.0080  -41.7755 H   0  0  0  0  0
  -18.3640   42.0568  -44.0169 H   0  0  0  0  0
  -18.1911   44.0973  -45.4705 H   0  0  0  0  0
  -18.0465   46.3426  -44.4708 H   0  0  0  0  0
  -18.0187   46.5985  -41.9977 H   0  0  0  0  0
  1  2  1  0  0  0
  2  3  4  0  0  0
  2  5  4  0  0  0
  3  4  4  0  0  0
  4  7  4  0  0  0
  5  6  4  0  0  0
  6  7  4  0  0  0
  7  8  1  0  0  0
  8  9  1  0  0  0
  9 10  1  0  0  0
 10 11  2  0  0  0
 10 12  1  0  0  0
 12 13  1  0  0  0
 12 17  1  0  0  0
 13 14  1  0  0  0
 14 15  1  0  0  0
 15 16  1  0  0  0
 15 18  1  0  0  0
 16 17  1  0  0  0
 18 19  1  0  0  0
 18 20  1  0  0  0
 20 21  4  0  0  0
 20 25  4  0  0  0
 21 22  4  0  0  0
 22 23  4  0  0  0
 23 24  4  0  0  0
 24 25  4  0  0  0
 24 26  4  0  0  0
 25 29  4  0  0  0
 26 27  4  0  0  0
 27 28  4  0  0  0
 28 29  4  0  0  0
  3 30  1  0  0  0
  4 31  1  0  0  0
  5 32  1  0  0  0
  6 33  1  0  0  0
  8 34  1  0  0  0
  8 35  1  0  0  0
  9 36  1  0  0  0
 12 37  1  0  0  0
 13 38  1  0  0  0
 13 39  1  0  0  0
 14 40  1  0  0  0
 14 41  1  0  0  0
 15 42  1  0  0  0
 16 43  1  0  0  0
 16 44  1  0  0  0
 17 45  1  0  0  0
 17 46  1  0  0  0
 18 47  1  0  0  0
 19 48  1  0  0  0
 19 49  1  0  0  0
 19 50  1  0  0  0
 21 51  1  0  0  0
 22 52  1  0  0  0
 23 53  1  0  0  0
 26 54  1  0  0  0
 27 55  1  0  0  0
 28 56  1  0  0  0
 29 57  1  0  0  0
M  END
$$$$
