4n5d_ligand
  -I-interpret- 

 24 25  0  0  0  0  0  0  0  0999 V2000
  -28.5910  -28.5110    4.6200 O   0  0  0  0  0
  -27.6130  -28.2170    3.9440 C   0  0  0  0  0
  -27.7340  -27.9420    2.4770 C   0  0  0  0  0
  -28.9680  -28.0520    1.9360 N   0  0  0  0  0
  -26.6360  -27.6060    1.7500 C   0  0  0  0  0
  -26.3600  -28.1230    4.5170 N   0  0  0  0  0
  -26.2570  -28.4080    5.9480 C   0  0  0  0  0
  -25.2320  -27.7840    3.8010 C   0  0  0  0  0
  -25.3610  -27.5210    2.4100 C   0  0  0  0  0
  -24.1740  -27.1770    1.7590 C   0  0  0  0  0
  -22.9880  -27.0920    2.3510 N   0  0  0  0  0
  -24.0390  -27.7020    4.4000 N   0  0  0  0  0
  -22.9670  -27.3680    3.6700 C   0  0  0  0  0
  -21.6530  -27.3100    4.3600 C   0  0  0  0  0
  -29.1054  -27.8799    0.9401 H   0  0  0  0  0
  -26.8347  -26.5956    1.3925 H   0  0  0  0  0
  -26.5230  -28.4113    1.0242 H   0  0  0  0  0
  -25.5823  -29.2501    6.1018 H   0  0  0  0  0
  -25.8686  -27.5305    6.4649 H   0  0  0  0  0
  -27.2437  -28.6550    6.3399 H   0  0  0  0  0
  -24.2245  -26.9635    0.6913 H   0  0  0  0  0
  -20.9721  -28.0280    3.9030 H   0  0  0  0  0
  -21.2396  -26.3057    4.2676 H   0  0  0  0  0
  -21.7864  -27.5539    5.4140 H   0  0  0  0  0
  1  2  2  0  0  0
  2  3  1  0  0  0
  2  6  1  0  0  0
  3  4  2  0  0  0
  3  5  1  0  0  0
  5  9  1  0  0  0
  6  7  1  0  0  0
  6  8  1  0  0  0
  8  9  4  0  0  0
  8 12  4  0  0  0
  9 10  4  0  0  0
 10 11  4  0  0  0
 11 13  4  0  0  0
 12 13  4  0  0  0
 13 14  1  0  0  0
  4 15  1  0  0  0
  5 16  1  0  0  0
  5 17  1  0  0  0
  7 18  1  0  0  0
  7 19  1  0  0  0
  7 20  1  0  0  0
 10 21  1  0  0  0
 14 22  1  0  0  0
 14 23  1  0  0  0
 14 24  1  0  0  0
M  END
$$$$
