4cqe_ligand
  -I-interpret- 

 72 77  0  0  0  0  0  0  0  0999 V2000
    4.3840   47.3530   18.5730 F   0  0  0  0  0
    4.7940   48.6020   18.2510 C   0  0  0  0  0
    5.1360   48.9410   16.9300 C   0  0  0  0  0
    5.5500   50.2570   16.6370 C   0  0  0  0  0
    5.6220   51.1950   17.6610 C   0  0  0  0  0
    6.0350   52.5210   17.3490 F   0  0  0  0  0
    5.2740   50.8330   18.9730 C   0  0  0  0  0
    4.8640   49.5340   19.2630 C   0  0  0  0  0
    4.4160   49.0460   20.9270 S   0  0  0  0  0
    5.1770   47.7530   21.1750 O   0  0  0  0  0
    4.8220   50.1840   21.8250 O   0  0  0  0  0
    2.8260   48.8140   21.0250 N   0  0  0  0  0
    1.9870   49.8760   21.0430 C   0  0  0  0  0
    0.6720   49.5520   21.3430 C   0  0  0  0  0
    0.4250   48.3160   21.5450 F   0  0  0  0  0
    2.3230   51.2040   20.7820 C   0  0  0  0  0
    1.2900   52.1670   20.8430 C   0  0  0  0  0
   -0.0440   51.8400   21.1540 C   0  0  0  0  0
   -0.3690   50.4960   21.3870 C   0  0  0  0  0
   -1.6260   50.0950   21.7450 C   0  0  0  0  0
   -1.6440   49.3950   22.8970 N   0  0  0  0  0
   -2.8280   49.0040   23.3600 C   0  0  0  0  0
   -2.9930   48.1860   24.6480 C   0  0  0  0  0
   -3.9590   48.8900   25.6060 C   0  0  0  0  0
   -4.0390   48.0950   26.9050 C   0  0  0  0  0
   -3.4420   46.7320   24.3170 C   0  0  0  0  0
   -3.6840   45.9340   25.6060 C   0  0  0  0  0
   -4.4580   46.6970   26.6350 N   0  3  0  0  0
   -5.8850   46.2920   26.8580 C   0  0  0  0  0
   -6.9360   47.3680   27.1920 C   0  0  0  0  0
   -6.9450   46.7050   25.8150 C   0  0  0  0  0
   -3.9870   49.4910   22.3880 S   0  0  0  0  0
   -2.8900   50.3230   21.2530 C   0  0  0  0  0
   -3.3700   50.8890   20.1150 C   0  0  0  0  0
   -4.7510   51.1550   19.9410 C   0  0  0  0  0
   -2.5260   51.1070   19.0170 C   0  0  0  0  0
   -3.0490   51.6390   17.8270 C   0  0  0  0  0
   -4.4240   51.9100   17.7250 N   0  0  0  0  0
   -5.2820   51.6930   18.7410 C   0  0  0  0  0
   -6.6090   51.9780   18.4830 N   0  0  0  0  0
   -7.6150   51.6890   19.3710 C   0  0  0  0  0
   -7.4430   51.2880   20.5260 O   0  0  0  0  0
   -9.0660   51.9350   18.8830 C   0  0  0  0  0
    5.0816   48.1930   16.1390 H   0  0  0  0  0
    5.8113   50.5365   15.6164 H   0  0  0  0  0
    5.3253   51.5746   19.7702 H   0  0  0  0  0
    2.4508   47.8667   21.0735 H   0  0  0  0  0
    3.3466   51.4895   20.5394 H   0  0  0  0  0
    1.5370   53.2091   20.6403 H   0  0  0  0  0
   -0.8079   52.6154   21.2124 H   0  0  0  0  0
   -2.0301   48.1161   25.1540 H   0  0  0  0  0
   -4.9478   48.9510   25.1513 H   0  0  0  0  0
   -3.6004   49.8981   25.8139 H   0  0  0  0  0
   -4.7720   48.5634   27.5619 H   0  0  0  0  0
   -3.0555   48.0851   27.3748 H   0  0  0  0  0
   -2.6567   46.2425   23.7410 H   0  0  0  0  0
   -4.3698   46.7704   23.7461 H   0  0  0  0  0
   -2.7106   45.6954   26.0345 H   0  0  0  0  0
   -4.2655   45.0503   25.3433 H   0  0  0  0  0
   -4.0895   46.3036   27.5010 H   0  0  0  0  0
   -5.5687   45.3559   27.3182 H   0  0  0  0  0
   -6.9671   48.3733   27.6120 H   0  0  0  0  0
   -7.6420   47.5967   27.9904 H   0  0  0  0  0
   -7.6591   46.2271   25.1443 H   0  0  0  0  0
   -6.9859   47.0017   24.7670 H   0  0  0  0  0
   -5.4329   50.9372   20.7630 H   0  0  0  0  0
   -1.4657   50.8640   19.0867 H   0  0  0  0  0
   -2.3890   51.8414   16.9835 H   0  0  0  0  0
   -6.8510   52.4211   17.5967 H   0  0  0  0  0
   -9.6308   51.0047   18.9429 H   0  0  0  0  0
   -9.5372   52.6888   19.5137 H   0  0  0  0  0
   -9.0465   52.2838   17.8505 H   0  0  0  0  0
  1  2  1  0  0  0
  2  3  4  0  0  0
  2  8  4  0  0  0
  3  4  4  0  0  0
  4  5  4  0  0  0
  5  6  1  0  0  0
  5  7  4  0  0  0
  7  8  4  0  0  0
  8  9  1  0  0  0
  9 10  2  0  0  0
  9 11  2  0  0  0
  9 12  1  0  0  0
 12 13  1  0  0  0
 13 14  4  0  0  0
 13 16  4  0  0  0
 14 15  1  0  0  0
 14 19  4  0  0  0
 16 17  4  0  0  0
 17 18  4  0  0  0
 18 19  4  0  0  0
 19 20  1  0  0  0
 20 21  4  0  0  0
 20 33  4  0  0  0
 21 22  4  0  0  0
 22 23  1  0  0  0
 22 32  4  0  0  0
 23 24  1  0  0  0
 23 26  1  0  0  0
 24 25  1  0  0  0
 25 28  1  0  0  0
 26 27  1  0  0  0
 27 28  1  0  0  0
 28 29  1  0  0  0
 29 30  1  0  0  0
 29 31  1  0  0  0
 30 31  1  0  0  0
 32 33  4  0  0  0
 33 34  1  0  0  0
 34 35  4  0  0  0
 34 36  4  0  0  0
 35 39  4  0  0  0
 36 37  4  0  0  0
 37 38  4  0  0  0
 38 39  4  0  0  0
 39 40  1  0  0  0
 40 41  1  0  0  0
 41 42  2  0  0  0
 41 43  1  0  0  0
  3 44  1  0  0  0
  4 45  1  0  0  0
  7 46  1  0  0  0
 12 47  1  0  0  0
 16 48  1  0  0  0
 17 49  1  0  0  0
 18 50  1  0  0  0
 23 51  1  0  0  0
 24 52  1  0  0  0
 24 53  1  0  0  0
 25 54  1  0  0  0
 25 55  1  0  0  0
 26 56  1  0  0  0
 26 57  1  0  0  0
 27 58  1  0  0  0
 27 59  1  0  0  0
 28 60  1  0  0  0
 29 61  1  0  0  0
 30 62  1  0  0  0
 30 63  1  0  0  0
 31 64  1  0  0  0
 31 65  1  0  0  0
 35 66  1  0  0  0
 36 67  1  0  0  0
 37 68  1  0  0  0
 40 69  1  0  0  0
 43 70  1  0  0  0
 43 71  1  0  0  0
 43 72  1  0  0  0
M  END
$$$$
