4ezk_ligand
  -I-interpret- 

 69 74  0  0  0  0  0  0  0  0999 V2000
   15.3040   -1.4830   20.3060 N   0  3  0  0  0
   14.9940    0.3730   15.3320 C   0  0  0  0  0
   16.4990   -7.9970   23.6510 O   0  0  0  0  0
   14.0790   -0.4540   16.2160 C   0  0  0  0  0
   17.6700   -3.8670   21.3220 N   0  0  0  0  0
   13.6590   -1.5900   15.4390 O   0  0  0  0  0
   12.8370    0.3410   16.5840 C   0  0  0  0  0
   20.5000   -6.2050   21.1680 N   0  0  0  0  0
   14.8140   -0.9870   17.4660 C   0  0  0  0  0
   21.0960   -4.1850   20.0940 N   0  0  0  0  0
   15.2640    0.1120   18.4200 C   0  0  0  0  0
   24.0130   -8.3730   22.4550 N   0  0  0  0  0
   16.0830   -0.4980   19.5530 C   0  0  0  0  0
   25.0040   -8.1350   21.5490 N   0  0  0  0  0
   14.8480   -2.5450   19.4040 C   0  0  0  0  0
   18.3720   -6.4980   22.1820 N   0  0  0  0  0
   13.9960   -1.9880   18.2710 C   0  0  0  0  0
   16.0960   -2.0400   21.4080 C   0  0  0  0  0
   17.4130   -2.6230   20.9530 C   0  0  0  0  0
   18.3180   -1.8520   20.2530 C   0  0  0  0  0
   19.5300   -2.3780   19.9590 C   0  0  0  0  0
   19.8490   -3.6890   20.3630 C   0  0  0  0  0
   18.8850   -4.4590   21.0630 C   0  0  0  0  0
   19.2950   -5.7550   21.4490 C   0  0  0  0  0
   21.3480   -5.4080   20.5130 C   0  0  0  0  0
   22.7110   -5.8670   20.1840 C   0  0  0  0  0
   23.3730   -5.3150   19.0920 C   0  0  0  0  0
   24.6590   -5.7130   18.7810 C   0  0  0  0  0
   25.3010   -6.6620   19.5510 C   0  0  0  0  0
   24.6310   -7.2080   20.6370 C   0  0  0  0  0
   23.3220   -6.8170   20.9680 C   0  0  0  0  0
   23.0100   -7.5890   22.1090 C   0  0  0  0  0
   18.7150   -7.8140   22.7180 C   0  0  0  0  0
   17.8830   -8.0820   23.9360 C   0  0  0  0  0
   16.1840   -6.7020   23.1730 C   0  0  0  0  0
   16.9400   -6.3800   21.9200 C   0  0  0  0  0
   14.4896   -1.0213   20.7109 H   0  0  0  0  0
   14.4646    0.6479   14.4197 H   0  0  0  0  0
   15.2943    1.2750   15.8652 H   0  0  0  0  0
   15.8781   -0.2120   15.0783 H   0  0  0  0  0
   14.4276   -2.1100   15.1933 H   0  0  0  0  0
   12.1494   -0.2977   17.1383 H   0  0  0  0  0
   13.1221    1.1925   17.2018 H   0  0  0  0  0
   12.3520    0.6963   15.6748 H   0  0  0  0  0
   15.6874   -1.4851   17.0451 H   0  0  0  0  0
   14.3890    0.6127   18.8344 H   0  0  0  0  0
   15.8758    0.8336   17.8786 H   0  0  0  0  0
   16.9500   -0.9988   19.1223 H   0  0  0  0  0
   16.3811    0.3001   20.2329 H   0  0  0  0  0
   14.2435   -3.2483   19.9767 H   0  0  0  0  0
   15.7232   -3.0299   18.9715 H   0  0  0  0  0
   13.6774   -2.8031   17.6212 H   0  0  0  0  0
   13.1194   -1.4907   18.6861 H   0  0  0  0  0
   15.5157   -2.8441   21.8604 H   0  0  0  0  0
   16.3144   -1.2290   22.1028 H   0  0  0  0  0
   18.0619   -0.8389   19.9427 H   0  0  0  0  0
   20.2608   -1.7857   19.4084 H   0  0  0  0  0
   22.8745   -4.5645   18.4785 H   0  0  0  0  0
   25.1694   -5.2753   17.9231 H   0  0  0  0  0
   26.3163   -6.9770   19.3103 H   0  0  0  0  0
   22.0582   -7.5427   22.6382 H   0  0  0  0  0
   19.7717   -7.8365   22.9845 H   0  0  0  0  0
   18.5190   -8.5780   21.9656 H   0  0  0  0  0
   18.1010   -9.0908   24.2867 H   0  0  0  0  0
   18.1258   -7.3335   24.6903 H   0  0  0  0  0
   16.4582   -5.9755   23.9379 H   0  0  0  0  0
   15.1173   -6.6658   22.9516 H   0  0  0  0  0
   16.6534   -7.0744   21.1302 H   0  0  0  0  0
   16.7079   -5.3633   21.6028 H   0  0  0  0  0
  1 13  1  0  0  0
  1 15  1  0  0  0
 18  1  1  0  0  0
  4  2  1  0  0  0
 34  3  1  0  0  0
  3 35  1  0  0  0
  4  6  1  0  0  0
  4  7  1  0  0  0
  9  4  1  0  0  0
  5 19  4  0  0  0
 23  5  4  0  0  0
 24  8  4  0  0  0
  8 25  4  0  0  0
 11  9  1  0  0  0
 17  9  1  0  0  0
 22 10  4  0  0  0
 25 10  4  0  0  0
 13 11  1  0  0  0
 12 14  4  0  0  0
 32 12  4  0  0  0
 30 14  4  0  0  0
 15 17  1  0  0  0
 16 24  1  0  0  0
 33 16  1  0  0  0
 16 36  1  0  0  0
 19 18  1  0  0  0
 19 20  4  0  0  0
 21 20  4  0  0  0
 22 21  4  0  0  0
 23 22  4  0  0  0
 24 23  4  0  0  0
 25 26  1  0  0  0
 26 27  4  0  0  0
 26 31  4  0  0  0
 27 28  4  0  0  0
 28 29  4  0  0  0
 30 29  4  0  0  0
 31 30  4  0  0  0
 31 32  4  0  0  0
 33 34  1  0  0  0
 35 36  1  0  0  0
  1 37  1  0  0  0
  2 38  1  0  0  0
  2 39  1  0  0  0
  2 40  1  0  0  0
  6 41  1  0  0  0
  7 42  1  0  0  0
  7 43  1  0  0  0
  7 44  1  0  0  0
  9 45  1  0  0  0
 11 46  1  0  0  0
 11 47  1  0  0  0
 13 48  1  0  0  0
 13 49  1  0  0  0
 15 50  1  0  0  0
 15 51  1  0  0  0
 17 52  1  0  0  0
 17 53  1  0  0  0
 18 54  1  0  0  0
 18 55  1  0  0  0
 20 56  1  0  0  0
 21 57  1  0  0  0
 27 58  1  0  0  0
 28 59  1  0  0  0
 29 60  1  0  0  0
 32 61  1  0  0  0
 33 62  1  0  0  0
 33 63  1  0  0  0
 34 64  1  0  0  0
 34 65  1  0  0  0
 35 66  1  0  0  0
 35 67  1  0  0  0
 36 68  1  0  0  0
 36 69  1  0  0  0
M  END
$$$$
