### 
### Created by X-TOOL on Mon Sep 10 21:13:26 2018
### 

@<TRIPOS>MOLECULE
5eqq_ligand
  104   108     1     0     0
SMALL
GAST_HUCK


@<TRIPOS>ATOM
      1 C14       -15.9880   -8.8380   14.2530 C.2       1 5RS         0.2070
      2 C11       -13.8900  -11.4750   12.8240 C.3       1 5RS         0.1116
      3 C10       -12.8530  -10.5640   13.3310 C.3       1 5RS         0.0213
      4 C12       -15.0700  -10.6400   12.6200 C.3       1 5RS         0.0683
      5 C01       -14.5390   -3.7960   14.8680 C.3       1 5RS        -0.0651
      6 C02       -13.4670   -4.2760   15.7980 C.3       1 5RS        -0.0516
      7 C03       -13.4640   -5.6750   16.1070 C.3       1 5RS        -0.0066
      8 C04       -12.4420   -5.9830   17.1580 C.3       1 5RS        -0.0152
      9 C05       -12.2120   -6.4480   15.7160 C.3       1 5RS         0.1374
     10 N06       -12.5490   -7.7930   15.4590 N.am      1 5RS        -0.2737
     11 C07       -13.1680   -8.1900   14.2340 C.2       1 5RS         0.2013
     12 O08       -13.2130   -7.4480   13.3040 O.2       1 5RS        -0.3947
     13 C09       -13.6350   -9.6720   14.2480 C.3       1 5RS         0.1364
     14 N13       -14.9830   -9.6780   13.7190 N.am      1 5RS        -0.2468
     15 O15       -15.7000   -8.1190   15.2080 O.2       1 5RS        -0.3942
     16 C16       -17.3800   -8.8950   13.6590 C.3       1 5RS         0.1378
     17 N17       -18.3600   -9.0400   14.6850 N.am      1 5RS        -0.2407
     18 C18       -18.5320  -10.3900   15.1520 C.2       1 5RS         0.3223
     19 O19       -18.4280  -11.3250   14.4550 O.2       1 5RS        -0.3774
     20 O20       -19.4750  -10.3310   16.1270 O.3       1 5RS        -0.2580
     21 C21       -19.9220  -11.5150   16.7270 C.3       1 5RS         0.0905
     22 C22       -20.6650  -11.0370   17.9650 C.3       1 5RS        -0.0320
     23 C23       -20.8360  -12.3070   15.7880 C.3       1 5RS        -0.0320
     24 C24       -18.7770  -12.4190   17.1710 C.3       1 5RS        -0.0320
     25 C25       -17.6280   -7.5930   12.8190 C.3       1 5RS         0.0025
     26 C26       -16.5350   -7.4440   11.7990 C.3       1 5RS        -0.0558
     27 C27       -18.9950   -7.7440   12.2520 C.3       1 5RS        -0.0558
     28 C28       -17.6610   -6.4210   13.7370 C.3       1 5RS        -0.0558
     29 O29       -14.3660  -12.4190   13.7950 O.3       1 5RS        -0.2852
     30 C30       -13.5900  -13.5390   14.0570 C.ar      1 5RS         0.1985
     31 C31       -13.8160  -14.1640   15.2560 C.ar      1 5RS         0.0904
     32 C32       -14.8390  -13.5220   16.1670 C.3       1 5RS         0.0013
     33 C33       -15.4890  -14.4130   17.1260 C.3       1 5RS        -0.0527
     34 N34       -13.1530  -15.2880   15.5490 N.ar      1 5RS        -0.2830
     35 C35       -12.2300  -15.7400   14.6630 C.ar      1 5RS         0.0479
     36 C36       -11.5200  -16.8950   14.9790 C.ar      1 5RS        -0.0425
     37 C37       -10.6060  -17.3790   14.0840 C.ar      1 5RS        -0.0236
     38 C38       -10.4040  -16.8170   12.8990 C.ar      1 5RS         0.0960
     39 C39       -11.1270  -15.6610   12.5840 C.ar      1 5RS        -0.0161
     40 C40       -12.0250  -15.1350   13.4870 C.ar      1 5RS         0.0423
     41 N41       -12.7140  -14.0090   13.1830 N.ar      1 5RS        -0.2649
     42 O42        -9.4670  -17.3100   11.9850 O.3       1 5RS        -0.3183
     43 C43        -9.2780  -16.6700   10.7260 C.3       1 5RS         0.0605
     44 C44       -10.9860   -5.8040   15.1350 C.2       1 5RS         0.2444
     45 O45       -10.6620   -4.7390   15.3980 O.2       1 5RS        -0.3404
     46 N46       -10.2760   -6.5410   14.2610 N.am      1 5RS        -0.1552
     47 S47        -8.9570   -5.9390   13.6310 S.o2      1 5RS         0.0645
     48 O48        -9.4770   -4.8980   12.8360 O.2       1 5RS        -0.1503
     49 O49        -7.9670   -5.5160   14.4080 O.2       1 5RS        -0.1503
     50 C50        -8.3120   -7.1650   12.4970 C.3       1 5RS         0.1004
     51 C51        -6.8770   -6.7820   12.3030 C.3       1 5RS        -0.0268
     52 C52        -7.2210   -7.8600   13.2850 C.3       1 5RS        -0.0268
     53 H1        -13.5505  -11.9790   11.9071 H         1 5RS         0.0683
     54 H2        -12.3923   -9.9899   12.5136 H         1 5RS         0.0343
     55 H3        -12.0729  -11.1131   13.8786 H         1 5RS         0.0343
     56 H4        -15.9926  -11.2353   12.6872 H         1 5RS         0.0554
     57 H5        -15.0316  -10.1318   11.6452 H         1 5RS         0.0554
     58 H6        -14.4317   -2.7123   14.7130 H         1 5RS         0.0230
     59 H7        -15.5258   -4.0078   15.3054 H         1 5RS         0.0230
     60 H8        -14.4466   -4.3153   13.9027 H         1 5RS         0.0230
     61 H9        -13.5753   -3.7257   16.7442 H         1 5RS         0.0265
     62 H10       -12.4961   -4.0332   15.3416 H         1 5RS         0.0265
     63 H11       -14.4649   -6.1300   16.0738 H         1 5RS         0.0312
     64 H12       -12.6667   -6.7197   17.9433 H         1 5RS         0.0279
     65 H13       -11.8264   -5.1745   17.5790 H         1 5RS         0.0279
     66 H14       -12.3497   -8.4863   16.1515 H         1 5RS         0.1839
     67 H15       -13.6009  -10.0640   15.2752 H         1 5RS         0.0803
     68 H16       -17.4458   -9.7657   12.9900 H         1 5RS         0.0805
     69 H17       -18.8830   -8.2692   15.0488 H         1 5RS         0.1899
     70 H18       -21.0603  -11.9048   18.5133 H         1 5RS         0.0260
     71 H19       -21.4970  -10.3836   17.6638 H         1 5RS         0.0260
     72 H20       -19.9751  -10.4770   18.6133 H         1 5RS         0.0260
     73 H21       -21.1676  -13.2280   16.2898 H         1 5RS         0.0260
     74 H22       -20.2846  -12.5666   14.8723 H         1 5RS         0.0260
     75 H23       -21.7124  -11.6955   15.5274 H         1 5RS         0.0260
     76 H24       -19.1866  -13.3294   17.6330 H         1 5RS         0.0260
     77 H25       -18.1516  -11.8862   17.9025 H         1 5RS         0.0260
     78 H26       -18.1669  -12.6936   16.2979 H         1 5RS         0.0260
     79 H27       -16.7064   -6.5318   11.2086 H         1 5RS         0.0237
     80 H28       -16.5348   -8.3182   11.1314 H         1 5RS         0.0237
     81 H29       -15.5636   -7.3727   12.3102 H         1 5RS         0.0237
     82 H30       -19.7224   -7.8458   13.0709 H         1 5RS         0.0237
     83 H31       -19.0312   -8.6407   11.6159 H         1 5RS         0.0237
     84 H32       -19.2424   -6.8572   11.6501 H         1 5RS         0.0237
     85 H33       -16.6648   -6.2738   14.1796 H         1 5RS         0.0237
     86 H34       -18.3944   -6.6021   14.5366 H         1 5RS         0.0237
     87 H35       -17.9481   -5.5214   13.1729 H         1 5RS         0.0237
     88 H36       -15.6223  -13.0787   15.5346 H         1 5RS         0.0460
     89 H37       -14.3329  -12.7274   16.7349 H         1 5RS         0.0460
     90 H38       -16.2076  -13.8398   17.7302 H         1 5RS         0.0255
     91 H39       -14.7296  -14.8592   17.7850 H         1 5RS         0.0255
     92 H40       -16.0190  -15.2105   16.5847 H         1 5RS         0.0255
     93 H41       -11.6892  -17.4036   15.9212 H         1 5RS         0.0637
     94 H42       -10.0252  -18.2540   14.3526 H         1 5RS         0.0606
     95 H43       -10.9799  -15.1771   11.6252 H         1 5RS         0.0508
     96 H44        -8.5039  -17.2043   10.1556 H         1 5RS         0.0580
     97 H45        -8.9613  -15.6291   10.8877 H         1 5RS         0.0580
     98 H46       -10.2228  -16.6826   10.1627 H         1 5RS         0.0580
     99 H47       -10.5799   -7.4607   14.0124 H         1 5RS         0.2148
    100 H48        -8.9914   -7.6102   11.7552 H         1 5RS         0.0559
    101 H49        -6.5165   -5.8073   12.6634 H         1 5RS         0.0285
    102 H50        -6.3633   -7.0390   11.3649 H         1 5RS         0.0285
    103 H51        -6.9648   -8.9071   13.0660 H         1 5RS         0.0285
    104 H52        -7.1180   -7.6753   14.3645 H         1 5RS         0.0285
@<TRIPOS>BOND
     1   14    1 am 
     2    1   15 2  
     3    1   16 1  
     4    3    2 1  
     5    2    4 1  
     6    2   29 1  
     7   13    3 1  
     8    4   14 1  
     9    6    5 1  
    10    7    6 1  
    11    8    7 1  
    12    9    7 1  
    13    9    8 1  
    14   10    9 1  
    15    9   44 1  
    16   11   10 am 
    17   11   12 2  
    18   11   13 1  
    19   13   14 1  
    20   16   17 1  
    21   16   25 1  
    22   17   18 am 
    23   18   19 2  
    24   18   20 1  
    25   20   21 1  
    26   21   22 1  
    27   21   23 1  
    28   21   24 1  
    29   25   26 1  
    30   25   27 1  
    31   25   28 1  
    32   29   30 1  
    33   30   31 ar 
    34   30   41 ar 
    35   31   32 1  
    36   31   34 ar 
    37   32   33 1  
    38   34   35 ar 
    39   35   36 ar 
    40   35   40 ar 
    41   36   37 ar 
    42   37   38 ar 
    43   38   39 ar 
    44   38   42 1  
    45   39   40 ar 
    46   40   41 ar 
    47   42   43 1  
    48   44   45 2  
    49   44   46 am 
    50   46   47 am 
    51   47   48 2  
    52   47   49 2  
    53   47   50 1  
    54   50   51 1  
    55   50   52 1  
    56   51   52 1  
    57    2   53 1  
    58    3   54 1  
    59    3   55 1  
    60    4   56 1  
    61    4   57 1  
    62    5   58 1  
    63    5   59 1  
    64    5   60 1  
    65    6   61 1  
    66    6   62 1  
    67    7   63 1  
    68    8   64 1  
    69    8   65 1  
    70   10   66 1  
    71   13   67 1  
    72   16   68 1  
    73   17   69 1  
    74   22   70 1  
    75   22   71 1  
    76   22   72 1  
    77   23   73 1  
    78   23   74 1  
    79   23   75 1  
    80   24   76 1  
    81   24   77 1  
    82   24   78 1  
    83   26   79 1  
    84   26   80 1  
    85   26   81 1  
    86   27   82 1  
    87   27   83 1  
    88   27   84 1  
    89   28   85 1  
    90   28   86 1  
    91   28   87 1  
    92   32   88 1  
    93   32   89 1  
    94   33   90 1  
    95   33   91 1  
    96   33   92 1  
    97   36   93 1  
    98   37   94 1  
    99   39   95 1  
   100   43   96 1  
   101   43   97 1  
   102   43   98 1  
   103   46   99 1  
   104   50  100 1  
   105   51  101 1  
   106   51  102 1  
   107   52  103 1  
   108   52  104 1  
@<TRIPOS>SUBSTRUCTURE
     1 5RS         1

