5eqq_ligand
  -I-interpret- 

104108  0  0  0  0  0  0  0  0999 V2000
  -15.9880   -8.8380   14.2530 C   0  0  0  0  0
  -13.8900  -11.4750   12.8240 C   0  0  0  0  0
  -12.8530  -10.5640   13.3310 C   0  0  0  0  0
  -15.0700  -10.6400   12.6200 C   0  0  0  0  0
  -14.5390   -3.7960   14.8680 C   0  0  0  0  0
  -13.4670   -4.2760   15.7980 C   0  0  0  0  0
  -13.4640   -5.6750   16.1070 C   0  0  0  0  0
  -12.4420   -5.9830   17.1580 C   0  0  0  0  0
  -12.2120   -6.4480   15.7160 C   0  0  0  0  0
  -12.5490   -7.7930   15.4590 N   0  0  0  0  0
  -13.1680   -8.1900   14.2340 C   0  0  0  0  0
  -13.2130   -7.4480   13.3040 O   0  0  0  0  0
  -13.6350   -9.6720   14.2480 C   0  0  0  0  0
  -14.9830   -9.6780   13.7190 N   0  0  0  0  0
  -15.7000   -8.1190   15.2080 O   0  0  0  0  0
  -17.3800   -8.8950   13.6590 C   0  0  0  0  0
  -18.3600   -9.0400   14.6850 N   0  0  0  0  0
  -18.5320  -10.3900   15.1520 C   0  0  0  0  0
  -18.4280  -11.3250   14.4550 O   0  0  0  0  0
  -19.4750  -10.3310   16.1270 O   0  0  0  0  0
  -19.9220  -11.5150   16.7270 C   0  0  0  0  0
  -20.6650  -11.0370   17.9650 C   0  0  0  0  0
  -20.8360  -12.3070   15.7880 C   0  0  0  0  0
  -18.7770  -12.4190   17.1710 C   0  0  0  0  0
  -17.6280   -7.5930   12.8190 C   0  0  0  0  0
  -16.5350   -7.4440   11.7990 C   0  0  0  0  0
  -18.9950   -7.7440   12.2520 C   0  0  0  0  0
  -17.6610   -6.4210   13.7370 C   0  0  0  0  0
  -14.3660  -12.4190   13.7950 O   0  0  0  0  0
  -13.5900  -13.5390   14.0570 C   0  0  0  0  0
  -13.8160  -14.1640   15.2560 C   0  0  0  0  0
  -14.8390  -13.5220   16.1670 C   0  0  0  0  0
  -15.4890  -14.4130   17.1260 C   0  0  0  0  0
  -13.1530  -15.2880   15.5490 N   0  0  0  0  0
  -12.2300  -15.7400   14.6630 C   0  0  0  0  0
  -11.5200  -16.8950   14.9790 C   0  0  0  0  0
  -10.6060  -17.3790   14.0840 C   0  0  0  0  0
  -10.4040  -16.8170   12.8990 C   0  0  0  0  0
  -11.1270  -15.6610   12.5840 C   0  0  0  0  0
  -12.0250  -15.1350   13.4870 C   0  0  0  0  0
  -12.7140  -14.0090   13.1830 N   0  0  0  0  0
   -9.4670  -17.3100   11.9850 O   0  0  0  0  0
   -9.2780  -16.6700   10.7260 C   0  0  0  0  0
  -10.9860   -5.8040   15.1350 C   0  0  0  0  0
  -10.6620   -4.7390   15.3980 O   0  0  0  0  0
  -10.2760   -6.5410   14.2610 N   0  0  0  0  0
   -8.9570   -5.9390   13.6310 S   0  0  0  0  0
   -9.4770   -4.8980   12.8360 O   0  0  0  0  0
   -7.9670   -5.5160   14.4080 O   0  0  0  0  0
   -8.3120   -7.1650   12.4970 C   0  0  0  0  0
   -6.8770   -6.7820   12.3030 C   0  0  0  0  0
   -7.2210   -7.8600   13.2850 C   0  0  0  0  0
  -13.4664  -11.9953   11.9650 H   0  0  0  0  0
  -12.3353  -10.0201   12.5409 H   0  0  0  0  0
  -12.0336  -11.0811   13.8303 H   0  0  0  0  0
  -15.9989  -11.2102   12.6289 H   0  0  0  0  0
  -15.0869  -10.1630   11.6401 H   0  0  0  0  0
  -14.4464   -4.3114   13.9120 H   0  0  0  0  0
  -15.5162   -4.0065   15.3025 H   0  0  0  0  0
  -14.4316   -2.7221   14.7152 H   0  0  0  0  0
  -13.6354   -3.7597   16.7431 H   0  0  0  0  0
  -12.5209   -4.0772   15.2945 H   0  0  0  0  0
  -14.5258   -5.8609   15.9451 H   0  0  0  0  0
  -12.4081   -6.4007   18.1642 H   0  0  0  0  0
  -11.8958   -5.4587   17.9422 H   0  0  0  0  0
  -12.3457   -8.5002   16.1654 H   0  0  0  0  0
  -13.5224  -10.0390   15.2682 H   0  0  0  0  0
  -17.4638   -9.7633   13.0055 H   0  0  0  0  0
  -18.8934   -8.2538   15.0560 H   0  0  0  0  0
  -19.9803  -10.4822   18.6065 H   0  0  0  0  0
  -21.4891  -10.3896   17.6652 H   0  0  0  0  0
  -21.0562  -11.8978   18.5074 H   0  0  0  0  0
  -21.7040  -11.7000   15.5305 H   0  0  0  0  0
  -20.2885  -12.5635   14.8811 H   0  0  0  0  0
  -21.1639  -13.2193   16.2863 H   0  0  0  0  0
  -18.1732  -12.6903   16.3050 H   0  0  0  0  0
  -18.1581  -11.8899   17.8957 H   0  0  0  0  0
  -19.1841  -13.3207   17.6286 H   0  0  0  0  0
  -15.5731   -7.3735   12.3068 H   0  0  0  0  0
  -16.5358   -8.3108   11.1382 H   0  0  0  0  0
  -16.7059   -6.5399   11.2146 H   0  0  0  0  0
  -19.0311   -8.6360   11.6267 H   0  0  0  0  0
  -19.7155   -7.8388   13.0644 H   0  0  0  0  0
  -19.2365   -6.8674   11.6509 H   0  0  0  0  0
  -18.4657   -6.5505   14.4607 H   0  0  0  0  0
  -16.7083   -6.3446   14.2610 H   0  0  0  0  0
  -17.8331   -5.5131   13.1590 H   0  0  0  0  0
  -15.6284  -13.1392   15.5202 H   0  0  0  0  0
  -14.3019  -12.7778   16.7550 H   0  0  0  0  0
  -16.0137  -15.2027   16.5884 H   0  0  0  0  0
  -14.7355  -14.8545   17.7783 H   0  0  0  0  0
  -16.2008  -13.8440   17.7240 H   0  0  0  0  0
  -11.6901  -17.4065   15.9264 H   0  0  0  0  0
  -10.0220  -18.2588   14.3541 H   0  0  0  0  0
  -10.9791  -15.1745   11.6199 H   0  0  0  0  0
  -10.2148  -16.6831   10.1689 H   0  0  0  0  0
   -8.9643  -15.6387   10.8876 H   0  0  0  0  0
   -8.5108  -17.2003   10.1618 H   0  0  0  0  0
  -10.5860   -7.4791   14.0075 H   0  0  0  0  0
   -9.1390   -7.4672   11.8544 H   0  0  0  0  0
   -6.2767   -5.8727   12.2735 H   0  0  0  0  0
   -6.1827   -6.6284   11.4769 H   0  0  0  0  0
   -6.9074   -8.8738   13.5341 H   0  0  0  0  0
   -6.9998   -8.1306   14.3174 H   0  0  0  0  0
 14  1  1  0  0  0
  1 15  2  0  0  0
  1 16  1  0  0  0
  3  2  1  0  0  0
  2  4  1  0  0  0
  2 29  1  0  0  0
 13  3  1  0  0  0
  4 14  1  0  0  0
  6  5  1  0  0  0
  7  6  1  0  0  0
  8  7  1  0  0  0
  9  7  1  0  0  0
  9  8  1  0  0  0
 10  9  1  0  0  0
  9 44  1  0  0  0
 11 10  1  0  0  0
 11 12  2  0  0  0
 11 13  1  0  0  0
 13 14  1  0  0  0
 16 17  1  0  0  0
 16 25  1  0  0  0
 17 18  1  0  0  0
 18 19  2  0  0  0
 18 20  1  0  0  0
 20 21  1  0  0  0
 21 22  1  0  0  0
 21 23  1  0  0  0
 21 24  1  0  0  0
 25 26  1  0  0  0
 25 27  1  0  0  0
 25 28  1  0  0  0
 29 30  1  0  0  0
 30 31  4  0  0  0
 30 41  4  0  0  0
 31 32  1  0  0  0
 31 34  4  0  0  0
 32 33  1  0  0  0
 34 35  4  0  0  0
 35 36  4  0  0  0
 35 40  4  0  0  0
 36 37  4  0  0  0
 37 38  4  0  0  0
 38 39  4  0  0  0
 38 42  1  0  0  0
 39 40  4  0  0  0
 40 41  4  0  0  0
 42 43  1  0  0  0
 44 45  2  0  0  0
 44 46  1  0  0  0
 46 47  1  0  0  0
 47 48  2  0  0  0
 47 49  2  0  0  0
 47 50  1  0  0  0
 50 51  1  0  0  0
 50 52  1  0  0  0
 51 52  1  0  0  0
  2 53  1  0  0  0
  3 54  1  0  0  0
  3 55  1  0  0  0
  4 56  1  0  0  0
  4 57  1  0  0  0
  5 58  1  0  0  0
  5 59  1  0  0  0
  5 60  1  0  0  0
  6 61  1  0  0  0
  6 62  1  0  0  0
  7 63  1  0  0  0
  8 64  1  0  0  0
  8 65  1  0  0  0
 10 66  1  0  0  0
 13 67  1  0  0  0
 16 68  1  0  0  0
 17 69  1  0  0  0
 22 70  1  0  0  0
 22 71  1  0  0  0
 22 72  1  0  0  0
 23 73  1  0  0  0
 23 74  1  0  0  0
 23 75  1  0  0  0
 24 76  1  0  0  0
 24 77  1  0  0  0
 24 78  1  0  0  0
 26 79  1  0  0  0
 26 80  1  0  0  0
 26 81  1  0  0  0
 27 82  1  0  0  0
 27 83  1  0  0  0
 27 84  1  0  0  0
 28 85  1  0  0  0
 28 86  1  0  0  0
 28 87  1  0  0  0
 32 88  1  0  0  0
 32 89  1  0  0  0
 33 90  1  0  0  0
 33 91  1  0  0  0
 33 92  1  0  0  0
 36 93  1  0  0  0
 37 94  1  0  0  0
 39 95  1  0  0  0
 43 96  1  0  0  0
 43 97  1  0  0  0
 43 98  1  0  0  0
 46 99  1  0  0  0
 50100  1  0  0  0
 51101  1  0  0  0
 51102  1  0  0  0
 52103  1  0  0  0
 52104  1  0  0  0
M  END
$$$$
