5u98_ligand
  -I-interpret- 

151150  0  0  0  0  0  0  0  0999 V2000
   31.8810    1.9920   -3.9950 N   0  3  0  0  0
   31.6090    3.4130   -4.1420 C   0  0  0  0  0
   30.2360    3.5810   -4.7930 C   0  0  0  0  0
   29.8180    2.7680   -5.6340 O   0  0  0  0  0
   32.7330    4.1230   -4.9730 C   0  0  0  0  0
   32.5490    3.9120   -6.4730 C   0  0  0  0  0
   32.8200    5.6070   -4.6320 C   0  0  0  0  0
   29.5190    4.6120   -4.3720 N   0  0  0  0  0
   28.2020    4.9110   -4.9220 C   0  0  0  0  0
   28.2990    5.5120   -6.3110 C   0  0  0  0  0
   29.3370    6.0730   -6.6940 O   0  0  0  0  0
   27.4390    5.9100   -4.0610 C   0  0  0  0  0
   28.2230    7.1010   -3.9350 O   0  0  0  0  0
   27.1200    5.3310   -2.6630 C   0  0  0  0  0
   27.2050    5.4300   -7.0550 N   0  0  0  0  0
   27.1570    6.0600   -8.3690 C   0  0  0  0  0
   26.8250    7.5430   -8.2230 C   0  0  0  0  0
   26.0630    7.9290   -7.3360 O   0  0  0  0  0
   26.1390    5.3710   -9.3110 C   0  0  0  0  0
   26.1710    6.0130  -10.5910 O   0  0  0  0  0
   24.7000    5.4250   -8.7630 C   0  0  0  0  0
   27.4370    8.3630   -9.0800 N   0  0  0  0  0
   27.1750    9.8000   -9.1670 C   0  0  0  0  0
   25.9350   10.1510   -9.9770 C   0  0  0  0  0
   25.5440   11.3170  -10.0290 O   0  0  0  0  0
   28.3650   10.5220   -9.8230 C   0  0  0  0  0
   29.5350   10.6470   -8.9020 C   0  0  0  0  0
   29.3450   10.3760   -7.6970 O   0  0  0  0  0
   30.6310   11.0150   -9.3750 O   0  0  0  0  0
   25.3640    9.1700  -10.6620 N   0  0  0  0  0
   24.2950    9.4500  -11.6180 C   0  0  0  0  0
   23.1030   10.0700  -10.8990 C   0  0  0  0  0
   22.6680    9.5560   -9.8780 O   0  0  0  0  0
   23.8760    8.1710  -12.3630 C   0  0  0  0  0
   25.0350    7.6560  -13.2360 C   0  0  0  0  0
   22.6060    8.3990  -13.1990 C   0  0  0  0  0
   24.9040    6.1790  -13.6000 C   0  0  0  0  0
   22.6160   11.2050  -11.4000 N   0  0  0  0  0
   21.4150   11.8280  -10.8500 C   0  0  0  0  0
   20.3290   11.8260  -11.9240 C   0  0  0  0  0
   20.5190   12.4340  -12.9770 O   0  0  0  0  0
   21.7020   13.2530  -10.3740 C   0  0  0  0  0
   22.8550   13.3690   -9.3640 C   0  0  0  0  0
   22.5370   12.7720   -7.9910 C   0  0  0  0  0
   21.4380   12.9390   -7.4750 O   0  0  0  0  0
   23.5140   12.0780   -7.3900 N   0  0  0  0  0
   19.2190   11.1210  -11.6820 N   0  0  0  0  0
   18.1050   11.1160  -12.6350 C   0  0  0  0  0
   16.7740   11.4750  -11.9880 C   0  0  0  0  0
   16.4960   11.1000  -10.8430 O   0  0  0  0  0
   17.9380    9.7500  -13.3620 C   0  0  0  0  0
   19.0770    9.5390  -14.3710 C   0  0  0  0  0
   17.8360    8.5890  -12.3810 C   0  0  0  0  0
   15.9660   12.2210  -12.7400 N   0  0  0  0  0
   14.5940   12.5360  -12.3640 C   0  0  0  0  0
   13.6590   11.4460  -12.8690 C   0  0  0  0  0
   13.8140   10.9460  -13.9830 O   0  0  0  0  0
   14.1710   13.8900  -12.9300 C   0  0  0  0  0
   14.8680   15.0840  -12.2930 C   0  0  0  0  0
   14.2740   16.3780  -12.8380 C   0  0  0  0  0
   14.6090   17.5750  -11.9630 C   0  0  0  0  0
   16.0450   17.9540  -12.0560 N   0  3  0  0  0
   12.6890   11.0640  -12.0500 N   0  0  0  0  0
   11.7350   10.0530  -12.4780 C   0  0  0  0  0
   10.6680   10.7250  -13.3340 C   0  0  0  0  0
   10.6290   11.9510  -13.3960 O   0  0  0  0  0
   11.0800    9.3320  -11.2750 C   0  0  0  0  0
   12.1640    8.6190  -10.4230 C   0  0  0  0  0
   10.2860   10.3130  -10.4420 C   0  0  0  0  0
    9.8380   10.0820  -13.9740 O   0  0  0  0  0
   31.1346    1.5586   -3.4515 H   0  0  0  0  0
   31.9273    1.5587   -4.9172 H   0  0  0  0  0
   32.7713    1.8655   -3.5135 H   0  0  0  0  0
   31.6023    3.8885   -3.1612 H   0  0  0  0  0
   33.6796    3.6598   -4.6948 H   0  0  0  0  0
   31.6290    4.3986   -6.7969 H   0  0  0  0  0
   33.3966    4.3430   -7.0059 H   0  0  0  0  0
   32.4905    2.8442   -6.6839 H   0  0  0  0  0
   33.6693    6.0490   -5.1529 H   0  0  0  0  0
   31.9018    6.1046   -4.9439 H   0  0  0  0  0
   32.9509    5.7242   -3.5563 H   0  0  0  0  0
   29.8991    5.2143   -3.6419 H   0  0  0  0  0
   27.6764    3.9565   -4.9517 H   0  0  0  0  0
   26.4875    6.1338   -4.5434 H   0  0  0  0  0
   27.7508    7.7378   -3.3937 H   0  0  0  0  0
   26.5098    4.4345   -2.7730 H   0  0  0  0  0
   28.0506    5.0785   -2.1547 H   0  0  0  0  0
   26.5756    6.0733   -2.0793 H   0  0  0  0  0
   26.3916    4.9230   -6.7061 H   0  0  0  0  0
   28.1416    5.9496   -8.8235 H   0  0  0  0  0
   26.4262    4.3225   -9.3904 H   0  0  0  0  0
   25.5407    5.5876  -11.1769 H   0  0  0  0  0
   24.6610    4.9200   -7.7978 H   0  0  0  0  0
   24.3971    6.4652   -8.6428 H   0  0  0  0  0
   24.0275    4.9279   -9.4620 H   0  0  0  0  0
   28.1298    7.9635   -9.7131 H   0  0  0  0  0
   27.0173   10.1230   -8.1380 H   0  0  0  0  0
   28.0412   11.5268  -10.0945 H   0  0  0  0  0
   28.6783    9.9375  -10.6881 H   0  0  0  0  0
   28.4293   10.1178   -7.5688 H   0  0  0  0  0
   25.6745    8.2088  -10.5201 H   0  0  0  0  0
   24.6670   10.1596  -12.3571 H   0  0  0  0  0
   23.6404    7.4074  -11.6217 H   0  0  0  0  0
   25.9562    7.7750  -12.6656 H   0  0  0  0  0
   25.0278    8.2268  -14.1646 H   0  0  0  0  0
   21.7898    8.7007  -12.5426 H   0  0  0  0  0
   22.7919    9.1826  -13.9335 H   0  0  0  0  0
   22.3391    7.4748  -13.7115 H   0  0  0  0  0
   24.8871    5.5816  -12.6885 H   0  0  0  0  0
   23.9788    6.0236  -14.1550 H   0  0  0  0  0
   25.7529    5.8811  -14.2155 H   0  0  0  0  0
   23.0928   11.6485  -12.1851 H   0  0  0  0  0
   21.0778   11.2598   -9.9831 H   0  0  0  0  0
   20.8020   13.6086   -9.8723 H   0  0  0  0  0
   21.9889   13.8306  -11.2527 H   0  0  0  0  0
   23.0535   14.4308   -9.2183 H   0  0  0  0  0
   23.7005   12.8146   -9.7713 H   0  0  0  0  0
   23.3558   11.6667   -6.4701 H   0  0  0  0  0
   24.4155   11.9613   -7.8526 H   0  0  0  0  0
   19.1462   10.5785  -10.8213 H   0  0  0  0  0
   18.3706   11.8817  -13.3639 H   0  0  0  0  0
   16.9958    9.7763  -13.9095 H   0  0  0  0  0
   19.0591   10.3401  -15.1099 H   0  0  0  0  0
   20.0322    9.5485  -13.8460 H   0  0  0  0  0
   18.9450    8.5792  -14.8705 H   0  0  0  0  0
   18.7422    8.5448  -11.7769 H   0  0  0  0  0
   16.9725    8.7376  -11.7327 H   0  0  0  0  0
   17.7206    7.6568  -12.9340 H   0  0  0  0  0
   16.3249   12.5892  -13.6209 H   0  0  0  0  0
   14.5369   12.5877  -11.2767 H   0  0  0  0  0
   13.1046   13.9998  -12.7329 H   0  0  0  0  0
   14.4364   13.8916  -13.9872 H   0  0  0  0  0
   15.9318   15.0483  -12.5276 H   0  0  0  0  0
   14.7279   15.0495  -11.2126 H   0  0  0  0  0
   13.1897   16.2694  -12.8644 H   0  0  0  0  0
   14.6934   16.5535  -13.8287 H   0  0  0  0  0
   14.3944   17.3094  -10.9279 H   0  0  0  0  0
   14.0119   18.4213  -12.3026 H   0  0  0  0  0
   16.2227   18.7585  -11.4547 H   0  0  0  0  0
   16.6227   17.1690  -11.7553 H   0  0  0  0  0
   16.2704   18.1933  -13.0216 H   0  0  0  0  0
   12.6119   11.4784  -11.1212 H   0  0  0  0  0
   12.2639    9.2944  -13.0550 H   0  0  0  0  0
   10.3905    8.5746  -11.6479 H   0  0  0  0  0
   12.6845    7.8858  -11.0392 H   0  0  0  0  0
   12.8767    9.3562  -10.0532 H   0  0  0  0  0
   11.6894    8.1161   -9.5804 H   0  0  0  0  0
   10.9503   11.0933  -10.0706 H   0  0  0  0  0
    9.5051   10.7609  -11.0566 H   0  0  0  0  0
    9.8323    9.7894   -9.6005 H   0  0  0  0  0
    9.9847    9.1436  -13.8341 H   0  0  0  0  0
  1  2  1  0  0  0
  2  3  1  0  0  0
  2  5  1  0  0  0
  3  4  2  0  0  0
  3  8  1  0  0  0
  5  6  1  0  0  0
  5  7  1  0  0  0
  8  9  1  0  0  0
  9 10  1  0  0  0
  9 12  1  0  0  0
 10 11  2  0  0  0
 10 15  1  0  0  0
 12 13  1  0  0  0
 12 14  1  0  0  0
 15 16  1  0  0  0
 16 17  1  0  0  0
 16 19  1  0  0  0
 17 18  2  0  0  0
 17 22  1  0  0  0
 19 20  1  0  0  0
 19 21  1  0  0  0
 22 23  1  0  0  0
 23 24  1  0  0  0
 23 26  1  0  0  0
 24 25  2  0  0  0
 24 30  1  0  0  0
 26 27  1  0  0  0
 27 28  1  0  0  0
 27 29  2  0  0  0
 30 31  1  0  0  0
 31 32  1  0  0  0
 31 34  1  0  0  0
 32 33  2  0  0  0
 32 38  1  0  0  0
 34 35  1  0  0  0
 34 36  1  0  0  0
 35 37  1  0  0  0
 38 39  1  0  0  0
 39 40  1  0  0  0
 39 42  1  0  0  0
 40 41  2  0  0  0
 40 47  1  0  0  0
 42 43  1  0  0  0
 43 44  1  0  0  0
 44 45  2  0  0  0
 44 46  1  0  0  0
 47 48  1  0  0  0
 48 49  1  0  0  0
 48 51  1  0  0  0
 49 50  2  0  0  0
 49 54  1  0  0  0
 51 52  1  0  0  0
 51 53  1  0  0  0
 54 55  1  0  0  0
 55 56  1  0  0  0
 55 58  1  0  0  0
 56 57  2  0  0  0
 56 63  1  0  0  0
 58 59  1  0  0  0
 59 60  1  0  0  0
 60 61  1  0  0  0
 61 62  1  0  0  0
 63 64  1  0  0  0
 64 65  1  0  0  0
 64 67  1  0  0  0
 65 66  2  0  0  0
 65 70  1  0  0  0
 67 68  1  0  0  0
 67 69  1  0  0  0
  1 71  1  0  0  0
  1 72  1  0  0  0
  1 73  1  0  0  0
  2 74  1  0  0  0
  5 75  1  0  0  0
  6 76  1  0  0  0
  6 77  1  0  0  0
  6 78  1  0  0  0
  7 79  1  0  0  0
  7 80  1  0  0  0
  7 81  1  0  0  0
  8 82  1  0  0  0
  9 83  1  0  0  0
 12 84  1  0  0  0
 13 85  1  0  0  0
 14 86  1  0  0  0
 14 87  1  0  0  0
 14 88  1  0  0  0
 15 89  1  0  0  0
 16 90  1  0  0  0
 19 91  1  0  0  0
 20 92  1  0  0  0
 21 93  1  0  0  0
 21 94  1  0  0  0
 21 95  1  0  0  0
 22 96  1  0  0  0
 23 97  1  0  0  0
 26 98  1  0  0  0
 26 99  1  0  0  0
 28100  1  0  0  0
 30101  1  0  0  0
 31102  1  0  0  0
 34103  1  0  0  0
 35104  1  0  0  0
 35105  1  0  0  0
 36106  1  0  0  0
 36107  1  0  0  0
 36108  1  0  0  0
 37109  1  0  0  0
 37110  1  0  0  0
 37111  1  0  0  0
 38112  1  0  0  0
 39113  1  0  0  0
 42114  1  0  0  0
 42115  1  0  0  0
 43116  1  0  0  0
 43117  1  0  0  0
 46118  1  0  0  0
 46119  1  0  0  0
 47120  1  0  0  0
 48121  1  0  0  0
 51122  1  0  0  0
 52123  1  0  0  0
 52124  1  0  0  0
 52125  1  0  0  0
 53126  1  0  0  0
 53127  1  0  0  0
 53128  1  0  0  0
 54129  1  0  0  0
 55130  1  0  0  0
 58131  1  0  0  0
 58132  1  0  0  0
 59133  1  0  0  0
 59134  1  0  0  0
 60135  1  0  0  0
 60136  1  0  0  0
 61137  1  0  0  0
 61138  1  0  0  0
 62139  1  0  0  0
 62140  1  0  0  0
 62141  1  0  0  0
 63142  1  0  0  0
 64143  1  0  0  0
 67144  1  0  0  0
 68145  1  0  0  0
 68146  1  0  0  0
 68147  1  0  0  0
 69148  1  0  0  0
 69149  1  0  0  0
 69150  1  0  0  0
 70151  1  0  0  0
M  END
$$$$
