### 
### Created by X-TOOL on Tue Oct 16 15:17:44 2018
### 

@<TRIPOS>MOLECULE
5u98_ligand
  149   148     1     0     0
SMALL
GAST_HUCK


@<TRIPOS>ATOM
      1 N          31.8810    1.9920   -3.9950 N.4       1 VAL         0.2381
      2 CA         31.6090    3.4130   -4.1420 C.3       1 VAL         0.0673
      3 C          30.2360    3.5810   -4.7930 C.2       1 VAL         0.2270
      4 O          29.8180    2.7680   -5.6340 O.2       1 VAL        -0.3907
      5 CB         32.7330    4.1230   -4.9730 C.3       1 VAL         0.0139
      6 CG1        32.5490    3.9120   -6.4730 C.3       1 VAL        -0.0553
      7 CG2        32.8200    5.6070   -4.6320 C.3       1 VAL        -0.0553
      8 N          29.5190    4.6120   -4.3720 N.am      1 VAL        -0.2586
      9 CA         28.2020    4.9110   -4.9220 C.3       1 VAL         0.1566
     10 C          28.2990    5.5120   -6.3110 C.2       1 VAL         0.2065
     11 O          29.3370    6.0730   -6.6940 O.2       1 VAL        -0.3943
     12 CB         27.4390    5.9100   -4.0610 C.3       1 VAL         0.0924
     13 OG1        28.2230    7.1010   -3.9350 O.3       1 VAL        -0.3874
     14 CG2        27.1200    5.3310   -2.6630 C.3       1 VAL        -0.0346
     15 N          27.2050    5.4300   -7.0550 N.am      1 VAL        -0.2613
     16 CA         27.1570    6.0600   -8.3690 C.3       1 VAL         0.1565
     17 C          26.8250    7.5430   -8.2230 C.2       1 VAL         0.2066
     18 O          26.0630    7.9290   -7.3360 O.2       1 VAL        -0.3943
     19 CB         26.1390    5.3710   -9.3110 C.3       1 VAL         0.0924
     20 OG1        26.1710    6.0130  -10.5910 O.3       1 VAL        -0.3874
     21 CG2        24.7000    5.4250   -8.7630 C.3       1 VAL        -0.0346
     22 N          27.4370    8.3630   -9.0800 N.am      1 VAL        -0.2621
     23 CA         27.1750    9.8000   -9.1670 C.3       1 VAL         0.1423
     24 C          25.9350   10.1510   -9.9770 C.2       1 VAL         0.2056
     25 O          25.5440   11.3170  -10.0290 O.2       1 VAL        -0.3943
     26 CB         28.3650   10.5220   -9.8230 C.3       1 VAL         0.0406
     27 CG         29.5350   10.6470   -8.9020 C.2       1 VAL         0.0393
     28 OD1        29.3450   10.3760   -7.6970 O.co2     1 VAL        -0.5688
     29 OD2        30.6310   11.0150   -9.3750 O.co2     1 VAL        -0.5688
     30 N          25.3640    9.1700  -10.6620 N.am      1 VAL        -0.2634
     31 CA         24.2950    9.4500  -11.6180 C.3       1 VAL         0.1335
     32 C          23.1030   10.0700  -10.8990 C.2       1 VAL         0.2042
     33 O          22.6680    9.5560   -9.8780 O.2       1 VAL        -0.3944
     34 CB         23.8760    8.1710  -12.3630 C.3       1 VAL        -0.0037
     35 CG1        25.0350    7.6560  -13.2360 C.3       1 VAL        -0.0491
     36 CG2        22.6060    8.3990  -13.1990 C.3       1 VAL        -0.0582
     37 CD1        24.9040    6.1790  -13.6000 C.3       1 VAL        -0.0648
     38 N          22.6160   11.2050  -11.4000 N.am      1 VAL        -0.2636
     39 CA         21.4150   11.8280  -10.8500 C.3       1 VAL         0.1330
     40 C          20.3290   11.8260  -11.9240 C.2       1 VAL         0.2041
     41 O          20.5190   12.4340  -12.9770 O.2       1 VAL        -0.3944
     42 CB         21.7020   13.2530  -10.3740 C.3       1 VAL         0.0045
     43 CG         22.8550   13.3690   -9.3640 C.3       1 VAL         0.0412
     44 CD         22.5370   12.7720   -7.9910 C.2       1 VAL         0.1737
     45 OE1        21.4380   12.9390   -7.4750 O.2       1 VAL        -0.3973
     46 NE2        23.5140   12.0780   -7.3900 N.am      1 VAL        -0.3009
     47 N          19.2190   11.1210  -11.6820 N.am      1 VAL        -0.2635
     48 CA         18.1050   11.1160  -12.6350 C.3       1 VAL         0.1332
     49 C          16.7740   11.4750  -11.9880 C.2       1 VAL         0.2041
     50 O          16.4960   11.1000  -10.8430 O.2       1 VAL        -0.3944
     51 CB         17.9380    9.7500  -13.3620 C.3       1 VAL        -0.0063
     52 CG1        19.0770    9.5390  -14.3710 C.3       1 VAL        -0.0584
     53 CG2        17.8360    8.5890  -12.3810 C.3       1 VAL        -0.0584
     54 N          15.9660   12.2210  -12.7400 N.am      1 VAL        -0.2637
     55 CA         14.5940   12.5360  -12.3640 C.3       1 VAL         0.1309
     56 C          13.6590   11.4460  -12.8690 C.2       1 VAL         0.2033
     57 O          13.8140   10.9460  -13.9830 O.2       1 VAL        -0.3944
     58 CB         14.1710   13.8900  -12.9300 C.3       1 VAL        -0.0122
     59 CG         14.8680   15.0840  -12.2930 C.3       1 VAL        -0.0440
     60 CD         14.2740   16.3780  -12.8380 C.3       1 VAL        -0.0124
     61 CE         14.6090   17.5750  -11.9630 C.3       1 VAL        -0.0354
     62 NZ         16.0450   17.9540  -12.0560 N.4       1 VAL         0.2185
     63 N          12.6890   11.0640  -12.0500 N.am      1 VAL        -0.2692
     64 CA         11.7350   10.0530  -12.4780 C.3       1 VAL         0.0967
     65 C          10.6680   10.7250  -13.3340 C.2       1 VAL         0.0603
     66 O          10.6290   11.9510  -13.3960 O.co2     1 VAL        -0.5666
     67 CB         11.0800    9.3320  -11.2750 C.3       1 VAL        -0.0118
     68 CG1        12.1640    8.6190  -10.4230 C.3       1 VAL        -0.0590
     69 CG2        10.2860   10.3130  -10.4420 C.3       1 VAL        -0.0590
     70 OXT         9.8380   10.0820  -13.9740 O.co2     1 VAL        -0.5666
     71 H1         31.1439    1.5626   -3.4580 H         1 VAL         0.2015
     72 H2         32.7606    1.8657   -3.5192 H         1 VAL         0.2015
     73 H3         31.9269    1.5627   -4.9058 H         1 VAL         0.2015
     74 H4         31.5820    3.8718   -3.1426 H         1 VAL         0.1101
     75 H5         33.6911    3.6620   -4.6910 H         1 VAL         0.0376
     76 H6         33.3559    4.4247   -7.0171 H         1 VAL         0.0236
     77 H7         31.5776    4.3234   -6.7847 H         1 VAL         0.0236
     78 H8         32.5809    2.8359   -6.6986 H         1 VAL         0.0236
     79 H9         32.9521    5.7266   -3.5465 H         1 VAL         0.0236
     80 H10        31.8938    6.1104   -4.9463 H         1 VAL         0.0236
     81 H11        33.6768    6.0543   -5.1571 H         1 VAL         0.0236
     82 H12        29.8917    5.2025   -3.6562 H         1 VAL         0.1885
     83 H13        27.6315    3.9720   -4.9743 H         1 VAL         0.0826
     84 H14        26.4905    6.1558   -4.5609 H         1 VAL         0.0639
     85 H15        29.0538    6.8900   -3.5256 H         1 VAL         0.2101
     86 H16        26.5705    6.0793   -2.0729 H         1 VAL         0.0257
     87 H17        28.0584    5.0758   -2.1490 H         1 VAL         0.0257
     88 H18        26.5041    4.4262   -2.7726 H         1 VAL         0.0257
     89 H19        26.4076    4.9329   -6.7129 H         1 VAL         0.1884
     90 H20        28.1540    5.9712   -8.8252 H         1 VAL         0.0826
     91 H21        26.4299    4.3166   -9.4276 H         1 VAL         0.0639
     92 H22        27.0443    5.9417  -10.9581 H         1 VAL         0.2101
     93 H23        24.0203    4.9236   -9.4677 H         1 VAL         0.0257
     94 H24        24.3931    6.4743   -8.6413 H         1 VAL         0.0257
     95 H25        24.6592    4.9157   -7.7889 H         1 VAL         0.0257
     96 H26        28.1162    7.9713   -9.7007 H         1 VAL         0.1884
     97 H27        27.0416   10.1806   -8.1436 H         1 VAL         0.0819
     98 H28        28.0438   11.5299  -10.1244 H         1 VAL         0.0478
     99 H29        28.6753    9.9546  -10.7128 H         1 VAL         0.0478
    100 H30        25.6684    8.2277  -10.5228 H         1 VAL         0.1883
    101 H31        24.6703   10.1727  -12.3575 H         1 VAL         0.0803
    102 H32        23.6489    7.4003  -11.6117 H         1 VAL         0.0345
    103 H33        25.9769    7.7982  -12.6859 H         1 VAL         0.0267
    104 H34        25.0607    8.2440  -14.1653 H         1 VAL         0.0267
    105 H35        21.7991    8.7657  -12.5475 H         1 VAL         0.0235
    106 H36        22.2987    7.4512  -13.6651 H         1 VAL         0.0235
    107 H37        22.8114    9.1432  -13.9825 H         1 VAL         0.0235
    108 H38        25.7602    5.8772  -14.2212 H         1 VAL         0.0230
    109 H39        23.9707    6.0208  -14.1602 H         1 VAL         0.0230
    110 H40        24.8869    5.5749  -12.6809 H         1 VAL         0.0230
    111 H41        23.0834   11.6398  -12.1697 H         1 VAL         0.1883
    112 H42        21.0687   11.2362   -9.9899 H         1 VAL         0.0801
    113 H43        20.7904   13.6472   -9.9011 H         1 VAL         0.0337
    114 H44        21.9529   13.8647  -11.2531 H         1 VAL         0.0337
    115 H45        23.0941   14.4345   -9.2317 H         1 VAL         0.0504
    116 H46        23.7303   12.8451   -9.7755 H         1 VAL         0.0504
    117 H47        23.3562   11.6679   -6.4917 H         1 VAL         0.1814
    118 H48        24.4005   11.9704   -7.8400 H         1 VAL         0.1814
    119 H49        19.1476   10.5891  -10.8382 H         1 VAL         0.1883
    120 H50        18.3285   11.8788  -13.3954 H         1 VAL         0.0802
    121 H51        16.9944    9.7867  -13.9261 H         1 VAL         0.0343
    122 H52        18.9449    8.5706  -14.8758 H         1 VAL         0.0234
    123 H53        20.0416    9.5483  -13.8424 H         1 VAL         0.0234
    124 H54        19.0601   10.3469  -15.1174 H         1 VAL         0.0234
    125 H55        17.0120    8.7755  -11.6766 H         1 VAL         0.0234
    126 H56        18.7801    8.4953  -11.8243 H         1 VAL         0.0234
    127 H57        17.6422    7.6579  -12.9337 H         1 VAL         0.0234
    128 H58        16.3179   12.5820  -13.6036 H         1 VAL         0.1883
    129 H59        14.5305   12.5786  -11.2667 H         1 VAL         0.0800
    130 H60        13.0874   14.0030  -12.7780 H         1 VAL         0.0312
    131 H61        14.3928   13.8969  -14.0074 H         1 VAL         0.0312
    132 H62        15.9421   15.0479  -12.5273 H         1 VAL         0.0269
    133 H63        14.7292   15.0491  -11.2024 H         1 VAL         0.0269
    134 H64        13.1804   16.2719  -12.8899 H         1 VAL         0.0317
    135 H65        14.6737   16.5540  -13.8476 H         1 VAL         0.0317
    136 H66        14.3752   17.3261  -10.9173 H         1 VAL         0.0813
    137 H67        13.9954   18.4303  -12.2824 H         1 VAL         0.0813
    138 H68        16.2218   18.7490  -11.4621 H         1 VAL         0.1994
    139 H69        16.2689   18.1908  -13.0098 H         1 VAL         0.1994
    140 H70        16.6170   17.1790  -11.7590 H         1 VAL         0.1994
    141 H71        12.6134   11.4703  -11.1394 H         1 VAL         0.1875
    142 H72        12.2635    9.3037  -13.0857 H         1 VAL         0.0729
    143 H73        10.3879    8.5692  -11.6611 H         1 VAL         0.0336
    144 H74        11.6862    8.1110   -9.5723 H         1 VAL         0.0234
    145 H75        12.8839    9.3619  -10.0492 H         1 VAL         0.0234
    146 H76        12.6900    7.8787  -11.0437 H         1 VAL         0.0234
    147 H77         9.5281   10.8004  -11.0729 H         1 VAL         0.0234
    148 H78        10.9631   11.0745  -10.0278 H         1 VAL         0.0234
    149 H79         9.7892    9.7777   -9.6195 H         1 VAL         0.0234
@<TRIPOS>BOND
     1    1    2 1  
     2    2    3 1  
     3    2    5 1  
     4    3    4 2  
     5    3    8 am 
     6    5    6 1  
     7    5    7 1  
     8    8    9 1  
     9    9   10 1  
    10    9   12 1  
    11   10   11 2  
    12   10   15 am 
    13   12   13 1  
    14   12   14 1  
    15   15   16 1  
    16   16   17 1  
    17   16   19 1  
    18   17   18 2  
    19   17   22 am 
    20   19   20 1  
    21   19   21 1  
    22   22   23 1  
    23   23   24 1  
    24   23   26 1  
    25   24   25 2  
    26   24   30 am 
    27   26   27 1  
    28   27   28 ar 
    29   27   29 ar 
    30   30   31 1  
    31   31   32 1  
    32   31   34 1  
    33   32   33 2  
    34   32   38 am 
    35   34   35 1  
    36   34   36 1  
    37   35   37 1  
    38   38   39 1  
    39   39   40 1  
    40   39   42 1  
    41   40   41 2  
    42   40   47 am 
    43   42   43 1  
    44   43   44 1  
    45   44   45 2  
    46   44   46 am 
    47   47   48 1  
    48   48   49 1  
    49   48   51 1  
    50   49   50 2  
    51   49   54 am 
    52   51   52 1  
    53   51   53 1  
    54   54   55 1  
    55   55   56 1  
    56   55   58 1  
    57   56   57 2  
    58   56   63 am 
    59   58   59 1  
    60   59   60 1  
    61   60   61 1  
    62   61   62 1  
    63   63   64 1  
    64   64   65 1  
    65   64   67 1  
    66   65   66 ar 
    67   65   70 ar 
    68   67   68 1  
    69   67   69 1  
    70    1   71 1  
    71    1   72 1  
    72    1   73 1  
    73    2   74 1  
    74    5   75 1  
    75    6   76 1  
    76    6   77 1  
    77    6   78 1  
    78    7   79 1  
    79    7   80 1  
    80    7   81 1  
    81    8   82 1  
    82    9   83 1  
    83   12   84 1  
    84   13   85 1  
    85   14   86 1  
    86   14   87 1  
    87   14   88 1  
    88   15   89 1  
    89   16   90 1  
    90   19   91 1  
    91   20   92 1  
    92   21   93 1  
    93   21   94 1  
    94   21   95 1  
    95   22   96 1  
    96   23   97 1  
    97   26   98 1  
    98   26   99 1  
    99   30  100 1  
   100   31  101 1  
   101   34  102 1  
   102   35  103 1  
   103   35  104 1  
   104   36  105 1  
   105   36  106 1  
   106   36  107 1  
   107   37  108 1  
   108   37  109 1  
   109   37  110 1  
   110   38  111 1  
   111   39  112 1  
   112   42  113 1  
   113   42  114 1  
   114   43  115 1  
   115   43  116 1  
   116   46  117 1  
   117   46  118 1  
   118   47  119 1  
   119   48  120 1  
   120   51  121 1  
   121   52  122 1  
   122   52  123 1  
   123   52  124 1  
   124   53  125 1  
   125   53  126 1  
   126   53  127 1  
   127   54  128 1  
   128   55  129 1  
   129   58  130 1  
   130   58  131 1  
   131   59  132 1  
   132   59  133 1  
   133   60  134 1  
   134   60  135 1  
   135   61  136 1  
   136   61  137 1  
   137   62  138 1  
   138   62  139 1  
   139   62  140 1  
   140   63  141 1  
   141   64  142 1  
   142   67  143 1  
   143   68  144 1  
   144   68  145 1  
   145   68  146 1  
   146   69  147 1  
   147   69  148 1  
   148   69  149 1  
@<TRIPOS>SUBSTRUCTURE
     1 VAL         1

