4k5l_ligand
  -I-interpret- 

 32 31  0  0  0  0  0  0  0  0999 V2000
   11.4870   10.1340   19.9280 N   0  0  0  0  0
   12.4270    9.9260   19.0780 C   0  0  0  0  0
   13.0370    8.7340   19.0130 N   0  0  0  0  0
   12.8310   10.9260   18.2940 N   0  0  0  0  0
   12.7920   10.9930   16.8400 C   0  0  0  0  0
   12.0410   12.2180   16.3520 C   0  0  0  0  0
   12.5680   12.7800   15.0300 C   0  0  0  0  0
   12.6090   11.7710   13.8540 C   0  0  0  0  0
   12.5310   12.6560   12.6140 C   0  0  0  0  0
   11.1310   12.8580   12.1760 N   0  3  0  0  0
   13.3680   11.8250   11.2320 P   0  0  0  0  0
   12.4260   10.6750   10.9060 O   0  0  0  0  0
   13.2510   12.7380    9.9780 O   0  0  0  0  0
   14.8480   11.5420   11.5480 O   0  0  0  0  0
   11.0577   11.0566   19.9981 H   0  0  0  0  0
   12.7556    7.9821   19.6422 H   0  0  0  0  0
   13.7825    8.5789   18.3343 H   0  0  0  0  0
   13.2136   11.7427   18.7704 H   0  0  0  0  0
   12.2778   10.1060   16.4699 H   0  0  0  0  0
   13.8165   11.0502   16.4722 H   0  0  0  0  0
   12.1619   12.9952   17.1066 H   0  0  0  0  0
   11.0052   11.9204   16.1886 H   0  0  0  0  0
   13.5965   13.0925   15.2105 H   0  0  0  0  0
   11.8860   13.5774   14.7347 H   0  0  0  0  0
   11.7956   11.0468   13.8994 H   0  0  0  0  0
   13.5070   11.1533   13.8677 H   0  0  0  0  0
   12.9902   13.6103   12.8719 H   0  0  0  0  0
   10.6080   13.3244   12.9172 H   0  0  0  0  0
   11.1190   13.4350   11.3350 H   0  0  0  0  0
   10.7049   11.9533   11.9752 H   0  0  0  0  0
   13.8178   13.5050   10.0880 H   0  0  0  0  0
   15.2991   12.3696   11.7301 H   0  0  0  0  0
  1  2  2  0  0  0
  2  3  1  0  0  0
  2  4  1  0  0  0
  4  5  1  0  0  0
  5  6  1  0  0  0
  6  7  1  0  0  0
  7  8  1  0  0  0
  8  9  1  0  0  0
  9 10  1  0  0  0
  9 11  1  0  0  0
 11 12  2  0  0  0
 11 13  1  0  0  0
 11 14  1  0  0  0
  1 15  1  0  0  0
  3 16  1  0  0  0
  3 17  1  0  0  0
  4 18  1  0  0  0
  5 19  1  0  0  0
  5 20  1  0  0  0
  6 21  1  0  0  0
  6 22  1  0  0  0
  7 23  1  0  0  0
  7 24  1  0  0  0
  8 25  1  0  0  0
  8 26  1  0  0  0
  9 27  1  0  0  0
 10 28  1  0  0  0
 10 29  1  0  0  0
 10 30  1  0  0  0
 13 31  1  0  0  0
 14 32  1  0  0  0
M  END
$$$$
