### 
### Created by X-TOOL on Mon Sep 10 21:13:13 2018
### 

@<TRIPOS>MOLECULE
4k5l_ligand
   31    30     1     0     0
SMALL
GAST_HUCK


@<TRIPOS>ATOM
      1 N1         11.4870   10.1340   19.9280 N.pl3     1 19N        -0.2849
      2 C1         12.4270    9.9260   19.0780 C.cat     1 19N         0.2882
      3 N2         13.0370    8.7340   19.0130 N.pl3     1 19N        -0.2849
      4 N3         12.8310   10.9260   18.2940 N.pl3     1 19N        -0.2723
      5 C2         12.7920   10.9930   16.8400 C.3       1 19N         0.0625
      6 C3         12.0410   12.2180   16.3520 C.3       1 19N        -0.0195
      7 C4         12.5680   12.7800   15.0300 C.3       1 19N        -0.0434
      8 C5         12.6090   11.7710   13.8540 C.3       1 19N         0.0061
      9 C6         12.5310   12.6560   12.6140 C.3       1 19N         0.0442
     10 N4         11.1310   12.8580   12.1760 N.4       1 19N         0.2328
     11 P          13.3680   11.8250   11.2320 P.3       1 19N         0.1102
     12 O1         12.4260   10.6750   10.9060 O.co2     1 19N        -0.5586
     13 O3         13.2510   12.7380    9.9780 O.co2     1 19N        -0.5586
     14 O2         14.8480   11.5420   11.5480 O.co2     1 19N        -0.5586
     15 H1         11.1666    9.3692   20.5389 H         1 19N         0.2615
     16 H2         11.0535   11.0657   19.9988 H         1 19N         0.2615
     17 H3         13.7898    8.5774   18.3277 H         1 19N         0.2615
     18 H4         12.7529    7.9747   19.6484 H         1 19N         0.2615
     19 H5         13.2174   11.7508   18.7751 H         1 19N         0.2642
     20 H6         12.2916   10.0921   16.4554 H         1 19N         0.0689
     21 H7         13.8227   11.0316   16.4576 H         1 19N         0.0689
     22 H8         12.1216   13.0025   17.1189 H         1 19N         0.0299
     23 H9         10.9840   11.9454   16.2160 H         1 19N         0.0299
     24 H10        13.5911   13.1466   15.1997 H         1 19N         0.0269
     25 H11        11.9217   13.6199   14.7354 H         1 19N         0.0269
     26 H12        11.7526   11.0821   13.8984 H         1 19N         0.0335
     27 H13        13.5452   11.1936   13.8653 H         1 19N         0.0335
     28 H14        13.0045   13.6259   12.8261 H         1 19N         0.1049
     29 H15        10.6132   13.3189   12.9078 H         1 19N         0.2011
     30 H16        10.7089   11.9645   11.9773 H         1 19N         0.2011
     31 H17        11.1179   13.4282   11.3449 H         1 19N         0.2011
@<TRIPOS>BOND
     1    1    2 ar 
     2    2    3 ar 
     3    2    4 ar 
     4    4    5 1  
     5    5    6 1  
     6    6    7 1  
     7    7    8 1  
     8    8    9 1  
     9    9   10 1  
    10    9   11 1  
    11   11   12 ar 
    12   11   13 ar 
    13   11   14 ar 
    14    1   15 1  
    15    1   16 1  
    16    3   17 1  
    17    3   18 1  
    18    4   19 1  
    19    5   20 1  
    20    5   21 1  
    21    6   22 1  
    22    6   23 1  
    23    7   24 1  
    24    7   25 1  
    25    8   26 1  
    26    8   27 1  
    27    9   28 1  
    28   10   29 1  
    29   10   30 1  
    30   10   31 1  
@<TRIPOS>SUBSTRUCTURE
     1 19N         1

