6bkx_ligand
  -I-interpret- 

 48 51  0  0  0  0  0  0  0  0999 V2000
   31.7150   19.9450   -8.5690 C   0  0  0  0  0
   30.4220   19.2110   -8.8520 C   0  0  0  0  0
   30.6300   18.1910   -9.9390 C   0  0  0  0  0
   29.7210   17.1680  -10.0860 C   0  0  0  0  0
   28.8570   12.4170  -12.7190 C   0  0  0  0  0
   29.3000   12.9820  -15.0020 C   0  0  0  0  0
   33.3770   21.5430   -9.6830 C   0  0  0  0  0
   32.7100   22.8100   -9.1650 C   0  0  0  0  0
   33.5100   21.2410  -12.2280 C   0  0  0  0  0
   34.3250   21.5240  -13.3990 C   0  0  0  0  0
   28.6850   12.1820  -14.0660 C   0  0  0  0  0
   29.6570   13.4680  -12.3020 C   0  0  0  0  0
   30.0840   14.0410  -14.5800 C   0  0  0  0  0
   30.2670   14.2890  -13.2340 C   0  0  0  0  0
   31.7050   18.2060  -10.8200 C   0  0  0  0  0
   30.8940   16.3050  -11.8490 C   0  0  0  0  0
   34.0300   21.9290  -10.9990 C   0  0  0  0  0
   33.1420   19.7610  -12.1760 C   0  0  0  0  0
   32.3140   20.4510   -9.8840 C   0  0  0  0  0
   32.7980   19.2640  -10.7610 C   0  0  0  0  0
   34.0320   18.5700  -10.1710 C   0  0  0  0  0
   34.8410   21.8320  -14.3910 N   0  0  0  0  0
   29.8260   16.2330  -11.0400 N   0  0  0  0  0
   31.8450   17.2450  -11.7510 N   0  0  0  0  0
   31.1070   15.3670  -12.8810 N   0  0  0  0  0
   34.8420   22.8530  -11.0780 O   0  0  0  0  0
   32.4191   19.2671   -8.0865 H   0  0  0  0  0
   31.5156   20.7912   -7.9115 H   0  0  0  0  0
   29.6681   19.9286   -9.1758 H   0  0  0  0  0
   30.0941   18.7035   -7.9448 H   0  0  0  0  0
   28.8787   17.1162   -9.3961 H   0  0  0  0  0
   28.3656   11.7785  -11.9849 H   0  0  0  0  0
   29.1706   12.7831  -16.0659 H   0  0  0  0  0
   34.1169   21.1456   -8.9883 H   0  0  0  0  0
   33.4644   23.5835   -9.0213 H   0  0  0  0  0
   31.9706   23.1519   -9.8892 H   0  0  0  0  0
   32.2193   22.5984   -8.2150 H   0  0  0  0  0
   32.5280   21.7089  -12.2982 H   0  0  0  0  0
   28.0557   11.3544  -14.3933 H   0  0  0  0  0
   29.8064   13.6487  -11.2375 H   0  0  0  0  0
   30.5619   14.6859  -15.3174 H   0  0  0  0  0
   34.0079   19.1956  -12.5205 H   0  0  0  0  0
   32.2569   19.6213  -12.7967 H   0  0  0  0  0
   31.5184   20.9507  -10.4366 H   0  0  0  0  0
   33.7947   18.1940   -9.1758 H   0  0  0  0  0
   34.3229   17.7398  -10.8146 H   0  0  0  0  0
   34.8523   19.2847  -10.1047 H   0  0  0  0  0
   31.9588   15.4798  -13.4306 H   0  0  0  0  0
  2  1  1  0  0  0
  1 19  1  0  0  0
  3  2  1  0  0  0
  4  3  4  0  0  0
 15  3  4  0  0  0
 23  4  4  0  0  0
  5 11  4  0  0  0
 12  5  4  0  0  0
  6 11  4  0  0  0
 13  6  4  0  0  0
  7  8  1  0  0  0
  7 17  1  0  0  0
 19  7  1  0  0  0
  9 10  1  0  0  0
 17  9  1  0  0  0
  9 18  1  0  0  0
 10 22  3  0  0  0
 14 12  4  0  0  0
 14 13  4  0  0  0
 25 14  1  0  0  0
 15 20  1  0  0  0
 24 15  4  0  0  0
 16 23  4  0  0  0
 16 24  4  0  0  0
 16 25  1  0  0  0
 17 26  2  0  0  0
 18 20  1  0  0  0
 19 20  1  0  0  0
 20 21  1  0  0  0
  1 27  1  0  0  0
  1 28  1  0  0  0
  2 29  1  0  0  0
  2 30  1  0  0  0
  4 31  1  0  0  0
  5 32  1  0  0  0
  6 33  1  0  0  0
  7 34  1  0  0  0
  8 35  1  0  0  0
  8 36  1  0  0  0
  8 37  1  0  0  0
  9 38  1  0  0  0
 11 39  1  0  0  0
 12 40  1  0  0  0
 13 41  1  0  0  0
 18 42  1  0  0  0
 18 43  1  0  0  0
 19 44  1  0  0  0
 21 45  1  0  0  0
 21 46  1  0  0  0
 21 47  1  0  0  0
 25 48  1  0  0  0
M  END
$$$$
