4jfw_ligand
  -I-interpret- 

 50 59  0  0  0  0  0  0  0  0999 V2000
   -6.5560    4.0920    3.0030 O   0  0  0  0  0
   -6.6740    4.4960    4.3570 C   0  0  0  0  0
   -6.3710    3.3310    5.3110 C   0  0  0  0  0
   -5.0810    2.5760    5.0530 C   0  0  0  0  0
   -7.5780    2.4800    5.2800 N   0  3  0  0  0
   -8.7480    3.3680    5.0830 C   0  0  0  0  0
   -8.1060    4.7540    4.8170 C   0  0  0  0  0
   -8.8200    5.5610    3.8870 O   0  0  0  0  0
   -9.6640    3.2800    6.2990 C   0  0  0  0  0
  -11.0330    3.9340    6.1310 C   0  0  0  0  0
  -11.9720    3.6760    7.2640 N   0  3  0  0  0
  -14.5290    0.8990    8.1770 C   0  0  0  0  0
  -13.6810    2.1720    8.2880 C   0  0  0  0  0
  -12.4390    2.2740    7.4180 C   0  0  0  0  0
  -15.9640    0.8820    8.6500 C   0  0  0  0  0
  -16.4580    1.2320    9.9400 C   0  0  0  0  0
  -17.8550    1.0040    9.9710 C   0  0  0  0  0
  -18.2390    0.5070    8.7210 C   0  0  0  0  0
  -17.0850    0.4250    7.9090 C   0  0  0  0  0
  -16.6200    4.2550    8.3260 C   0  0  0  0  0
  -17.7740    4.3130    9.1270 C   0  0  0  0  0
  -18.8450    3.8440    8.3610 C   0  0  0  0  0
  -18.3710    3.5030    7.0980 C   0  0  0  0  0
  -16.9930    3.7530    7.0690 C   0  0  0  0  0
  -17.4230    2.3710    8.5170 Fe  0  0  0  0  0
   -5.6302    3.9503    2.7920 H   0  0  0  0  0
   -6.0189    5.3666    4.3892 H   0  0  0  0  0
   -6.1695    3.7187    6.3096 H   0  0  0  0  0
   -4.9537    1.8060    5.8140 H   0  0  0  0  0
   -5.1242    2.1114    4.0679 H   0  0  0  0  0
   -4.2413    3.2699    5.0924 H   0  0  0  0  0
   -7.6691    1.9601    6.1528 H   0  0  0  0  0
   -7.5151    1.8011    4.5214 H   0  0  0  0  0
   -9.4067    3.1090    4.2540 H   0  0  0  0  0
   -8.1327    5.3370    5.7376 H   0  0  0  0  0
   -8.3637    6.3982    3.7751 H   0  0  0  0  0
   -9.1614    3.8100    7.1081 H   0  0  0  0  0
   -9.8438    2.2201    6.4790 H   0  0  0  0  0
  -11.4852    3.5121    5.2334 H   0  0  0  0  0
  -10.8732    5.0111    6.0820 H   0  0  0  0  0
  -12.8042    4.2360    7.0790 H   0  0  0  0  0
  -11.4603    3.9024    8.1168 H   0  0  0  0  0
  -14.0253    0.1860    8.8297 H   0  0  0  0  0
  -14.6003    0.7195    7.1042 H   0  0  0  0  0
  -13.3187    2.1915    9.3158 H   0  0  0  0  0
  -14.3314    2.9841    7.9630 H   0  0  0  0  0
  -11.6432    1.7031    7.8964 H   0  0  0  0  0
  -12.6867    1.8895    6.4286 H   0  0  0  0  0
  -16.9775   -0.3222    7.1227 H   0  0  0  0  0
  -16.4701    4.0324    6.1544 H   0  0  0  0  0
  2  1  1  0  0  0
  2  3  1  0  0  0
  7  2  1  0  0  0
  3  4  1  0  0  0
  5  3  1  0  0  0
  6  5  1  0  0  0
  6  7  1  0  0  0
  9  6  1  0  0  0
  7  8  1  0  0  0
 10  9  1  0  0  0
 11 10  1  0  0  0
 14 11  1  0  0  0
 12 13  1  0  0  0
 15 12  1  0  0  0
 13 14  1  0  0  0
 16 15  2  0  0  0
 19 15  1  0  0  0
 17 16  1  0  0  0
 18 17  2  0  0  0
 19 18  1  0  0  0
 20 21  2  0  0  0
 20 24  1  0  0  0
 21 22  1  0  0  0
 23 22  2  0  0  0
 24 23  1  0  0  0
 25 16  1  0  0  0
 25 17  1  0  0  0
 25 18  1  0  0  0
 25 19  1  0  0  0
 25 20  1  0  0  0
 25 21  1  0  0  0
 25 22  1  0  0  0
 25 23  1  0  0  0
 25 24  1  0  0  0
  1 26  1  0  0  0
  2 27  1  0  0  0
  3 28  1  0  0  0
  4 29  1  0  0  0
  4 30  1  0  0  0
  4 31  1  0  0  0
  5 32  1  0  0  0
  5 33  1  0  0  0
  6 34  1  0  0  0
  7 35  1  0  0  0
  8 36  1  0  0  0
  9 37  1  0  0  0
  9 38  1  0  0  0
 10 39  1  0  0  0
 10 40  1  0  0  0
 11 41  1  0  0  0
 11 42  1  0  0  0
 12 43  1  0  0  0
 12 44  1  0  0  0
 13 45  1  0  0  0
 13 46  1  0  0  0
 14 47  1  0  0  0
 14 48  1  0  0  0
 19 49  1  0  0  0
 24 50  1  0  0  0
M  END
$$$$
