### 
### Created by X-TOOL on Mon Sep 10 21:13:15 2018
### 

@<TRIPOS>MOLECULE
4jfw_ligand
   50    59     1     0     0
SMALL
GAST_HUCK


@<TRIPOS>ATOM
      1 OAP        -6.5560    4.0920    3.0030 O.3       1 H58        -0.3834
      2 CAC        -6.6740    4.4960    4.3570 C.3       1 H58         0.1282
      3 CAB        -6.3710    3.3310    5.3110 C.3       1 H58         0.0040
      4 CAO        -5.0810    2.5760    5.0530 C.3       1 H58        -0.0191
      5 NAA        -7.5780    2.4800    5.2800 N.4       1 H58         0.2351
      6 CAE        -8.7480    3.3680    5.0830 C.3       1 H58         0.0118
      7 CAD        -8.1060    4.7540    4.8170 C.3       1 H58         0.1287
      8 OAQ        -8.8200    5.5610    3.8870 O.3       1 H58        -0.3834
      9 CAF        -9.6640    3.2800    6.2990 C.3       1 H58         0.0329
     10 CAG       -11.0330    3.9340    6.1310 C.3       1 H58        -0.0284
     11 NAH       -11.9720    3.6760    7.2640 N.4       1 H58         0.2273
     12 CAN       -14.5290    0.8990    8.1770 C.3       1 H58        -0.0123
     13 CAQ       -13.6810    2.1720    8.2880 C.3       1 H58        -0.0019
     14 CAP       -12.4390    2.2740    7.4180 C.3       1 H58        -0.0316
     15 CAJ       -15.9640    0.8820    8.6500 C.2       1 H58        -0.0412
     16 CAK       -16.4580    1.2320    9.9400 C.2       1 H58        -0.0666
     17 CAL       -17.8550    1.0040    9.9710 C.2       1 H58        -0.0695
     18 CAM       -18.2390    0.5070    8.7210 C.2       1 H58        -0.0372
     19 CAI       -17.0850    0.4250    7.9090 C.3       1 H58         0.0437
     20 CBJ       -16.6200    4.2550    8.3260 C.2       1 H58        -0.0183
     21 CBI       -17.7740    4.3130    9.1270 C.2       1 H58        -0.0482
     22 CBM       -18.8450    3.8440    8.3610 C.2       1 H58        -0.0482
     23 CBL       -18.3710    3.5030    7.0980 C.2       1 H58        -0.0183
     24 CBK       -16.9930    3.7530    7.0690 C.3       1 H58         0.0501
     25 FE        -17.4230    2.3710    8.5170 Fe        1 H58         3.0000
     26 H1         -6.7481    4.8295    2.4358 H         1 H58         0.2102
     27 H2         -6.0243    5.3661    4.5328 H         1 H58         0.0678
     28 H3         -6.2769    3.7490    6.3241 H         1 H58         0.0874
     29 H4         -4.9732    1.7704    5.7942 H         1 H58         0.0285
     30 H5         -4.2290    3.2668    5.1358 H         1 H58         0.0285
     31 H6         -5.1053    2.1432    4.0420 H         1 H58         0.0285
     32 H7         -7.6686    1.9803    6.1507 H         1 H58         0.2021
     33 H8         -7.5147    1.8213    4.5196 H         1 H58         0.2021
     34 H9         -9.3240    3.0590    4.1983 H         1 H58         0.0879
     35 H10        -8.0757    5.3050    5.7685 H         1 H58         0.0678
     36 H11        -8.3685    6.3895    3.7763 H         1 H58         0.2102
     37 H12        -9.1556    3.7675    7.1439 H         1 H58         0.0373
     38 H13        -9.8214    2.2161    6.5301 H         1 H58         0.0373
     39 H14       -11.4901    3.5478    5.2080 H         1 H58         0.0816
     40 H15       -10.8887    5.0208    6.0418 H         1 H58         0.0816
     41 H16       -12.7838    4.2583    7.1302 H         1 H58         0.2013
     42 H17       -11.5055    3.9409    8.1174 H         1 H58         0.2013
     43 H18       -14.0016    0.1199    8.7469 H         1 H58         0.0446
     44 H19       -14.5466    0.6255    7.1117 H         1 H58         0.0446
     45 H20       -13.3561    2.2596    9.3352 H         1 H58         0.0342
     46 H21       -14.3307    3.0223    8.0333 H         1 H58         0.0342
     47 H22       -11.6347    1.6818    7.8789 H         1 H58         0.0815
     48 H23       -12.6700    1.8667    6.4226 H         1 H58         0.0815
     49 H24       -17.0234   -0.1225    6.9569 H         1 H58         0.0808
     50 H25       -16.3760    3.8002    6.1596 H         1 H58         0.0829
@<TRIPOS>BOND
     1    2    1 1  
     2    2    3 1  
     3    7    2 1  
     4    3    4 1  
     5    5    3 1  
     6    6    5 1  
     7    6    7 1  
     8    9    6 1  
     9    7    8 1  
    10   10    9 1  
    11   11   10 1  
    12   14   11 1  
    13   12   13 1  
    14   15   12 1  
    15   13   14 1  
    16   16   15 2  
    17   19   15 1  
    18   17   16 1  
    19   18   17 2  
    20   19   18 1  
    21   20   21 2  
    22   20   24 1  
    23   21   22 1  
    24   23   22 2  
    25   24   23 1  
    26   25   16 1  
    27   25   17 1  
    28   25   18 1  
    29   25   19 1  
    30   25   20 1  
    31   25   21 1  
    32   25   22 1  
    33   25   23 1  
    34   25   24 1  
    35    1   26 1  
    36    2   27 1  
    37    3   28 1  
    38    4   29 1  
    39    4   30 1  
    40    4   31 1  
    41    5   32 1  
    42    5   33 1  
    43    6   34 1  
    44    7   35 1  
    45    8   36 1  
    46    9   37 1  
    47    9   38 1  
    48   10   39 1  
    49   10   40 1  
    50   11   41 1  
    51   11   42 1  
    52   12   43 1  
    53   12   44 1  
    54   13   45 1  
    55   13   46 1  
    56   14   47 1  
    57   14   48 1  
    58   19   49 1  
    59   24   50 1  
@<TRIPOS>SUBSTRUCTURE
     1 H58         1

