### 
### Created by X-TOOL on Mon Sep 10 21:12:52 2018
### 

@<TRIPOS>MOLECULE
1tl7_ligand
   61    64     1     0     0
SMALL
GAST_HUCK


@<TRIPOS>ATOM
      1 CA7        66.8560  -14.3330   54.3330 C.3       1 ONM         0.0140
      2 NA1        65.4090  -14.6420   54.4560 N.pl3     1 ONM        -0.3212
      3 CA6        64.8280  -15.8410   54.7390 C.ar      1 ONM         0.0606
      4 CA5        65.6550  -17.0950   54.9760 C.ar      1 ONM        -0.0378
      5 CA4        65.0000  -18.5110   55.3150 C.ar      1 ONM        -0.0689
      6 CA3        63.5650  -18.4920   55.3720 C.ar      1 ONM        -0.0690
      7 CA2        62.7670  -17.1650   55.1170 C.ar      1 ONM        -0.0520
      8 CA1        63.4020  -15.9260   54.8190 C.ar      1 ONM         0.0789
      9 CA         62.4580  -14.7050   54.5980 C.2       1 ONM         0.2550
     10 OA         62.7550  -13.4230   55.2390 O.2       1 ONM        -0.3648
     11 O3         61.3290  -14.8290   53.8160 O.3       1 ONM        -0.2709
     12 C3         60.2560  -13.8150   53.6790 C.3       1 ONM         0.1458
     13 C2         59.2730  -14.3570   52.6570 C.3       1 ONM         0.1431
     14 O2         59.9000  -15.1470   51.6340 O.3       1 ONM        -0.3832
     15 C4         59.3130  -13.5710   54.9060 C.3       1 ONM         0.1234
     16 C5         58.4910  -12.2710   55.1490 C.3       1 ONM         0.1134
     17 O5         58.4950  -11.2170   54.1710 O.3       1 ONM        -0.2441
     18 PA         57.5890   -9.8810   54.3680 P.3       1 ONM         0.3266
     19 O3A        58.0320   -9.0460   53.0520 O.co2     1 ONM        -0.5692
     20 O2A        56.1680  -10.3070   54.3430 O.co2     1 ONM        -0.5692
     21 O1A        58.2520   -9.1530   55.6070 O.3       1 ONM        -0.1171
     22 PB         57.3980   -8.9610   56.9440 P.3       1 ONM         0.3553
     23 O3B        56.4720  -10.2900   57.0640 O.co2     1 ONM        -0.5652
     24 O2B        56.3530   -7.9190   56.8260 O.co2     1 ONM        -0.5652
     25 O1B        58.2200   -9.0260   58.2070 O.3       1 ONM        -0.1546
     26 PG         59.0980   -7.7540   58.1750 P.3       1 ONM         0.1879
     27 O2G        60.6860   -7.9010   58.2930 O.co2     1 ONM        -0.6091
     28 O3G        58.4960   -6.2610   58.0930 O.co2     1 ONM        -0.6091
     29 O1G        58.6010   -7.4670   59.5330 O.co2     1 ONM        -0.6091
     30 O4         58.3930  -14.6750   54.8900 O.3       1 ONM        -0.3359
     31 C1         58.3650  -15.1930   53.5330 C.3       1 ONM         0.1996
     32 N9         56.9770  -15.3780   53.0210 N.pl3     1 ONM        -0.2101
     33 C8         55.9640  -14.5140   52.8930 C.2       1 ONM         0.0957
     34 N7         54.9260  -15.1130   52.2970 N.2       1 ONM        -0.3235
     35 C5         55.2900  -16.3550   52.0120 C.2       1 ONM         0.0926
     36 C4         56.6020  -16.5170   52.4590 C.2       1 ONM         0.1159
     37 N3         57.2810  -17.7020   52.3020 N.2       1 ONM        -0.2765
     38 C2         56.7240  -18.7940   51.7060 C.2       1 ONM         0.2340
     39 N2         57.4210  -19.9170   51.5840 N.pl3     1 ONM        -0.2807
     40 N1         55.3930  -18.7010   51.2300 N.am      1 ONM        -0.1839
     41 C6         54.6800  -17.4770   51.3830 C.2       1 ONM         0.2135
     42 O6         53.5320  -17.4460   50.9480 O.2       1 ONM        -0.4091
     43 H1         66.9843  -13.2665   54.0963 H         1 ONM         0.0479
     44 H2         67.2940  -14.9423   53.5288 H         1 ONM         0.0479
     45 H3         67.3617  -14.5611   55.2828 H         1 ONM         0.0479
     46 H4         64.7648  -13.8519   54.3091 H         1 ONM         0.1779
     47 H5         66.7348  -17.0245   54.9121 H         1 ONM         0.0529
     48 H6         65.5859  -19.4067   55.4868 H         1 ONM         0.0621
     49 H7         63.0262  -19.4061   55.5940 H         1 ONM         0.0519
     50 H8         61.6847  -17.1929   55.1701 H         1 ONM         0.0637
     51 H9         60.7063  -12.8635   53.3597 H         1 ONM         0.0702
     52 H10        58.7161  -13.5376   52.1790 H         1 ONM         0.0680
     53 H11        60.3390  -15.8890   52.0330 H         1 ONM         0.2102
     54 H12        59.9599  -13.6626   55.7910 H         1 ONM         0.0655
     55 H13        58.8621  -11.8330   56.0873 H         1 ONM         0.0648
     56 H14        57.4429  -12.5790   55.2775 H         1 ONM         0.0648
     57 H15        58.8075  -16.1995   53.5657 H         1 ONM         0.0998
     58 H16        55.9812  -13.4768   53.2246 H         1 ONM         0.1179
     59 H17        58.3876  -19.9641   51.9367 H         1 ONM         0.1897
     60 H18        56.9953  -20.7413   51.1366 H         1 ONM         0.1897
     61 H19        54.9580  -19.4870   50.7907 H         1 ONM         0.2515
@<TRIPOS>BOND
     1    1    2 1  
     2    2    3 1  
     3    3    4 ar 
     4    3    8 ar 
     5    4    5 ar 
     6    5    6 ar 
     7    6    7 ar 
     8    7    8 ar 
     9    8    9 1  
    10    9   10 2  
    11    9   11 1  
    12   11   12 1  
    13   12   13 1  
    14   12   15 1  
    15   13   14 1  
    16   13   31 1  
    17   15   16 1  
    18   15   30 1  
    19   16   17 1  
    20   17   18 1  
    21   18   19 ar 
    22   18   20 ar 
    23   18   21 1  
    24   21   22 1  
    25   22   23 ar 
    26   22   24 ar 
    27   22   25 1  
    28   25   26 1  
    29   26   27 ar 
    30   26   28 ar 
    31   26   29 ar 
    32   30   31 1  
    33   31   32 1  
    34   32   33 1  
    35   32   36 1  
    36   33   34 2  
    37   34   35 1  
    38   35   36 2  
    39   35   41 1  
    40   36   37 1  
    41   37   38 2  
    42   38   39 1  
    43   38   40 am 
    44   40   41 am 
    45   41   42 2  
    46    1   43 1  
    47    1   44 1  
    48    1   45 1  
    49    2   46 1  
    50    4   47 1  
    51    5   48 1  
    52    6   49 1  
    53    7   50 1  
    54   12   51 1  
    55   13   52 1  
    56   14   53 1  
    57   15   54 1  
    58   16   55 1  
    59   16   56 1  
    60   31   57 1  
    61   33   58 1  
    62   39   59 1  
    63   39   60 1  
    64   40   61 1  
@<TRIPOS>SUBSTRUCTURE
     1 ONM         1

