1tl7_ligand
  -I-interpret- 

 65 68  0  0  0  0  0  0  0  0999 V2000
   66.8560  -14.3330   54.3330 C   0  0  0  0  0
   65.4090  -14.6420   54.4560 N   0  0  0  0  0
   64.8280  -15.8410   54.7390 C   0  0  0  0  0
   65.6550  -17.0950   54.9760 C   0  0  0  0  0
   65.0000  -18.5110   55.3150 C   0  0  0  0  0
   63.5650  -18.4920   55.3720 C   0  0  0  0  0
   62.7670  -17.1650   55.1170 C   0  0  0  0  0
   63.4020  -15.9260   54.8190 C   0  0  0  0  0
   62.4580  -14.7050   54.5980 C   0  0  0  0  0
   62.7550  -13.4230   55.2390 O   0  0  0  0  0
   61.3290  -14.8290   53.8160 O   0  0  0  0  0
   60.2560  -13.8150   53.6790 C   0  0  0  0  0
   59.2730  -14.3570   52.6570 C   0  0  0  0  0
   59.9000  -15.1470   51.6340 O   0  0  0  0  0
   59.3130  -13.5710   54.9060 C   0  0  0  0  0
   58.4910  -12.2710   55.1490 C   0  0  0  0  0
   58.4950  -11.2170   54.1710 O   0  0  0  0  0
   57.5890   -9.8810   54.3680 P   0  0  0  0  0
   58.0320   -9.0460   53.0520 O   0  0  0  0  0
   56.1680  -10.3070   54.3430 O   0  0  0  0  0
   58.2520   -9.1530   55.6070 O   0  0  0  0  0
   57.3980   -8.9610   56.9440 P   0  0  0  0  0
   56.4720  -10.2900   57.0640 O   0  0  0  0  0
   56.3530   -7.9190   56.8260 O   0  0  0  0  0
   58.2200   -9.0260   58.2070 O   0  0  0  0  0
   59.0980   -7.7540   58.1750 P   0  0  0  0  0
   60.6860   -7.9010   58.2930 O   0  0  0  0  0
   58.4960   -6.2610   58.0930 O   0  0  0  0  0
   58.6010   -7.4670   59.5330 O   0  0  0  0  0
   58.3930  -14.6750   54.8900 O   0  0  0  0  0
   58.3650  -15.1930   53.5330 C   0  0  0  0  0
   56.9770  -15.3780   53.0210 N   0  0  0  0  0
   55.9640  -14.5140   52.8930 C   0  0  0  0  0
   54.9260  -15.1130   52.2970 N   0  0  0  0  0
   55.2900  -16.3550   52.0120 C   0  0  0  0  0
   56.6020  -16.5170   52.4590 C   0  0  0  0  0
   57.2810  -17.7020   52.3020 N   0  0  0  0  0
   56.7240  -18.7940   51.7060 C   0  0  0  0  0
   57.4210  -19.9170   51.5840 N   0  0  0  0  0
   55.3930  -18.7010   51.2300 N   0  0  0  0  0
   54.6800  -17.4770   51.3830 C   0  0  0  0  0
   53.5320  -17.4460   50.9480 O   0  0  0  0  0
   67.3559  -14.5595   55.2747 H   0  0  0  0  0
   67.2888  -14.9374   53.5359 H   0  0  0  0  0
   66.9818  -13.2760   54.0984 H   0  0  0  0  0
   64.7710  -13.8595   54.3106 H   0  0  0  0  0
   66.7408  -17.0241   54.9117 H   0  0  0  0  0
   65.5892  -19.4116   55.4877 H   0  0  0  0  0
   63.0232  -19.4111   55.5952 H   0  0  0  0  0
   61.6787  -17.1931   55.1704 H   0  0  0  0  0
   60.8022  -12.8954   53.4688 H   0  0  0  0  0
   58.7656  -13.5758   52.0910 H   0  0  0  0  0
   59.2325  -15.4611   51.0196 H   0  0  0  0  0
   60.0323  -13.4578   55.7171 H   0  0  0  0  0
   58.9487  -11.8229   56.0309 H   0  0  0  0  0
   57.4549  -12.6081   55.1786 H   0  0  0  0  0
   58.9569   -8.7998   53.1269 H   0  0  0  0  0
   57.0340  -11.0637   57.1487 H   0  0  0  0  0
   61.0540   -8.0895   57.4266 H   0  0  0  0  0
   58.6022   -5.9229   57.2008 H   0  0  0  0  0
   58.7674  -16.2059   53.5177 H   0  0  0  0  0
   55.9812  -13.4759   53.2249 H   0  0  0  0  0
   58.3768  -19.9649   51.9368 H   0  0  0  0  0
   57.0008  -20.7321   51.1374 H   0  0  0  0  0
   54.9493  -19.5027   50.7820 H   0  0  0  0  0
  1  2  1  0  0  0
  2  3  1  0  0  0
  3  4  4  0  0  0
  3  8  4  0  0  0
  4  5  4  0  0  0
  5  6  4  0  0  0
  6  7  4  0  0  0
  7  8  4  0  0  0
  8  9  1  0  0  0
  9 10  2  0  0  0
  9 11  1  0  0  0
 11 12  1  0  0  0
 12 13  1  0  0  0
 12 15  1  0  0  0
 13 14  1  0  0  0
 13 31  1  0  0  0
 15 16  1  0  0  0
 15 30  1  0  0  0
 16 17  1  0  0  0
 17 18  1  0  0  0
 18 19  1  0  0  0
 18 20  2  0  0  0
 18 21  1  0  0  0
 21 22  1  0  0  0
 22 23  1  0  0  0
 22 24  2  0  0  0
 22 25  1  0  0  0
 25 26  1  0  0  0
 26 27  1  0  0  0
 26 28  1  0  0  0
 26 29  2  0  0  0
 30 31  1  0  0  0
 31 32  1  0  0  0
 32 33  4  0  0  0
 32 36  4  0  0  0
 33 34  4  0  0  0
 34 35  4  0  0  0
 35 36  4  0  0  0
 35 41  1  0  0  0
 36 37  1  0  0  0
 37 38  2  0  0  0
 38 39  1  0  0  0
 38 40  1  0  0  0
 40 41  1  0  0  0
 41 42  2  0  0  0
  1 43  1  0  0  0
  1 44  1  0  0  0
  1 45  1  0  0  0
  2 46  1  0  0  0
  4 47  1  0  0  0
  5 48  1  0  0  0
  6 49  1  0  0  0
  7 50  1  0  0  0
 12 51  1  0  0  0
 13 52  1  0  0  0
 14 53  1  0  0  0
 15 54  1  0  0  0
 16 55  1  0  0  0
 16 56  1  0  0  0
 19 57  1  0  0  0
 23 58  1  0  0  0
 27 59  1  0  0  0
 28 60  1  0  0  0
 31 61  1  0  0  0
 33 62  1  0  0  0
 39 63  1  0  0  0
 39 64  1  0  0  0
 40 65  1  0  0  0
M  END
$$$$
