3r7o_ligand
  -I-interpret- 

 73 78  0  0  0  0  0  0  0  0999 V2000
   -4.4430   -8.3610  -16.5550 C   0  0  0  0  0
   -6.7760   -8.9240  -16.6650 N   0  0  0  0  0
   -5.1400   -6.4670  -13.1050 O   0  0  0  0  0
   -6.2770   -2.0310  -10.9750 S   0  0  0  0  0
   -5.5090   -9.0640  -17.0730 C   0  0  0  0  0
   -7.0070   -8.0380  -15.6860 C   0  0  0  0  0
   -5.9850   -7.3520  -15.0460 C   0  0  0  0  0
   -4.6860   -7.5210  -15.4870 C   0  0  0  0  0
   -8.4250   -7.9680  -15.3950 C   0  0  0  0  0
   -9.0930   -7.1100  -14.6220 C   0  0  0  0  0
   -8.6030   -5.9960  -13.8360 C   0  0  0  0  0
   -7.2920   -5.7020  -13.4960 C   0  0  0  0  0
   -6.1140   -6.5080  -13.8510 C   0  0  0  0  0
   -9.6010   -5.1370  -13.4290 C   0  0  0  0  0
   -9.3140   -4.0300  -12.6710 C   0  0  0  0  0
   -8.0170   -3.7730  -12.2890 C   0  0  0  0  0
   -7.0050   -4.6030  -12.7100 C   0  0  0  0  0
   -3.1130   -8.5120  -17.0850 C   0  0  0  0  0
   -6.5970   -0.5990  -13.2700 C   0  0  0  0  0
   -5.6540   -1.3440  -12.4150 N   0  0  0  0  0
   -4.6650   -2.1180  -13.1930 C   0  0  0  0  0
   -6.6320   -0.9440  -10.0820 O   0  0  0  0  0
   -5.3800   -3.0730  -10.5170 O   0  0  0  0  0
   -7.8160   -2.6250  -11.4540 N   0  0  0  0  0
   -3.3450   -1.3780  -13.1320 C   0  0  0  0  0
   -2.9840   -0.8320  -14.5000 C   0  0  0  0  0
   -1.7540   -0.1220  -14.4000 O   0  0  0  0  0
   -0.7300   -1.0250  -13.9920 C   0  0  0  0  0
   -1.0880   -1.5880  -12.6290 C   0  0  0  0  0
   -2.3250   -2.2860  -12.7230 O   0  0  0  0  0
   -2.7970   -9.2170  -18.2240 C   0  0  0  0  0
   -1.4530   -9.0340  -18.3850 N   0  0  0  0  0
   -0.8810   -8.2550  -17.4490 N   0  0  0  0  0
   -1.8950   -7.9380  -16.6440 C   0  0  0  0  0
   -0.6500   -9.5710  -19.4710 C   0  0  0  0  0
    0.3900  -10.5390  -18.9270 C   0  0  0  0  0
    1.4170  -10.9410  -19.9690 C   0  0  0  0  0
    2.0040   -9.7070  -20.5480 N   0  3  0  0  0
    0.9780   -8.8970  -21.2600 C   0  0  0  0  0
   -0.0140   -8.4150  -20.2220 C   0  0  0  0  0
   -5.3069   -9.7819  -17.8679 H   0  0  0  0  0
   -3.8643   -6.9978  -14.9979 H   0  0  0  0  0
   -9.0364   -8.7292  -15.8795 H   0  0  0  0  0
  -10.1699   -7.2715  -14.5747 H   0  0  0  0  0
  -10.6334   -5.3401  -13.7135 H   0  0  0  0  0
  -10.1141   -3.3533  -12.3710 H   0  0  0  0  0
   -5.9745   -4.3934  -12.4231 H   0  0  0  0  0
   -6.0431    0.1009  -13.8957 H   0  0  0  0  0
   -7.1435   -1.2991  -13.9018 H   0  0  0  0  0
   -7.2988   -0.0501  -12.6422 H   0  0  0  0  0
   -4.9937   -2.2201  -14.2272 H   0  0  0  0  0
   -4.5566   -3.1195  -12.7767 H   0  0  0  0  0
   -8.6423   -2.1276  -11.1221 H   0  0  0  0  0
   -3.4334   -0.5527  -12.4254 H   0  0  0  0  0
   -3.7698   -0.1625  -14.8499 H   0  0  0  0  0
   -2.8804   -1.6526  -15.2099 H   0  0  0  0  0
    0.2238   -0.5004  -13.9357 H   0  0  0  0  0
   -0.6434   -1.8359  -14.7152 H   0  0  0  0  0
   -1.1800   -0.7747  -11.9092 H   0  0  0  0  0
   -0.3060   -2.2712  -12.2978 H   0  0  0  0  0
   -3.4705   -9.7940  -18.8577 H   0  0  0  0  0
   -1.7990   -7.3138  -15.7556 H   0  0  0  0  0
   -1.2753  -10.1333  -20.1645 H   0  0  0  0  0
   -0.1292  -11.4411  -18.6033 H   0  0  0  0  0
    0.9165  -10.0417  -18.1124 H   0  0  0  0  0
    0.9421  -11.5315  -20.7525 H   0  0  0  0  0
    2.1985  -11.5456  -19.5088 H   0  0  0  0  0
    2.7253   -9.9756  -21.2174 H   0  0  0  0  0
    2.3892   -9.1454  -19.7887 H   0  0  0  0  0
    0.4766   -9.4960  -22.0202 H   0  0  0  0  0
    1.4420   -8.0517  -21.7682 H   0  0  0  0  0
    0.5175   -7.7907  -19.5038 H   0  0  0  0  0
   -0.8028   -7.8624  -20.7324 H   0  0  0  0  0
  1  5  4  0  0  0
  8  1  4  0  0  0
  1 18  1  0  0  0
  2  5  4  0  0  0
  6  2  4  0  0  0
 13  3  2  0  0  0
  4 20  1  0  0  0
  4 22  2  0  0  0
  4 23  2  0  0  0
 24  4  1  0  0  0
  7  6  4  0  0  0
  6  9  1  0  0  0
  7  8  4  0  0  0
 13  7  1  0  0  0
 10  9  2  0  0  0
 11 10  1  0  0  0
 12 11  4  0  0  0
 14 11  4  0  0  0
 12 13  1  0  0  0
 17 12  4  0  0  0
 15 14  4  0  0  0
 16 15  4  0  0  0
 16 17  4  0  0  0
 16 24  1  0  0  0
 18 31  4  0  0  0
 18 34  4  0  0  0
 20 19  1  0  0  0
 20 21  1  0  0  0
 21 25  1  0  0  0
 25 26  1  0  0  0
 25 30  1  0  0  0
 26 27  1  0  0  0
 27 28  1  0  0  0
 28 29  1  0  0  0
 29 30  1  0  0  0
 31 32  4  0  0  0
 32 33  4  0  0  0
 32 35  1  0  0  0
 33 34  4  0  0  0
 35 36  1  0  0  0
 35 40  1  0  0  0
 36 37  1  0  0  0
 37 38  1  0  0  0
 38 39  1  0  0  0
 39 40  1  0  0  0
  5 41  1  0  0  0
  8 42  1  0  0  0
  9 43  1  0  0  0
 10 44  1  0  0  0
 14 45  1  0  0  0
 15 46  1  0  0  0
 17 47  1  0  0  0
 19 48  1  0  0  0
 19 49  1  0  0  0
 19 50  1  0  0  0
 21 51  1  0  0  0
 21 52  1  0  0  0
 24 53  1  0  0  0
 25 54  1  0  0  0
 26 55  1  0  0  0
 26 56  1  0  0  0
 28 57  1  0  0  0
 28 58  1  0  0  0
 29 59  1  0  0  0
 29 60  1  0  0  0
 31 61  1  0  0  0
 34 62  1  0  0  0
 35 63  1  0  0  0
 36 64  1  0  0  0
 36 65  1  0  0  0
 37 66  1  0  0  0
 37 67  1  0  0  0
 38 68  1  0  0  0
 38 69  1  0  0  0
 39 70  1  0  0  0
 39 71  1  0  0  0
 40 72  1  0  0  0
 40 73  1  0  0  0
M  END
$$$$
