2q96_ligand
  -I-interpret- 

 25 26  0  0  0  0  0  0  0  0999 V2000
    0.7820   -0.0990    7.3330 O   0  0  0  0  0
    0.5880   -0.0710    8.5670 C   0  0  0  0  0
    1.4880    0.1020    9.4200 O   0  0  0  0  0
   -0.8540   -0.2460    9.0420 C   0  0  0  0  0
   -1.9210   -0.2760    8.1910 O   0  0  0  0  0
   -1.2690   -0.3900   10.2970 C   0  0  0  0  0
   -2.5950   -0.5140   10.2670 C   0  0  0  0  0
   -3.0030   -0.4470    9.0000 C   0  0  0  0  0
   -4.4130   -0.5340    8.4160 C   0  0  0  0  0
   -5.4450   -0.7820    9.5170 C   0  0  0  0  0
   -5.9590   -2.0670    9.6360 C   0  0  0  0  0
   -6.9120   -2.3630   10.6030 C   0  0  0  0  0
   -7.3580   -1.3680   11.4640 C   0  0  0  0  0
   -6.8460   -0.0810   11.3510 C   0  0  0  0  0
   -5.8960    0.2060   10.3800 C   0  0  0  0  0
   -5.2750    1.8150   10.2370 Cl  0  0  0  0  0
    1.1019    0.0851   10.2988 H   0  0  0  0  0
   -0.6398   -0.4040   11.1869 H   0  0  0  0  0
   -3.2399   -0.6481   11.1354 H   0  0  0  0  0
   -4.4490   -1.3625    7.7086 H   0  0  0  0  0
   -4.6468    0.4092    7.9222 H   0  0  0  0  0
   -5.6111   -2.8514    8.9638 H   0  0  0  0  0
   -7.3092   -3.3747   10.6859 H   0  0  0  0  0
   -8.1054   -1.5956   12.2240 H   0  0  0  0  0
   -7.1904    0.7034   12.0249 H   0  0  0  0  0
  1  2  2  0  0  0
  2  3  1  0  0  0
  2  4  1  0  0  0
  4  5  4  0  0  0
  4  6  4  0  0  0
  5  8  4  0  0  0
  6  7  4  0  0  0
  7  8  4  0  0  0
  8  9  1  0  0  0
  9 10  1  0  0  0
 10 11  4  0  0  0
 10 15  4  0  0  0
 11 12  4  0  0  0
 12 13  4  0  0  0
 13 14  4  0  0  0
 14 15  4  0  0  0
 15 16  1  0  0  0
  3 17  1  0  0  0
  6 18  1  0  0  0
  7 19  1  0  0  0
  9 20  1  0  0  0
  9 21  1  0  0  0
 11 22  1  0  0  0
 12 23  1  0  0  0
 13 24  1  0  0  0
 14 25  1  0  0  0
M  END
$$$$
