5x33_ligand
  -I-interpret- 

 65 68  0  0  0  0  0  0  0  0999 V2000
  117.0210  175.0890  281.6980 C   0  0  0  0  0
  119.6730  174.5280  281.5740 C   0  0  0  0  0
  118.2580  179.7060  282.3230 C   0  0  0  0  0
  117.0810  179.8060  283.0420 C   0  0  0  0  0
  121.9630  174.8390  280.9120 C   0  0  0  0  0
  115.4570  181.4300  283.6660 C   0  0  0  0  0
  114.4320  180.7890  284.6050 C   0  0  0  0  0
  112.1230  180.6780  285.2430 C   0  0  0  0  0
  110.6860  181.1570  285.0490 C   0  0  0  0  0
  113.7450  179.3170  286.3680 C   0  0  0  0  0
  116.7730  180.9670  283.7630 O   0  0  0  0  0
  123.2930  174.4040  280.9070 O   0  0  0  0  0
  109.8520  180.0410  285.0290 O   0  0  0  0  0
  103.8110  182.3490  285.0220 N   0  0  0  0  0
  103.5660  180.1470  285.8440 N   0  0  0  0  0
  117.8410  176.1410  280.9480 C   0  0  0  0  0
  117.6320  177.4680  281.6690 C   0  0  0  0  0
  119.3120  175.7000  280.9280 C   0  0  0  0  0
  117.2810  176.2500  279.5380 C   0  0  0  0  0
  118.5220  178.5350  281.6340 C   0  0  0  0  0
  116.4670  177.5820  282.3780 C   0  0  0  0  0
  120.2940  176.4270  280.2620 C   0  0  0  0  0
  116.2040  178.7430  283.0560 C   0  0  0  0  0
  120.9920  174.1010  281.5670 C   0  0  0  0  0
  121.6140  176.0080  280.2590 C   0  0  0  0  0
  113.1250  181.1940  284.4480 C   0  0  0  0  0
  114.7480  179.8470  285.5740 C   0  0  0  0  0
  112.4330  179.7340  286.2080 C   0  0  0  0  0
  108.4890  180.3130  285.1190 C   0  0  0  0  0
  107.5970  179.2880  284.8460 C   0  0  0  0  0
  108.0420  181.5740  285.4830 C   0  0  0  0  0
  105.7990  180.7790  285.2990 C   0  0  0  0  0
  106.2390  179.5200  284.9340 C   0  0  0  0  0
  106.6840  181.8040  285.5780 C   0  0  0  0  0
  104.3170  181.0490  285.4090 C   0  0  0  0  0
  117.3689  175.0263  282.7291 H   0  0  0  0  0
  115.9688  175.3732  281.6848 H   0  0  0  0  0
  117.1433  174.1208  281.2124 H   0  0  0  0  0
  118.9154  173.9386  282.0905 H   0  0  0  0  0
  118.9655  180.5349  282.2993 H   0  0  0  0  0
  115.4898  182.4862  283.9332 H   0  0  0  0  0
  115.1284  181.1911  282.6546 H   0  0  0  0  0
  110.5982  181.7063  284.1116 H   0  0  0  0  0
  110.4005  181.8226  285.8636 H   0  0  0  0  0
  113.9884  178.5686  287.1221 H   0  0  0  0  0
  123.8304  175.0269  280.4122 H   0  0  0  0  0
  102.8145  182.5523  285.1000 H   0  0  0  0  0
  104.4510  183.0616  284.6713 H   0  0  0  0  0
  102.5644  180.3170  285.9347 H   0  0  0  0  0
  116.2163  176.4782  279.5879 H   0  0  0  0  0
  117.7997  177.0454  279.0029 H   0  0  0  0  0
  117.4271  175.3042  279.0163 H   0  0  0  0  0
  119.4416  178.4483  281.0553 H   0  0  0  0  0
  115.7552  176.7569  282.4030 H   0  0  0  0  0
  120.0200  177.3406  279.7344 H   0  0  0  0  0
  115.2762  178.8283  283.6217 H   0  0  0  0  0
  121.2660  173.1791  282.0800 H   0  0  0  0  0
  122.3742  176.5961  279.7448 H   0  0  0  0  0
  112.8791  181.9325  283.6849 H   0  0  0  0  0
  115.7808  179.5259  285.7094 H   0  0  0  0  0
  111.6472  179.3202  286.8399 H   0  0  0  0  0
  107.9663  178.3023  284.5629 H   0  0  0  0  0
  108.7533  182.3732  285.6914 H   0  0  0  0  0
  105.5257  178.7242  284.7194 H   0  0  0  0  0
  106.3124  182.7860  285.8707 H   0  0  0  0  0
 16  1  1  0  0  0
 18  2  4  0  0  0
  2 24  4  0  0  0
  4  3  4  0  0  0
  3 20  4  0  0  0
 11  4  1  0  0  0
  4 23  4  0  0  0
  5 12  1  0  0  0
 24  5  4  0  0  0
 25  5  4  0  0  0
  7  6  1  0  0  0
  6 11  1  0  0  0
 26  7  4  0  0  0
  7 27  4  0  0  0
  9  8  1  0  0  0
  8 26  4  0  0  0
  8 28  4  0  0  0
 13  9  1  0  0  0
 10 27  4  0  0  0
 28 10  4  0  0  0
 29 13  1  0  0  0
 35 14  1  0  0  0
 35 15  2  0  0  0
 17 16  1  0  0  0
 16 18  1  0  0  0
 16 19  1  0  0  0
 20 17  4  0  0  0
 21 17  4  0  0  0
 18 22  4  0  0  0
 23 21  4  0  0  0
 22 25  4  0  0  0
 30 29  4  0  0  0
 31 29  4  0  0  0
 33 30  4  0  0  0
 34 31  4  0  0  0
 32 33  4  0  0  0
 32 34  4  0  0  0
 32 35  1  0  0  0
  1 36  1  0  0  0
  1 37  1  0  0  0
  1 38  1  0  0  0
  2 39  1  0  0  0
  3 40  1  0  0  0
  6 41  1  0  0  0
  6 42  1  0  0  0
  9 43  1  0  0  0
  9 44  1  0  0  0
 10 45  1  0  0  0
 12 46  1  0  0  0
 14 47  1  0  0  0
 14 48  1  0  0  0
 15 49  1  0  0  0
 19 50  1  0  0  0
 19 51  1  0  0  0
 19 52  1  0  0  0
 20 53  1  0  0  0
 21 54  1  0  0  0
 22 55  1  0  0  0
 23 56  1  0  0  0
 24 57  1  0  0  0
 25 58  1  0  0  0
 26 59  1  0  0  0
 27 60  1  0  0  0
 28 61  1  0  0  0
 30 62  1  0  0  0
 31 63  1  0  0  0
 33 64  1  0  0  0
 34 65  1  0  0  0
M  END
$$$$
