4mz4_ligand
  -I-interpret- 

 50 54  0  0  0  0  0  0  0  0999 V2000
   28.8710   43.3020   41.5260 C   0  0  0  0  0
   27.6340   43.1240   40.8470 C   0  0  0  0  0
   27.5450   43.3270   39.4470 C   0  0  0  0  0
   26.6270   42.5670   43.0020 C   0  0  0  0  0
   26.5240   42.7520   41.6090 C   0  0  0  0  0
   27.8910   42.7400   43.5590 C   0  0  0  0  0
   23.0380   45.9050   46.0710 C   0  0  0  0  0
   24.2840   43.8180   48.2010 C   0  0  0  0  0
   24.9310   42.7620   48.8860 C   0  0  0  0  0
   24.3340   43.8570   46.7790 C   0  0  0  0  0
   25.0040   42.8220   46.0880 C   0  0  0  0  0
   24.2000   44.2660   44.5300 C   0  0  0  0  0
   23.8270   44.7390   45.7930 C   0  0  0  0  0
   23.9150   44.9160   43.2530 C   0  0  0  0  0
   25.4250   42.1380   43.7570 C   0  0  0  0  0
   21.7220   46.0860   45.3350 C   0  0  0  0  0
   21.3690   48.1240   46.6100 C   0  0  0  0  0
   23.3710   46.8190   47.0080 C   0  0  0  0  0
   28.6770   43.7050   38.7230 C   0  0  0  0  0
   29.8850   43.8880   39.3800 C   0  0  0  0  0
   29.9780   43.6880   40.7660 C   0  0  0  0  0
   28.9940   43.1070   42.8640 N   0  0  0  0  0
   24.8900   43.0740   44.7520 N   0  0  0  0  0
   25.6070   41.7860   48.1480 C   0  0  0  0  0
   25.6430   41.7770   46.7580 C   0  0  0  0  0
   23.9020   46.1230   43.0820 O   0  0  0  0  0
   20.9840   47.2090   45.6630 N   0  0  0  0  0
   22.5200   47.9710   47.2860 C   0  0  0  0  0
   21.3470   45.2720   44.4740 O   0  0  0  0  0
   23.5850   44.0490   42.2770 O   0  0  0  0  0
   24.9260   42.6810   50.3950 C   0  0  0  0  0
   26.2570   40.8090   48.7960 F   0  0  0  0  0
   26.5925   43.1879   38.9357 H   0  0  0  0  0
   25.5624   42.6024   41.1180 H   0  0  0  0  0
   28.0007   42.5680   44.6297 H   0  0  0  0  0
   23.7538   44.5921   48.7557 H   0  0  0  0  0
   25.7266   41.2520   44.3157 H   0  0  0  0  0
   24.6373   42.0132   43.0140 H   0  0  0  0  0
   20.7336   48.9853   46.8164 H   0  0  0  0  0
   24.2968   46.6931   47.5694 H   0  0  0  0  0
   28.6120   43.8558   37.6454 H   0  0  0  0  0
   30.7678   44.1891   38.8160 H   0  0  0  0  0
   30.9372   43.8374   41.2616 H   0  0  0  0  0
   26.1516   40.9829   46.2113 H   0  0  0  0  0
   22.2151   47.8445   48.3248 H   0  0  0  0  0
   23.1228   48.8340   47.0033 H   0  0  0  0  0
   23.6581   43.1515   42.6097 H   0  0  0  0  0
   25.3989   43.5725   50.8070 H   0  0  0  0  0
   23.8977   42.6162   50.7507 H   0  0  0  0  0
   25.4778   41.7960   50.7119 H   0  0  0  0  0
  2  1  4  0  0  0
  1 21  4  0  0  0
 22  1  4  0  0  0
  2  3  4  0  0  0
  5  2  4  0  0  0
  3 19  4  0  0  0
  4  5  4  0  0  0
  4  6  4  0  0  0
 15  4  1  0  0  0
  6 22  4  0  0  0
 13  7  1  0  0  0
  7 16  1  0  0  0
  7 18  2  0  0  0
  8  9  4  0  0  0
 10  8  4  0  0  0
  9 24  4  0  0  0
  9 31  1  0  0  0
 11 10  4  0  0  0
 13 10  4  0  0  0
 23 11  4  0  0  0
 11 25  4  0  0  0
 12 13  4  0  0  0
 12 14  1  0  0  0
 23 12  4  0  0  0
 14 26  2  0  0  0
 14 30  1  0  0  0
 15 23  1  0  0  0
 16 27  1  0  0  0
 16 29  2  0  0  0
 27 17  2  0  0  0
 17 28  1  0  0  0
 18 28  1  0  0  0
 19 20  4  0  0  0
 20 21  4  0  0  0
 24 25  4  0  0  0
 24 32  1  0  0  0
  3 33  1  0  0  0
  5 34  1  0  0  0
  6 35  1  0  0  0
  8 36  1  0  0  0
 15 37  1  0  0  0
 15 38  1  0  0  0
 17 39  1  0  0  0
 18 40  1  0  0  0
 19 41  1  0  0  0
 20 42  1  0  0  0
 21 43  1  0  0  0
 25 44  1  0  0  0
 28 45  1  0  0  0
 28 46  1  0  0  0
 30 47  1  0  0  0
 31 48  1  0  0  0
 31 49  1  0  0  0
 31 50  1  0  0  0
M  END
$$$$
