6aaj_ligand
  -I-interpret- 

 45 49  0  0  0  0  0  0  0  0999 V2000
   14.9830    4.2590   40.9070 C   0  0  0  0  0
   11.5670    2.3710   39.6070 C   0  0  0  0  0
   15.6850    4.1050   39.7260 C   0  0  0  0  0
   13.6990    3.6720   40.7400 C   0  0  0  0  0
   11.5160    2.8230   40.9100 C   0  0  0  0  0
   12.5600    3.4910   41.5240 C   0  0  0  0  0
   13.6690    3.1740   39.4420 C   0  0  0  0  0
   10.2760    2.5910   41.6140 C   0  0  0  0  0
   12.7260    5.1940   45.6870 C   0  0  0  0  0
   12.2070    6.8170   43.8970 C   0  0  0  0  0
   13.8870    7.4240   45.5540 C   0  0  0  0  0
   15.1290    5.3300   45.1020 C   0  0  0  0  0
   14.5830    6.9090   43.2430 C   0  0  0  0  0
   12.5710    6.6780   45.3580 C   0  0  0  0  0
   13.8340    4.5650   44.8490 C   0  0  0  0  0
   13.2870    6.1610   43.0430 C   0  0  0  0  0
   13.5560    4.6820   43.3620 C   0  0  0  0  0
   14.9610    6.7950   44.6900 C   0  0  0  0  0
   12.6510    2.5270   38.8390 N   0  0  0  0  0
   14.8730    3.4460   38.8470 N   0  0  0  0  0
    9.3180    2.1530   40.7530 N   0  0  0  0  0
   12.4000    3.9330   42.8660 N   0  0  0  0  0
   10.1660    2.7960   42.8130 O   0  0  0  0  0
   16.1570    7.5370   44.7760 O   0  0  0  0  0
   15.3505    4.7463   41.8101 H   0  0  0  0  0
   10.6939    1.8696   39.1894 H   0  0  0  0  0
   16.7015    4.4472   39.5316 H   0  0  0  0  0
   11.7874    4.6857   45.4663 H   0  0  0  0  0
   12.9832    5.0933   46.7414 H   0  0  0  0  0
   12.1300    7.8733   43.6393 H   0  0  0  0  0
   11.2497    6.3297   43.7118 H   0  0  0  0  0
   14.1841    7.3656   46.6011 H   0  0  0  0  0
   13.7577    8.4680   45.2685 H   0  0  0  0  0
   15.9306    4.8821   44.5148 H   0  0  0  0  0
   15.3725    5.2817   46.1634 H   0  0  0  0  0
   14.4618    7.9561   42.9654 H   0  0  0  0  0
   15.3652    6.4848   42.6135 H   0  0  0  0  0
   11.8062    7.0906   46.0160 H   0  0  0  0  0
   13.8984    3.5137   45.1297 H   0  0  0  0  0
   12.9167    6.2029   42.0187 H   0  0  0  0  0
   14.4353    4.2615   42.8740 H   0  0  0  0  0
    8.3771    1.9563   41.0941 H   0  0  0  0  0
    9.5407    2.0214   39.7663 H   0  0  0  0  0
   11.5670    3.7476   43.4246 H   0  0  0  0  0
   16.8270    7.1270   44.2242 H   0  0  0  0  0
  1  3  4  0  0  0
  4  1  4  0  0  0
  5  2  4  0  0  0
  2 19  4  0  0  0
 20  3  4  0  0  0
  6  4  4  0  0  0
  4  7  4  0  0  0
  6  5  4  0  0  0
  5  8  1  0  0  0
 22  6  1  0  0  0
  7 19  4  0  0  0
  7 20  4  0  0  0
  8 21  1  0  0  0
  8 23  2  0  0  0
  9 14  1  0  0  0
 15  9  1  0  0  0
 10 14  1  0  0  0
 16 10  1  0  0  0
 14 11  1  0  0  0
 18 11  1  0  0  0
 15 12  1  0  0  0
 12 18  1  0  0  0
 16 13  1  0  0  0
 13 18  1  0  0  0
 17 15  1  0  0  0
 17 16  1  0  0  0
 17 22  1  0  0  0
 18 24  1  0  0  0
  1 25  1  0  0  0
  2 26  1  0  0  0
  3 27  1  0  0  0
  9 28  1  0  0  0
  9 29  1  0  0  0
 10 30  1  0  0  0
 10 31  1  0  0  0
 11 32  1  0  0  0
 11 33  1  0  0  0
 12 34  1  0  0  0
 12 35  1  0  0  0
 13 36  1  0  0  0
 13 37  1  0  0  0
 14 38  1  0  0  0
 15 39  1  0  0  0
 16 40  1  0  0  0
 17 41  1  0  0  0
 21 42  1  0  0  0
 21 43  1  0  0  0
 22 44  1  0  0  0
 24 45  1  0  0  0
M  END
$$$$
