### 
### Created by X-TOOL on Mon Aug  2 16:15:23 2021
### 

@<TRIPOS>MOLECULE
6nsx_ligand
  100   101     1     0     0
SMALL
GAST_HUCK


@<TRIPOS>ATOM
      1 N          31.4940    4.1430   -2.0160 N.4       1 SER         0.2396
      2 CA         30.5100    4.4920   -3.0150 C.3       1 SER         0.0885
      3 C          29.1510    4.6480   -2.4080 C.2       1 SER         0.2290
      4 O          28.8910    4.1470   -1.3450 O.2       1 SER        -0.3906
      5 CB         30.4670    3.4280   -4.1250 C.3       1 SER         0.1041
      6 OG         29.2120    3.3340   -4.7540 O.3       1 SER        -0.3870
      7 N          28.2850    5.3330   -3.1370 N.am      1 SER        -0.2609
      8 CA         26.9340    5.5740   -2.7210 C.3       1 SER         0.1312
      9 C          25.9820    4.5850   -3.3040 C.2       1 SER         0.2040
     10 O          24.8170    4.6270   -3.0370 O.2       1 SER        -0.3944
     11 CB         26.5230    6.9640   -3.1410 C.3       1 SER        -0.0092
     12 CG         27.3370    8.0850   -2.5300 C.3       1 SER        -0.0156
     13 CD         26.6440    9.4050   -2.7360 C.3       1 SER         0.0627
     14 NE         27.0120   10.4860   -1.8470 N.pl3     1 SER        -0.2723
     15 CZ         28.2260   10.9600   -1.6520 C.cat     1 SER         0.2882
     16 NH1        29.2780   10.4490   -2.2270 N.pl3     1 SER        -0.2849
     17 NH2        28.3820   11.9500   -0.8260 N.pl3     1 SER        -0.2849
     18 N          26.4810    3.6780   -4.1100 N.am      1 SER        -0.2627
     19 CA         25.6190    2.6880   -4.7120 C.3       1 SER         0.1352
     20 C          24.9220    1.7850   -3.7270 C.2       1 SER         0.2052
     21 O          25.5280    1.1840   -2.8710 O.2       1 SER        -0.3942
     22 CB         26.3480    1.8930   -5.7830 C.3       1 SER         0.0042
     23 CG         26.4450    2.6980   -7.0350 C.2       1 SER        -0.0418
     24 CD1        27.5300    3.2930   -7.5310 C.2       1 SER         0.0167
     25 CD2        25.3750    3.0740   -7.8680 C.ar      1 SER        -0.0214
     26 NE1        27.2200    3.9930   -8.6390 N.pl3     1 SER        -0.2890
     27 CE2        25.8880    3.8750   -8.8610 C.ar      1 SER         0.0603
     28 CE3        24.0310    2.8080   -7.8640 C.ar      1 SER        -0.0747
     29 CZ2        25.1160    4.4020   -9.8240 C.ar      1 SER        -0.0443
     30 CZ3        23.2830    3.3210   -8.7970 C.ar      1 SER        -0.0792
     31 CH2        23.8090    4.0970   -9.7830 C.ar      1 SER        -0.0768
     32 N          23.6200    1.7190   -3.8950 N.am      1 SER        -0.2621
     33 CA         22.7240    0.8950   -3.1270 C.3       1 SER         0.1423
     34 C          22.3340    1.2830   -1.6940 C.2       1 SER         0.2056
     35 O          21.5770    0.5620   -1.0640 O.2       1 SER        -0.3943
     36 CB         23.1610   -0.5290   -3.2080 C.3       1 SER         0.0406
     37 CG         22.9870   -1.0720   -4.5800 C.2       1 SER         0.0393
     38 OD1        21.8450   -1.2350   -4.9960 O.co2     1 SER        -0.5688
     39 OD2        23.9880   -1.2790   -5.2430 O.co2     1 SER        -0.5688
     40 N          22.8100    2.4250   -1.2170 N.am      1 SER        -0.2634
     41 CA         22.4480    2.9450    0.1000 C.3       1 SER         0.1332
     42 C          20.9940    3.3530    0.1140 C.2       1 SER         0.2036
     43 O          20.6280    4.2620   -0.5800 O.2       1 SER        -0.3944
     44 CB         23.2430    4.1950    0.4180 C.3       1 SER        -0.0063
     45 CG1        22.8460    4.7800    1.7480 C.3       1 SER        -0.0584
     46 CG2        24.7190    3.9140    0.3850 C.3       1 SER        -0.0584
     47 N          20.1700    2.6920    0.9060 N.am      1 SER        -0.2697
     48 CA         18.7460    3.0000    0.9660 C.3       1 SER         0.0916
     49 C          18.3760    4.0470    1.9970 C.2       1 SER         0.0598
     50 O          19.2420    4.7140    2.5410 O.co2     1 SER        -0.5666
     51 CB         17.9310    1.7320    1.1880 C.3       1 SER        -0.0300
     52 OXT        17.2070    4.2360    2.2960 O.co2     1 SER        -0.5666
     53 H1         32.3968    4.0450   -2.4535 H         1 SER         0.2016
     54 H2         31.2357    3.2717   -1.5799 H         1 SER         0.2016
     55 H3         31.5360    4.8688   -1.3178 H         1 SER         0.2016
     56 H4         30.8014    5.4531   -3.4638 H         1 SER         0.1122
     57 H5         30.7103    2.4508   -3.6823 H         1 SER         0.0640
     58 H6         31.2204    3.6843   -4.8844 H         1 SER         0.0640
     59 H7         29.2457    2.6643   -5.4269 H         1 SER         0.2099
     60 H8         28.5861    5.6991   -4.0175 H         1 SER         0.1884
     61 H9         26.8874    5.5004   -1.6245 H         1 SER         0.0800
     62 H10        25.4714    7.1103   -2.8534 H         1 SER         0.0313
     63 H11        26.6168    7.0315   -4.2349 H         1 SER         0.0313
     64 H12        28.3274    8.1166   -3.0077 H         1 SER         0.0301
     65 H13        27.4555    7.9016   -1.4519 H         1 SER         0.0301
     66 H14        25.5635    9.2341   -2.6210 H         1 SER         0.0689
     67 H15        26.8558    9.7341   -3.7640 H         1 SER         0.0689
     68 H16        26.2498   10.9286   -1.3141 H         1 SER         0.2642
     69 H17        30.2093   10.8503   -2.0470 H         1 SER         0.2615
     70 H18        29.1781    9.6438   -2.8615 H         1 SER         0.2615
     71 H19        27.5627   12.3673   -0.3617 H         1 SER         0.2615
     72 H20        29.3250   12.3179   -0.6352 H         1 SER         0.2615
     73 H21        27.4612    3.6722   -4.3081 H         1 SER         0.1884
     74 H22        24.8235    3.2490   -5.2243 H         1 SER         0.0815
     75 H23        25.7947    0.9647   -5.9882 H         1 SER         0.0397
     76 H24        27.3597    1.6462   -5.4288 H         1 SER         0.0397
     77 H25        28.5278    3.2228   -7.1003 H         1 SER         0.0795
     78 H26        27.8825    4.5273   -9.2192 H         1 SER         0.2216
     79 H27        23.5971    2.1794   -7.0948 H         1 SER         0.0540
     80 H28        25.5271    5.0419  -10.5964 H         1 SER         0.0541
     81 H29        22.2168    3.1257   -8.7885 H         1 SER         0.0510
     82 H30        23.1543    4.4799  -10.5575 H         1 SER         0.0530
     83 H31        23.2198    2.2870   -4.6142 H         1 SER         0.1884
     84 H32        21.7737    0.9495   -3.6784 H         1 SER         0.0819
     85 H33        22.5609   -1.1280   -2.5073 H         1 SER         0.0478
     86 H34        24.2232   -0.5939   -2.9295 H         1 SER         0.0478
     87 H35        23.4437    2.9529   -1.7825 H         1 SER         0.1883
     88 H36        22.6346    2.1734    0.8614 H         1 SER         0.0802
     89 H37        23.0214    4.9415   -0.3590 H         1 SER         0.0343
     90 H38        23.4425    5.6832    1.9440 H         1 SER         0.0234
     91 H39        23.0276    4.0412    2.5425 H         1 SER         0.0234
     92 H40        21.7781    5.0429    1.7289 H         1 SER         0.0234
     93 H41        24.9893    3.4880   -0.5924 H         1 SER         0.0234
     94 H42        24.9738    3.1979    1.1802 H         1 SER         0.0234
     95 H43        25.2742    4.8504    0.5430 H         1 SER         0.0234
     96 H44        20.5329    1.9590    1.4813 H         1 SER         0.1875
     97 H45        18.4671    3.4072   -0.0171 H         1 SER         0.0723
     98 H46        16.8616    1.9862    1.2301 H         1 SER         0.0270
     99 H47        18.2338    1.2626    2.1356 H         1 SER         0.0270
    100 H48        18.1090    1.0317    0.3586 H         1 SER         0.0270
@<TRIPOS>BOND
     1    1    2 1  
     2    2    3 1  
     3    2    5 1  
     4    3    4 2  
     5    3    7 am 
     6    5    6 1  
     7    7    8 1  
     8    8    9 1  
     9    8   11 1  
    10    9   10 2  
    11    9   18 am 
    12   11   12 1  
    13   12   13 1  
    14   13   14 1  
    15   14   15 ar 
    16   15   16 ar 
    17   15   17 ar 
    18   18   19 1  
    19   19   20 1  
    20   19   22 1  
    21   20   21 2  
    22   20   32 am 
    23   22   23 1  
    24   23   24 2  
    25   23   25 1  
    26   24   26 1  
    27   25   27 ar 
    28   25   28 ar 
    29   26   27 1  
    30   27   29 ar 
    31   28   30 ar 
    32   29   31 ar 
    33   30   31 ar 
    34   32   33 1  
    35   33   34 1  
    36   33   36 1  
    37   34   35 2  
    38   34   40 am 
    39   36   37 1  
    40   37   38 ar 
    41   37   39 ar 
    42   40   41 1  
    43   41   42 1  
    44   41   44 1  
    45   42   43 2  
    46   42   47 am 
    47   44   45 1  
    48   44   46 1  
    49   47   48 1  
    50   48   49 1  
    51   48   51 1  
    52   49   50 ar 
    53   49   52 ar 
    54    1   53 1  
    55    1   54 1  
    56    1   55 1  
    57    2   56 1  
    58    5   57 1  
    59    5   58 1  
    60    6   59 1  
    61    7   60 1  
    62    8   61 1  
    63   11   62 1  
    64   11   63 1  
    65   12   64 1  
    66   12   65 1  
    67   13   66 1  
    68   13   67 1  
    69   14   68 1  
    70   16   69 1  
    71   16   70 1  
    72   17   71 1  
    73   17   72 1  
    74   18   73 1  
    75   19   74 1  
    76   22   75 1  
    77   22   76 1  
    78   24   77 1  
    79   26   78 1  
    80   28   79 1  
    81   29   80 1  
    82   30   81 1  
    83   31   82 1  
    84   32   83 1  
    85   33   84 1  
    86   36   85 1  
    87   36   86 1  
    88   40   87 1  
    89   41   88 1  
    90   44   89 1  
    91   45   90 1  
    92   45   91 1  
    93   45   92 1  
    94   46   93 1  
    95   46   94 1  
    96   46   95 1  
    97   47   96 1  
    98   48   97 1  
    99   51   98 1  
   100   51   99 1  
   101   51  100 1  
@<TRIPOS>SUBSTRUCTURE
     1 SER         1

