6nsx_ligand
  -I-interpret- 

100101  0  0  0  0  0  0  0  0999 V2000
   31.4940    4.1430   -2.0160 N   0  3  0  0  0
   30.5100    4.4920   -3.0150 C   0  0  0  0  0
   29.1510    4.6480   -2.4080 C   0  0  0  0  0
   28.8910    4.1470   -1.3450 O   0  0  0  0  0
   30.4670    3.4280   -4.1250 C   0  0  0  0  0
   29.2120    3.3340   -4.7540 O   0  0  0  0  0
   28.2850    5.3330   -3.1370 N   0  0  0  0  0
   26.9340    5.5740   -2.7210 C   0  0  0  0  0
   25.9820    4.5850   -3.3040 C   0  0  0  0  0
   24.8170    4.6270   -3.0370 O   0  0  0  0  0
   26.5230    6.9640   -3.1410 C   0  0  0  0  0
   27.3370    8.0850   -2.5300 C   0  0  0  0  0
   26.6440    9.4050   -2.7360 C   0  0  0  0  0
   27.0120   10.4860   -1.8470 N   0  0  0  0  0
   28.2260   10.9600   -1.6520 C   0  0  0  0  0
   29.2780   10.4490   -2.2270 N   0  0  0  0  0
   28.3820   11.9500   -0.8260 N   0  0  0  0  0
   26.4810    3.6780   -4.1100 N   0  0  0  0  0
   25.6190    2.6880   -4.7120 C   0  0  0  0  0
   24.9220    1.7850   -3.7270 C   0  0  0  0  0
   25.5280    1.1840   -2.8710 O   0  0  0  0  0
   26.3480    1.8930   -5.7830 C   0  0  0  0  0
   26.4450    2.6980   -7.0350 C   0  0  0  0  0
   27.5300    3.2930   -7.5310 C   0  0  0  0  0
   25.3750    3.0740   -7.8680 C   0  0  0  0  0
   27.2200    3.9930   -8.6390 N   0  0  0  0  0
   25.8880    3.8750   -8.8610 C   0  0  0  0  0
   24.0310    2.8080   -7.8640 C   0  0  0  0  0
   25.1160    4.4020   -9.8240 C   0  0  0  0  0
   23.2830    3.3210   -8.7970 C   0  0  0  0  0
   23.8090    4.0970   -9.7830 C   0  0  0  0  0
   23.6200    1.7190   -3.8950 N   0  0  0  0  0
   22.7240    0.8950   -3.1270 C   0  0  0  0  0
   22.3340    1.2830   -1.6940 C   0  0  0  0  0
   21.5770    0.5620   -1.0640 O   0  0  0  0  0
   23.1610   -0.5290   -3.2080 C   0  0  0  0  0
   22.9870   -1.0720   -4.5800 C   0  0  0  0  0
   21.8450   -1.2350   -4.9960 O   0  0  0  0  0
   23.9880   -1.2790   -5.2430 O   0  0  0  0  0
   22.8100    2.4250   -1.2170 N   0  0  0  0  0
   22.4480    2.9450    0.1000 C   0  0  0  0  0
   20.9940    3.3530    0.1140 C   0  0  0  0  0
   20.6280    4.2620   -0.5800 O   0  0  0  0  0
   23.2430    4.1950    0.4180 C   0  0  0  0  0
   22.8460    4.7800    1.7480 C   0  0  0  0  0
   24.7190    3.9140    0.3850 C   0  0  0  0  0
   20.1700    2.6920    0.9060 N   0  0  0  0  0
   18.7460    3.0000    0.9660 C   0  0  0  0  0
   18.3760    4.0470    1.9970 C   0  0  0  0  0
   19.2420    4.7140    2.5410 O   0  0  0  0  0
   17.9310    1.7320    1.1880 C   0  0  0  0  0
   17.2070    4.2360    2.2960 O   0  0  0  0  0
   31.5080    4.8589   -1.2896 H   0  0  0  0  0
   31.2525    3.2423   -1.6027 H   0  0  0  0  0
   32.4137    4.0823   -2.4530 H   0  0  0  0  0
   30.8042    5.4481   -3.4479 H   0  0  0  0  0
   30.6795    2.4626   -3.6657 H   0  0  0  0  0
   31.1963    3.7122   -4.8836 H   0  0  0  0  0
   29.2460    2.6572   -5.4340 H   0  0  0  0  0
   28.5921    5.7064   -4.0351 H   0  0  0  0  0
   26.8984    5.4724   -1.6363 H   0  0  0  0  0
   25.4953    7.1028   -2.8055 H   0  0  0  0  0
   26.6679    7.0222   -4.2198 H   0  0  0  0  0
   28.3150    8.1175   -3.0101 H   0  0  0  0  0
   27.4469    7.9035   -1.4608 H   0  0  0  0  0
   25.5858    9.2172   -2.5540 H   0  0  0  0  0
   26.9231    9.7346   -3.7368 H   0  0  0  0  0
   26.2572   10.9243   -1.3192 H   0  0  0  0  0
   30.2037   10.8270   -2.0253 H   0  0  0  0  0
   29.1757    9.6711   -2.8787 H   0  0  0  0  0
   27.5741   12.3442   -0.3440 H   0  0  0  0  0
   27.4808    3.6721   -4.3120 H   0  0  0  0  0
   24.8199    3.2562   -5.1881 H   0  0  0  0  0
   25.7965    0.9753   -5.9874 H   0  0  0  0  0
   27.3514    1.6524   -5.4317 H   0  0  0  0  0
   28.5287    3.2227   -7.0999 H   0  0  0  0  0
   23.5947    2.1759   -7.0906 H   0  0  0  0  0
   25.5293    5.0455  -10.6006 H   0  0  0  0  0
   22.2109    3.1246   -8.7884 H   0  0  0  0  0
   23.1507    4.4820  -10.5618 H   0  0  0  0  0
   23.2118    2.2983   -4.6286 H   0  0  0  0  0
   21.7722    1.0811   -3.6245 H   0  0  0  0  0
   22.5513   -1.1178   -2.5227 H   0  0  0  0  0
   24.2177   -0.5823   -2.9460 H   0  0  0  0  0
   21.2185   -1.0111   -4.3039 H   0  0  0  0  0
   23.4563    2.9635   -1.7938 H   0  0  0  0  0
   22.6507    2.1578    0.8261 H   0  0  0  0  0
   23.0139    4.9321   -0.3516 H   0  0  0  0  0
   21.7877    5.0400    1.7278 H   0  0  0  0  0
   23.0264    4.0470    2.5343 H   0  0  0  0  0
   23.4377    5.6749    1.9410 H   0  0  0  0  0
   24.9584    3.1483    1.1229 H   0  0  0  0  0
   24.9986    3.5631   -0.6084 H   0  0  0  0  0
   25.2667    4.8275    0.6166 H   0  0  0  0  0
   20.5402    1.9443    1.4928 H   0  0  0  0  0
   18.5022    3.4352   -0.0031 H   0  0  0  0  0
   18.1083    1.0390    0.3656 H   0  0  0  0  0
   18.2321    1.2679    2.1272 H   0  0  0  0  0
   16.8716    1.9851    1.2295 H   0  0  0  0  0
   16.6483    3.6418    1.7896 H   0  0  0  0  0
  1  2  1  0  0  0
  2  3  1  0  0  0
  2  5  1  0  0  0
  3  4  2  0  0  0
  3  7  1  0  0  0
  5  6  1  0  0  0
  7  8  1  0  0  0
  8  9  1  0  0  0
  8 11  1  0  0  0
  9 10  2  0  0  0
  9 18  1  0  0  0
 11 12  1  0  0  0
 12 13  1  0  0  0
 13 14  1  0  0  0
 14 15  1  0  0  0
 15 16  1  0  0  0
 15 17  2  0  0  0
 18 19  1  0  0  0
 19 20  1  0  0  0
 19 22  1  0  0  0
 20 21  2  0  0  0
 20 32  1  0  0  0
 22 23  1  0  0  0
 23 24  4  0  0  0
 23 25  4  0  0  0
 24 26  4  0  0  0
 25 27  4  0  0  0
 25 28  4  0  0  0
 26 27  4  0  0  0
 27 29  4  0  0  0
 28 30  4  0  0  0
 29 31  4  0  0  0
 30 31  4  0  0  0
 32 33  1  0  0  0
 33 34  1  0  0  0
 33 36  1  0  0  0
 34 35  2  0  0  0
 34 40  1  0  0  0
 36 37  1  0  0  0
 37 38  1  0  0  0
 37 39  2  0  0  0
 40 41  1  0  0  0
 41 42  1  0  0  0
 41 44  1  0  0  0
 42 43  2  0  0  0
 42 47  1  0  0  0
 44 45  1  0  0  0
 44 46  1  0  0  0
 47 48  1  0  0  0
 48 49  1  0  0  0
 48 51  1  0  0  0
 49 50  2  0  0  0
 49 52  1  0  0  0
  1 53  1  0  0  0
  1 54  1  0  0  0
  1 55  1  0  0  0
  2 56  1  0  0  0
  5 57  1  0  0  0
  5 58  1  0  0  0
  6 59  1  0  0  0
  7 60  1  0  0  0
  8 61  1  0  0  0
 11 62  1  0  0  0
 11 63  1  0  0  0
 12 64  1  0  0  0
 12 65  1  0  0  0
 13 66  1  0  0  0
 13 67  1  0  0  0
 14 68  1  0  0  0
 16 69  1  0  0  0
 16 70  1  0  0  0
 17 71  1  0  0  0
 18 72  1  0  0  0
 19 73  1  0  0  0
 22 74  1  0  0  0
 22 75  1  0  0  0
 24 76  1  0  0  0
 28 77  1  0  0  0
 29 78  1  0  0  0
 30 79  1  0  0  0
 31 80  1  0  0  0
 32 81  1  0  0  0
 33 82  1  0  0  0
 36 83  1  0  0  0
 36 84  1  0  0  0
 38 85  1  0  0  0
 40 86  1  0  0  0
 41 87  1  0  0  0
 44 88  1  0  0  0
 45 89  1  0  0  0
 45 90  1  0  0  0
 45 91  1  0  0  0
 46 92  1  0  0  0
 46 93  1  0  0  0
 46 94  1  0  0  0
 47 95  1  0  0  0
 48 96  1  0  0  0
 51 97  1  0  0  0
 51 98  1  0  0  0
 51 99  1  0  0  0
 52100  1  0  0  0
M  END
$$$$
