5lvn_ligand
  -I-interpret- 

 32 34  0  0  0  0  0  0  0  0999 V2000
  -18.2290   20.7890   -9.5900 O   0  0  0  0  0
  -18.8940   19.9430  -10.5300 C   0  0  0  0  0
  -18.5880   18.4810  -10.2790 C   0  0  0  0  0
  -17.2040   18.1790  -10.6460 O   0  0  0  0  0
  -18.7010   18.0260   -8.8270 C   0  0  0  0  0
  -20.0430   17.7480   -8.4390 O   0  0  0  0  0
  -17.7690   16.8160   -8.7790 C   0  0  0  0  0
  -18.3810   15.6550   -9.2980 O   0  0  0  0  0
  -16.6570   17.2470   -9.7380 C   0  0  0  0  0
  -15.5890   17.9030   -8.9750 N   0  0  0  0  0
  -15.6120   19.1790   -8.4820 C   0  0  0  0  0
  -14.4900   19.3730   -7.8100 N   0  0  0  0  0
  -13.7750   18.2310   -7.9090 C   0  0  0  0  0
  -12.5590   17.9290   -7.4130 C   0  0  0  0  0
  -11.6940   18.7890   -6.6090 N   0  0  0  0  0
  -12.0170   16.7240   -7.5770 N   0  0  0  0  0
  -12.7270   15.8080   -8.2940 C   0  0  0  0  0
  -13.9500   16.1050   -8.8050 N   0  0  0  0  0
  -14.4550   17.3040   -8.6130 C   0  0  0  0  0
  -18.4444   21.7055   -9.7777 H   0  0  0  0  0
  -18.5467   20.2005  -11.5306 H   0  0  0  0  0
  -19.9688   20.0923  -10.4271 H   0  0  0  0  0
  -19.3381   17.9650  -10.8784 H   0  0  0  0  0
  -18.4139   18.7920   -8.1066 H   0  0  0  0  0
  -20.5642   18.5523   -8.4947 H   0  0  0  0  0
  -17.4557   16.5680   -7.7649 H   0  0  0  0  0
  -19.0819   15.3722   -8.7061 H   0  0  0  0  0
  -16.2526   16.3827  -10.2649 H   0  0  0  0  0
  -16.4125   19.9060   -8.6188 H   0  0  0  0  0
  -11.9957   19.7329   -6.3673 H   0  0  0  0  0
  -10.7883   18.4456   -6.2893 H   0  0  0  0  0
  -12.3049   14.8170   -8.4608 H   0  0  0  0  0
  1  2  1  0  0  0
  2  3  1  0  0  0
  3  4  1  0  0  0
  3  5  1  0  0  0
  4  9  1  0  0  0
  5  6  1  0  0  0
  5  7  1  0  0  0
  7  8  1  0  0  0
  7  9  1  0  0  0
  9 10  1  0  0  0
 10 11  4  0  0  0
 10 19  4  0  0  0
 11 12  4  0  0  0
 12 13  4  0  0  0
 13 14  4  0  0  0
 13 19  4  0  0  0
 14 15  1  0  0  0
 14 16  4  0  0  0
 16 17  4  0  0  0
 17 18  4  0  0  0
 18 19  4  0  0  0
  1 20  1  0  0  0
  2 21  1  0  0  0
  2 22  1  0  0  0
  3 23  1  0  0  0
  5 24  1  0  0  0
  6 25  1  0  0  0
  7 26  1  0  0  0
  8 27  1  0  0  0
  9 28  1  0  0  0
 11 29  1  0  0  0
 15 30  1  0  0  0
 15 31  1  0  0  0
 17 32  1  0  0  0
M  END
$$$$
