### 
### Created by X-TOOL on Mon Sep 10 21:13:23 2018
### 

@<TRIPOS>MOLECULE
4qvw_ligand
   53    54     1     0     0
SMALL
GAST_HUCK


@<TRIPOS>ATOM
      1 N1         62.3910 -133.0840   36.0090 N.ar      1 BO2        -0.2509
      2 C2         61.8510 -134.2920   36.2460 C.ar      1 BO2         0.1532
      3 C3         61.9000 -135.2870   35.2700 C.ar      1 BO2         0.0620
      4 N4         62.5100 -135.0200   34.0370 N.ar      1 BO2        -0.2653
      5 C5         63.0680 -133.7570   33.7940 C.ar      1 BO2         0.0462
      6 C6         63.0060 -132.7840   34.7840 C.ar      1 BO2         0.0475
      7 C7         61.2650 -134.5220   37.4850 C.2       1 BO2         0.2349
      8 O8         60.4910 -133.6980   37.9720 O.2       1 BO2        -0.3755
      9 N9         61.6370 -135.6610   38.0930 N.am      1 BO2        -0.2600
     10 C10        61.1770 -136.0150   39.4410 C.3       1 BO2         0.1378
     11 C11        60.5160 -137.3720   39.4580 C.3       1 BO2         0.0213
     12 C12        59.3150 -137.2430   38.7400 C.ar      1 BO2        -0.0385
     13 C13        59.1140 -137.9470   37.5500 C.ar      1 BO2        -0.0601
     14 C14        57.9180 -137.8140   36.8460 C.ar      1 BO2        -0.0686
     15 C15        56.9110 -136.9780   37.3220 C.ar      1 BO2        -0.0687
     16 C16        57.1050 -136.2780   38.5060 C.ar      1 BO2        -0.0686
     17 C17        58.2970 -136.4130   39.2130 C.ar      1 BO2        -0.0601
     18 C18        62.4320 -136.0360   40.3070 C.2       1 BO2         0.1755
     19 O19        63.5460 -136.0350   39.7820 O.2       1 BO2        -0.3969
     20 N20        62.2320 -136.0080   41.6310 N.am      1 BO2        -0.4361
     21 C21        63.3830 -135.9950   42.5540 C.3       1 BO2        -0.2261
     22 C22        63.5520 -134.6570   43.2430 C.3       1 BO2        -0.1585
     23 C23        63.3530 -133.4860   42.2660 C.3       1 BO2        -0.0721
     24 C24        63.1570 -132.2140   43.1050 C.3       1 BO2        -0.0649
     25 C25        64.5740 -133.3320   41.3440 C.3       1 BO2        -0.0649
     26 B26        63.2280 -137.0390   43.6740 B         1 BO2         3.0000
     27 O27        61.9010 -137.0100   44.2190 O.3       1 BO2        -0.8710
     28 O28        63.5200 -138.3450   43.1690 O.3       1 BO2        -0.8710
     29 H          61.4683 -136.2622   35.4642 H         1 BO2         0.0978
     30 H          63.5429 -133.5418   32.8436 H         1 BO2         0.0958
     31 H          63.4293 -131.8011   34.6114 H         1 BO2         0.0941
     32 H          62.2480 -136.2888   37.6107 H         1 BO2         0.1883
     33 H          60.4673 -135.2601   39.8104 H         1 BO2         0.0823
     34 H          60.3079 -137.6798   40.4933 H         1 BO2         0.0474
     35 H          61.1670 -138.1173   38.9777 H         1 BO2         0.0474
     36 H          59.8922 -138.6002   37.1721 H         1 BO2         0.0557
     37 H          57.7712 -138.3640   35.9235 H         1 BO2         0.0599
     38 H          55.9824 -136.8743   36.7724 H         1 BO2         0.0559
     39 H          56.3257 -135.6244   38.8809 H         1 BO2         0.0599
     40 H          58.4359 -135.8682   40.1398 H         1 BO2         0.0557
     41 H          61.3006 -135.9959   41.9948 H         1 BO2         0.1459
     42 H          64.2967 -136.2168   41.9832 H         1 BO2        -0.1822
     43 H          64.5654 -134.5995   43.6668 H         1 BO2        -0.0063
     44 H          62.8111 -134.5763   44.0520 H         1 BO2        -0.0063
     45 H          62.4590 -133.6662   41.6509 H         1 BO2         0.0272
     46 H          63.0112 -131.3527   42.4365 H         1 BO2         0.0232
     47 H          64.0464 -132.0464   43.7302 H         1 BO2         0.0232
     48 H          62.2731 -132.3321   43.7490 H         1 BO2         0.0232
     49 H          64.7026 -134.2487   40.7497 H         1 BO2         0.0232
     50 H          65.4739 -133.1605   41.9528 H         1 BO2         0.0232
     51 H          64.4189 -132.4768   40.6698 H         1 BO2         0.0232
     52 H          61.8364 -137.6411   44.9261 H         1 BO2        -0.1290
     53 H          63.4572 -138.9776   43.8750 H         1 BO2        -0.1290
@<TRIPOS>BOND
     1    1    2 ar 
     2    1    6 ar 
     3    2    3 ar 
     4    2    7 1  
     5    3    4 ar 
     6    4    5 ar 
     7    5    6 ar 
     8    7    8 2  
     9    7    9 am 
    10    9   10 1  
    11   10   11 1  
    12   10   18 1  
    13   11   12 1  
    14   12   13 ar 
    15   12   17 ar 
    16   13   14 ar 
    17   14   15 ar 
    18   15   16 ar 
    19   16   17 ar 
    20   18   19 2  
    21   18   20 am 
    22   20   21 1  
    23   21   22 1  
    24   21   26 1  
    25   22   23 1  
    26   23   24 1  
    27   23   25 1  
    28   26   27 1  
    29   26   28 1  
    30    3   29 1  
    31    5   30 1  
    32    6   31 1  
    33    9   32 1  
    34   10   33 1  
    35   11   34 1  
    36   11   35 1  
    37   13   36 1  
    38   14   37 1  
    39   15   38 1  
    40   16   39 1  
    41   17   40 1  
    42   20   41 1  
    43   21   42 1  
    44   22   43 1  
    45   22   44 1  
    46   23   45 1  
    47   24   46 1  
    48   24   47 1  
    49   24   48 1  
    50   25   49 1  
    51   25   50 1  
    52   25   51 1  
    53   27   52 1  
    54   28   53 1  
@<TRIPOS>SUBSTRUCTURE
     1 BO2         1

