2cgv_ligand
  -I-interpret- 

 34 35  0  0  0  0  0  0  0  0999 V2000
    4.0520   -3.9790   19.2120 C   0  0  0  0  0
    5.3520   -4.1850   18.7640 C   0  0  0  0  0
    5.5700   -5.1520   17.7020 C   0  0  0  0  0
    4.5730   -5.9000   17.1010 N   0  0  0  0  0
    3.2670   -5.7210   17.5170 C   0  0  0  0  0
    2.1900   -6.3990   16.9340 C   0  0  0  0  0
    2.4050   -7.2840   15.9450 N   0  0  0  0  0
    3.7440   -7.5310   15.2580 C   0  0  0  0  0
    0.8670   -6.2040   17.3500 C   0  0  0  0  0
    0.6620   -5.2840   18.3780 C   0  0  0  0  0
    1.7870   -4.6150   18.9340 C   0  0  0  0  0
    3.0490   -4.7740   18.5390 C   0  0  0  0  0
    3.9250   -6.6630   13.8950 C   0  0  0  0  0
    5.3990   -6.0900   13.7580 C   0  0  0  0  0
    5.9690   -5.9010   12.4290 N   0  3  0  0  0
    2.7980   -2.7170   20.3090 O   0  0  0  0  0
    0.2400   -3.6690   20.2270 O   0  0  0  0  0
    1.6520   -3.6890   19.8610 N   0  0  0  0  0
    3.2750   -5.3690   14.0480 O   0  0  0  0  0
    3.8083   -3.2744   20.0071 H   0  0  0  0  0
    6.1866   -3.6348   19.1987 H   0  0  0  0  0
    6.5923   -5.2989   17.3536 H   0  0  0  0  0
    1.6074   -7.8353   15.6283 H   0  0  0  0  0
    3.7909   -8.5864   14.9895 H   0  0  0  0  0
    4.5328   -7.2340   15.9492 H   0  0  0  0  0
    0.0383   -6.7447   16.8928 H   0  0  0  0  0
   -0.3428   -5.0813   18.7487 H   0  0  0  0  0
    3.5814   -7.3261   13.1011 H   0  0  0  0  0
    6.0345   -6.8394   14.2300 H   0  0  0  0  0
    5.3497   -5.0884   14.1853 H   0  0  0  0  0
    6.9147   -5.5289   12.5158 H   0  0  0  0  0
    5.9982   -6.7969   11.9423 H   0  0  0  0  0
    5.3914   -5.2455   11.9027 H   0  0  0  0  0
    3.3842   -4.8600   13.2414 H   0  0  0  0  0
  1  2  4  0  0  0
  1 12  4  0  0  0
  2  3  4  0  0  0
  3  4  4  0  0  0
  4  5  4  0  0  0
  5  6  4  0  0  0
  5 12  4  0  0  0
  6  7  1  0  0  0
  6  9  4  0  0  0
  7  8  1  0  0  0
  8 13  1  0  0  0
  9 10  4  0  0  0
 10 11  4  0  0  0
 11 12  4  0  0  0
 11 18  1  0  0  0
 13 14  1  0  0  0
 13 19  1  0  0  0
 14 15  1  0  0  0
 18 16  2  0  0  0
 18 17  2  0  0  0
  1 20  1  0  0  0
  2 21  1  0  0  0
  3 22  1  0  0  0
  7 23  1  0  0  0
  8 24  1  0  0  0
  8 25  1  0  0  0
  9 26  1  0  0  0
 10 27  1  0  0  0
 13 28  1  0  0  0
 14 29  1  0  0  0
 14 30  1  0  0  0
 15 31  1  0  0  0
 15 32  1  0  0  0
 15 33  1  0  0  0
 19 34  1  0  0  0
M  END
$$$$
