4jib_ligand
  -I-interpret- 

 61 64  0  0  0  0  0  0  0  0999 V2000
    7.3050   -3.7460   -4.9260 N   0  0  0  0  0
    7.6260   -3.8660   -2.2390 C   0  0  0  0  0
   10.0000   -4.2890   -2.8300 C   0  0  0  0  0
    6.9070   -6.6120   -2.8910 C   0  0  0  0  0
   12.6240   -9.5770   -7.7860 C   0  0  0  0  0
   14.0960  -11.7690   -5.3470 C   0  0  0  0  0
   14.6590  -13.0100   -5.6290 C   0  0  0  0  0
    8.3400   -6.1980   -2.6790 C   0  0  0  0  0
   11.9010   -8.3640   -7.8450 C   0  0  0  0  0
   11.3060   -8.6230   -5.5110 C   0  0  0  0  0
    8.4590   -4.9950   -8.2650 C   0  0  0  0  0
    7.5670   -4.8310   -9.0820 O   0  0  0  0  0
    8.2120   -4.6530   -6.8290 C   0  0  0  0  0
    7.2830   -3.8050   -6.3430 N   0  0  0  0  0
    6.3040   -2.9450   -7.0110 C   0  0  0  0  0
    5.0040   -3.6750   -7.2470 C   0  0  0  0  0
    4.2000   -2.8280   -8.0580 O   0  0  0  0  0
    9.5870   -5.5110   -8.6800 N   0  0  0  0  0
   10.7330   -5.7180   -7.8400 C   0  0  0  0  0
   10.4950   -6.6220   -6.6570 C   0  0  0  0  0
    9.8750   -6.1310   -5.6540 N   0  0  0  0  0
    8.8720   -5.1600   -5.7050 C   0  0  0  0  0
    8.3090   -4.5970   -4.5550 C   0  0  0  0  0
    8.5700   -4.7410   -3.0690 C   0  0  0  0  0
   11.2360   -7.9160   -6.6890 C   0  0  0  0  0
   12.0230   -9.8000   -5.4890 C   0  0  0  0  0
   12.7000  -10.3280   -6.5950 C   0  0  0  0  0
   13.3910  -11.4900   -6.4560 N   0  0  0  0  0
   13.4560  -12.4150   -7.4130 C   0  0  0  0  0
   12.7700  -12.3690   -8.7530 C   0  0  0  0  0
   14.2530  -13.3830   -6.8810 N   0  0  0  0  0
    6.5941   -4.1502   -2.4450 H   0  0  0  0  0
    7.8387   -4.0079   -1.1794 H   0  0  0  0  0
    7.7758   -2.8194   -2.5040 H   0  0  0  0  0
   10.2409   -4.3942   -1.7722 H   0  0  0  0  0
   10.6779   -4.9046   -3.4213 H   0  0  0  0  0
   10.1039   -3.2450   -3.1256 H   0  0  0  0  0
    6.2553   -5.9860   -2.2814 H   0  0  0  0  0
    6.6475   -6.4927   -3.9429 H   0  0  0  0  0
    6.7851   -7.6558   -2.6015 H   0  0  0  0  0
   13.1331   -9.9392   -8.6791 H   0  0  0  0  0
   14.2016  -11.1680   -4.4438 H   0  0  0  0  0
   15.3091  -13.5839   -4.9685 H   0  0  0  0  0
    8.9749   -6.8253   -3.3047 H   0  0  0  0  0
    8.5776   -6.3120   -1.6213 H   0  0  0  0  0
   11.8594   -7.7866   -8.7686 H   0  0  0  0  0
   10.8049   -8.2600   -4.6137 H   0  0  0  0  0
    6.7107   -2.6398   -7.9751 H   0  0  0  0  0
    6.1073   -2.0829   -6.3737 H   0  0  0  0  0
    4.5058   -3.8953   -6.3029 H   0  0  0  0  0
    5.1799   -4.6312   -7.7398 H   0  0  0  0  0
    3.3594   -3.2576   -8.2323 H   0  0  0  0  0
    9.6568   -5.7831   -9.6606 H   0  0  0  0  0
   11.0136   -4.7430   -7.4417 H   0  0  0  0  0
   11.4944   -6.1967   -8.4559 H   0  0  0  0  0
    9.6014   -7.2364   -6.5471 H   0  0  0  0  0
   10.1361   -6.4797   -4.7317 H   0  0  0  0  0
   12.0656  -10.3546   -4.5516 H   0  0  0  0  0
   11.6914  -12.3128   -8.6058 H   0  0  0  0  0
   13.1091  -11.4914   -9.3034 H   0  0  0  0  0
   13.0147  -13.2696   -9.3161 H   0  0  0  0  0
  1 14  4  0  0  0
 23  1  4  0  0  0
 24  2  1  0  0  0
 24  3  1  0  0  0
  8  4  1  0  0  0
  5  9  4  0  0  0
 27  5  4  0  0  0
  6  7  4  0  0  0
 28  6  4  0  0  0
  7 31  4  0  0  0
 24  8  1  0  0  0
  9 25  4  0  0  0
 10 25  4  0  0  0
 26 10  4  0  0  0
 11 12  2  0  0  0
 13 11  1  0  0  0
 18 11  1  0  0  0
 13 14  4  0  0  0
 22 13  4  0  0  0
 14 15  1  0  0  0
 15 16  1  0  0  0
 16 17  1  0  0  0
 19 18  1  0  0  0
 20 19  1  0  0  0
 20 21  1  0  0  0
 25 20  1  0  0  0
 21 22  1  0  0  0
 22 23  4  0  0  0
 23 24  1  0  0  0
 27 26  4  0  0  0
 27 28  1  0  0  0
 28 29  4  0  0  0
 29 30  1  0  0  0
 29 31  4  0  0  0
  2 32  1  0  0  0
  2 33  1  0  0  0
  2 34  1  0  0  0
  3 35  1  0  0  0
  3 36  1  0  0  0
  3 37  1  0  0  0
  4 38  1  0  0  0
  4 39  1  0  0  0
  4 40  1  0  0  0
  5 41  1  0  0  0
  6 42  1  0  0  0
  7 43  1  0  0  0
  8 44  1  0  0  0
  8 45  1  0  0  0
  9 46  1  0  0  0
 10 47  1  0  0  0
 15 48  1  0  0  0
 15 49  1  0  0  0
 16 50  1  0  0  0
 16 51  1  0  0  0
 17 52  1  0  0  0
 18 53  1  0  0  0
 19 54  1  0  0  0
 19 55  1  0  0  0
 20 56  1  0  0  0
 21 57  1  0  0  0
 26 58  1  0  0  0
 30 59  1  0  0  0
 30 60  1  0  0  0
 30 61  1  0  0  0
M  END
$$$$
