6j10_ligand
  -I-interpret- 

 32 33  0  0  0  0  0  0  0  0999 V2000
   -6.3240  -10.4100   21.1200 C   0  0  0  0  0
   -6.3480  -10.1920   23.5820 C   0  0  0  0  0
   -5.6080   -9.0930   21.1010 C   0  0  0  0  0
   -5.3490   -9.0280   23.6320 C   0  0  0  0  0
   -4.6880   -8.7780   22.2800 C   0  0  0  0  0
  -10.3100  -13.3800   22.8110 O   0  0  0  0  0
   -9.1660  -13.3360   22.3660 C   0  0  0  0  0
   -8.3320  -12.2550   22.6720 N   0  0  0  0  0
   -8.8330  -11.2070   23.5140 O   0  0  0  0  0
   -8.7370  -14.3550   21.5640 C   0  0  0  0  0
   -7.4560  -14.3340   21.0540 C   0  0  0  0  0
   -7.0490  -15.4790   20.1950 C   0  0  0  0  0
   -6.5890  -13.3000   21.3450 C   0  0  0  0  0
   -7.0220  -12.2610   22.1700 C   0  0  0  0  0
   -6.0900  -11.1500   22.4060 C   0  0  0  0  0
   -5.9453  -11.0190   20.2991 H   0  0  0  0  0
   -7.3931  -10.2215   21.0215 H   0  0  0  0  0
   -7.3453   -9.7705   23.4562 H   0  0  0  0  0
   -6.2430  -10.7616   24.5054 H   0  0  0  0  0
   -6.3886   -8.3326   21.1246 H   0  0  0  0  0
   -4.9630   -9.1206   20.2227 H   0  0  0  0  0
   -4.5686   -9.2813   24.3496 H   0  0  0  0  0
   -5.8922   -8.1267   23.9159 H   0  0  0  0  0
   -4.4286   -7.7207   22.2267 H   0  0  0  0  0
   -3.8190   -9.4320   22.2082 H   0  0  0  0  0
   -8.1522  -10.5407   23.6331 H   0  0  0  0  0
   -9.4056  -15.1828   21.3277 H   0  0  0  0  0
   -7.1210  -16.4042   20.7668 H   0  0  0  0  0
   -7.7080  -15.5337   19.3285 H   0  0  0  0  0
   -6.0209  -15.3349   19.8627 H   0  0  0  0  0
   -5.5788  -13.2951   20.9355 H   0  0  0  0  0
   -5.0991  -11.5215   22.6672 H   0  0  0  0  0
  1  3  1  0  0  0
 15  1  1  0  0  0
  2  4  1  0  0  0
 15  2  1  0  0  0
  3  5  1  0  0  0
  4  5  1  0  0  0
  7  6  2  0  0  0
  8  7  1  0  0  0
  7 10  1  0  0  0
  8  9  1  0  0  0
 14  8  1  0  0  0
 11 10  2  0  0  0
 11 12  1  0  0  0
 13 11  1  0  0  0
 14 13  2  0  0  0
 14 15  1  0  0  0
  1 16  1  0  0  0
  1 17  1  0  0  0
  2 18  1  0  0  0
  2 19  1  0  0  0
  3 20  1  0  0  0
  3 21  1  0  0  0
  4 22  1  0  0  0
  4 23  1  0  0  0
  5 24  1  0  0  0
  5 25  1  0  0  0
  9 26  1  0  0  0
 10 27  1  0  0  0
 12 28  1  0  0  0
 12 29  1  0  0  0
 12 30  1  0  0  0
 13 31  1  0  0  0
 15 32  1  0  0  0
M  END
$$$$
