5cdh_ligand
  -I-interpret- 

 16 15  0  0  0  0  0  0  0  0999 V2000
  113.7350   31.4580   27.4770 O   0  0  0  0  0
  113.9790   29.3020   27.6900 O   0  0  0  0  0
  114.1950   30.3610   27.0440 C   0  0  0  0  0
  114.9970   30.3280   25.7560 C   0  0  0  0  0
  115.4710   29.0300   25.4420 O   0  0  0  0  0
  116.2110   31.1950   25.9470 C   0  0  0  0  0
  116.9060   30.7800   27.0810 O   0  0  0  0  0
  117.0890   30.9440   24.7630 C   0  0  0  0  0
  116.6600   31.3430   23.6480 O   0  0  0  0  0
  118.2050   30.3500   24.9090 O   0  0  0  0  0
  113.9829   32.1663   26.8782 H   0  0  0  0  0
  114.3433   30.6667   24.9522 H   0  0  0  0  0
  114.7244   28.4409   25.3113 H   0  0  0  0  0
  115.9306   32.2430   26.0525 H   0  0  0  0  0
  116.3645   30.9298   27.8594 H   0  0  0  0  0
  118.3330   30.1352   25.8359 H   0  0  0  0  0
  1  3  1  0  0  0
  3  2  2  0  0  0
  3  4  1  0  0  0
  4  5  1  0  0  0
  4  6  1  0  0  0
  6  7  1  0  0  0
  6  8  1  0  0  0
  8  9  2  0  0  0
  8 10  1  0  0  0
  1 11  1  0  0  0
  4 12  1  0  0  0
  5 13  1  0  0  0
  6 14  1  0  0  0
  7 15  1  0  0  0
 10 16  1  0  0  0
M  END
$$$$
