4rss_ligand
  -I-interpret- 

 59 63  0  0  0  0  0  0  0  0999 V2000
  -23.4660   -4.3730  -13.8210 C   0  0  0  0  0
  -22.2070   -5.1250  -13.4870 N   0  0  0  0  0
  -22.1160   -6.0420  -12.5490 C   0  0  0  0  0
  -23.2580   -6.5220  -11.6660 C   0  0  0  0  0
  -20.8140   -6.4920  -12.5250 C   0  0  0  0  0
  -20.2790   -7.5710  -11.6130 C   0  0  0  0  0
  -20.1030   -5.7970  -13.4910 C   0  0  0  0  0
  -18.7770   -5.8310  -13.9190 C   0  0  0  0  0
  -21.0220   -4.9440  -14.0720 C   0  0  0  0  0
  -20.6290   -4.0940  -15.0980 C   0  0  0  0  0
  -19.3190   -4.1020  -15.5290 C   0  0  0  0  0
  -18.3700   -4.9690  -14.9480 C   0  0  0  0  0
  -17.1320   -4.9040  -15.4940 N   0  0  0  0  0
  -16.0650   -5.5850  -15.1320 C   0  0  0  0  0
  -16.0220   -6.3740  -14.0350 N   0  0  0  0  0
  -14.9620   -5.3720  -15.8470 N   0  0  0  0  0
  -13.8230   -5.9710  -15.5590 C   0  0  0  0  0
  -13.7480   -6.8480  -14.4600 C   0  0  0  0  0
  -14.8720   -7.0060  -13.7030 C   0  0  0  0  0
  -14.8800   -7.8920  -12.6830 N   0  0  0  0  0
  -15.9950   -8.2960  -12.0540 C   0  0  0  0  0
  -13.8810   -8.5450  -12.3290 N   0  0  0  0  0
  -14.2660   -9.3760  -11.3580 C   0  0  0  0  0
  -13.2970  -10.3150  -10.6460 C   0  0  0  0  0
  -15.6500   -9.2400  -11.1730 C   0  0  0  0  0
  -16.6620   -9.9730  -10.2130 C   0  0  0  0  0
  -17.1360  -11.1170  -10.9930 N   0  3  0  0  0
  -18.0820  -10.9490  -12.0810 C   0  0  0  0  0
  -18.2840  -11.8430  -10.3130 C   0  0  0  0  0
  -18.7680  -12.2190  -11.6910 C   0  0  0  0  0
  -20.1810  -11.9830  -11.9390 O   0  0  0  0  0
  -24.2384   -5.0783  -14.1277 H   0  0  0  0  0
  -23.8029   -3.8227  -12.9425 H   0  0  0  0  0
  -23.2659   -3.6750  -14.6339 H   0  0  0  0  0
  -23.6531   -5.6811  -11.0960 H   0  0  0  0  0
  -24.0466   -6.9419  -12.2904 H   0  0  0  0  0
  -22.8897   -7.2858  -10.9811 H   0  0  0  0  0
  -20.4156   -7.2682  -10.5749 H   0  0  0  0  0
  -20.8189   -8.5001  -11.7958 H   0  0  0  0  0
  -19.2179   -7.7205  -11.8126 H   0  0  0  0  0
  -18.0659   -6.5181  -13.4603 H   0  0  0  0  0
  -21.3531   -3.4234  -15.5606 H   0  0  0  0  0
  -19.0126   -3.4290  -16.3298 H   0  0  0  0  0
  -17.0133   -4.2553  -16.2721 H   0  0  0  0  0
  -12.9402   -5.7873  -16.1713 H   0  0  0  0  0
  -12.8269   -7.3805  -14.2230 H   0  0  0  0  0
  -17.0030   -7.9207  -12.2305 H   0  0  0  0  0
  -12.8480  -10.9914  -11.3733 H   0  0  0  0  0
  -12.5155   -9.7295  -10.1616 H   0  0  0  0  0
  -13.8376  -10.8926   -9.8962 H   0  0  0  0  0
  -17.4787   -9.3212   -9.9026 H   0  0  0  0  0
  -16.1923  -10.2798   -9.2784 H   0  0  0  0  0
  -16.2031  -11.4782  -11.1919 H   0  0  0  0  0
  -17.7185  -10.8201  -13.1005 H   0  0  0  0  0
  -18.6558  -10.0259  -12.1629 H   0  0  0  0  0
  -18.9339  -11.3393   -9.5974 H   0  0  0  0  0
  -18.1080  -12.5959   -9.5447 H   0  0  0  0  0
  -18.6144  -13.2269  -12.0765 H   0  0  0  0  0
  -20.6812  -12.7687  -11.7064 H   0  0  0  0  0
  1  2  1  0  0  0
  2  3  4  0  0  0
  2  9  4  0  0  0
  3  4  1  0  0  0
  3  5  4  0  0  0
  5  6  1  0  0  0
  5  7  4  0  0  0
  7  8  4  0  0  0
  7  9  4  0  0  0
  8 12  4  0  0  0
  9 10  4  0  0  0
 10 11  4  0  0  0
 11 12  4  0  0  0
 12 13  1  0  0  0
 13 14  1  0  0  0
 14 15  4  0  0  0
 14 16  4  0  0  0
 15 19  4  0  0  0
 16 17  4  0  0  0
 17 18  4  0  0  0
 18 19  4  0  0  0
 19 20  1  0  0  0
 20 21  4  0  0  0
 20 22  4  0  0  0
 21 25  4  0  0  0
 22 23  4  0  0  0
 23 24  1  0  0  0
 23 25  4  0  0  0
 25 26  1  0  0  0
 26 27  1  0  0  0
 27 28  1  0  0  0
 27 29  1  0  0  0
 28 30  1  0  0  0
 29 30  1  0  0  0
 30 31  1  0  0  0
  1 32  1  0  0  0
  1 33  1  0  0  0
  1 34  1  0  0  0
  4 35  1  0  0  0
  4 36  1  0  0  0
  4 37  1  0  0  0
  6 38  1  0  0  0
  6 39  1  0  0  0
  6 40  1  0  0  0
  8 41  1  0  0  0
 10 42  1  0  0  0
 11 43  1  0  0  0
 13 44  1  0  0  0
 17 45  1  0  0  0
 18 46  1  0  0  0
 21 47  1  0  0  0
 24 48  1  0  0  0
 24 49  1  0  0  0
 24 50  1  0  0  0
 26 51  1  0  0  0
 26 52  1  0  0  0
 27 53  1  0  0  0
 28 54  1  0  0  0
 28 55  1  0  0  0
 29 56  1  0  0  0
 29 57  1  0  0  0
 30 58  1  0  0  0
 31 59  1  0  0  0
M  END
$$$$
