5g11_ligand
  -I-interpret- 

 39 39  0  0  0  0  0  0  0  0999 V2000
   21.8130  -33.7850    7.3660 O   0  0  0  0  0
   21.1750  -34.8200    7.3050 C   0  0  0  0  0
   20.5490  -35.1720    8.4010 N   0  0  0  0  0
   20.5160  -34.2180    9.3920 O   0  0  0  0  0
   21.0630  -35.6680    6.0380 C   0  0  0  0  0
   20.1280  -36.5890    6.2520 F   0  0  0  0  0
   22.2670  -36.2180    5.8700 F   0  0  0  0  0
   20.6570  -34.9230    4.7400 C   0  0  0  0  0
   19.4650  -34.5920    5.0930 F   0  0  0  0  0
   21.6180  -34.0680    4.7460 F   0  0  0  0  0
   20.8190  -35.9680    3.6890 C   0  0  0  0  0
   20.4530  -37.1830    4.0750 F   0  0  0  0  0
   22.0700  -35.9000    3.2940 F   0  0  0  0  0
   19.9950  -35.6410    2.4860 C   0  0  0  0  0
   20.1340  -34.3740    2.1430 F   0  0  0  0  0
   18.7870  -35.9450    2.8700 F   0  0  0  0  0
   20.3330  -36.5710    1.3330 C   0  0  0  0  0
   19.8520  -37.7720    1.6310 F   0  0  0  0  0
   21.6320  -36.5760    1.1580 F   0  0  0  0  0
   19.7670  -36.1370    0.0090 C   0  0  0  0  0
   20.2810  -34.9450   -0.2920 F   0  0  0  0  0
   18.4650  -36.1540    0.2250 F   0  0  0  0  0
   20.0980  -37.1290   -1.0850 C   0  0  0  0  0
   20.8970  -37.9860   -0.7980 O   0  0  0  0  0
   19.4700  -37.0590   -2.2690 N   0  0  0  0  0
   19.5500  -37.9850   -3.2750 C   0  0  0  0  0
   18.6780  -37.8050   -4.3610 C   0  0  0  0  0
   18.6610  -38.6900   -5.4380 C   0  0  0  0  0
   19.5210  -39.7910   -5.4400 C   0  0  0  0  0
   20.3820  -39.9970   -4.3620 C   0  0  0  0  0
   20.4060  -39.1030   -3.2910 C   0  0  0  0  0
   20.1164  -36.0891    8.5118 H   0  0  0  0  0
   20.0401  -34.5630   10.1510 H   0  0  0  0  0
   18.8804  -36.2433   -2.4345 H   0  0  0  0  0
   17.9982  -36.9529   -4.3618 H   0  0  0  0  0
   17.9809  -38.5240   -6.2734 H   0  0  0  0  0
   19.5192  -40.4857   -6.2799 H   0  0  0  0  0
   21.0421  -40.8644   -4.3563 H   0  0  0  0  0
   21.0921  -39.2712   -2.4609 H   0  0  0  0  0
  1  2  2  0  0  0
  2  3  1  0  0  0
  2  5  1  0  0  0
  3  4  1  0  0  0
  5  6  1  0  0  0
  5  7  1  0  0  0
  5  8  1  0  0  0
  8  9  1  0  0  0
  8 10  1  0  0  0
  8 11  1  0  0  0
 11 12  1  0  0  0
 11 13  1  0  0  0
 11 14  1  0  0  0
 14 15  1  0  0  0
 14 16  1  0  0  0
 14 17  1  0  0  0
 17 18  1  0  0  0
 17 19  1  0  0  0
 17 20  1  0  0  0
 20 21  1  0  0  0
 20 22  1  0  0  0
 20 23  1  0  0  0
 23 24  2  0  0  0
 23 25  1  0  0  0
 25 26  1  0  0  0
 26 27  4  0  0  0
 26 31  4  0  0  0
 27 28  4  0  0  0
 28 29  4  0  0  0
 29 30  4  0  0  0
 30 31  4  0  0  0
  3 32  1  0  0  0
  4 33  1  0  0  0
 25 34  1  0  0  0
 27 35  1  0  0  0
 28 36  1  0  0  0
 29 37  1  0  0  0
 30 38  1  0  0  0
 31 39  1  0  0  0
M  END
$$$$
