5xpm_ligand
  -I-interpret- 

 94 97  0  0  0  0  0  0  0  0999 V2000
    7.0400   -1.0990   32.3310 O   0  0  0  0  0
    7.6480   -1.1720   31.0780 C   0  0  0  0  0
    8.5690   -2.1980   30.7190 C   0  0  0  0  0
    9.1480   -2.2130   29.4410 C   0  0  0  0  0
    7.3520   -0.1810   30.1490 C   0  0  0  0  0
    7.9670   -0.1700   28.8810 C   0  0  0  0  0
    8.8440   -1.1920   28.4960 C   0  0  0  0  0
    9.4980   -1.2010   27.1310 C   0  0  0  0  0
    8.5060   -1.3670   26.1230 O   0  0  0  0  0
    7.7350   -0.2180   25.8280 C   0  0  0  0  0
   10.4270   -0.0110   26.8910 C   0  0  0  0  0
   11.5680   -0.0600   27.9220 C   0  0  0  0  0
   12.6840    0.9340   27.6580 C   0  0  0  0  0
   13.6780    1.0350   28.8550 C   0  0  0  0  0
   14.2050   -0.3590   29.2160 C   0  0  0  0  0
   15.6310   -0.2820   29.7540 C   0  0  0  0  0
   16.3470   -1.5980   29.5810 C   0  0  0  0  0
   12.1580    2.3210   27.3250 C   0  0  0  0  0
   11.3390    2.9040   28.5050 C   0  0  0  0  0
   13.3340    3.2400   26.8970 C   0  0  0  0  0
   14.2980    2.5900   25.8920 C   0  0  0  0  0
   13.0020    4.6280   26.3470 C   0  0  0  0  0
   11.8480    4.6390   25.3280 C   0  0  0  0  0
   12.7640    5.7460   27.3560 C   0  0  0  0  0
   12.6810    7.0790   26.5930 C   0  0  0  0  0
   13.9780    7.3720   25.7940 C   0  0  0  0  0
   14.3380    4.9560   25.6760 C   0  0  0  0  0
   14.8320    3.6890   24.9810 C   0  0  0  0  0
   14.2580    6.2110   24.9000 C   0  0  0  0  0
   14.3940    6.2410   23.5670 C   0  0  0  0  0
   14.2610    7.4770   22.8170 C   0  0  0  0  0
   14.0700    7.4880   21.4820 C   0  0  0  0  0
   13.8730    8.8440   20.8740 C   0  0  0  0  0
   14.0180    6.2530   20.6380 C   0  0  0  0  0
   14.5060    6.4750   19.1970 C   0  0  0  0  0
   14.0670    5.3170   18.4580 O   0  0  0  0  0
   14.0760    7.8190   18.6590 C   0  0  0  0  0
   13.4210    8.0500   17.5230 C   0  0  0  0  0
   14.4700    8.9930   19.4790 C   0  0  0  0  0
   15.8920    9.1340   19.5380 O   0  0  0  0  0
    6.4596   -0.3349   32.3597 H   0  0  0  0  0
    8.8249   -2.9744   31.4400 H   0  0  0  0  0
    9.8365   -3.0131   29.1692 H   0  0  0  0  0
    6.6342    0.5984   30.4049 H   0  0  0  0  0
    7.7570    0.6460   28.1896 H   0  0  0  0  0
   10.1678   -2.0596   27.0835 H   0  0  0  0  0
    7.2088    0.1053   26.7261 H   0  0  0  0  0
    8.3922    0.5803   25.4832 H   0  0  0  0  0
    7.0121   -0.4575   25.0481 H   0  0  0  0  0
    9.8709    0.9203   26.9982 H   0  0  0  0  0
   10.8372   -0.0591   25.8823 H   0  0  0  0  0
   12.0055   -1.0571   27.8720 H   0  0  0  0  0
   11.1373    0.1885   28.8920 H   0  0  0  0  0
   13.2173    0.5470   26.7897 H   0  0  0  0  0
   13.1610    1.4578   29.7165 H   0  0  0  0  0
   14.5152    1.6738   28.5737 H   0  0  0  0  0
   14.2028   -0.9770   28.3182 H   0  0  0  0  0
   13.5633   -0.7869   29.9862 H   0  0  0  0  0
   15.5909   -0.0433   30.8168 H   0  0  0  0  0
   16.1721    0.4854   29.2005 H   0  0  0  0  0
   15.8102   -2.3763   30.1234 H   0  0  0  0  0
   16.3861   -1.8524   28.5218 H   0  0  0  0  0
   17.3604   -1.5131   29.9732 H   0  0  0  0  0
   11.4701    2.2544   26.4821 H   0  0  0  0  0
   10.4926    2.2504   28.7161 H   0  0  0  0  0
   11.9749    2.9737   29.3875 H   0  0  0  0  0
   10.9756    3.8964   28.2381 H   0  0  0  0  0
   13.7941    3.3822   27.8748 H   0  0  0  0  0
   13.7789    1.8316   25.3059 H   0  0  0  0  0
   15.1189    2.1014   26.4168 H   0  0  0  0  0
   12.1100    4.0097   24.4774 H   0  0  0  0  0
   10.9439    4.2552   25.8007 H   0  0  0  0  0
   11.6759    5.6599   24.9870 H   0  0  0  0  0
   13.5815    5.7787   28.0762 H   0  0  0  0  0
   11.8351    5.5679   27.8978 H   0  0  0  0  0
   12.5395    7.8795   27.3192 H   0  0  0  0  0
   11.8524    7.0173   25.8876 H   0  0  0  0  0
   14.8113    7.5215   26.4805 H   0  0  0  0  0
   13.8514    8.2766   25.1993 H   0  0  0  0  0
   15.1267    5.2103   26.3841 H   0  0  0  0  0
   14.4834    3.6004   23.9521 H   0  0  0  0  0
   15.9151    3.6593   24.8624 H   0  0  0  0  0
   14.6096    5.3154   23.0333 H   0  0  0  0  0
   14.3173    8.4262   23.3498 H   0  0  0  0  0
   14.3774    9.5633   21.5193 H   0  0  0  0  0
   12.7986    9.0042   20.7839 H   0  0  0  0  0
   12.9768    5.9348   20.5862 H   0  0  0  0  0
   14.6754    5.5144   21.0967 H   0  0  0  0  0
   15.5907    6.5437   19.1150 H   0  0  0  0  0
   14.3448    5.3987   17.5427 H   0  0  0  0  0
   13.1415    7.2183   16.8762 H   0  0  0  0  0
   13.1643    9.0708   17.2398 H   0  0  0  0  0
   14.0824    9.8999   19.0149 H   0  0  0  0  0
   16.2405    9.2258   18.6482 H   0  0  0  0  0
  1  2  1  0  0  0
  2  3  4  0  0  0
  2  5  4  0  0  0
  3  4  4  0  0  0
  4  7  4  0  0  0
  5  6  4  0  0  0
  6  7  4  0  0  0
  7  8  1  0  0  0
  8  9  1  0  0  0
  8 11  1  0  0  0
  9 10  1  0  0  0
 11 12  1  0  0  0
 12 13  1  0  0  0
 13 14  1  0  0  0
 13 18  1  0  0  0
 14 15  1  0  0  0
 15 16  1  0  0  0
 16 17  1  0  0  0
 18 19  1  0  0  0
 18 20  1  0  0  0
 20 21  1  0  0  0
 20 22  1  0  0  0
 21 28  1  0  0  0
 22 23  1  0  0  0
 22 24  1  0  0  0
 22 27  1  0  0  0
 24 25  1  0  0  0
 25 26  1  0  0  0
 26 29  1  0  0  0
 27 28  1  0  0  0
 27 29  1  0  0  0
 29 30  2  0  0  0
 30 31  1  0  0  0
 31 32  2  0  0  0
 32 33  1  0  0  0
 32 34  1  0  0  0
 33 39  1  0  0  0
 34 35  1  0  0  0
 35 36  1  0  0  0
 35 37  1  0  0  0
 37 38  2  0  0  0
 37 39  1  0  0  0
 39 40  1  0  0  0
  1 41  1  0  0  0
  3 42  1  0  0  0
  4 43  1  0  0  0
  5 44  1  0  0  0
  6 45  1  0  0  0
  8 46  1  0  0  0
 10 47  1  0  0  0
 10 48  1  0  0  0
 10 49  1  0  0  0
 11 50  1  0  0  0
 11 51  1  0  0  0
 12 52  1  0  0  0
 12 53  1  0  0  0
 13 54  1  0  0  0
 14 55  1  0  0  0
 14 56  1  0  0  0
 15 57  1  0  0  0
 15 58  1  0  0  0
 16 59  1  0  0  0
 16 60  1  0  0  0
 17 61  1  0  0  0
 17 62  1  0  0  0
 17 63  1  0  0  0
 18 64  1  0  0  0
 19 65  1  0  0  0
 19 66  1  0  0  0
 19 67  1  0  0  0
 20 68  1  0  0  0
 21 69  1  0  0  0
 21 70  1  0  0  0
 23 71  1  0  0  0
 23 72  1  0  0  0
 23 73  1  0  0  0
 24 74  1  0  0  0
 24 75  1  0  0  0
 25 76  1  0  0  0
 25 77  1  0  0  0
 26 78  1  0  0  0
 26 79  1  0  0  0
 27 80  1  0  0  0
 28 81  1  0  0  0
 28 82  1  0  0  0
 30 83  1  0  0  0
 31 84  1  0  0  0
 33 85  1  0  0  0
 33 86  1  0  0  0
 34 87  1  0  0  0
 34 88  1  0  0  0
 35 89  1  0  0  0
 36 90  1  0  0  0
 38 91  1  0  0  0
 38 92  1  0  0  0
 39 93  1  0  0  0
 40 94  1  0  0  0
M  END
$$$$
