5xo7_ligand
  -I-interpret- 

 47 48  0  0  0  0  0  0  0  0999 V2000
   -7.7820   -3.4480   -5.1690 C   0  0  0  0  0
   -7.5890   -1.8180   -5.3410 C   0  0  0  0  0
   -8.9410   -1.1590   -5.8270 C   0  0  0  0  0
   -9.0900    0.3600   -5.6470 C   0  0  0  0  0
   -7.7770    1.1320   -5.8970 C   0  0  0  0  0
   -9.5300    0.6430   -4.1810 O   0  0  0  0  0
   -9.9160    1.8030   -3.6670 C   0  0  0  0  0
   -9.9900    2.8070   -4.3480 O   0  0  0  0  0
   -9.8020    1.8660   -2.2170 C   0  0  0  0  0
   -9.3860    3.0880   -1.6870 C   0  0  0  0  0
   -9.2310    4.1290   -2.5480 O   0  0  0  0  0
   -9.1930    3.3230   -0.2710 C   0  0  0  0  0
   -9.4340    2.2470    0.5830 C   0  0  0  0  0
   -9.2430    2.4030    1.9550 O   0  0  0  0  0
   -9.8860    1.0320    0.0470 C   0  0  0  0  0
  -10.0460    0.7860   -1.3180 C   0  0  0  0  0
  -10.5090   -0.5170   -1.7280 C   0  0  0  0  0
  -10.5260   -1.6980   -1.0040 C   0  0  0  0  0
  -11.0580   -2.9490   -1.4580 C   0  0  0  0  0
   -9.7820   -3.7460   -1.7600 C   0  0  0  0  0
   -9.5700   -3.4220   -3.2990 C   0  0  0  0  0
   -8.0860   -3.8670   -3.8140 C   0  0  0  0  0
   -8.1090   -5.3560   -3.9420 O   0  0  0  0  0
   -6.8381   -3.9163   -5.4479 H   0  0  0  0  0
   -8.6249   -3.7414   -5.7947 H   0  0  0  0  0
   -6.8115   -1.6260   -6.0804 H   0  0  0  0  0
   -7.3067   -1.3879   -4.3800 H   0  0  0  0  0
   -9.7239   -1.6067   -5.2149 H   0  0  0  0  0
   -8.9847   -1.3342   -6.9019 H   0  0  0  0  0
   -9.8239    0.6982   -6.3785 H   0  0  0  0  0
   -7.9504    2.1981   -5.7507 H   0  0  0  0  0
   -7.0154    0.7871   -5.1976 H   0  0  0  0  0
   -7.4413    0.9541   -6.9186 H   0  0  0  0  0
   -8.9440    4.9052   -2.0615 H   0  0  0  0  0
   -8.8748    4.2938    0.1089 H   0  0  0  0  0
   -9.4493    1.5786    2.4015 H   0  0  0  0  0
  -10.1281    0.2275    0.7415 H   0  0  0  0  0
  -10.8979   -0.5811   -2.7443 H   0  0  0  0  0
  -10.0976   -1.6737   -0.0020 H   0  0  0  0  0
  -11.7198   -2.8504   -2.3185 H   0  0  0  0  0
  -11.7072   -3.4329   -0.7283 H   0  0  0  0  0
   -9.8691   -4.8109   -1.5443 H   0  0  0  0  0
   -8.9341   -3.4698   -1.1332 H   0  0  0  0  0
   -9.6729   -2.3460   -3.4398 H   0  0  0  0  0
  -10.3122   -3.9783   -3.8715 H   0  0  0  0  0
   -7.3736   -3.4337   -3.1120 H   0  0  0  0  0
   -7.2512   -5.6634   -4.2442 H   0  0  0  0  0
  1  2  1  0  0  0
  1 22  1  0  0  0
  2  3  1  0  0  0
  3  4  1  0  0  0
  4  5  1  0  0  0
  4  6  1  0  0  0
  6  7  1  0  0  0
  7  8  2  0  0  0
  7  9  1  0  0  0
  9 10  4  0  0  0
  9 16  4  0  0  0
 10 11  1  0  0  0
 10 12  4  0  0  0
 12 13  4  0  0  0
 13 14  1  0  0  0
 13 15  4  0  0  0
 15 16  4  0  0  0
 16 17  1  0  0  0
 17 18  2  0  0  0
 18 19  1  0  0  0
 19 20  1  0  0  0
 20 21  1  0  0  0
 21 22  1  0  0  0
 22 23  1  0  0  0
  1 24  1  0  0  0
  1 25  1  0  0  0
  2 26  1  0  0  0
  2 27  1  0  0  0
  3 28  1  0  0  0
  3 29  1  0  0  0
  4 30  1  0  0  0
  5 31  1  0  0  0
  5 32  1  0  0  0
  5 33  1  0  0  0
 11 34  1  0  0  0
 12 35  1  0  0  0
 14 36  1  0  0  0
 15 37  1  0  0  0
 17 38  1  0  0  0
 18 39  1  0  0  0
 19 40  1  0  0  0
 19 41  1  0  0  0
 20 42  1  0  0  0
 20 43  1  0  0  0
 21 44  1  0  0  0
 21 45  1  0  0  0
 22 46  1  0  0  0
 23 47  1  0  0  0
M  END
$$$$
