5d3s_ligand
  -I-interpret- 

 53 55  0  0  0  0  0  0  0  0999 V2000
   15.1900  -11.4040   -4.6520 C   0  0  0  0  0
   15.8730  -10.9380   -5.9090 C   0  0  0  0  0
   19.2980   -1.9310   -9.7490 O   0  0  0  0  0
   14.8440  -10.5310   -6.9470 C   0  0  0  0  0
   13.9860  -11.3500   -7.6880 C   0  0  0  0  0
   13.1480  -10.5050   -8.5680 C   0  0  0  0  0
   14.4840   -9.1630   -7.4180 C   0  0  0  0  0
   15.0960   -7.8580   -7.0220 C   0  0  0  0  0
   16.2860   -6.3760   -5.5710 C   0  0  0  0  0
   16.0030   -5.1680   -6.2700 C   0  0  0  0  0
   16.6380   -3.9630   -5.9560 C   0  0  0  0  0
   17.5840   -3.9840   -4.9270 C   0  0  0  0  0
   17.8700   -5.1610   -4.2270 C   0  0  0  0  0
   17.2170   -6.3490   -4.5350 C   0  0  0  0  0
   17.3450   -3.1580   -9.0770 C   0  0  0  0  0
   17.9900   -2.3160  -10.1670 C   0  0  0  0  0
   18.6150   -1.6850   -7.4060 C   0  0  0  0  0
   19.2190   -1.0180   -8.6450 C   0  0  0  0  0
   12.1130  -10.9480   -9.5610 C   0  0  0  0  0
   13.8770  -12.8300   -7.6790 C   0  0  0  0  0
   15.0950  -13.6110   -7.2680 C   0  0  0  0  0
   13.5250   -9.2390   -8.3580 N   0  0  0  0  0
   15.7290   -7.6020   -5.8700 N   0  0  0  0  0
   17.4320   -2.4530   -7.7980 N   0  0  0  0  0
   12.8740  -13.4030   -8.0710 O   0  0  0  0  0
   14.9860   -7.0170   -7.8850 O   0  0  0  0  0
   15.0070   -2.7260   -7.4530 O   0  0  0  0  0
   16.2360   -1.4630   -5.9050 O   0  0  0  0  0
   16.2880   -2.6010   -6.8020 S   0  0  0  0  0
   18.2490   -2.8680   -4.5680 F   0  0  0  0  0
   14.5793  -10.5953   -4.2507 H   0  0  0  0  0
   14.5561  -12.2607   -4.8807 H   0  0  0  0  0
   15.9416  -11.6924   -3.9172 H   0  0  0  0  0
   16.4784  -11.7519   -6.3079 H   0  0  0  0  0
   16.5017  -10.0789   -5.6750 H   0  0  0  0  0
   15.2683   -5.1835   -7.0750 H   0  0  0  0  0
   18.6139   -5.1464   -3.4304 H   0  0  0  0  0
   17.4324   -7.2550   -3.9686 H   0  0  0  0  0
   17.8650   -4.1129   -9.0009 H   0  0  0  0  0
   16.2979   -3.3318   -9.3248 H   0  0  0  0  0
   18.0558   -2.8965  -11.0872 H   0  0  0  0  0
   17.3867   -1.4263  -10.3475 H   0  0  0  0  0
   18.3307   -0.9210   -6.6824 H   0  0  0  0  0
   19.3502   -2.3519   -6.9557 H   0  0  0  0  0
   18.5804   -0.1829   -8.9330 H   0  0  0  0  0
   20.2275   -0.6847   -8.4002 H   0  0  0  0  0
   12.5806  -11.5854  -10.3114 H   0  0  0  0  0
   11.3313  -11.5055   -9.0449 H   0  0  0  0  0
   11.6781  -10.0736  -10.0452 H   0  0  0  0  0
   14.8380  -14.2746   -6.4424 H   0  0  0  0  0
   15.4490  -14.2010   -8.1134 H   0  0  0  0  0
   15.8775  -12.9214   -6.9515 H   0  0  0  0  0
   15.8028   -8.3498   -5.1802 H   0  0  0  0  0
  2  1  1  0  0  0
  4  2  1  0  0  0
 16  3  1  0  0  0
 18  3  1  0  0  0
  4  5  4  0  0  0
  7  4  4  0  0  0
  6  5  4  0  0  0
  5 20  1  0  0  0
  6 19  1  0  0  0
 22  6  4  0  0  0
  8  7  1  0  0  0
  7 22  4  0  0  0
 23  8  1  0  0  0
  8 26  2  0  0  0
 10  9  4  0  0  0
  9 14  4  0  0  0
  9 23  1  0  0  0
 11 10  4  0  0  0
 11 12  4  0  0  0
 29 11  1  0  0  0
 12 13  4  0  0  0
 12 30  1  0  0  0
 13 14  4  0  0  0
 15 16  1  0  0  0
 24 15  1  0  0  0
 17 18  1  0  0  0
 24 17  1  0  0  0
 20 21  1  0  0  0
 20 25  2  0  0  0
 24 29  1  0  0  0
 29 27  2  0  0  0
 29 28  2  0  0  0
  1 31  1  0  0  0
  1 32  1  0  0  0
  1 33  1  0  0  0
  2 34  1  0  0  0
  2 35  1  0  0  0
 10 36  1  0  0  0
 13 37  1  0  0  0
 14 38  1  0  0  0
 15 39  1  0  0  0
 15 40  1  0  0  0
 16 41  1  0  0  0
 16 42  1  0  0  0
 17 43  1  0  0  0
 17 44  1  0  0  0
 18 45  1  0  0  0
 18 46  1  0  0  0
 19 47  1  0  0  0
 19 48  1  0  0  0
 19 49  1  0  0  0
 21 50  1  0  0  0
 21 51  1  0  0  0
 21 52  1  0  0  0
 23 53  1  0  0  0
M  END
$$$$
