2mov_ligand
  -I-interpret- 

 37 37  0  0  0  0  0  0  0  0999 V2000
   10.6880   -2.8570   -4.9460 N   0  3  0  0  0
    9.7350   -3.9290   -5.2470 C   0  0  0  0  0
    9.8850   -5.0720   -4.2840 C   0  0  0  0  0
    9.1480   -5.1260   -3.2940 O   0  0  0  0  0
   10.0790   -4.5520   -6.6640 C   0  0  0  0  0
   11.5300   -4.9870   -6.6420 C   0  0  0  0  0
   12.4400   -4.2740   -7.5160 C   0  0  0  0  0
   11.8930   -4.5130   -8.8180 N   0  0  0  0  0
   11.2810   -3.5110   -9.4570 C   0  0  0  0  0
   11.1800   -2.2580   -8.9100 N   0  0  0  0  0
   10.6600   -3.5560  -10.7200 N   0  0  0  0  0
   10.2460   -1.5870   -9.7170 C   0  0  0  0  0
   10.2170   -0.1740   -9.6830 O   0  0  0  0  0
   10.3080   -2.2270  -11.0790 C   0  0  0  0  0
   11.4740   -1.6170  -11.8710 C   0  0  0  0  0
   10.7517   -5.9646   -4.4834 O   0  0  0  0  0
   10.4686   -2.4547   -4.0347 H   0  0  0  0  0
   11.6338   -3.2386   -4.9317 H   0  0  0  0  0
   10.6225   -2.1343   -5.6628 H   0  0  0  0  0
    8.7371   -3.4931   -5.1983 H   0  0  0  0  0
    9.9182   -3.8139   -7.4498 H   0  0  0  0  0
    9.4323   -5.4054   -6.8681 H   0  0  0  0  0
   11.5370   -6.0221   -6.9833 H   0  0  0  0  0
   11.8825   -4.8011   -5.6275 H   0  0  0  0  0
   13.4704   -4.6169   -7.4221 H   0  0  0  0  0
   12.5103   -3.2130   -7.2764 H   0  0  0  0  0
   11.1673   -5.2150   -8.6736 H   0  0  0  0  0
   11.7069   -4.5032   -9.3079 H   0  0  0  0  0
   12.0799   -1.7782   -8.8923 H   0  0  0  0  0
    9.8281   -4.1452  -10.6846 H   0  0  0  0  0
    9.2588   -1.7267   -9.2765 H   0  0  0  0  0
    9.5356    0.1454  -10.2790 H   0  0  0  0  0
    9.4043   -2.1211  -11.6791 H   0  0  0  0  0
   12.3701   -1.6125  -11.2504 H   0  0  0  0  0
   11.6537   -2.2118  -12.7666 H   0  0  0  0  0
   11.2228   -0.5954  -12.1561 H   0  0  0  0  0
   11.2318   -5.7681   -5.2912 H   0  0  0  0  0
  1  2  1  0  0  0
  2  3  1  0  0  0
  2  5  1  0  0  0
  3  4  2  0  0  0
  5  6  1  0  0  0
  6  7  1  0  0  0
  7  8  1  0  0  0
  8  9  1  0  0  0
  9 10  1  0  0  0
  9 11  1  0  0  0
 10 12  1  0  0  0
 11 14  1  0  0  0
 12 13  1  0  0  0
 12 14  1  0  0  0
 14 15  1  0  0  0
  3 16  1  0  0  0
  1 17  1  0  0  0
  1 18  1  0  0  0
  1 19  1  0  0  0
  2 20  1  0  0  0
  5 21  1  0  0  0
  5 22  1  0  0  0
  6 23  1  0  0  0
  6 24  1  0  0  0
  7 25  1  0  0  0
  7 26  1  0  0  0
  8 27  1  0  0  0
  9 28  1  0  0  0
 10 29  1  0  0  0
 11 30  1  0  0  0
 12 31  1  0  0  0
 13 32  1  0  0  0
 14 33  1  0  0  0
 15 34  1  0  0  0
 15 35  1  0  0  0
 15 36  1  0  0  0
 16 37  1  0  0  0
M  END
$$$$
