1x39_ligand
  -I-interpret- 

 41 43  0  0  0  0  0  0  0  0999 V2000
   22.6510   26.5170   33.1080 O   0  0  0  0  0
   23.4720   25.3790   32.8820 C   0  0  0  0  0
   23.9140   24.8050   34.2320 C   0  0  0  0  0
   22.7560   24.1610   35.0270 C   0  0  0  0  0
   22.1560   23.0940   34.2890 O   0  0  0  0  0
   23.2210   23.6260   36.4010 C   0  0  0  0  0
   22.1180   23.0050   37.0850 O   0  0  0  0  0
   23.7610   24.7350   37.3040 C   0  0  0  0  0
   24.6420   24.2380   38.3170 O   0  0  0  0  0
   24.5190   25.7940   35.1680 N   0  0  0  0  0
   25.2310   26.9130   34.7290 C   0  0  0  0  0
   25.5850   27.5060   35.8960 C   0  0  0  0  0
   25.1180   26.8060   36.9800 N   0  0  0  0  0
   24.4670   25.7600   36.5030 C   0  0  0  0  0
   26.4020   28.7620   35.8560 C   0  0  0  0  0
   27.4730   28.6530   36.8400 N   0  0  0  0  0
   28.5890   29.5850   36.7820 C   0  0  0  0  0
   28.3520   30.9350   36.5060 C   0  0  0  0  0
   29.4210   31.8310   36.4510 C   0  0  0  0  0
   30.7210   31.3650   36.6640 C   0  0  0  0  0
   30.9620   30.0140   36.9270 C   0  0  0  0  0
   29.8930   29.1240   36.9920 C   0  0  0  0  0
   22.3711   26.8808   32.2648 H   0  0  0  0  0
   24.3481   25.6679   32.3014 H   0  0  0  0  0
   22.9111   24.6257   32.3288 H   0  0  0  0  0
   24.6593   24.0718   33.9236 H   0  0  0  0  0
   22.0211   24.9488   35.1926 H   0  0  0  0  0
   21.8654   23.4212   33.4345 H   0  0  0  0  0
   24.0192   22.9108   36.2027 H   0  0  0  0  0
   21.7587   22.3024   36.5384 H   0  0  0  0  0
   22.8976   25.1790   37.7996 H   0  0  0  0  0
   24.1860   23.5729   38.8379 H   0  0  0  0  0
   25.4470   27.2289   33.7084 H   0  0  0  0  0
   25.7725   29.6214   36.0868 H   0  0  0  0  0
   26.8253   28.8975   34.8607 H   0  0  0  0  0
   27.4401   27.9318   37.5605 H   0  0  0  0  0
   27.3348   31.2870   36.3342 H   0  0  0  0  0
   29.2430   32.8862   36.2435 H   0  0  0  0  0
   31.5568   32.0635   36.6245 H   0  0  0  0  0
   31.9810   29.6588   37.0804 H   0  0  0  0  0
   30.0719   28.0703   37.2061 H   0  0  0  0  0
  1  2  1  0  0  0
  2  3  1  0  0  0
  3  4  1  0  0  0
  3 10  1  0  0  0
  4  5  1  0  0  0
  4  6  1  0  0  0
  6  7  1  0  0  0
  6  8  1  0  0  0
  8  9  1  0  0  0
  8 14  1  0  0  0
 10 11  4  0  0  0
 10 14  4  0  0  0
 11 12  4  0  0  0
 12 13  4  0  0  0
 12 15  1  0  0  0
 13 14  4  0  0  0
 15 16  1  0  0  0
 16 17  1  0  0  0
 17 18  4  0  0  0
 17 22  4  0  0  0
 18 19  4  0  0  0
 19 20  4  0  0  0
 20 21  4  0  0  0
 21 22  4  0  0  0
  1 23  1  0  0  0
  2 24  1  0  0  0
  2 25  1  0  0  0
  3 26  1  0  0  0
  4 27  1  0  0  0
  5 28  1  0  0  0
  6 29  1  0  0  0
  7 30  1  0  0  0
  8 31  1  0  0  0
  9 32  1  0  0  0
 11 33  1  0  0  0
 15 34  1  0  0  0
 15 35  1  0  0  0
 16 36  1  0  0  0
 18 37  1  0  0  0
 19 38  1  0  0  0
 20 39  1  0  0  0
 21 40  1  0  0  0
 22 41  1  0  0  0
M  END
$$$$
