5ez0_ligand
  -I-interpret- 

100100  0  0  0  0  0  0  0  0999 V2000
    6.4620   -1.2830   16.1320 N   0  3  0  0  0
    6.8690   -1.9100   17.3860 C   0  0  0  0  0
    5.6540   -2.5120   18.1130 C   0  0  0  0  0
    4.9330   -1.8050   18.8230 O   0  0  0  0  0
    7.6140   -0.9090   18.2670 C   0  0  0  0  0
    8.1700   -1.5340   19.4120 O   0  0  0  0  0
    5.4230   -3.8220   17.9060 N   0  0  0  0  0
    4.3000   -4.5580   18.4890 C   0  0  0  0  0
    4.4680   -4.8250   19.9850 C   0  0  0  0  0
    5.5530   -5.2020   20.4330 O   0  0  0  0  0
    4.0570   -5.8740   17.7330 C   0  0  0  0  0
    2.5970   -6.1010   17.3660 C   0  0  0  0  0
    2.2740   -7.5840   17.2240 C   0  0  0  0  0
    1.6730   -7.9420   15.8870 C   0  0  0  0  0
    2.6980   -7.9970   14.8090 N   0  3  0  0  0
    3.3770   -4.6340   20.7470 N   0  0  0  0  0
    3.3030   -4.8670   22.1910 C   0  0  0  0  0
    2.0470   -5.6910   22.4840 C   0  0  0  0  0
    0.9850   -5.4000   21.9270 O   0  0  0  0  0
    3.2820   -3.5380   22.9610 C   0  0  0  0  0
    3.7500   -3.6640   24.4010 C   0  0  0  0  0
    3.7190   -2.3850   25.2160 C   0  0  0  0  0
    4.2910   -1.3680   24.7610 O   0  0  0  0  0
    3.1620   -2.4150   26.3370 O   0  0  0  0  0
    2.1700   -6.7350   23.3280 N   0  0  0  0  0
    1.0540   -7.6310   23.6530 C   0  0  0  0  0
    0.9670   -7.9510   25.1600 C   0  0  0  0  0
    1.9550   -8.4180   25.7320 O   0  0  0  0  0
    1.1290   -8.9110   22.7820 C   0  0  0  0  0
    1.2470   -8.5540   21.4030 O   0  0  0  0  0
   -0.0710   -9.8390   22.9690 C   0  0  0  0  0
   -0.2100   -7.7580   25.8110 N   0  0  0  0  0
   -0.3210   -8.1210   27.2350 C   0  0  0  0  0
   -0.5270   -9.6240   27.4300 C   0  0  0  0  0
   -1.1590  -10.2780   26.5970 O   0  0  0  0  0
   -1.5200   -7.3050   27.7220 C   0  0  0  0  0
   -2.3530   -7.0790   26.5120 C   0  0  0  0  0
   -1.4880   -7.2290   25.2860 C   0  0  0  0  0
    0.0220  -10.1730   28.5250 N   0  0  0  0  0
   -0.0580  -11.6000   28.8530 C   0  0  0  0  0
   -0.4420  -11.8550   30.3100 C   0  0  0  0  0
   -0.3300  -10.9260   31.1380 O   0  0  0  0  0
    1.2700  -12.3020   28.5270 C   0  0  0  0  0
    1.5920  -12.4650   27.0500 C   0  0  0  0  0
    3.0270  -12.1430   26.7820 C   0  0  0  0  0
    1.2430  -13.8520   26.5600 C   0  0  0  0  0
   -0.8380  -12.9970   30.6250 O   0  0  0  0  0
    5.9668   -1.9649   15.5573 H   0  0  0  0  0
    5.8469   -0.4942   16.3316 H   0  0  0  0  0
    7.2889   -0.9534   15.6340 H   0  0  0  0  0
    7.5538   -2.7278   17.1616 H   0  0  0  0  0
    6.9066   -0.1491   18.5988 H   0  0  0  0  0
    8.4257   -0.4742   17.6837 H   0  0  0  0  0
    8.6295   -0.8783   19.9417 H   0  0  0  0  0
    6.0704   -4.3332   17.3060 H   0  0  0  0  0
    3.4258   -3.9159   18.3816 H   0  0  0  0  0
    4.3613   -6.6900   18.3884 H   0  0  0  0  0
    4.6256   -5.8287   16.8042 H   0  0  0  0  0
    2.4042   -5.6149   16.4096 H   0  0  0  0  0
    1.9755   -5.6892   18.1611 H   0  0  0  0  0
    1.5415   -7.8353   17.9910 H   0  0  0  0  0
    3.2097   -8.1345   17.3212 H   0  0  0  0  0
    0.9449   -7.1743   15.6250 H   0  0  0  0  0
    1.2164   -8.9280   15.9726 H   0  0  0  0  0
    2.2488   -8.2414   13.9265 H   0  0  0  0  0
    3.1475   -7.0855   14.7221 H   0  0  0  0  0
    3.3976   -8.7016   15.0424 H   0  0  0  0  0
    2.5329   -4.2999   20.2820 H   0  0  0  0  0
    4.1859   -5.4143   22.5213 H   0  0  0  0  0
    2.2500   -3.1877   22.9815 H   0  0  0  0  0
    3.9633   -2.8549   22.4538 H   0  0  0  0  0
    4.7926   -3.9795   24.3606 H   0  0  0  0  0
    3.0655   -4.3579   24.8888 H   0  0  0  0  0
    4.6473   -1.5647   23.8915 H   0  0  0  0  0
    3.0777   -6.9097   23.7592 H   0  0  0  0  0
    0.1266   -7.1101   23.4148 H   0  0  0  0  0
    2.0106   -9.4609   23.1113 H   0  0  0  0  0
    1.2929   -9.3512   20.8700 H   0  0  0  0  0
   -0.1272  -10.1526   24.0114 H   0  0  0  0  0
   -0.9842   -9.3091   22.6980 H   0  0  0  0  0
    0.0456  -10.7147   22.3305 H   0  0  0  0  0
    0.5876   -7.9022   27.7959 H   0  0  0  0  0
   -1.2089   -6.3651   28.1780 H   0  0  0  0  0
   -2.0744   -7.8293   28.5004 H   0  0  0  0  0
   -2.7791   -6.0762   26.5410 H   0  0  0  0  0
   -3.1631   -7.8077   26.4819 H   0  0  0  0  0
   -1.9349   -7.8906   24.5439 H   0  0  0  0  0
   -1.3574   -6.2861   24.7550 H   0  0  0  0  0
    0.5250   -9.5609   29.1674 H   0  0  0  0  0
   -0.8537  -12.0169   28.2357 H   0  0  0  0  0
   -0.0123  -10.1377   30.6917 H   0  0  0  0  0
    1.1927  -13.3091   28.9366 H   0  0  0  0  0
    2.0582  -11.6758   28.9451 H   0  0  0  0  0
    0.9769  -11.7578   26.4935 H   0  0  0  0  0
    3.2276  -11.1124   27.0748 H   0  0  0  0  0
    3.6627  -12.8159   27.3576 H   0  0  0  0  0
    3.2334  -12.2668   25.7189 H   0  0  0  0  0
    1.8149  -14.5895   27.1231 H   0  0  0  0  0
    0.1773  -14.0295   26.7043 H   0  0  0  0  0
    1.4861  -13.9335   25.5006 H   0  0  0  0  0
  1  2  1  0  0  0
  2  3  1  0  0  0
  2  5  1  0  0  0
  3  4  2  0  0  0
  3  7  1  0  0  0
  5  6  1  0  0  0
  7  8  1  0  0  0
  8  9  1  0  0  0
  8 11  1  0  0  0
  9 10  2  0  0  0
  9 16  1  0  0  0
 11 12  1  0  0  0
 12 13  1  0  0  0
 13 14  1  0  0  0
 14 15  1  0  0  0
 16 17  1  0  0  0
 17 18  1  0  0  0
 17 20  1  0  0  0
 18 19  2  0  0  0
 18 25  1  0  0  0
 20 21  1  0  0  0
 21 22  1  0  0  0
 22 23  1  0  0  0
 22 24  2  0  0  0
 25 26  1  0  0  0
 26 27  1  0  0  0
 26 29  1  0  0  0
 27 28  2  0  0  0
 27 32  1  0  0  0
 29 30  1  0  0  0
 29 31  1  0  0  0
 32 33  1  0  0  0
 32 38  1  0  0  0
 33 34  1  0  0  0
 33 36  1  0  0  0
 34 35  2  0  0  0
 34 39  1  0  0  0
 36 37  1  0  0  0
 37 38  1  0  0  0
 39 40  1  0  0  0
 40 41  1  0  0  0
 40 43  1  0  0  0
 41 42  1  0  0  0
 41 47  2  0  0  0
 43 44  1  0  0  0
 44 45  1  0  0  0
 44 46  1  0  0  0
  1 48  1  0  0  0
  1 49  1  0  0  0
  1 50  1  0  0  0
  2 51  1  0  0  0
  5 52  1  0  0  0
  5 53  1  0  0  0
  6 54  1  0  0  0
  7 55  1  0  0  0
  8 56  1  0  0  0
 11 57  1  0  0  0
 11 58  1  0  0  0
 12 59  1  0  0  0
 12 60  1  0  0  0
 13 61  1  0  0  0
 13 62  1  0  0  0
 14 63  1  0  0  0
 14 64  1  0  0  0
 15 65  1  0  0  0
 15 66  1  0  0  0
 15 67  1  0  0  0
 16 68  1  0  0  0
 17 69  1  0  0  0
 20 70  1  0  0  0
 20 71  1  0  0  0
 21 72  1  0  0  0
 21 73  1  0  0  0
 23 74  1  0  0  0
 25 75  1  0  0  0
 26 76  1  0  0  0
 29 77  1  0  0  0
 30 78  1  0  0  0
 31 79  1  0  0  0
 31 80  1  0  0  0
 31 81  1  0  0  0
 33 82  1  0  0  0
 36 83  1  0  0  0
 36 84  1  0  0  0
 37 85  1  0  0  0
 37 86  1  0  0  0
 38 87  1  0  0  0
 38 88  1  0  0  0
 39 89  1  0  0  0
 40 90  1  0  0  0
 42 91  1  0  0  0
 43 92  1  0  0  0
 43 93  1  0  0  0
 44 94  1  0  0  0
 45 95  1  0  0  0
 45 96  1  0  0  0
 45 97  1  0  0  0
 46 98  1  0  0  0
 46 99  1  0  0  0
 46100  1  0  0  0
M  END
$$$$
