### 
### Created by X-TOOL on Mon Sep 10 21:13:29 2018
### 

@<TRIPOS>MOLECULE
5ez0_ligand
   98    98     1     0     0
SMALL
GAST_HUCK


@<TRIPOS>ATOM
      1 N           6.4620   -1.2830   16.1320 N.4       1 SER         0.2396
      2 CA          6.8690   -1.9100   17.3860 C.3       1 SER         0.0885
      3 C           5.6540   -2.5120   18.1130 C.2       1 SER         0.2290
      4 O           4.9330   -1.8050   18.8230 O.2       1 SER        -0.3906
      5 CB          7.6140   -0.9090   18.2670 C.3       1 SER         0.1041
      6 OG          8.1700   -1.5340   19.4120 O.3       1 SER        -0.3870
      7 N           5.4230   -3.8220   17.9060 N.am      1 LYS        -0.2610
      8 CA          4.3000   -4.5580   18.4890 C.3       1 LYS         0.1311
      9 C           4.4680   -4.8250   19.9850 C.2       1 LYS         0.2039
     10 O           5.5530   -5.2020   20.4330 O.2       1 LYS        -0.3944
     11 CB          4.0570   -5.8740   17.7330 C.3       1 LYS        -0.0122
     12 CG          2.5970   -6.1010   17.3660 C.3       1 LYS        -0.0440
     13 CD          2.2740   -7.5840   17.2240 C.3       1 LYS        -0.0124
     14 CE          1.6730   -7.9420   15.8870 C.3       1 LYS        -0.0354
     15 NZ          2.6980   -7.9970   14.8090 N.4       1 LYS         0.2185
     16 N           3.3770   -4.6340   20.7470 N.am      1 GLU        -0.2636
     17 CA          3.3030   -4.8670   22.1910 C.3       1 GLU         0.1325
     18 C           2.0470   -5.6910   22.4840 C.2       1 GLU         0.2041
     19 O           0.9850   -5.4000   21.9270 O.2       1 GLU        -0.3944
     20 CB          3.2820   -3.5380   22.9610 C.3       1 GLU        -0.0008
     21 CG          3.7500   -3.6640   24.4010 C.3       1 GLU         0.0044
     22 CD          3.7190   -2.3850   25.2160 C.2       1 GLU         0.0350
     23 OE1         4.2910   -1.3680   24.7610 O.co2     1 GLU        -0.5690
     24 OE2         3.1620   -2.4150   26.3370 O.co2     1 GLU        -0.5690
     25 N           2.1700   -6.7350   23.3280 N.am      1 THR        -0.2613
     26 CA          1.0540   -7.6310   23.6530 C.3       1 THR         0.1567
     27 C           0.9670   -7.9510   25.1600 C.2       1 THR         0.2090
     28 O           1.9550   -8.4180   25.7320 O.2       1 THR        -0.3941
     29 CB          1.1290   -8.9110   22.7820 C.3       1 THR         0.0924
     30 OG1         1.2470   -8.5540   21.4030 O.3       1 THR        -0.3874
     31 CG2        -0.0710   -9.8390   22.9690 C.3       1 THR        -0.0346
     32 N          -0.2100   -7.7580   25.8110 N.am      1 PRO        -0.2498
     33 CA         -0.3210   -8.1210   27.2350 C.3       1 PRO         0.1337
     34 C          -0.5270   -9.6240   27.4300 C.2       1 PRO         0.2035
     35 O          -1.1590  -10.2780   26.5970 O.2       1 PRO        -0.3944
     36 CB         -1.5200   -7.3050   27.7220 C.3       1 PRO        -0.0104
     37 CG         -2.3530   -7.0790   26.5120 C.3       1 PRO        -0.0281
     38 CD         -1.4880   -7.2290   25.2860 C.3       1 PRO         0.0369
     39 N           0.0220  -10.1730   28.5250 N.am      1 LEU        -0.2695
     40 CA         -0.0580  -11.6000   28.8530 C.3       1 LEU         0.0946
     41 C          -0.4420  -11.8550   30.3100 C.2       1 LEU         0.0601
     42 O          -0.3300  -10.9260   31.1380 O.co2     1 LEU        -0.5666
     43 CB          1.2700  -12.3020   28.5270 C.3       1 LEU        -0.0156
     44 CG          1.5920  -12.4650   27.0500 C.3       1 LEU        -0.0431
     45 CD1         3.0270  -12.1430   26.7820 C.3       1 LEU        -0.0625
     46 CD2         1.2430  -13.8520   26.5600 C.3       1 LEU        -0.0625
     47 OXT        -0.8380  -12.9970   30.6250 O.co2     1 LEU        -0.5666
     48 H1          7.2709   -0.8955   15.6721 H         1 SER         0.2016
     49 H2          5.7999   -0.5475   16.3235 H         1 SER         0.2016
     50 H3          6.0342   -1.9731   15.5346 H         1 SER         0.2016
     51 H4          7.5608   -2.7315   17.1483 H         1 SER         0.1122
     52 H5          6.9113   -0.1278   18.5926 H         1 SER         0.0640
     53 H6          8.4248   -0.4518   17.6808 H         1 SER         0.0640
     54 H7          8.6247   -0.8852   19.9362 H         1 SER         0.2099
     55 H8          6.0577   -4.3232   17.3177 H         1 LYS         0.1884
     56 H9          3.4036   -3.9321   18.3679 H         1 LYS         0.0800
     57 H10         4.3902   -6.7077   18.3686 H         1 LYS         0.0312
     58 H11         4.6507   -5.8588   16.8071 H         1 LYS         0.0312
     59 H12         2.3874   -5.5977   16.4106 H         1 LYS         0.0269
     60 H13         1.9607   -5.6717   18.1539 H         1 LYS         0.0269
     61 H14         1.5597   -7.8622   18.0129 H         1 LYS         0.0317
     62 H15         3.2040   -8.1571   17.3527 H         1 LYS         0.0317
     63 H16         0.9202   -7.1849   15.6223 H         1 LYS         0.0813
     64 H17         1.1899   -8.9269   15.9676 H         1 LYS         0.0813
     65 H18         2.2551   -8.2385   13.9363 H         1 LYS         0.1994
     66 H19         3.3900   -8.6931   15.0385 H         1 LYS         0.1994
     67 H20         3.1429   -7.0967   14.7221 H         1 LYS         0.1994
     68 H21         2.5494   -4.3065   20.2911 H         1 GLU         0.1883
     69 H22         4.1878   -5.4390   22.5071 H         1 GLU         0.0801
     70 H23         2.2517   -3.1527   22.9623 H         1 GLU         0.0330
     71 H24         3.9396   -2.8248   22.4425 H         1 GLU         0.0330
     72 H25         4.7865   -4.0321   24.3887 H         1 GLU         0.0433
     73 H26         3.1053   -4.4005   24.9029 H         1 GLU         0.0433
     74 H27         3.0599   -6.9063   23.7508 H         1 THR         0.1884
     75 H28         0.1252   -7.1062   23.3849 H         1 THR         0.0826
     76 H29         2.0321   -9.4652   23.0774 H         1 THR         0.0639
     77 H30         2.0366   -8.0411   21.2763 H         1 THR         0.2101
     78 H31         0.0455  -10.7232   22.3251 H         1 THR         0.0257
     79 H32        -0.9933   -9.3054   22.6957 H         1 THR         0.0257
     80 H33        -0.1288  -10.1563   24.0206 H         1 THR         0.0257
     81 H34         0.5881   -7.8197   27.7761 H         1 PRO         0.0802
     82 H35        -1.1876   -6.3461   28.1463 H         1 PRO         0.0313
     83 H36        -2.0857   -7.8654   28.4809 H         1 PRO         0.0313
     84 H37        -2.7787   -6.0651   26.5413 H         1 PRO         0.0287
     85 H38        -3.1673   -7.8179   26.4815 H         1 PRO         0.0287
     86 H39        -1.9396   -7.9345   24.5731 H         1 PRO         0.0524
     87 H40        -1.3359   -6.2571   24.7937 H         1 PRO         0.0524
     88 H41         0.5151   -9.5729   29.1548 H         1 LEU         0.1875
     89 H42        -0.8419  -12.0417   28.2203 H         1 LEU         0.0726
     90 H43         1.2402  -13.3050   28.9777 H         1 LEU         0.0308
     91 H44         2.0812  -11.7177   28.9859 H         1 LEU         0.0308
     92 H45         0.9751  -11.7469   26.4899 H         1 LEU         0.0297
     93 H46         3.2366  -12.2676   25.7094 H         1 LEU         0.0232
     94 H47         3.6696  -12.8214   27.3623 H         1 LEU         0.0232
     95 H48         3.2308  -11.1031   27.0770 H         1 LEU         0.0232
     96 H49         0.1835  -14.0595   26.7707 H         1 LEU         0.0232
     97 H50         1.8714  -14.5924   27.0767 H         1 LEU         0.0232
     98 H51         1.4201  -13.9133   25.4761 H         1 LEU         0.0232
@<TRIPOS>BOND
     1    1    2 1  
     2    2    3 1  
     3    2    5 1  
     4    3    4 2  
     5    3    7 am 
     6    5    6 1  
     7    7    8 1  
     8    8    9 1  
     9    8   11 1  
    10    9   10 2  
    11    9   16 am 
    12   11   12 1  
    13   12   13 1  
    14   13   14 1  
    15   14   15 1  
    16   16   17 1  
    17   17   18 1  
    18   17   20 1  
    19   18   19 2  
    20   18   25 am 
    21   20   21 1  
    22   21   22 1  
    23   22   23 ar 
    24   22   24 ar 
    25   25   26 1  
    26   26   27 1  
    27   26   29 1  
    28   27   28 2  
    29   27   32 am 
    30   29   30 1  
    31   29   31 1  
    32   32   33 1  
    33   32   38 1  
    34   33   34 1  
    35   33   36 1  
    36   34   35 2  
    37   34   39 am 
    38   36   37 1  
    39   37   38 1  
    40   39   40 1  
    41   40   41 1  
    42   40   43 1  
    43   41   42 ar 
    44   41   47 ar 
    45   43   44 1  
    46   44   45 1  
    47   44   46 1  
    48    1   48 1  
    49    1   49 1  
    50    1   50 1  
    51    2   51 1  
    52    5   52 1  
    53    5   53 1  
    54    6   54 1  
    55    7   55 1  
    56    8   56 1  
    57   11   57 1  
    58   11   58 1  
    59   12   59 1  
    60   12   60 1  
    61   13   61 1  
    62   13   62 1  
    63   14   63 1  
    64   14   64 1  
    65   15   65 1  
    66   15   66 1  
    67   15   67 1  
    68   16   68 1  
    69   17   69 1  
    70   20   70 1  
    71   20   71 1  
    72   21   72 1  
    73   21   73 1  
    74   25   74 1  
    75   26   75 1  
    76   29   76 1  
    77   30   77 1  
    78   31   78 1  
    79   31   79 1  
    80   31   80 1  
    81   33   81 1  
    82   36   82 1  
    83   36   83 1  
    84   37   84 1  
    85   37   85 1  
    86   38   86 1  
    87   38   87 1  
    88   39   88 1  
    89   40   89 1  
    90   43   90 1  
    91   43   91 1  
    92   44   92 1  
    93   45   93 1  
    94   45   94 1  
    95   45   95 1  
    96   46   96 1  
    97   46   97 1  
    98   46   98 1  
@<TRIPOS>SUBSTRUCTURE
     1 SER         1

