3dkf_ligand
  -I-interpret- 

 39 43  0  0  0  0  0  0  0  0999 V2000
   16.1770   16.6930  139.1080 C   0  0  0  0  0
   15.3490   15.8170  139.6870 C   0  0  0  0  0
   11.5950   12.4340  141.7610 C   0  0  0  0  0
   12.7910   12.6200  140.9690 N   0  0  0  0  0
   15.4570   14.3870  139.2780 C   0  0  0  0  0
   14.4450   12.0770  139.7750 C   0  0  0  0  0
   14.5110   13.4900  139.8990 C   0  0  0  0  0
   13.3970   13.7970  140.6670 C   0  0  0  0  0
   13.4100   11.5550  140.4360 N   0  0  0  0  0
   16.2740   13.9050  138.3740 N   0  0  0  0  0
   17.0770   14.8770  137.8370 N   0  0  0  0  0
   17.0800   16.2320  138.1310 C   0  0  0  0  0
   18.0420   14.7460  136.8870 C   0  0  0  0  0
   18.5820   15.9090  136.6090 N   0  0  0  0  0
   17.9680   16.8550  137.3940 N   0  0  0  0  0
   18.4230   13.2250  136.1540 S   0  0  0  0  0
   19.1740   12.3010  137.4730 C   0  0  0  0  0
   18.5560   11.1600  138.0010 C   0  0  0  0  0
   19.2000   10.4400  139.0340 C   0  0  0  0  0
   20.4710   10.8540  139.5240 C   0  0  0  0  0
   21.0540   11.9920  138.9760 C   0  0  0  0  0
   20.4240   12.7060  137.9480 C   0  0  0  0  0
   18.6280    9.2970  139.6090 C   0  0  0  0  0
   19.3080    8.6210  140.6270 C   0  0  0  0  0
   20.5410    9.0990  141.0410 C   0  0  0  0  0
   21.1250   10.1970  140.5150 N   0  0  0  0  0
   16.1533   17.7462  139.3877 H   0  0  0  0  0
   14.6205   16.1370  140.4320 H   0  0  0  0  0
   11.7598   12.8283  142.7637 H   0  0  0  0  0
   10.7649   12.9632  141.2930 H   0  0  0  0  0
   11.3622   11.3708  141.8210 H   0  0  0  0  0
   15.1599   11.4849  139.2037 H   0  0  0  0  0
   13.0709   14.7920  140.9698 H   0  0  0  0  0
   17.5894   10.8307  137.6198 H   0  0  0  0  0
   22.0178   12.3343  139.3529 H   0  0  0  0  0
   20.9110   13.5808  137.5172 H   0  0  0  0  0
   17.6585    8.9370  139.2647 H   0  0  0  0  0
   18.8752    7.7327  141.0872 H   0  0  0  0  0
   21.0658    8.5617  141.8309 H   0  0  0  0  0
  2  1  4  0  0  0
  1 12  4  0  0  0
  5  2  4  0  0  0
  4  3  1  0  0  0
  4  8  4  0  0  0
  9  4  4  0  0  0
  7  5  1  0  0  0
  5 10  4  0  0  0
  6  7  4  0  0  0
  6  9  4  0  0  0
  7  8  4  0  0  0
 10 11  4  0  0  0
 11 12  4  0  0  0
 11 13  4  0  0  0
 12 15  4  0  0  0
 13 14  4  0  0  0
 13 16  1  0  0  0
 14 15  4  0  0  0
 16 17  1  0  0  0
 17 18  4  0  0  0
 17 22  4  0  0  0
 18 19  4  0  0  0
 19 20  4  0  0  0
 19 23  4  0  0  0
 20 21  4  0  0  0
 20 26  4  0  0  0
 21 22  4  0  0  0
 23 24  4  0  0  0
 24 25  4  0  0  0
 25 26  4  0  0  0
  1 27  1  0  0  0
  2 28  1  0  0  0
  3 29  1  0  0  0
  3 30  1  0  0  0
  3 31  1  0  0  0
  6 32  1  0  0  0
  8 33  1  0  0  0
 18 34  1  0  0  0
 21 35  1  0  0  0
 22 36  1  0  0  0
 23 37  1  0  0  0
 24 38  1  0  0  0
 25 39  1  0  0  0
M  END
$$$$
