3udk_ligand
  -I-interpret- 

 44 47  0  0  0  0  0  0  0  0999 V2000
   26.8760   37.9950   40.9650 C   0  0  0  0  0
   27.4780   38.0510   42.2090 C   0  0  0  0  0
   25.5360   37.6950   40.8370 C   0  0  0  0  0
   26.7630   37.7800   43.3560 C   0  0  0  0  0
   24.8250   37.4520   41.9860 C   0  0  0  0  0
   25.4340   37.4770   43.2070 C   0  0  0  0  0
   23.2860   36.9370   43.6350 C   0  0  0  0  0
   20.3220   37.0550   42.3300 C   0  0  0  0  0
   19.8720   34.0330   44.1600 C   0  0  0  0  0
   17.9890   35.5760   43.3720 C   0  0  0  0  0
   22.4300   38.1000   41.6450 C   0  0  0  0  0
   23.0970   35.7660   41.4430 C   0  0  0  0  0
   18.7550   33.1650   44.7010 C   0  0  0  0  0
   17.1130   34.6190   44.1460 C   0  0  0  0  0
   21.2490   37.3000   41.1690 C   0  0  0  0  0
   19.4500   35.4400   43.7570 C   0  0  0  0  0
   23.4080   37.0720   42.1390 C   0  0  0  0  0
   24.5160   37.1880   44.2130 N   0  0  0  0  0
   21.8420   36.0220   40.6960 N   0  3  0  0  0
   22.2450   36.6700   44.2160 O   0  0  0  0  0
   19.7650   37.9340   42.9680 O   0  0  0  0  0
   17.5910   33.3060   43.9050 O   0  0  0  0  0
   20.2140   35.7220   42.5890 O   0  0  0  0  0
   27.4697   38.1910   40.0722 H   0  0  0  0  0
   28.5333   38.3133   42.2835 H   0  0  0  0  0
   25.0583   37.6523   39.8582 H   0  0  0  0  0
   27.2337   37.8055   44.3388 H   0  0  0  0  0
   20.2445   33.5444   43.2597 H   0  0  0  0  0
   20.6053   34.1394   44.9594 H   0  0  0  0  0
   17.6685   36.5930   43.5982 H   0  0  0  0  0
   17.8918   35.3472   42.3107 H   0  0  0  0  0
   22.1545   38.8093   42.4254 H   0  0  0  0  0
   22.8520   38.7164   40.8512 H   0  0  0  0  0
   22.9862   34.9456   42.1520 H   0  0  0  0  0
   23.9062   35.4569   40.7814 H   0  0  0  0  0
   18.5273   33.4739   45.7212 H   0  0  0  0  0
   19.0741   32.1229   44.6824 H   0  0  0  0  0
   16.0755   34.7099   43.8245 H   0  0  0  0  0
   17.1510   34.8469   45.2112 H   0  0  0  0  0
   20.6724   37.7974   40.3891 H   0  0  0  0  0
   19.6066   36.1064   44.6052 H   0  0  0  0  0
   24.7181   37.1653   45.2125 H   0  0  0  0  0
   21.1850   35.2583   40.8556 H   0  0  0  0  0
   22.0427   36.0847   39.6979 H   0  0  0  0  0
  1  2  4  0  0  0
  3  1  4  0  0  0
  4  2  4  0  0  0
  5  3  4  0  0  0
  6  4  4  0  0  0
  5  6  4  0  0  0
 17  5  1  0  0  0
 18  6  1  0  0  0
 17  7  1  0  0  0
  7 18  1  0  0  0
  7 20  2  0  0  0
  8 15  1  0  0  0
  8 21  2  0  0  0
 23  8  1  0  0  0
  9 13  1  0  0  0
 16  9  1  0  0  0
 10 14  1  0  0  0
 16 10  1  0  0  0
 15 11  1  0  0  0
 11 17  1  0  0  0
 12 17  1  0  0  0
 19 12  1  0  0  0
 13 22  1  0  0  0
 14 22  1  0  0  0
 15 19  1  0  0  0
 16 23  1  0  0  0
  1 24  1  0  0  0
  2 25  1  0  0  0
  3 26  1  0  0  0
  4 27  1  0  0  0
  9 28  1  0  0  0
  9 29  1  0  0  0
 10 30  1  0  0  0
 10 31  1  0  0  0
 11 32  1  0  0  0
 11 33  1  0  0  0
 12 34  1  0  0  0
 12 35  1  0  0  0
 13 36  1  0  0  0
 13 37  1  0  0  0
 14 38  1  0  0  0
 14 39  1  0  0  0
 15 40  1  0  0  0
 16 41  1  0  0  0
 18 42  1  0  0  0
 19 43  1  0  0  0
 19 44  1  0  0  0
M  END
$$$$
