3c79_ligand
  -I-interpret- 

 25 26  0  0  0  0  0  0  0  0999 V2000
   55.2750  -20.5120   -6.9230 C   0  0  0  0  0
   54.2610  -20.4010   -7.9300 C   0  0  0  0  0
   53.0290  -19.8510   -7.6560 C   0  0  0  0  0
   51.8910  -19.7340   -8.6580 Cl  0  0  0  0  0
   52.9340  -19.3680   -6.3650 N   0  0  0  0  0
   53.8530  -19.4780   -5.3920 C   0  0  0  0  0
   55.0840  -20.0910   -5.6230 C   0  0  0  0  0
   56.1960  -20.1820   -4.5260 C   0  0  0  0  0
   55.6380  -20.1150   -3.1670 N   0  0  0  0  0
   55.5980  -18.9470   -2.3080 C   0  0  0  0  0
   54.9030  -19.4350   -1.0100 C   0  0  0  0  0
   54.6560  -20.8390   -1.2930 N   0  0  0  0  0
   55.0810  -21.1370   -2.5310 C   0  0  0  0  0
   55.0280  -22.3550   -3.0860 N   0  0  0  0  0
   54.5070  -23.2770   -2.4490 N   0  0  0  0  0
   54.4070  -24.7610   -2.9580 O   0  0  0  0  0
   53.9980  -22.9420   -1.1440 O   0  0  0  0  0
   56.2366  -20.9469   -7.1955 H   0  0  0  0  0
   54.4704  -20.7608   -8.9373 H   0  0  0  0  0
   53.6322  -19.0800   -4.4016 H   0  0  0  0  0
   56.8737  -19.3385   -4.6576 H   0  0  0  0  0
   56.7065  -21.1386   -4.6375 H   0  0  0  0  0
   55.9734  -17.9472   -2.5263 H   0  0  0  0  0
   54.6607  -18.8676   -0.1114 H   0  0  0  0  0
   55.4106  -22.5185   -4.0173 H   0  0  0  0  0
  1  2  4  0  0  0
  1  7  4  0  0  0
  2  3  4  0  0  0
  3  4  1  0  0  0
  3  5  4  0  0  0
  5  6  4  0  0  0
  6  7  4  0  0  0
  7  8  1  0  0  0
  8  9  1  0  0  0
  9 10  4  0  0  0
  9 13  4  0  0  0
 10 11  4  0  0  0
 11 12  4  0  0  0
 12 13  4  0  0  0
 13 14  1  0  0  0
 14 15  1  0  0  0
 15 16  2  0  0  0
 15 17  2  0  0  0
  1 18  1  0  0  0
  2 19  1  0  0  0
  6 20  1  0  0  0
  8 21  1  0  0  0
  8 22  1  0  0  0
 10 23  1  0  0  0
 11 24  1  0  0  0
 14 25  1  0  0  0
M  END
$$$$
