1e5j_ligand
  -I-interpret- 

 90 93  0  0  0  0  0  0  0  0999 V2000
   -4.3970   42.7460   12.1070 C   0  0  0  0  0
   -5.6310   41.8700   11.7410 C   0  0  0  0  0
   -6.8920   42.7020   11.7810 C   0  0  0  0  0
   -7.0630   43.4260   13.1010 C   0  0  0  0  0
   -5.7690   44.2330   13.3560 C   0  0  0  0  0
   -5.8860   44.9020   14.7230 C   0  0  0  0  0
   -5.4420   41.5210   10.3790 O   0  0  0  0  0
   -7.9760   41.7910   11.6160 O   0  0  0  0  0
   -8.2030   44.3080   13.1040 O   0  0  0  0  0
   -4.6740   43.3550   13.3280 O   0  0  0  0  0
   -5.8610   43.9760   15.7510 O   0  0  0  0  0
    1.1760   43.5660   12.0220 C   0  0  0  0  0
    0.5050   43.6790   13.3910 C   0  0  0  0  0
    1.5000   43.3790   14.3780 O   0  0  0  0  0
   -0.7020   42.7160   13.4170 C   0  0  0  0  0
   -1.4380   42.8890   14.6180 O   0  0  0  0  0
   -1.5900   43.0010   12.2230 C   0  0  0  0  0
   -0.8360   42.9720   10.8910 C   0  0  0  0  0
    0.2740   43.9040   10.9880 O   0  0  0  0  0
   -1.6690   43.4320    9.6550 C   0  0  0  0  0
   -2.2280   44.7130    9.8860 O   0  0  0  0  0
   -2.9160   41.7240   12.1240 S   0  0  0  0  0
    4.4160   41.1710    8.2230 C   0  0  0  0  0
    4.3140   42.6680    8.5150 C   0  0  0  0  0
    5.5680   43.2660    8.3900 O   0  0  0  0  0
    3.8000   42.8670    9.9380 C   0  0  0  0  0
    3.5220   44.2080   10.0500 O   0  0  0  0  0
    2.5000   42.0300   10.1240 C   0  0  0  0  0
    2.6960   40.5570    9.7250 C   0  0  0  0  0
    3.1930   40.5490    8.4030 O   0  0  0  0  0
    1.4230   39.6900    9.7360 C   0  0  0  0  0
    0.3700   40.3750    9.0640 O   0  0  0  0  0
    2.1010   42.0550   11.8830 S   0  0  0  0  0
    6.2800   37.7230    4.7570 C   0  0  0  0  0
    4.9060   37.5280    5.3620 C   0  0  0  0  0
    4.3370   38.8920    5.7570 C   0  0  0  0  0
    5.3040   39.6830    6.6110 C   0  0  0  0  0
    6.6880   39.7830    5.9750 C   0  0  0  0  0
    7.6520   40.2690    7.0820 C   0  0  0  0  0
    7.9700   36.6670    3.3870 C   0  0  0  0  0
    6.7860   36.5330    4.1800 O   0  0  0  0  0
    3.9580   36.9810    4.4430 O   0  0  0  0  0
    3.1580   38.6180    6.4860 O   0  0  0  0  0
    4.8000   40.9830    6.8720 O   0  0  0  0  0
    7.1370   38.5070    5.5470 O   0  0  0  0  0
    8.9190   40.5520    6.3470 O   0  0  0  0  0
   -4.2069   43.5282   11.3720 H   0  0  0  0  0
   -5.7202   41.0240   12.4225 H   0  0  0  0  0
   -6.8504   43.4629   11.0017 H   0  0  0  0  0
   -7.2405   42.6929   13.8879 H   0  0  0  0  0
   -5.6253   44.9962   12.5911 H   0  0  0  0  0
   -6.8362   45.4345   14.7641 H   0  0  0  0  0
   -5.0391   45.5766   14.8483 H   0  0  0  0  0
   -4.6485   40.9875   10.2937 H   0  0  0  0  0
   -7.8777   41.3262   10.7818 H   0  0  0  0  0
   -9.0009   43.7984   12.9450 H   0  0  0  0  0
   -5.9365   44.4317   16.5926 H   0  0  0  0  0
    1.9556   44.3183   11.9022 H   0  0  0  0  0
    0.1183   44.6764   13.6000 H   0  0  0  0  0
    1.1101   43.4412   15.2530 H   0  0  0  0  0
   -0.3458   41.6869   13.3714 H   0  0  0  0  0
   -2.1852   42.2862   14.6237 H   0  0  0  0  0
   -1.9904   44.0034   12.3742 H   0  0  0  0  0
   -0.5503   41.9319   10.7337 H   0  0  0  0  0
   -2.4749   42.7183    9.4842 H   0  0  0  0  0
   -1.0150   43.4815    8.7844 H   0  0  0  0  0
   -2.7369   44.9821    9.1178 H   0  0  0  0  0
    5.1496   40.7422    8.9057 H   0  0  0  0  0
    3.6275   43.1267    7.8034 H   0  0  0  0  0
    5.4934   44.2050    8.5751 H   0  0  0  0  0
    4.5211   42.5498   10.6913 H   0  0  0  0  0
    3.1923   44.3927   10.9325 H   0  0  0  0  0
    1.7190   42.4579    9.4954 H   0  0  0  0  0
    3.3651   40.1249   10.4691 H   0  0  0  0  0
    1.1273   39.4952   10.7669 H   0  0  0  0  0
    1.6234   38.7472    9.2271 H   0  0  0  0  0
   -0.4211   39.8312    9.0733 H   0  0  0  0  0
    6.1858   38.3697    3.8846 H   0  0  0  0  0
    5.0426   36.8459    6.2011 H   0  0  0  0  0
    4.1468   39.4983    4.8714 H   0  0  0  0  0
    5.4073   39.1412    7.5512 H   0  0  0  0  0
    6.6537   40.4546    5.1172 H   0  0  0  0  0
    7.7853   39.5297    7.8718 H   0  0  0  0  0
    7.2725   41.1441    7.6096 H   0  0  0  0  0
    7.7744   37.3446    2.5559 H   0  0  0  0  0
    8.7748   37.0683    4.0029 H   0  0  0  0  0
    8.2594   35.6898    3.0004 H   0  0  0  0  0
    3.1099   36.8808    4.8816 H   0  0  0  0  0
    2.7545   39.4442    6.7620 H   0  0  0  0  0
    9.5837   40.8636    6.9656 H   0  0  0  0  0
  1  2  1  0  0  0
  1 10  1  0  0  0
  2  3  1  0  0  0
  2  7  1  0  0  0
  3  4  1  0  0  0
  3  8  1  0  0  0
  5  4  1  0  0  0
  4  9  1  0  0  0
  5  6  1  0  0  0
 10  5  1  0  0  0
  6 11  1  0  0  0
 12 13  1  0  0  0
 12 19  1  0  0  0
 13 14  1  0  0  0
 13 15  1  0  0  0
 15 16  1  0  0  0
 15 17  1  0  0  0
 18 17  1  0  0  0
 17 22  1  0  0  0
 19 18  1  0  0  0
 18 20  1  0  0  0
 20 21  1  0  0  0
 22  1  1  0  0  0
 23 24  1  0  0  0
 23 30  1  0  0  0
 24 25  1  0  0  0
 24 26  1  0  0  0
 26 27  1  0  0  0
 26 28  1  0  0  0
 29 28  1  0  0  0
 28 33  1  0  0  0
 30 29  1  0  0  0
 29 31  1  0  0  0
 31 32  1  0  0  0
 33 12  1  0  0  0
 34 41  1  0  0  0
 45 34  1  0  0  0
 35 34  1  0  0  0
 35 42  1  0  0  0
 36 35  1  0  0  0
 36 43  1  0  0  0
 37 36  1  0  0  0
 44 37  1  0  0  0
 37 38  1  0  0  0
 38 45  1  0  0  0
 38 39  1  0  0  0
 39 46  1  0  0  0
 44 23  1  0  0  0
 41 40  1  0  0  0
  1 47  1  0  0  0
  2 48  1  0  0  0
  3 49  1  0  0  0
  4 50  1  0  0  0
  5 51  1  0  0  0
  6 52  1  0  0  0
  6 53  1  0  0  0
  7 54  1  0  0  0
  8 55  1  0  0  0
  9 56  1  0  0  0
 11 57  1  0  0  0
 12 58  1  0  0  0
 13 59  1  0  0  0
 14 60  1  0  0  0
 15 61  1  0  0  0
 16 62  1  0  0  0
 17 63  1  0  0  0
 18 64  1  0  0  0
 20 65  1  0  0  0
 20 66  1  0  0  0
 21 67  1  0  0  0
 23 68  1  0  0  0
 24 69  1  0  0  0
 25 70  1  0  0  0
 26 71  1  0  0  0
 27 72  1  0  0  0
 28 73  1  0  0  0
 29 74  1  0  0  0
 31 75  1  0  0  0
 31 76  1  0  0  0
 32 77  1  0  0  0
 34 78  1  0  0  0
 35 79  1  0  0  0
 36 80  1  0  0  0
 37 81  1  0  0  0
 38 82  1  0  0  0
 39 83  1  0  0  0
 39 84  1  0  0  0
 40 85  1  0  0  0
 40 86  1  0  0  0
 40 87  1  0  0  0
 42 88  1  0  0  0
 43 89  1  0  0  0
 46 90  1  0  0  0
M  END
$$$$
