4zy1_ligand
  -I-interpret- 

 46 47  0  0  0  0  0  0  0  0999 V2000
   81.6630  246.9340   84.4550 C   0  0  0  0  0
   81.0400  248.2710   84.0530 C   0  0  0  0  0
   80.4870  248.9750   85.2950 C   0  0  0  0  0
   79.8920  248.0370   83.0680 C   0  0  0  0  0
   82.0930  249.1670   83.3970 C   0  0  0  0  0
   82.1920  249.2390   82.1740 O   0  0  0  0  0
   82.8670  249.8430   84.2580 N   0  0  0  0  0
   83.8950  250.8060   83.8290 C   0  0  0  0  0
   83.9260  251.9320   84.8640 C   0  0  0  0  0
   84.1700  251.7030   86.0480 O   0  0  0  0  0
   83.6220  253.1440   84.3810 N   0  0  0  0  0
   83.6120  254.2270   85.3130 O   0  0  0  0  0
   85.1650  250.2380   83.6660 C   0  0  0  0  0
   86.0980  250.8980   82.8700 C   0  0  0  0  0
   87.3710  250.3710   82.6770 C   0  0  0  0  0
   85.5130  249.0370   84.2730 C   0  0  0  0  0
   86.7870  248.5070   84.0810 C   0  0  0  0  0
   87.7190  249.1710   83.2860 C   0  0  0  0  0
   88.9350  248.6540   83.1040 C   0  0  0  0  0
   89.7980  249.0130   82.1650 C   0  0  0  0  0
   89.4770  247.6870   83.8260 C   0  0  0  0  0
   90.6850  247.4790   83.3030 N   0  0  0  0  0
   90.8720  248.2410   82.3450 N   0  0  0  0  0
   92.1130  248.2780   81.5300 C   0  0  0  0  0
   82.0546  246.4358   83.5681 H   0  0  0  0  0
   82.4736  247.1103   85.1620 H   0  0  0  0  0
   80.9034  246.3060   84.9205 H   0  0  0  0  0
   81.2995  249.1617   85.9972 H   0  0  0  0  0
   80.0330  249.9218   85.0025 H   0  0  0  0  0
   79.7362  248.3409   85.7664 H   0  0  0  0  0
   79.4433  248.9938   82.8010 H   0  0  0  0  0
   80.2776  247.5522   82.1711 H   0  0  0  0  0
   79.1404  247.3989   83.5329 H   0  0  0  0  0
   82.7377  249.6827   85.2570 H   0  0  0  0  0
   83.6295  251.1813   82.8407 H   0  0  0  0  0
   83.4077  253.2870   83.3941 H   0  0  0  0  0
   83.3826  255.0392   84.8556 H   0  0  0  0  0
   85.8274  251.8395   82.3921 H   0  0  0  0  0
   88.0921  250.8967   82.0511 H   0  0  0  0  0
   84.7909  248.5112   84.8977 H   0  0  0  0  0
   87.0572  247.5644   84.5570 H   0  0  0  0  0
   89.6596  249.7801   81.4031 H   0  0  0  0  0
   89.0285  247.1680   84.6731 H   0  0  0  0  0
   91.8706  248.0546   80.4910 H   0  0  0  0  0
   92.5594  249.2703   81.5950 H   0  0  0  0  0
   92.8166  247.5362   81.9079 H   0  0  0  0  0
  1  2  1  0  0  0
  2  3  1  0  0  0
  2  4  1  0  0  0
  2  5  1  0  0  0
  5  6  2  0  0  0
  5  7  1  0  0  0
  7  8  1  0  0  0
  8  9  1  0  0  0
  8 13  1  0  0  0
  9 10  2  0  0  0
  9 11  1  0  0  0
 11 12  1  0  0  0
 13 14  4  0  0  0
 13 16  4  0  0  0
 14 15  4  0  0  0
 15 18  4  0  0  0
 16 17  4  0  0  0
 17 18  4  0  0  0
 18 19  1  0  0  0
 19 20  4  0  0  0
 19 21  4  0  0  0
 20 23  4  0  0  0
 21 22  4  0  0  0
 22 23  4  0  0  0
 23 24  1  0  0  0
  1 25  1  0  0  0
  1 26  1  0  0  0
  1 27  1  0  0  0
  3 28  1  0  0  0
  3 29  1  0  0  0
  3 30  1  0  0  0
  4 31  1  0  0  0
  4 32  1  0  0  0
  4 33  1  0  0  0
  7 34  1  0  0  0
  8 35  1  0  0  0
 11 36  1  0  0  0
 12 37  1  0  0  0
 14 38  1  0  0  0
 15 39  1  0  0  0
 16 40  1  0  0  0
 17 41  1  0  0  0
 20 42  1  0  0  0
 21 43  1  0  0  0
 24 44  1  0  0  0
 24 45  1  0  0  0
 24 46  1  0  0  0
M  END
$$$$
