3iqi_ligand
  -I-interpret- 

 67 66  0  0  0  0  0  0  0  0999 V2000
   20.6030    6.2310   43.1260 N   0  3  0  0  0
   20.7450    4.7870   43.4690 C   0  0  0  0  0
   20.6470    3.8610   42.2450 C   0  0  0  0  0
   19.9280    4.1560   41.2800 O   0  0  0  0  0
   19.7310    4.4140   44.5580 C   0  0  0  0  0
   19.4910    2.9250   44.6570 C   0  0  0  0  0
   18.7370    2.3640   43.8720 O   0  0  0  0  0
   20.1120    2.2820   45.6450 N   0  0  0  0  0
   21.3750    2.7450   42.3080 N   0  0  0  0  0
   21.5020    1.7980   41.1960 C   0  0  0  0  0
   20.4330    0.6850   41.1650 C   0  0  0  0  0
   20.5380   -0.2590   40.3660 O   0  0  0  0  0
   22.9160    1.1900   41.1750 C   0  0  0  0  0
   23.2110    0.2060   42.3130 C   0  0  0  0  0
   23.7950    0.8670   43.5580 C   0  0  0  0  0
   23.2560    1.9010   44.0260 O   0  0  0  0  0
   24.7980    0.3300   44.0830 O   0  0  0  0  0
   19.4180    0.7820   42.0250 N   0  0  0  0  0
   18.2830   -0.1540   41.9620 C   0  0  0  0  0
   17.3090    0.2380   40.8550 C   0  0  0  0  0
   16.1520    0.5940   41.0980 O   0  0  0  0  0
   17.5580   -0.2970   43.2980 C   0  0  0  0  0
   16.7180   -1.5590   43.3670 C   0  0  0  0  0
   17.0550   -2.5810   42.7540 O   0  0  0  0  0
   15.6250   -1.5010   44.1150 N   0  0  0  0  0
   17.8050    0.1290   39.6300 N   0  0  0  0  0
   17.1240    0.5830   38.4290 C   0  0  0  0  0
   16.5150   -0.6430   37.7350 C   0  0  0  0  0
   15.4130   -0.6210   37.1860 O   0  0  0  0  0
   18.1510    1.3610   37.5510 C   0  0  0  0  0
   18.3860    2.7610   38.1610 C   0  0  0  0  0
   17.7170    1.4540   36.0900 C   0  0  0  0  0
   19.5790    3.5320   37.5530 C   0  0  0  0  0
   17.1180   -1.7090   37.7530 O   0  0  0  0  0
   21.2786    6.4753   42.4019 H   0  0  0  0  0
   19.6581    6.4068   42.7844 H   0  0  0  0  0
   20.7755    6.7954   43.9579 H   0  0  0  0  0
   21.7522    4.6356   43.8572 H   0  0  0  0  0
   18.7823    4.8870   44.3042 H   0  0  0  0  0
   20.1323    4.7498   45.5142 H   0  0  0  0  0
   19.9679    1.2802   45.7714 H   0  0  0  0  0
   20.7315    2.7916   46.2750 H   0  0  0  0  0
   21.8697    2.5396   43.1760 H   0  0  0  0  0
   21.3284    2.3836   40.2932 H   0  0  0  0  0
   23.6174    2.0174   41.2829 H   0  0  0  0  0
   23.0061    0.6317   40.2432 H   0  0  0  0  0
   23.9493   -0.5065   41.9451 H   0  0  0  0  0
   22.2653   -0.2533   42.6006 H   0  0  0  0  0
   22.5072    2.1464   43.4776 H   0  0  0  0  0
   19.4282    1.5139   42.7354 H   0  0  0  0  0
   18.7023   -1.1322   41.7266 H   0  0  0  0  0
   16.8924    0.5583   43.4142 H   0  0  0  0  0
   18.3093   -0.3480   44.0861 H   0  0  0  0  0
   15.0231   -2.3198   44.2029 H   0  0  0  0  0
   15.3859   -0.6376   44.6026 H   0  0  0  0  0
   18.7237   -0.3012   39.5238 H   0  0  0  0  0
   16.3045    1.2698   38.6410 H   0  0  0  0  0
   15.0477    0.2652   37.2395 H   0  0  0  0  0
   19.0890    0.8059   37.5497 H   0  0  0  0  0
   18.6055    2.6156   39.2187 H   0  0  0  0  0
   17.4906    3.3501   37.9625 H   0  0  0  0  0
   17.6143    0.4500   35.6782 H   0  0  0  0  0
   16.7604    1.9728   36.0288 H   0  0  0  0  0
   18.4677    2.0053   35.5237 H   0  0  0  0  0
   20.4948    2.9609   37.7056 H   0  0  0  0  0
   19.4118    3.6744   36.4854 H   0  0  0  0  0
   19.6691    4.5027   38.0406 H   0  0  0  0  0
  1  2  1  0  0  0
  2  3  1  0  0  0
  2  5  1  0  0  0
  3  4  2  0  0  0
  3  9  1  0  0  0
  5  6  1  0  0  0
  6  7  2  0  0  0
  6  8  1  0  0  0
  9 10  1  0  0  0
 10 11  1  0  0  0
 10 13  1  0  0  0
 11 12  2  0  0  0
 11 18  1  0  0  0
 13 14  1  0  0  0
 14 15  1  0  0  0
 15 16  1  0  0  0
 15 17  2  0  0  0
 18 19  1  0  0  0
 19 20  1  0  0  0
 19 22  1  0  0  0
 20 21  2  0  0  0
 20 26  1  0  0  0
 22 23  1  0  0  0
 23 24  2  0  0  0
 23 25  1  0  0  0
 26 27  1  0  0  0
 27 28  1  0  0  0
 27 30  1  0  0  0
 28 29  1  0  0  0
 28 34  2  0  0  0
 30 31  1  0  0  0
 30 32  1  0  0  0
 31 33  1  0  0  0
  1 35  1  0  0  0
  1 36  1  0  0  0
  1 37  1  0  0  0
  2 38  1  0  0  0
  5 39  1  0  0  0
  5 40  1  0  0  0
  8 41  1  0  0  0
  8 42  1  0  0  0
  9 43  1  0  0  0
 10 44  1  0  0  0
 13 45  1  0  0  0
 13 46  1  0  0  0
 14 47  1  0  0  0
 14 48  1  0  0  0
 16 49  1  0  0  0
 18 50  1  0  0  0
 19 51  1  0  0  0
 22 52  1  0  0  0
 22 53  1  0  0  0
 25 54  1  0  0  0
 25 55  1  0  0  0
 26 56  1  0  0  0
 27 57  1  0  0  0
 29 58  1  0  0  0
 30 59  1  0  0  0
 31 60  1  0  0  0
 31 61  1  0  0  0
 32 62  1  0  0  0
 32 63  1  0  0  0
 32 64  1  0  0  0
 33 65  1  0  0  0
 33 66  1  0  0  0
 33 67  1  0  0  0
M  END
$$$$
