5jeo_ligand
  -I-interpret- 

170170  0  0  0  0  0  0  0  0999 V2000
  -47.9460  -12.9060    7.3570 N   0  3  0  0  0
  -49.1200  -12.1560    7.7900 C   0  0  0  0  0
  -49.8710  -11.5560    6.6090 C   0  0  0  0  0
  -49.6290  -11.9130    5.4540 O   0  0  0  0  0
  -48.7180  -11.0420    8.7580 C   0  0  0  0  0
  -48.0590  -11.5240   10.0340 C   0  0  0  0  0
  -47.9000  -10.4130   11.0540 C   0  0  0  0  0
  -48.0210   -9.2280   10.6670 O   0  0  0  0  0
  -47.6610  -10.7250   12.2420 O   0  0  0  0  0
  -50.7890  -10.6430    6.9100 N   0  0  0  0  0
  -51.4660   -9.8780    5.8740 C   0  0  0  0  0
  -50.8390   -8.4940    5.7730 C   0  0  0  0  0
  -50.8940   -7.6920    6.7120 O   0  0  0  0  0
  -52.9640   -9.7670    6.1540 C   0  0  0  0  0
  -53.7500   -9.1620    5.0040 C   0  0  0  0  0
  -53.6680   -9.9980    3.7380 C   0  0  0  0  0
  -53.0600   -9.5270    2.7490 O   0  0  0  0  0
  -54.2140  -11.1240    3.7310 O   0  0  0  0  0
  -50.2280   -8.2260    4.6290 N   0  0  0  0  0
  -49.5760   -6.9490    4.3960 C   0  0  0  0  0
  -50.2690   -6.1780    3.2930 C   0  0  0  0  0
  -50.3790   -6.6550    2.1680 O   0  0  0  0  0
  -48.1040   -7.1550    4.0430 C   0  0  0  0  0
  -47.3330   -7.8680    5.1080 C   0  0  0  0  0
  -46.9690   -7.2040    6.2720 C   0  0  0  0  0
  -47.0010   -9.2070    4.9680 C   0  0  0  0  0
  -46.2650   -7.8590    7.2700 C   0  0  0  0  0
  -46.2980   -9.8720    5.9660 C   0  0  0  0  0
  -45.9280   -9.1960    7.1160 C   0  0  0  0  0
  -50.7380   -4.9860    3.6280 N   0  0  0  0  0
  -51.3650   -4.1220    2.6500 C   0  0  0  0  0
  -50.3480   -3.0820    2.2110 C   0  0  0  0  0
  -50.2150   -2.0290    2.8360 O   0  0  0  0  0
  -52.6140   -3.4570    3.2250 C   0  0  0  0  0
  -53.6400   -4.4350    3.7690 C   0  0  0  0  0
  -54.9860   -3.7870    4.0200 C   0  0  0  0  0
  -55.2080   -2.6670    3.5140 O   0  0  0  0  0
  -55.8190   -4.3990    4.7230 O   0  0  0  0  0
  -49.6150   -3.3840    1.1460 N   0  0  0  0  0
  -48.5600   -2.4810    0.7080 C   0  0  0  0  0
  -49.1510   -1.2680    0.0070 C   0  0  0  0  0
  -50.1240   -1.3780   -0.7480 O   0  0  0  0  0
  -47.5680   -3.2000   -0.2070 C   0  0  0  0  0
  -46.9650   -4.4910    0.3510 C   0  0  0  0  0
  -45.9070   -5.0400   -0.5840 C   0  0  0  0  0
  -46.3740   -4.2660    1.7550 C   0  0  0  0  0
  -48.5570   -0.1100    0.2710 N   0  0  0  0  0
  -49.0000    1.1460   -0.3050 C   0  0  0  0  0
  -47.9000    1.6470   -1.2230 C   0  0  0  0  0
  -47.0320    2.4210   -0.8220 O   0  0  0  0  0
  -49.3180    2.1640    0.7830 C   0  0  0  0  0
  -50.3440    1.6860    1.8130 C   0  0  0  0  0
  -50.5020    2.7050    2.9330 C   0  0  0  0  0
  -51.6780    1.4090    1.1430 C   0  0  0  0  0
  -47.9450    1.1550   -2.4510 N   0  0  0  0  0
  -46.9110    1.3790   -3.4390 C   0  0  0  0  0
  -47.6100    1.7550   -4.7290 C   0  0  0  0  0
  -48.4360    0.9940   -5.2240 O   0  0  0  0  0
  -46.0470    0.1190   -3.6450 C   0  0  0  0  0
  -45.3050   -0.2320   -2.3490 C   0  0  0  0  0
  -45.0730    0.3080   -4.8020 C   0  0  0  0  0
  -44.6810   -1.6190   -2.3720 C   0  0  0  0  0
  -47.3120    2.9320   -5.2640 N   0  0  0  0  0
  -47.9650    3.3500   -6.5070 C   0  0  0  0  0
  -47.9020    4.8620   -6.6450 C   0  0  0  0  0
  -46.5490    5.2330   -6.6090 O   0  0  0  0  0
  -47.3030    2.7170   -7.7310 C   0  0  0  0  0
  -46.2610    2.0720   -7.6220 O   0  0  0  0  0
  -46.2560    6.5760   -7.4140 P   0  0  0  0  0
  -47.0720    6.5500   -8.8010 O   0  0  0  0  0
  -44.6870    6.6100   -7.7390 O   0  0  0  0  0
  -46.7470    7.8370   -6.5630 O   0  0  0  0  0
  -47.9070    2.9190   -8.8990 N   0  0  0  0  0
  -47.3700    2.3820  -10.1510 C   0  0  0  0  0
  -46.4320    3.3350  -10.8870 C   0  0  0  0  0
  -45.9880    4.3410  -10.3370 O   0  0  0  0  0
  -48.5090    1.9860  -11.0890 C   0  0  0  0  0
  -49.0000    0.5810  -10.8410 C   0  0  0  0  0
  -48.8520    0.0460   -9.7420 O   0  0  0  0  0
  -49.5810   -0.0330  -11.8650 N   0  0  0  0  0
  -46.1340    3.0000  -12.1370 N   0  0  0  0  0
  -45.2410    3.8040  -12.9620 C   0  0  0  0  0
  -46.0270    4.7800  -13.8300 C   0  0  0  0  0
  -47.2150    4.5840  -14.0900 O   0  0  0  0  0
  -44.3670    2.9020  -13.8390 C   0  0  0  0  0
  -43.5170    3.6640  -14.6780 O   0  0  0  0  0
  -45.4940    5.7890  -14.2930 O   0  0  0  0  0
  -48.2333  -13.6432    6.7132 H   0  0  0  0  0
  -47.2962  -12.2762    6.8864 H   0  0  0  0  0
  -47.4905  -13.3212    8.1697 H   0  0  0  0  0
  -49.7825  -12.8576    8.2970 H   0  0  0  0  0
  -49.6334  -10.5260    9.0476 H   0  0  0  0  0
  -47.9903  -10.4173    8.2401 H   0  0  0  0  0
  -47.0662  -11.8969    9.7822 H   0  0  0  0  0
  -48.6919  -12.2965   10.4709 H   0  0  0  0  0
  -48.2012   -9.2173    9.7241 H   0  0  0  0  0
  -51.0239  -10.4751    7.8883 H   0  0  0  0  0
  -51.3477  -10.4000    4.9245 H   0  0  0  0  0
  -53.0891   -9.1131    7.0171 H   0  0  0  0  0
  -53.3434  -10.7759    6.3161 H   0  0  0  0  0
  -53.3264   -8.1814    4.7869 H   0  0  0  0  0
  -54.7966   -9.1086    5.3039 H   0  0  0  0  0
  -52.7199   -8.6565    2.9687 H   0  0  0  0  0
  -50.2149   -8.9331    3.8940 H   0  0  0  0  0
  -49.6415   -6.3682    5.3161 H   0  0  0  0  0
  -47.6553   -6.1698    3.9157 H   0  0  0  0  0
  -48.0643   -7.7675    3.1423 H   0  0  0  0  0
  -47.2399   -6.1563    6.4022 H   0  0  0  0  0
  -47.2944   -9.7438    4.0659 H   0  0  0  0  0
  -45.9764   -7.3243    8.1749 H   0  0  0  0  0
  -46.0386  -10.9236    5.8433 H   0  0  0  0  0
  -45.3731   -9.7130    7.8988 H   0  0  0  0  0
  -50.6559   -4.6701    4.5944 H   0  0  0  0  0
  -51.6856   -4.7111    1.7907 H   0  0  0  0  0
  -53.0902   -2.9073    2.4132 H   0  0  0  0  0
  -52.2925   -2.8300    4.0566 H   0  0  0  0  0
  -53.2686   -4.8165    4.7201 H   0  0  0  0  0
  -53.7794   -5.2219    3.0278 H   0  0  0  0  0
  -55.4432   -5.2355    5.0071 H   0  0  0  0  0
  -49.7909   -4.2488    0.6345 H   0  0  0  0  0
  -48.0193   -2.1404    1.5910 H   0  0  0  0  0
  -46.7363   -2.5125   -0.3609 H   0  0  0  0  0
  -48.1221   -3.4804   -1.1028 H   0  0  0  0  0
  -47.7682   -5.2233    0.4328 H   0  0  0  0  0
  -46.3562   -5.2524   -1.5542 H   0  0  0  0  0
  -45.1122   -4.3037   -0.7036 H   0  0  0  0  0
  -45.4941   -5.9575   -0.1647 H   0  0  0  0  0
  -45.5909   -3.5098    1.7012 H   0  0  0  0  0
  -47.1611   -3.9285    2.4293 H   0  0  0  0  0
  -45.9532   -5.2010    2.1248 H   0  0  0  0  0
  -47.7573   -0.1032    0.9041 H   0  0  0  0  0
  -49.9192    0.9975   -0.8716 H   0  0  0  0  0
  -49.7425    3.0384    0.2897 H   0  0  0  0  0
  -48.3902    2.3584    1.3211 H   0  0  0  0  0
  -49.9814    0.7571    2.2531 H   0  0  0  0  0
  -49.5431    2.8467    3.4315 H   0  0  0  0  0
  -50.8392    3.6534    2.5147 H   0  0  0  0  0
  -51.2365    2.3419    3.6519 H   0  0  0  0  0
  -52.0442    2.3223    0.6741 H   0  0  0  0  0
  -51.5489    0.6364    0.3850 H   0  0  0  0  0
  -52.3952    1.0701    1.8906 H   0  0  0  0  0
  -48.7508    0.5881   -2.7151 H   0  0  0  0  0
  -46.2383    2.1702   -3.1080 H   0  0  0  0  0
  -46.7033   -0.7127   -3.9010 H   0  0  0  0  0
  -46.0313   -0.2102   -1.5365 H   0  0  0  0  0
  -44.4987    0.4907   -2.2242 H   0  0  0  0  0
  -45.6317    0.5031   -5.7174 H   0  0  0  0  0
  -44.4167    1.1517   -4.5886 H   0  0  0  0  0
  -44.4766   -0.5961   -4.9245 H   0  0  0  0  0
  -45.4623   -2.3651   -2.5170 H   0  0  0  0  0
  -43.9628   -1.6794   -3.1897 H   0  0  0  0  0
  -44.1723   -1.8029   -1.4257 H   0  0  0  0  0
  -46.6316    3.5428   -4.8120 H   0  0  0  0  0
  -49.0017    3.0170   -6.4586 H   0  0  0  0  0
  -48.4505    5.3419   -5.8345 H   0  0  0  0  0
  -48.3592    5.1785   -7.5825 H   0  0  0  0  0
  -46.7878    5.7969   -9.3241 H   0  0  0  0  0
  -44.4502    5.8322   -8.2494 H   0  0  0  0  0
  -48.7691    3.4637   -8.9231 H   0  0  0  0  0
  -46.7786    1.5124   -9.8644 H   0  0  0  0  0
  -48.1351    2.0359  -12.1117 H   0  0  0  0  0
  -49.3408    2.6685  -10.9147 H   0  0  0  0  0
  -49.9260   -0.9870  -11.7586 H   0  0  0  0  0
  -49.6823    0.4493  -12.7580 H   0  0  0  0  0
  -46.5430    2.1533  -12.5323 H   0  0  0  0  0
  -44.5976    4.3810  -12.2977 H   0  0  0  0  0
  -47.5031    3.7699  -13.6706 H   0  0  0  0  0
  -45.0180    2.2934  -14.4666 H   0  0  0  0  0
  -43.7481    2.2825  -13.1899 H   0  0  0  0  0
  -42.9836    3.0722  -15.2136 H   0  0  0  0  0
  1  2  1  0  0  0
  2  3  1  0  0  0
  2  5  1  0  0  0
  3  4  2  0  0  0
  3 10  1  0  0  0
  5  6  1  0  0  0
  6  7  1  0  0  0
  7  8  1  0  0  0
  7  9  2  0  0  0
 10 11  1  0  0  0
 11 12  1  0  0  0
 11 14  1  0  0  0
 12 13  2  0  0  0
 12 19  1  0  0  0
 14 15  1  0  0  0
 15 16  1  0  0  0
 16 17  1  0  0  0
 16 18  2  0  0  0
 19 20  1  0  0  0
 20 21  1  0  0  0
 20 23  1  0  0  0
 21 22  2  0  0  0
 21 30  1  0  0  0
 23 24  1  0  0  0
 24 25  4  0  0  0
 24 26  4  0  0  0
 25 27  4  0  0  0
 26 28  4  0  0  0
 27 29  4  0  0  0
 28 29  4  0  0  0
 30 31  1  0  0  0
 31 32  1  0  0  0
 31 34  1  0  0  0
 32 33  2  0  0  0
 32 39  1  0  0  0
 34 35  1  0  0  0
 35 36  1  0  0  0
 36 37  2  0  0  0
 36 38  1  0  0  0
 39 40  1  0  0  0
 40 41  1  0  0  0
 40 43  1  0  0  0
 41 42  2  0  0  0
 41 47  1  0  0  0
 43 44  1  0  0  0
 44 45  1  0  0  0
 44 46  1  0  0  0
 47 48  1  0  0  0
 48 49  1  0  0  0
 48 51  1  0  0  0
 49 50  2  0  0  0
 49 55  1  0  0  0
 51 52  1  0  0  0
 52 53  1  0  0  0
 52 54  1  0  0  0
 55 56  1  0  0  0
 56 57  1  0  0  0
 56 59  1  0  0  0
 57 58  2  0  0  0
 57 63  1  0  0  0
 59 60  1  0  0  0
 59 61  1  0  0  0
 60 62  1  0  0  0
 63 64  1  0  0  0
 64 65  1  0  0  0
 64 67  1  0  0  0
 65 66  1  0  0  0
 66 69  1  0  0  0
 67 68  2  0  0  0
 67 73  1  0  0  0
 69 70  1  0  0  0
 69 71  1  0  0  0
 69 72  2  0  0  0
 73 74  1  0  0  0
 74 75  1  0  0  0
 74 77  1  0  0  0
 75 76  2  0  0  0
 75 81  1  0  0  0
 77 78  1  0  0  0
 78 79  2  0  0  0
 78 80  1  0  0  0
 81 82  1  0  0  0
 82 83  1  0  0  0
 82 85  1  0  0  0
 83 84  1  0  0  0
 83 87  2  0  0  0
 85 86  1  0  0  0
  1 88  1  0  0  0
  1 89  1  0  0  0
  1 90  1  0  0  0
  2 91  1  0  0  0
  5 92  1  0  0  0
  5 93  1  0  0  0
  6 94  1  0  0  0
  6 95  1  0  0  0
  8 96  1  0  0  0
 10 97  1  0  0  0
 11 98  1  0  0  0
 14 99  1  0  0  0
 14100  1  0  0  0
 15101  1  0  0  0
 15102  1  0  0  0
 17103  1  0  0  0
 19104  1  0  0  0
 20105  1  0  0  0
 23106  1  0  0  0
 23107  1  0  0  0
 25108  1  0  0  0
 26109  1  0  0  0
 27110  1  0  0  0
 28111  1  0  0  0
 29112  1  0  0  0
 30113  1  0  0  0
 31114  1  0  0  0
 34115  1  0  0  0
 34116  1  0  0  0
 35117  1  0  0  0
 35118  1  0  0  0
 38119  1  0  0  0
 39120  1  0  0  0
 40121  1  0  0  0
 43122  1  0  0  0
 43123  1  0  0  0
 44124  1  0  0  0
 45125  1  0  0  0
 45126  1  0  0  0
 45127  1  0  0  0
 46128  1  0  0  0
 46129  1  0  0  0
 46130  1  0  0  0
 47131  1  0  0  0
 48132  1  0  0  0
 51133  1  0  0  0
 51134  1  0  0  0
 52135  1  0  0  0
 53136  1  0  0  0
 53137  1  0  0  0
 53138  1  0  0  0
 54139  1  0  0  0
 54140  1  0  0  0
 54141  1  0  0  0
 55142  1  0  0  0
 56143  1  0  0  0
 59144  1  0  0  0
 60145  1  0  0  0
 60146  1  0  0  0
 61147  1  0  0  0
 61148  1  0  0  0
 61149  1  0  0  0
 62150  1  0  0  0
 62151  1  0  0  0
 62152  1  0  0  0
 63153  1  0  0  0
 64154  1  0  0  0
 65155  1  0  0  0
 65156  1  0  0  0
 70157  1  0  0  0
 71158  1  0  0  0
 73159  1  0  0  0
 74160  1  0  0  0
 77161  1  0  0  0
 77162  1  0  0  0
 80163  1  0  0  0
 80164  1  0  0  0
 81165  1  0  0  0
 82166  1  0  0  0
 84167  1  0  0  0
 85168  1  0  0  0
 85169  1  0  0  0
 86170  1  0  0  0
M  END
$$$$
