### 
### Created by X-TOOL on Mon Sep 10 21:13:27 2018
### 

@<TRIPOS>MOLECULE
5jeo_ligand
  164   164     1     0     0
SMALL
GAST_HUCK


@<TRIPOS>ATOM
      1 N         -47.9460  -12.9060    7.3570 N.4       1 GLU         0.2380
      2 CA        -49.1200  -12.1560    7.7900 C.3       1 GLU         0.0665
      3 C         -49.8710  -11.5560    6.6090 C.2       1 GLU         0.2268
      4 O         -49.6290  -11.9130    5.4540 O.2       1 GLU        -0.3907
      5 CB        -48.7180  -11.0420    8.7580 C.3       1 GLU         0.0194
      6 CG        -48.0590  -11.5240   10.0340 C.3       1 GLU         0.0075
      7 CD        -47.9000  -10.4130   11.0540 C.2       1 GLU         0.0351
      8 OE1       -48.0210   -9.2280   10.6670 O.co2     1 GLU        -0.5690
      9 OE2       -47.6610  -10.7250   12.2420 O.co2     1 GLU        -0.5690
     10 N         -50.7890  -10.6430    6.9100 N.am      1 GLU        -0.2609
     11 CA        -51.4660   -9.8780    5.8740 C.3       1 GLU         0.1326
     12 C         -50.8390   -8.4940    5.7730 C.2       1 GLU         0.2041
     13 O         -50.8940   -7.6920    6.7120 O.2       1 GLU        -0.3944
     14 CB        -52.9640   -9.7670    6.1540 C.3       1 GLU        -0.0008
     15 CG        -53.7500   -9.1620    5.0040 C.3       1 GLU         0.0044
     16 CD        -53.6680   -9.9980    3.7380 C.2       1 GLU         0.0350
     17 OE1       -53.0600   -9.5270    2.7490 O.co2     1 GLU        -0.5690
     18 OE2       -54.2140  -11.1240    3.7310 O.co2     1 GLU        -0.5690
     19 N         -50.2280   -8.2260    4.6290 N.am      1 PHE        -0.2619
     20 CA        -49.5760   -6.9490    4.3960 C.3       1 PHE         0.1404
     21 C         -50.2690   -6.1780    3.2930 C.2       1 PHE         0.2060
     22 O         -50.3790   -6.6550    2.1680 O.2       1 PHE        -0.3942
     23 CB        -48.1040   -7.1550    4.0430 C.3       1 PHE         0.0214
     24 CG        -47.3330   -7.8680    5.1080 C.ar      1 PHE        -0.0386
     25 CD1       -46.9690   -7.2040    6.2720 C.ar      1 PHE        -0.0601
     26 CD2       -47.0010   -9.2070    4.9680 C.ar      1 PHE        -0.0601
     27 CE1       -46.2650   -7.8590    7.2700 C.ar      1 PHE        -0.0686
     28 CE2       -46.2980   -9.8720    5.9660 C.ar      1 PHE        -0.0686
     29 CZ        -45.9280   -9.1960    7.1160 C.ar      1 PHE        -0.0687
     30 N         -50.7380   -4.9860    3.6280 N.am      1 GLU        -0.2635
     31 CA        -51.3650   -4.1220    2.6500 C.3       1 GLU         0.1325
     32 C         -50.3480   -3.0820    2.2110 C.2       1 GLU         0.2040
     33 O         -50.2150   -2.0290    2.8360 O.2       1 GLU        -0.3944
     34 CB        -52.6140   -3.4570    3.2250 C.3       1 GLU        -0.0008
     35 CG        -53.6400   -4.4350    3.7690 C.3       1 GLU         0.0044
     36 CD        -54.9860   -3.7870    4.0200 C.2       1 GLU         0.0350
     37 OE1       -55.2080   -2.6670    3.5140 O.co2     1 GLU        -0.5690
     38 OE2       -55.8190   -4.3990    4.7230 O.co2     1 GLU        -0.5690
     39 N         -49.6150   -3.3840    1.1460 N.am      1 LEU        -0.2637
     40 CA        -48.5600   -2.4810    0.7080 C.3       1 LEU         0.1312
     41 C         -49.1510   -1.2680    0.0070 C.2       1 LEU         0.2039
     42 O         -50.1240   -1.3780   -0.7480 O.2       1 LEU        -0.3944
     43 CB        -47.5680   -3.2000   -0.2070 C.3       1 LEU        -0.0101
     44 CG        -46.9650   -4.4910    0.3510 C.3       1 LEU        -0.0425
     45 CD1       -45.9070   -5.0400   -0.5840 C.3       1 LEU        -0.0625
     46 CD2       -46.3740   -4.2660    1.7550 C.3       1 LEU        -0.0625
     47 N         -48.5570   -0.1100    0.2710 N.am      1 LEU        -0.2637
     48 CA        -49.0000    1.1460   -0.3050 C.3       1 LEU         0.1312
     49 C         -47.9000    1.6470   -1.2230 C.2       1 LEU         0.2039
     50 O         -47.0320    2.4210   -0.8220 O.2       1 LEU        -0.3944
     51 CB        -49.3180    2.1640    0.7830 C.3       1 LEU        -0.0101
     52 CG        -50.3440    1.6860    1.8130 C.3       1 LEU        -0.0425
     53 CD1       -50.5020    2.7050    2.9330 C.3       1 LEU        -0.0625
     54 CD2       -51.6780    1.4090    1.1430 C.3       1 LEU        -0.0625
     55 N         -47.9450    1.1550   -2.4510 N.am      1 ILE        -0.2635
     56 CA        -46.9110    1.3790   -3.4390 C.3       1 ILE         0.1335
     57 C         -47.6100    1.7550   -4.7290 C.2       1 ILE         0.2042
     58 O         -48.4360    0.9940   -5.2240 O.2       1 ILE        -0.3944
     59 CB        -46.0470    0.1190   -3.6450 C.3       1 ILE        -0.0037
     60 CG1       -45.3050   -0.2320   -2.3490 C.3       1 ILE        -0.0491
     61 CG2       -45.0730    0.3080   -4.8020 C.3       1 ILE        -0.0582
     62 CD1       -44.6810   -1.6190   -2.3720 C.3       1 ILE        -0.0648
     63 N         -47.3120    2.9320   -5.2640 N.am      1 SEP        -0.2613
     64 CA        -47.9650    3.3500   -6.5070 C.3       1 SEP         0.1586
     65 CB        -47.9020    4.8620   -6.6450 C.3       1 SEP         0.1184
     66 OG        -46.5490    5.2330   -6.6090 O.3       1 SEP        -0.2714
     67 C         -47.3030    2.7170   -7.7310 C.2       1 SEP         0.2067
     68 O         -46.2610    2.0720   -7.6220 O.2       1 SEP        -0.3943
     69 P         -46.2560    6.5760   -7.4140 P.3       1 SEP         0.2010
     70 O1P       -47.0720    6.5500   -8.8010 O.co2     1 SEP        -0.5537
     71 O2P       -44.6870    6.6100   -7.7390 O.co2     1 SEP        -0.5537
     72 O3P       -46.7470    7.8370   -6.5630 O.co2     1 SEP        -0.5537
     73 N         -47.9070    2.9190   -8.8990 N.am      1 ASN        -0.2615
     74 CA        -47.3700    2.3820  -10.1510 C.3       1 ASN         0.1475
     75 C         -46.4320    3.3350  -10.8870 C.2       1 ASN         0.2058
     76 O         -45.9880    4.3410  -10.3370 O.2       1 ASN        -0.3942
     77 CB        -48.5090    1.9860  -11.0890 C.3       1 ASN         0.0773
     78 CG        -49.0000    0.5810  -10.8410 C.2       1 ASN         0.1780
     79 OD1       -48.8520    0.0460   -9.7420 O.2       1 ASN        -0.3970
     80 ND2       -49.5810   -0.0330  -11.8650 N.am      1 ASN        -0.3007
     81 N         -46.1340    3.0000  -12.1370 N.am      1 SER        -0.2671
     82 CA        -45.2410    3.8040  -12.9620 C.3       1 SER         0.1173
     83 C         -46.0270    4.7800  -13.8300 C.2       1 SER         0.0623
     84 O         -47.2150    4.5840  -14.0900 O.co2     1 SER        -0.5665
     85 CB        -44.3670    2.9020  -13.8390 C.3       1 SER         0.0789
     86 OG        -43.5170    3.6640  -14.6780 O.3       1 SER        -0.3910
     87 OXT       -45.4940    5.7890  -14.2930 O.co2     1 SER        -0.5665
     88 H1        -47.4752  -13.2875    8.1625 H         1 GLU         0.2015
     89 H2        -47.3191  -12.2920    6.8610 H         1 GLU         0.2015
     90 H3        -48.2325  -13.6567    6.7484 H         1 GLU         0.2015
     91 H4        -49.7950  -12.8487    8.3139 H         1 GLU         0.1099
     92 H5        -49.6238  -10.4805    9.0304 H         1 GLU         0.0363
     93 H6        -48.0145  -10.3740    8.2395 H         1 GLU         0.0363
     94 H7        -47.0642  -11.9245    9.7891 H         1 GLU         0.0434
     95 H8        -48.6774  -12.3210   10.4725 H         1 GLU         0.0434
     96 H9        -51.0193  -10.4784    7.8691 H         1 GLU         0.1885
     97 H10       -51.3317  -10.3965    4.9132 H         1 GLU         0.0801
     98 H11       -53.1065   -9.1359    7.0436 H         1 GLU         0.0330
     99 H12       -53.3571  -10.7750    6.3526 H         1 GLU         0.0330
    100 H13       -53.3488   -8.1601    4.7914 H         1 GLU         0.0433
    101 H14       -54.8051   -9.0785    5.3035 H         1 GLU         0.0433
    102 H15       -50.2152   -8.9192    3.9084 H         1 PHE         0.1885
    103 H16       -49.6335   -6.3580    5.3219 H         1 PHE         0.0823
    104 H17       -47.6433   -6.1697    3.8792 H         1 PHE         0.0474
    105 H18       -48.0467   -7.7452    3.1165 H         1 PHE         0.0474
    106 H19       -47.2384   -6.1620    6.4014 H         1 PHE         0.0557
    107 H20       -47.2927   -9.7409    4.0708 H         1 PHE         0.0557
    108 H21       -45.9780   -7.3273    8.1700 H         1 PHE         0.0599
    109 H22       -46.0401  -10.9178    5.8440 H         1 PHE         0.0599
    110 H23       -45.3761   -9.7102    7.8945 H         1 PHE         0.0559
    111 H24       -50.6575   -4.6763    4.5754 H         1 GLU         0.1883
    112 H25       -51.6611   -4.7239    1.7782 H         1 GLU         0.0801
    113 H26       -53.0887   -2.8654    2.4283 H         1 GLU         0.0330
    114 H27       -52.3050   -2.7895    4.0429 H         1 GLU         0.0330
    115 H28       -53.2653   -4.8477    4.7173 H         1 GLU         0.0433
    116 H29       -53.7712   -5.2493    3.0412 H         1 GLU         0.0433
    117 H30       -49.7875   -4.2318    0.6445 H         1 LEU         0.1883
    118 H31       -48.0153   -2.1329    1.5980 H         1 LEU         0.0800
    119 H32       -46.7417   -2.5062   -0.4210 H         1 LEU         0.0315
    120 H33       -48.0902   -3.4480   -1.1428 H         1 LEU         0.0315
    121 H34       -47.7705   -5.2356    0.4336 H         1 LEU         0.0298
    122 H35       -45.4895   -5.9660   -0.1619 H         1 LEU         0.0232
    123 H36       -45.1042   -4.2979   -0.7055 H         1 LEU         0.0232
    124 H37       -46.3591   -5.2549   -1.5635 H         1 LEU         0.0232
    125 H38       -47.1534   -3.8678    2.4214 H         1 LEU         0.0232
    126 H39       -45.5431   -3.5479    1.6924 H         1 LEU         0.0232
    127 H40       -46.0034   -5.2216    2.1543 H         1 LEU         0.0232
    128 H41       -47.7729   -0.1033    0.8917 H         1 LEU         0.1883
    129 H42       -49.9111    0.9712   -0.8960 H         1 LEU         0.0800
    130 H43       -49.7108    3.0716    0.3013 H         1 LEU         0.0315
    131 H44       -48.3846    2.4047    1.3129 H         1 LEU         0.0315
    132 H45       -49.9782    0.7466    2.2532 H         1 LEU         0.0298
    133 H46       -51.2430    2.3397    3.6592 H         1 LEU         0.0232
    134 H47       -50.8423    3.6626    2.5122 H         1 LEU         0.0232
    135 H48       -49.5349    2.8489    3.4369 H         1 LEU         0.0232
    136 H49       -51.5383    0.6714    0.3390 H         1 LEU         0.0232
    137 H50       -52.0762    2.3426    0.7189 H         1 LEU         0.0232
    138 H51       -52.3859    1.0123    1.8856 H         1 LEU         0.0232
    139 H52       -48.7350    0.5992   -2.7099 H         1 ILE         0.1883
    140 H53       -46.2626    2.2054   -3.1125 H         1 ILE         0.0803
    141 H54       -46.7147   -0.7184   -3.8957 H         1 ILE         0.0345
    142 H55       -46.0189   -0.1838   -1.5135 H         1 ILE         0.0267
    143 H56       -44.5063    0.5079   -2.1921 H         1 ILE         0.0267
    144 H57       -45.6327    0.5582   -5.7153 H         1 ILE         0.0235
    145 H58       -44.5081   -0.6223   -4.9615 H         1 ILE         0.0235
    146 H59       -44.3753    1.1245   -4.5644 H         1 ILE         0.0235
    147 H60       -44.1673   -1.8058   -1.4174 H         1 ILE         0.0230
    148 H61       -43.9559   -1.6813   -3.1969 H         1 ILE         0.0230
    149 H62       -45.4685   -2.3730   -2.5182 H         1 ILE         0.0230
    150 H63       -46.6449    3.5309   -4.8209 H         1 SEP         0.1884
    151 H64       -49.0184    3.0353   -6.4716 H         1 SEP         0.0827
    152 H65       -48.4441    5.3378   -5.8145 H         1 SEP         0.0662
    153 H66       -48.3508    5.1709   -7.6006 H         1 SEP         0.0662
    154 H67       -48.7522    3.4530   -8.9226 H         1 ASN         0.1885
    155 H68       -46.7963    1.4775   -9.9007 H         1 ASN         0.0826
    156 H69       -48.1519    2.0567  -12.1270 H         1 ASN         0.0551
    157 H70       -49.3465    2.6836  -10.9410 H         1 ASN         0.0551
    158 H71       -49.9257   -0.9656  -11.7585 H         1 ASN         0.1814
    159 H72       -49.6738    0.4372  -12.7427 H         1 ASN         0.1814
    160 H73       -46.5349    2.1699  -12.5245 H         1 SER         0.1876
    161 H74       -44.5849    4.3840  -12.2964 H         1 SER         0.0749
    162 H75       -45.0169    2.2727  -14.4647 H         1 SER         0.0599
    163 H76       -43.7502    2.2618  -13.1912 H         1 SER         0.0599
    164 H77       -44.0442    4.2161  -15.2435 H         1 SER         0.2096
@<TRIPOS>BOND
     1    1    2 1  
     2    2    3 1  
     3    2    5 1  
     4    3    4 2  
     5    3   10 am 
     6    5    6 1  
     7    6    7 1  
     8    7    8 ar 
     9    7    9 ar 
    10   10   11 1  
    11   11   12 1  
    12   11   14 1  
    13   12   13 2  
    14   12   19 am 
    15   14   15 1  
    16   15   16 1  
    17   16   17 ar 
    18   16   18 ar 
    19   19   20 1  
    20   20   21 1  
    21   20   23 1  
    22   21   22 2  
    23   21   30 am 
    24   23   24 1  
    25   24   25 ar 
    26   24   26 ar 
    27   25   27 ar 
    28   26   28 ar 
    29   27   29 ar 
    30   28   29 ar 
    31   30   31 1  
    32   31   32 1  
    33   31   34 1  
    34   32   33 2  
    35   32   39 am 
    36   34   35 1  
    37   35   36 1  
    38   36   37 ar 
    39   36   38 ar 
    40   39   40 1  
    41   40   41 1  
    42   40   43 1  
    43   41   42 2  
    44   41   47 am 
    45   43   44 1  
    46   44   45 1  
    47   44   46 1  
    48   47   48 1  
    49   48   49 1  
    50   48   51 1  
    51   49   50 2  
    52   49   55 am 
    53   51   52 1  
    54   52   53 1  
    55   52   54 1  
    56   55   56 1  
    57   56   57 1  
    58   56   59 1  
    59   57   58 2  
    60   57   63 am 
    61   59   60 1  
    62   59   61 1  
    63   60   62 1  
    64   63   64 1  
    65   64   65 1  
    66   64   67 1  
    67   65   66 1  
    68   66   69 1  
    69   67   68 2  
    70   67   73 am 
    71   69   70 ar 
    72   69   71 ar 
    73   69   72 ar 
    74   73   74 1  
    75   74   75 1  
    76   74   77 1  
    77   75   76 2  
    78   75   81 am 
    79   77   78 1  
    80   78   79 2  
    81   78   80 am 
    82   81   82 1  
    83   82   83 1  
    84   82   85 1  
    85   83   84 ar 
    86   83   87 ar 
    87   85   86 1  
    88    1   88 1  
    89    1   89 1  
    90    1   90 1  
    91    2   91 1  
    92    5   92 1  
    93    5   93 1  
    94    6   94 1  
    95    6   95 1  
    96   10   96 1  
    97   11   97 1  
    98   14   98 1  
    99   14   99 1  
   100   15  100 1  
   101   15  101 1  
   102   19  102 1  
   103   20  103 1  
   104   23  104 1  
   105   23  105 1  
   106   25  106 1  
   107   26  107 1  
   108   27  108 1  
   109   28  109 1  
   110   29  110 1  
   111   30  111 1  
   112   31  112 1  
   113   34  113 1  
   114   34  114 1  
   115   35  115 1  
   116   35  116 1  
   117   39  117 1  
   118   40  118 1  
   119   43  119 1  
   120   43  120 1  
   121   44  121 1  
   122   45  122 1  
   123   45  123 1  
   124   45  124 1  
   125   46  125 1  
   126   46  126 1  
   127   46  127 1  
   128   47  128 1  
   129   48  129 1  
   130   51  130 1  
   131   51  131 1  
   132   52  132 1  
   133   53  133 1  
   134   53  134 1  
   135   53  135 1  
   136   54  136 1  
   137   54  137 1  
   138   54  138 1  
   139   55  139 1  
   140   56  140 1  
   141   59  141 1  
   142   60  142 1  
   143   60  143 1  
   144   61  144 1  
   145   61  145 1  
   146   61  146 1  
   147   62  147 1  
   148   62  148 1  
   149   62  149 1  
   150   63  150 1  
   151   64  151 1  
   152   65  152 1  
   153   65  153 1  
   154   73  154 1  
   155   74  155 1  
   156   77  156 1  
   157   77  157 1  
   158   80  158 1  
   159   80  159 1  
   160   81  160 1  
   161   82  161 1  
   162   85  162 1  
   163   85  163 1  
   164   86  164 1  
@<TRIPOS>SUBSTRUCTURE
     1 GLU         1

