3my1_ligand
  -I-interpret- 

 32 34  0  0  0  0  0  0  0  0999 V2000
   53.1390  -15.9500  -13.3010 C   0  0  0  0  0
   54.5040  -15.6950  -13.3430 C   0  0  0  0  0
   54.9450  -14.3820  -13.4510 C   0  0  0  0  0
   56.7040  -14.0230  -13.5060 Cl  0  0  0  0  0
   54.0240  -13.3480  -13.5140 C   0  0  0  0  0
   54.6140  -11.6690  -13.6530 Cl  0  0  0  0  0
   52.6630  -13.5950  -13.4720 C   0  0  0  0  0
   52.2270  -14.9030  -13.3670 C   0  0  0  0  0
   50.9970  -15.4390  -13.3040 N   0  0  0  0  0
   51.1420  -16.7780  -13.2010 C   0  0  0  0  0
   52.4450  -17.0840  -13.2010 N   0  0  0  0  0
   52.9990  -18.4530  -13.1050 C   0  0  0  0  0
   52.0200  -19.3610  -13.6150 O   0  0  0  0  0
   51.4640  -20.1770  -12.5790 C   0  0  0  0  0
   49.9600  -19.9480  -12.5130 C   0  0  0  0  0
   49.4070  -19.9950  -13.8360 O   0  0  0  0  0
   52.1580  -19.7990  -11.2750 C   0  0  0  0  0
   52.6910  -20.9650  -10.6390 O   0  0  0  0  0
   53.2380  -18.7860  -11.6430 C   0  0  0  0  0
   54.5720  -19.2980  -11.4800 O   0  0  0  0  0
   55.2202  -16.5151  -13.2918 H   0  0  0  0  0
   51.9480  -12.7737  -13.5208 H   0  0  0  0  0
   50.3257  -17.4968  -13.1291 H   0  0  0  0  0
   53.9315  -18.5258  -13.6646 H   0  0  0  0  0
   51.6219  -21.2384  -12.7704 H   0  0  0  0  0
   49.7616  -18.9710  -12.0722 H   0  0  0  0  0
   49.5020  -20.7253  -11.9014 H   0  0  0  0  0
   48.4590  -19.8503  -13.7907 H   0  0  0  0  0
   51.4679  -19.3588  -10.5552 H   0  0  0  0  0
   53.1243  -20.7119   -9.8206 H   0  0  0  0  0
   53.1706  -17.9198  -10.9848 H   0  0  0  0  0
   54.7221  -19.5082  -10.5554 H   0  0  0  0  0
  1  2  4  0  0  0
  1  8  4  0  0  0
  1 11  4  0  0  0
  2  3  4  0  0  0
  3  4  1  0  0  0
  3  5  4  0  0  0
  5  6  1  0  0  0
  5  7  4  0  0  0
  7  8  4  0  0  0
  8  9  4  0  0  0
  9 10  4  0  0  0
 10 11  4  0  0  0
 11 12  1  0  0  0
 12 13  1  0  0  0
 12 19  1  0  0  0
 13 14  1  0  0  0
 14 15  1  0  0  0
 14 17  1  0  0  0
 15 16  1  0  0  0
 17 18  1  0  0  0
 17 19  1  0  0  0
 19 20  1  0  0  0
  2 21  1  0  0  0
  7 22  1  0  0  0
 10 23  1  0  0  0
 12 24  1  0  0  0
 14 25  1  0  0  0
 15 26  1  0  0  0
 15 27  1  0  0  0
 16 28  1  0  0  0
 17 29  1  0  0  0
 18 30  1  0  0  0
 19 31  1  0  0  0
 20 32  1  0  0  0
M  END
$$$$
