6ey9_ligand
  -I-interpret- 

 51 54  0  0  0  0  0  0  0  0999 V2000
   66.4830   34.2320   23.8740 C   0  0  0  0  0
   65.3300   33.8090   24.5770 C   0  0  0  0  0
   65.4320   33.0840   25.7540 C   0  0  0  0  0
   64.1100   34.0650   24.0580 O   0  0  0  0  0
   67.8600   33.2500   25.6050 C   0  0  0  0  0
   66.6910   32.8220   26.2960 C   0  0  0  0  0
   68.9900   32.8490   26.4370 C   0  0  0  0  0
   70.4430   33.2060   26.1920 C   0  0  0  0  0
   71.1410   32.5500   25.0300 C   0  0  0  0  0
   71.6560   33.3510   24.0050 C   0  0  0  0  0
   72.4000   32.7890   22.9590 C   0  0  0  0  0
   71.4190   31.1800   25.0420 C   0  0  0  0  0
   66.6080   36.8780   21.0850 C   0  0  0  0  0
   67.0000   37.1620   23.5260 C   0  0  0  0  0
   68.5760   37.2440   25.4240 C   0  0  0  0  0
   69.8530   37.2520   25.9670 C   0  0  0  0  0
   72.4870   29.1710   23.9860 C   0  0  0  0  0
   67.7580   33.8860   24.3590 C   0  0  0  0  0
   66.3690   34.9330   22.5670 C   0  0  0  0  0
   66.7020   36.2510   22.4070 N   0  0  0  0  0
   66.0400   34.2540   21.6020 O   0  0  0  0  0
   67.1080   32.2380   27.4640 N   0  0  0  0  0
   68.5010   32.3450   27.5360 N   0  0  0  0  0
   72.6570   31.4240   22.9560 C   0  0  0  0  0
   72.1680   30.6310   23.9960 C   0  0  0  0  0
   68.4120   37.1710   24.0380 C   0  0  0  0  0
   70.9590   37.1920   25.1170 C   0  0  0  0  0
   70.7860   37.1170   23.7310 C   0  0  0  0  0
   69.5100   37.1060   23.1790 C   0  0  0  0  0
   72.5580   37.2200   25.8040 Cl  0  0  0  0  0
   64.5339   32.7206   26.2534 H   0  0  0  0  0
   63.4344   33.7191   24.6458 H   0  0  0  0  0
   70.9787   32.8706   27.0801 H   0  0  0  0  0
   70.4467   34.2729   25.9689 H   0  0  0  0  0
   71.4762   34.4260   24.0203 H   0  0  0  0  0
   72.7748   33.4192   22.1525 H   0  0  0  0  0
   71.0576   30.5492   25.8541 H   0  0  0  0  0
   65.8126   37.6233   21.0935 H   0  0  0  0  0
   67.5560   37.3591   20.8443 H   0  0  0  0  0
   66.3858   36.1161   20.3379 H   0  0  0  0  0
   66.3830   36.8237   24.3585 H   0  0  0  0  0
   66.8127   38.1677   23.1498 H   0  0  0  0  0
   67.7040   37.2945   26.0761 H   0  0  0  0  0
   69.9913   37.3046   27.0469 H   0  0  0  0  0
   73.0594   28.9194   24.8788 H   0  0  0  0  0
   71.5599   28.5979   23.9738 H   0  0  0  0  0
   73.0735   28.9346   23.0982 H   0  0  0  0  0
   68.6516   34.1086   23.7759 H   0  0  0  0  0
   73.2356   30.9756   22.1484 H   0  0  0  0  0
   71.6580   37.0668   23.0789 H   0  0  0  0  0
   69.3703   37.0479   22.0995 H   0  0  0  0  0
  1  2  4  0  0  0
  1 18  4  0  0  0
 19  1  1  0  0  0
  2  3  4  0  0  0
  2  4  1  0  0  0
  3  6  4  0  0  0
  5  6  4  0  0  0
  5  7  4  0  0  0
 18  5  4  0  0  0
  6 22  4  0  0  0
  7  8  1  0  0  0
  7 23  4  0  0  0
  8  9  1  0  0  0
  9 10  4  0  0  0
  9 12  4  0  0  0
 10 11  4  0  0  0
 11 24  4  0  0  0
 12 25  4  0  0  0
 20 13  1  0  0  0
 20 14  1  0  0  0
 14 26  1  0  0  0
 15 16  4  0  0  0
 26 15  4  0  0  0
 16 27  4  0  0  0
 25 17  1  0  0  0
 19 20  1  0  0  0
 19 21  2  0  0  0
 22 23  4  0  0  0
 24 25  4  0  0  0
 26 29  4  0  0  0
 27 28  4  0  0  0
 27 30  1  0  0  0
 28 29  4  0  0  0
  3 31  1  0  0  0
  4 32  1  0  0  0
  8 33  1  0  0  0
  8 34  1  0  0  0
 10 35  1  0  0  0
 11 36  1  0  0  0
 12 37  1  0  0  0
 13 38  1  0  0  0
 13 39  1  0  0  0
 13 40  1  0  0  0
 14 41  1  0  0  0
 14 42  1  0  0  0
 15 43  1  0  0  0
 16 44  1  0  0  0
 17 45  1  0  0  0
 17 46  1  0  0  0
 17 47  1  0  0  0
 18 48  1  0  0  0
 24 49  1  0  0  0
 28 50  1  0  0  0
 29 51  1  0  0  0
M  END
$$$$
