4yho_ligand
  -I-interpret- 

 60 63  0  0  0  0  0  0  0  0999 V2000
    4.4630  -20.7060   11.8120 N   0  0  0  0  0
    3.5490  -22.8660   12.7840 C   0  0  0  0  0
    1.0640  -21.6250   12.2810 C   0  0  0  0  0
    3.7680  -19.5800   11.3260 C   0  0  0  0  0
    5.9080  -20.9490   11.8930 C   0  0  0  0  0
    1.1250  -22.9010   12.8470 C   0  0  0  0  0
   -0.6340  -22.2460   15.1610 C   0  0  0  0  0
    2.6680  -16.2840    8.1580 C   0  0  0  0  0
   -1.2640  -20.9900   15.1720 C   0  0  0  0  0
    5.0160  -16.8650    6.8040 C   0  0  0  0  0
   -0.9080  -20.1020   16.1750 C   0  0  0  0  0
   -3.7840  -25.5120   15.3670 C   0  0  0  0  0
    3.4780  -21.5960   12.2240 C   0  0  0  0  0
    2.2600  -20.9690   11.9700 C   0  0  0  0  0
    2.4620  -19.7070   11.4070 N   0  0  0  0  0
    2.3600  -23.5050   13.0880 C   0  0  0  0  0
    4.4420  -18.3240   10.7610 C   0  0  0  0  0
   -0.1140  -23.6610   13.1980 C   0  0  0  0  0
    3.4600  -17.5060   10.0680 N   0  0  0  0  0
   -0.9610  -23.1910   14.1640 N   0  0  0  0  0
   -0.3520  -24.6920   12.5920 O   0  0  0  0  0
    3.6510  -17.0480    8.7780 C   0  0  0  0  0
   -2.3230  -23.7480   14.2490 C   0  0  0  0  0
    4.8390  -17.3120    8.1010 C   0  0  0  0  0
    0.2830  -22.6150   16.0670 N   0  0  0  0  0
   -2.4020  -24.8980   15.2410 C   0  0  0  0  0
    2.8470  -15.8450    6.8590 C   0  0  0  0  0
    0.5990  -21.7230   17.0230 C   0  0  0  0  0
    4.0380  -16.0950    6.1830 C   0  0  0  0  0
    0.0340  -20.4640   17.1160 C   0  0  0  0  0
   -4.7150  -24.7830   15.7840 O   0  0  0  0  0
   -3.9170  -26.7180   15.0540 O   0  0  0  0  0
    4.2370  -15.6010    4.8060 C   0  0  0  0  0
    4.2080  -14.3110    4.5660 N   0  0  0  0  0
    4.4380  -16.4520    3.8300 N   0  0  0  0  0
    4.5098  -23.3430   12.9774 H   0  0  0  0  0
    0.1028  -21.1496   12.0854 H   0  0  0  0  0
    6.3388  -20.9073   10.8926 H   0  0  0  0  0
    6.3688  -20.1861   12.5205 H   0  0  0  0  0
    6.0859  -21.9334   12.3258 H   0  0  0  0  0
    1.7550  -16.0309    8.6969 H   0  0  0  0  0
   -2.0058  -20.7237   14.4191 H   0  0  0  0  0
    5.9287  -17.1180    6.2645 H   0  0  0  0  0
   -1.3725  -19.1170   16.2204 H   0  0  0  0  0
    2.3884  -24.5029   13.5257 H   0  0  0  0  0
    5.2234  -18.6190   10.0606 H   0  0  0  0  0
    4.8760  -17.7494   11.5793 H   0  0  0  0  0
    2.5967  -17.2606   10.5526 H   0  0  0  0  0
   -2.6011  -24.1249   13.2647 H   0  0  0  0  0
   -2.9955  -22.9588   14.5851 H   0  0  0  0  0
    5.6323  -17.8730    8.5950 H   0  0  0  0  0
   -1.7326  -25.6801   14.8828 H   0  0  0  0  0
   -2.1354  -24.4991   16.2197 H   0  0  0  0  0
    2.0476  -15.2978    6.3594 H   0  0  0  0  0
    1.3428  -22.0087   17.7668 H   0  0  0  0  0
    0.3248  -19.7768   17.9106 H   0  0  0  0  0
   -4.3764  -23.9018   15.9583 H   0  0  0  0  0
    4.3423  -13.9659    3.6156 H   0  0  0  0  0
    4.0511  -13.6535    5.3299 H   0  0  0  0  0
    4.4567  -17.4535    4.0224 H   0  0  0  0  0
  1  4  4  0  0  0
  1  5  1  0  0  0
 13  1  4  0  0  0
  2 13  4  0  0  0
 16  2  4  0  0  0
  6  3  4  0  0  0
  3 14  4  0  0  0
 15  4  4  0  0  0
  4 17  1  0  0  0
  6 16  4  0  0  0
 18  6  1  0  0  0
  7  9  4  0  0  0
 20  7  1  0  0  0
  7 25  4  0  0  0
 22  8  4  0  0  0
  8 27  4  0  0  0
  9 11  4  0  0  0
 24 10  4  0  0  0
 10 29  4  0  0  0
 11 30  4  0  0  0
 26 12  1  0  0  0
 12 31  1  0  0  0
 12 32  2  0  0  0
 14 13  4  0  0  0
 14 15  4  0  0  0
 17 19  1  0  0  0
 20 18  1  0  0  0
 18 21  2  0  0  0
 19 22  1  0  0  0
 23 20  1  0  0  0
 22 24  4  0  0  0
 23 26  1  0  0  0
 25 28  4  0  0  0
 27 29  4  0  0  0
 28 30  4  0  0  0
 29 33  1  0  0  0
 33 34  1  0  0  0
 33 35  2  0  0  0
  2 36  1  0  0  0
  3 37  1  0  0  0
  5 38  1  0  0  0
  5 39  1  0  0  0
  5 40  1  0  0  0
  8 41  1  0  0  0
  9 42  1  0  0  0
 10 43  1  0  0  0
 11 44  1  0  0  0
 16 45  1  0  0  0
 17 46  1  0  0  0
 17 47  1  0  0  0
 19 48  1  0  0  0
 23 49  1  0  0  0
 23 50  1  0  0  0
 24 51  1  0  0  0
 26 52  1  0  0  0
 26 53  1  0  0  0
 27 54  1  0  0  0
 28 55  1  0  0  0
 30 56  1  0  0  0
 31 57  1  0  0  0
 34 58  1  0  0  0
 34 59  1  0  0  0
 35 60  1  0  0  0
M  END
$$$$
