3qch_ligand
  -I-interpret- 

 33 34  0  0  0  0  0  0  0  0999 V2000
   20.0320   30.3370   62.5530 C   0  0  0  0  0
   19.0920   29.7120   63.2730 C   0  0  0  0  0
   19.4850   30.0290   64.6420 C   0  0  0  0  0
   21.0150   30.9450   64.6100 S   0  0  0  0  0
   21.1100   31.0380   62.8920 C   0  0  0  0  0
   19.7010   30.2280   60.7600 S   0  0  0  0  0
   18.1670   29.3100   60.8110 C   0  0  0  0  0
   17.7130   28.8820   59.4560 C   0  0  0  0  0
   17.9540   27.5090   59.0970 C   0  0  0  0  0
   16.5780   29.4700   57.3220 C   0  0  0  0  0
   17.0470   29.8470   58.6150 C   0  0  0  0  0
   17.4690   27.1320   57.8090 C   0  0  0  0  0
   16.7910   28.1000   56.9680 C   0  0  0  0  0
   16.1760   27.5490   55.4670 Cl  0  0  0  0  0
   17.7090   25.5130   57.2200 Cl  0  0  0  0  0
   22.1450   31.7440   62.1110 C   0  0  0  0  0
   23.0550   32.4750   62.7770 N   0  0  0  0  0
   22.1410   31.6480   60.8930 O   0  0  0  0  0
   24.3760   33.1540   62.0040 S   0  0  0  0  0
   25.6370   31.8930   61.7600 C   0  0  0  0  0
   23.9620   33.6310   60.6940 O   0  0  0  0  0
   24.9370   34.1120   62.9360 O   0  0  0  0  0
   18.2475   29.1173   62.9248 H   0  0  0  0  0
   18.9326   29.7508   65.5395 H   0  0  0  0  0
   17.4001   29.9592   61.2334 H   0  0  0  0  0
   18.3307   28.4140   61.4097 H   0  0  0  0  0
   18.4675   26.8110   59.7582 H   0  0  0  0  0
   16.0910   30.1766   56.6499 H   0  0  0  0  0
   16.9019   30.8676   58.9691 H   0  0  0  0  0
   22.9379   32.6200   63.7798 H   0  0  0  0  0
   25.2211   31.0738   61.1735 H   0  0  0  0  0
   26.4851   32.3268   61.2303 H   0  0  0  0  0
   25.9657   31.5175   62.7290 H   0  0  0  0  0
  1  2  4  0  0  0
  1  5  4  0  0  0
  1  6  1  0  0  0
  2  3  4  0  0  0
  3  4  4  0  0  0
  4  5  4  0  0  0
  5 16  1  0  0  0
  6  7  1  0  0  0
  7  8  1  0  0  0
  8  9  4  0  0  0
  8 11  4  0  0  0
  9 12  4  0  0  0
 11 10  4  0  0  0
 10 13  4  0  0  0
 12 13  4  0  0  0
 12 15  1  0  0  0
 13 14  1  0  0  0
 16 17  1  0  0  0
 16 18  2  0  0  0
 17 19  1  0  0  0
 19 20  1  0  0  0
 19 21  2  0  0  0
 19 22  2  0  0  0
  2 23  1  0  0  0
  3 24  1  0  0  0
  7 25  1  0  0  0
  7 26  1  0  0  0
  9 27  1  0  0  0
 10 28  1  0  0  0
 11 29  1  0  0  0
 17 30  1  0  0  0
 20 31  1  0  0  0
 20 32  1  0  0  0
 20 33  1  0  0  0
M  END
$$$$
