1k3q_ligand
  -I-interpret- 

201201  0  0  0  0  0  0  0  0999 V2000
   -1.5670  -21.1210  -13.0870 N   0  3  0  0  0
   -2.9850  -21.2020  -13.5280 C   0  0  0  0  0
   -3.0840  -21.6070  -14.9950 C   0  0  0  0  0
   -2.3150  -21.1370  -15.8320 O   0  0  0  0  0
   -3.6410  -19.8380  -13.3100 C   0  0  0  0  0
   -4.9200  -19.7830  -13.9200 O   0  0  0  0  0
   -4.0380  -22.4810  -15.3000 N   0  0  0  0  0
   -4.2380  -22.9480  -16.6670 C   0  0  0  0  0
   -5.7090  -23.2570  -16.9250 C   0  0  0  0  0
   -6.2760  -24.1750  -16.3310 O   0  0  0  0  0
   -3.3840  -24.1910  -16.9320 C   0  0  0  0  0
   -2.4530  -24.0900  -18.1410 C   0  0  0  0  0
   -1.2010  -24.9240  -17.9230 C   0  0  0  0  0
   -3.1740  -24.5270  -19.4070 C   0  0  0  0  0
   -6.3220  -22.4850  -17.8170 N   0  0  0  0  0
   -7.7280  -22.6750  -18.1550 C   0  0  0  0  0
   -8.1200  -21.8080  -19.3470 C   0  0  0  0  0
   -8.5370  -22.3170  -20.3880 O   0  0  0  0  0
   -8.6140  -22.3430  -16.9530 C   0  0  0  0  0
   -9.8270  -23.2490  -16.8230 C   0  0  0  0  0
   -9.4900  -24.5850  -16.1900 C   0  0  0  0  0
   -9.1500  -24.6040  -14.9880 O   0  0  0  0  0
   -9.5670  -25.6120  -16.8960 O   0  0  0  0  0
   -7.9830  -20.4960  -19.1880 N   0  0  0  0  0
   -8.3210  -19.5580  -20.2510 C   0  0  0  0  0
   -7.0640  -18.9820  -20.8930 C   0  0  0  0  0
   -5.9900  -18.9890  -20.2920 O   0  0  0  0  0
   -9.1930  -18.4010  -19.7250 C   0  0  0  0  0
   -9.6550  -17.5120  -20.8700 C   0  0  0  0  0
  -10.3840  -18.9390  -18.9450 C   0  0  0  0  0
   -7.2050  -18.4850  -22.1170 N   0  0  0  0  0
   -6.0820  -17.9050  -22.8420 C   0  0  0  0  0
   -5.4580  -16.7300  -22.0610 C   0  0  0  0  0
   -4.2650  -16.1460  -22.8070 C   0  0  0  0  0
   -6.4170  -15.7280  -21.8590 O   0  0  0  0  0
   -6.5810  -15.1500  -20.4200 P   0  0  0  0  0
   -6.8780  -16.3860  -19.5310 O   0  0  0  0  0
   -5.1800  -14.5920  -20.0590 O   0  0  0  0  0
   -7.6570  -14.1080  -20.3340 O   0  0  0  0  0
   -5.0080  -18.9550  -23.1110 C   0  0  0  0  0
   -4.4770  -19.5680  -22.1850 O   0  0  0  0  0
   -4.6910  -19.1570  -24.3870 N   0  0  0  0  0
   -3.6810  -20.1320  -24.7780 C   0  0  0  0  0
   -2.3160  -19.7590  -24.2090 C   0  0  0  0  0
   -1.9460  -18.5850  -24.1760 O   0  0  0  0  0
   -3.6000  -20.2330  -26.3020 C   0  0  0  0  0
   -4.5940  -21.2130  -26.9010 C   0  0  0  0  0
   -4.3440  -21.4700  -28.3750 C   0  0  0  0  0
   -4.4890  -20.5220  -29.1740 O   0  0  0  0  0
   -4.0020  -22.6180  -28.7270 O   0  0  0  0  0
   -1.5710  -20.7640  -23.7610 N   0  0  0  0  0
   -0.2470  -20.5410  -23.1940 C   0  0  0  0  0
    0.7510  -21.5750  -23.7030 C   0  0  0  0  0
    0.3690  -22.5770  -24.3070 O   0  0  0  0  0
   -0.3130  -20.5740  -21.6750 C   0  0  0  0  0
    2.0330  -21.3240  -23.4560 N   0  0  0  0  0
    3.0880  -22.2330  -23.8890 C   0  0  0  0  0
    4.0680  -22.5090  -22.7540 C   0  0  0  0  0
    4.0570  -21.8240  -21.7310 O   0  0  0  0  0
    3.8310  -21.6500  -25.0920 C   0  0  0  0  0
    2.8910  -21.2380  -26.2080 C   0  0  0  0  0
    2.4720  -22.1200  -26.9870 O   0  0  0  0  0
    2.5750  -20.0340  -26.3040 O   0  0  0  0  0
    4.9150  -23.5160  -22.9420 N   0  0  0  0  0
    5.9030  -23.8810  -21.9340 C   0  0  0  0  0
    6.8330  -24.9750  -22.4470 C   0  0  0  0  0
    6.3810  -26.0270  -22.8990 O   0  0  0  0  0
    5.2110  -24.3310  -20.6570 C   0  0  0  0  0
    8.1350  -24.7200  -22.3750 N   0  0  0  0  0
    9.1300  -25.6840  -22.8330 C   0  0  0  0  0
    9.4340  -26.7090  -21.7460 C   0  0  0  0  0
    9.4260  -26.3900  -20.5560 O   0  0  0  0  0
   10.4150  -24.9630  -23.2450 C   0  0  0  0  0
   10.9330  -24.2030  -22.1680 O   0  0  0  0  0
   10.2260  -24.0270  -24.4180 C   0  0  0  0  0
    9.7010  -27.9420  -22.1610 N   0  0  0  0  0
   10.0060  -29.0150  -21.2230 C   0  0  0  0  0
   11.4960  -29.3480  -21.2410 C   0  0  0  0  0
   11.8820  -30.5130  -21.3420 O   0  0  0  0  0
    9.1870  -30.2620  -21.5590 C   0  0  0  0  0
    8.9000  -31.1330  -20.3690 C   0  0  0  0  0
    7.8400  -30.8470  -19.5240 C   0  0  0  0  0
    9.6920  -32.2380  -20.0960 C   0  0  0  0  0
    7.5750  -31.6460  -18.4280 C   0  0  0  0  0
    9.4300  -33.0400  -19.0020 C   0  0  0  0  0
    8.3710  -32.7440  -18.1670 C   0  0  0  0  0
   12.3290  -28.3170  -21.1430 N   0  0  0  0  0
   13.7750  -28.5000  -21.1480 C   0  0  0  0  0
   14.4510  -27.5610  -20.1550 C   0  0  0  0  0
   14.6970  -26.3930  -20.4570 O   0  0  0  0  0
   14.3670  -28.2580  -22.5480 C   0  0  0  0  0
   14.0070  -29.4000  -23.4850 C   0  0  0  0  0
   13.8870  -26.9280  -23.1090 C   0  0  0  0  0
   14.7500  -28.0800  -18.9680 N   0  0  0  0  0
   15.3990  -27.2890  -17.9290 C   0  0  0  0  0
   16.2390  -28.1750  -17.0150 C   0  0  0  0  0
   17.3590  -27.7570  -16.6520 O   0  0  0  0  0
   14.3550  -26.5330  -17.1060 C   0  0  0  0  0
   13.2180  -27.4120  -16.6110 C   0  0  0  0  0
   12.1110  -26.6150  -15.9490 C   0  0  0  0  0
   11.6410  -25.6140  -16.4890 O   0  0  0  0  0
   11.6890  -27.0550  -14.7690 N   0  0  0  0  0
   15.7700  -29.2800  -16.6700 O   0  0  0  0  0
   -1.1165  -22.0253  -13.2270 H   0  0  0  0  0
   -1.0821  -20.4099  -13.6343 H   0  0  0  0  0
   -1.5333  -20.8724  -12.0983 H   0  0  0  0  0
   -3.4994  -21.9642  -12.9428 H   0  0  0  0  0
   -3.0082  -19.0713  -13.7570 H   0  0  0  0  0
   -3.7583  -19.6747  -12.2387 H   0  0  0  0  0
   -5.3087  -18.9184  -13.7684 H   0  0  0  0  0
   -4.6449  -22.8336  -14.5599 H   0  0  0  0  0
   -3.9297  -22.1543  -17.3475 H   0  0  0  0  0
   -4.0745  -25.0098  -17.1342 H   0  0  0  0  0
   -2.7492  -24.3290  -16.0567 H   0  0  0  0  0
   -2.1538  -23.0485  -18.2584 H   0  0  0  0  0
   -0.6744  -24.5625  -17.0398 H   0  0  0  0  0
   -1.4816  -25.9673  -17.7787 H   0  0  0  0  0
   -0.5524  -24.8381  -18.7948 H   0  0  0  0  0
   -3.5028  -25.5605  -19.2980 H   0  0  0  0  0
   -4.0391  -23.8846  -19.5710 H   0  0  0  0  0
   -2.4950  -24.4480  -20.2560 H   0  0  0  0  0
   -5.7961  -21.7415  -18.2763 H   0  0  0  0  0
   -7.8740  -23.7210  -18.4245 H   0  0  0  0  0
   -8.9793  -21.3249  -17.0874 H   0  0  0  0  0
   -8.0099  -22.4747  -16.0553 H   0  0  0  0  0
  -10.2128  -23.4396  -17.8245 H   0  0  0  0  0
  -10.5535  -22.7479  -16.1833 H   0  0  0  0  0
   -9.1580  -23.7093  -14.6402 H   0  0  0  0  0
   -7.6326  -20.1364  -18.3001 H   0  0  0  0  0
   -8.8855  -20.1158  -20.9982 H   0  0  0  0  0
   -8.5879  -17.7967  -19.0492 H   0  0  0  0  0
   -8.7855  -17.0955  -21.3786 H   0  0  0  0  0
  -10.2406  -18.1033  -21.5739 H   0  0  0  0  0
  -10.2687  -16.7025  -20.4749 H   0  0  0  0  0
  -10.9888  -19.5695  -19.5968 H   0  0  0  0  0
  -10.0272  -19.5259  -18.0986 H   0  0  0  0  0
  -10.9860  -18.1056  -18.5829 H   0  0  0  0  0
   -8.1231  -18.5101  -22.5607 H   0  0  0  0  0
   -6.4690  -17.5330  -23.7906 H   0  0  0  0  0
   -5.1130  -17.1100  -21.0994 H   0  0  0  0  0
   -3.5073  -16.9184  -22.9393 H   0  0  0  0  0
   -4.5900  -15.7832  -23.7821 H   0  0  0  0  0
   -3.8471  -15.3201  -22.2314 H   0  0  0  0  0
   -6.1640  -17.0216  -19.6198 H   0  0  0  0  0
   -4.5293  -15.2944  -20.1289 H   0  0  0  0  0
   -5.1665  -18.6162  -25.1094 H   0  0  0  0  0
   -3.9723  -21.1008  -24.3722 H   0  0  0  0  0
   -2.6003  -20.5874  -26.5531 H   0  0  0  0  0
   -3.8287  -19.2473  -26.7072 H   0  0  0  0  0
   -5.5908  -20.7837  -26.7998 H   0  0  0  0  0
   -4.4902  -22.1609  -26.3730 H   0  0  0  0  0
   -3.9519  -23.1866  -27.9551 H   0  0  0  0  0
   -1.9349  -21.7153  -23.8153 H   0  0  0  0  0
    0.0960  -19.5566  -23.5124 H   0  0  0  0  0
   -0.9877  -19.7928  -21.3249 H   0  0  0  0  0
   -0.6816  -21.5468  -21.3497 H   0  0  0  0  0
    0.6831  -20.4060  -21.2656 H   0  0  0  0  0
    2.2850  -20.4744  -22.9510 H   0  0  0  0  0
    2.6244  -23.1754  -24.1805 H   0  0  0  0  0
    4.4991  -22.4186  -25.4805 H   0  0  0  0  0
    4.3682  -20.7621  -24.7586 H   0  0  0  0  0
    2.8381  -22.9702  -26.7326 H   0  0  0  0  0
    4.8727  -24.0461  -23.8124 H   0  0  0  0  0
    6.5068  -22.9999  -21.7169 H   0  0  0  0  0
    4.5939  -23.5183  -20.2739 H   0  0  0  0  0
    4.5831  -25.1960  -20.8709 H   0  0  0  0  0
    5.9617  -24.6002  -19.9140 H   0  0  0  0  0
    8.4467  -23.8283  -21.9901 H   0  0  0  0  0
    8.7223  -26.2084  -23.6972 H   0  0  0  0  0
   11.1065  -25.7528  -23.5384 H   0  0  0  0  0
   11.7373  -23.7601  -22.4481 H   0  0  0  0  0
    9.8758  -24.5938  -25.2807 H   0  0  0  0  0
    9.4903  -23.2657  -24.1588 H   0  0  0  0  0
   11.1762  -23.5494  -24.6569 H   0  0  0  0  0
    9.6924  -28.1430  -23.1610 H   0  0  0  0  0
    9.7417  -28.6748  -20.2217 H   0  0  0  0  0
    9.7693  -30.8547  -22.2645 H   0  0  0  0  0
    8.2292  -29.9262  -21.9564 H   0  0  0  0  0
    7.2080  -29.9822  -19.7259 H   0  0  0  0  0
   10.5298  -32.4763  -20.7512 H   0  0  0  0  0
    6.7386  -31.4098  -17.7702 H   0  0  0  0  0
   10.0593  -33.9063  -18.7981 H   0  0  0  0  0
    8.1636  -33.3758  -17.3033 H   0  0  0  0  0
   11.9470  -27.3747  -21.0623 H   0  0  0  0  0
   13.9636  -29.5328  -20.8551 H   0  0  0  0  0
   15.4528  -28.2186  -22.4605 H   0  0  0  0  0
   14.4063  -30.3334  -23.0883 H   0  0  0  0  0
   12.9225  -29.4729  -23.5669 H   0  0  0  0  0
   14.4350  -29.2095  -24.4692 H   0  0  0  0  0
   12.7994  -26.9369  -23.1813 H   0  0  0  0  0
   14.2019  -26.1211  -22.4472 H   0  0  0  0  0
   14.3170  -26.7763  -24.0991 H   0  0  0  0  0
   14.5197  -29.0556  -18.7795 H   0  0  0  0  0
   16.0586  -26.5699  -18.4148 H   0  0  0  0  0
   17.5149  -26.8901  -17.0337 H   0  0  0  0  0
   13.9208  -25.7691  -17.7510 H   0  0  0  0  0
   14.8605  -26.1278  -16.2294 H   0  0  0  0  0
   13.6244  -28.1009  -15.8705 H   0  0  0  0  0
   12.7921  -27.9264  -17.4724 H   0  0  0  0  0
   10.9477  -26.5584  -14.2749 H   0  0  0  0  0
   12.1063  -27.8895  -14.3569 H   0  0  0  0  0
  1  2  1  0  0  0
  2  3  1  0  0  0
  2  5  1  0  0  0
  3  4  2  0  0  0
  3  7  1  0  0  0
  5  6  1  0  0  0
  7  8  1  0  0  0
  8  9  1  0  0  0
  8 11  1  0  0  0
  9 10  2  0  0  0
  9 15  1  0  0  0
 11 12  1  0  0  0
 12 13  1  0  0  0
 12 14  1  0  0  0
 15 16  1  0  0  0
 16 17  1  0  0  0
 16 19  1  0  0  0
 17 18  2  0  0  0
 17 24  1  0  0  0
 19 20  1  0  0  0
 20 21  1  0  0  0
 21 22  1  0  0  0
 21 23  2  0  0  0
 24 25  1  0  0  0
 25 26  1  0  0  0
 25 28  1  0  0  0
 26 27  2  0  0  0
 26 31  1  0  0  0
 28 29  1  0  0  0
 28 30  1  0  0  0
 31 32  1  0  0  0
 32 33  1  0  0  0
 32 40  1  0  0  0
 33 34  1  0  0  0
 33 35  1  0  0  0
 35 36  1  0  0  0
 36 37  1  0  0  0
 36 38  1  0  0  0
 36 39  2  0  0  0
 40 41  2  0  0  0
 40 42  1  0  0  0
 42 43  1  0  0  0
 43 44  1  0  0  0
 43 46  1  0  0  0
 44 45  2  0  0  0
 44 51  1  0  0  0
 46 47  1  0  0  0
 47 48  1  0  0  0
 48 49  2  0  0  0
 48 50  1  0  0  0
 51 52  1  0  0  0
 52 53  1  0  0  0
 52 55  1  0  0  0
 53 54  2  0  0  0
 53 56  1  0  0  0
 56 57  1  0  0  0
 57 58  1  0  0  0
 57 60  1  0  0  0
 58 59  2  0  0  0
 58 64  1  0  0  0
 60 61  1  0  0  0
 61 62  1  0  0  0
 61 63  2  0  0  0
 64 65  1  0  0  0
 65 66  1  0  0  0
 65 68  1  0  0  0
 66 67  2  0  0  0
 66 69  1  0  0  0
 69 70  1  0  0  0
 70 71  1  0  0  0
 70 73  1  0  0  0
 71 72  2  0  0  0
 71 76  1  0  0  0
 73 74  1  0  0  0
 73 75  1  0  0  0
 76 77  1  0  0  0
 77 78  1  0  0  0
 77 80  1  0  0  0
 78 79  2  0  0  0
 78 87  1  0  0  0
 80 81  1  0  0  0
 81 82  4  0  0  0
 81 83  4  0  0  0
 82 84  4  0  0  0
 83 85  4  0  0  0
 84 86  4  0  0  0
 85 86  4  0  0  0
 87 88  1  0  0  0
 88 89  1  0  0  0
 88 91  1  0  0  0
 89 90  2  0  0  0
 89 94  1  0  0  0
 91 92  1  0  0  0
 91 93  1  0  0  0
 94 95  1  0  0  0
 95 96  1  0  0  0
 95 98  1  0  0  0
 96 97  1  0  0  0
 96103  2  0  0  0
 98 99  1  0  0  0
 99100  1  0  0  0
100101  2  0  0  0
100102  1  0  0  0
  1104  1  0  0  0
  1105  1  0  0  0
  1106  1  0  0  0
  2107  1  0  0  0
  5108  1  0  0  0
  5109  1  0  0  0
  6110  1  0  0  0
  7111  1  0  0  0
  8112  1  0  0  0
 11113  1  0  0  0
 11114  1  0  0  0
 12115  1  0  0  0
 13116  1  0  0  0
 13117  1  0  0  0
 13118  1  0  0  0
 14119  1  0  0  0
 14120  1  0  0  0
 14121  1  0  0  0
 15122  1  0  0  0
 16123  1  0  0  0
 19124  1  0  0  0
 19125  1  0  0  0
 20126  1  0  0  0
 20127  1  0  0  0
 22128  1  0  0  0
 24129  1  0  0  0
 25130  1  0  0  0
 28131  1  0  0  0
 29132  1  0  0  0
 29133  1  0  0  0
 29134  1  0  0  0
 30135  1  0  0  0
 30136  1  0  0  0
 30137  1  0  0  0
 31138  1  0  0  0
 32139  1  0  0  0
 33140  1  0  0  0
 34141  1  0  0  0
 34142  1  0  0  0
 34143  1  0  0  0
 37144  1  0  0  0
 38145  1  0  0  0
 42146  1  0  0  0
 43147  1  0  0  0
 46148  1  0  0  0
 46149  1  0  0  0
 47150  1  0  0  0
 47151  1  0  0  0
 50152  1  0  0  0
 51153  1  0  0  0
 52154  1  0  0  0
 55155  1  0  0  0
 55156  1  0  0  0
 55157  1  0  0  0
 56158  1  0  0  0
 57159  1  0  0  0
 60160  1  0  0  0
 60161  1  0  0  0
 62162  1  0  0  0
 64163  1  0  0  0
 65164  1  0  0  0
 68165  1  0  0  0
 68166  1  0  0  0
 68167  1  0  0  0
 69168  1  0  0  0
 70169  1  0  0  0
 73170  1  0  0  0
 74171  1  0  0  0
 75172  1  0  0  0
 75173  1  0  0  0
 75174  1  0  0  0
 76175  1  0  0  0
 77176  1  0  0  0
 80177  1  0  0  0
 80178  1  0  0  0
 82179  1  0  0  0
 83180  1  0  0  0
 84181  1  0  0  0
 85182  1  0  0  0
 86183  1  0  0  0
 87184  1  0  0  0
 88185  1  0  0  0
 91186  1  0  0  0
 92187  1  0  0  0
 92188  1  0  0  0
 92189  1  0  0  0
 93190  1  0  0  0
 93191  1  0  0  0
 93192  1  0  0  0
 94193  1  0  0  0
 95194  1  0  0  0
 97195  1  0  0  0
 98196  1  0  0  0
 98197  1  0  0  0
 99198  1  0  0  0
 99199  1  0  0  0
102200  1  0  0  0
102201  1  0  0  0
M  END
$$$$
