### 
### Created by X-TOOL on Mon Sep 10 21:12:48 2018
### 

@<TRIPOS>MOLECULE
1k3q_ligand
  195   195     1     0     0
SMALL
GAST_HUCK


@<TRIPOS>ATOM
      1 N          -1.5670  -21.1210  -13.0870 N.4       1 SER         0.2396
      2 CA         -2.9850  -21.2020  -13.5280 C.3       1 SER         0.0885
      3 C          -3.0840  -21.6070  -14.9950 C.2       1 SER         0.2290
      4 O          -2.3150  -21.1370  -15.8320 O.2       1 SER        -0.3906
      5 CB         -3.6410  -19.8380  -13.3100 C.3       1 SER         0.1041
      6 OG         -4.9200  -19.7830  -13.9200 O.3       1 SER        -0.3870
      7 N          -4.0380  -22.4810  -15.3000 N.am      1 LEU        -0.2609
      8 CA         -4.2380  -22.9480  -16.6670 C.3       1 LEU         0.1313
      9 C          -5.7090  -23.2570  -16.9250 C.2       1 LEU         0.2039
     10 O          -6.2760  -24.1750  -16.3310 O.2       1 LEU        -0.3944
     11 CB         -3.3840  -24.1910  -16.9320 C.3       1 LEU        -0.0101
     12 CG         -2.4530  -24.0900  -18.1410 C.3       1 LEU        -0.0425
     13 CD1        -1.2010  -24.9240  -17.9230 C.3       1 LEU        -0.0625
     14 CD2        -3.1740  -24.5270  -19.4070 C.3       1 LEU        -0.0625
     15 N          -6.3220  -22.4850  -17.8170 N.am      1 GLU        -0.2636
     16 CA         -7.7280  -22.6750  -18.1550 C.3       1 GLU         0.1325
     17 C          -8.1200  -21.8080  -19.3470 C.2       1 GLU         0.2040
     18 O          -8.5370  -22.3170  -20.3880 O.2       1 GLU        -0.3944
     19 CB         -8.6140  -22.3430  -16.9530 C.3       1 GLU        -0.0008
     20 CG         -9.8270  -23.2490  -16.8230 C.3       1 GLU         0.0044
     21 CD         -9.4900  -24.5850  -16.1900 C.2       1 GLU         0.0350
     22 OE1        -9.1500  -24.6040  -14.9880 O.co2     1 GLU        -0.5690
     23 OE2        -9.5670  -25.6120  -16.8960 O.co2     1 GLU        -0.5690
     24 N          -7.9830  -20.4960  -19.1880 N.am      1 VAL        -0.2635
     25 CA         -8.3210  -19.5580  -20.2510 C.3       1 VAL         0.1333
     26 C          -7.0640  -18.9820  -20.8930 C.2       1 VAL         0.2042
     27 O          -5.9900  -18.9890  -20.2920 O.2       1 VAL        -0.3944
     28 CB         -9.1930  -18.4010  -19.7250 C.3       1 VAL        -0.0063
     29 CG1        -9.6550  -17.5120  -20.8700 C.3       1 VAL        -0.0584
     30 CG2       -10.3840  -18.9390  -18.9450 C.3       1 VAL        -0.0584
     31 N          -7.2050  -18.4850  -22.1170 N.am      1 TPO        -0.2611
     32 CA         -6.0820  -17.9050  -22.8420 C.3       1 TPO         0.1612
     33 CB         -5.4580  -16.7300  -22.0610 C.3       1 TPO         0.1262
     34 CG2        -4.2650  -16.1460  -22.8070 C.3       1 TPO        -0.0298
     35 OG1        -6.4170  -15.7280  -21.8590 O.3       1 TPO        -0.2685
     36 P          -6.5810  -15.1500  -20.4200 P.3       1 TPO         0.2014
     37 O1P        -6.8780  -16.3860  -19.5310 O.co2     1 TPO        -0.5537
     38 O2P        -5.1800  -14.5920  -20.0590 O.co2     1 TPO        -0.5537
     39 O3P        -7.6570  -14.1080  -20.3340 O.co2     1 TPO        -0.5537
     40 C          -5.0080  -18.9550  -23.1110 C.2       1 TPO         0.2068
     41 O          -4.4770  -19.5680  -22.1850 O.2       1 TPO        -0.3943
     42 N          -4.6910  -19.1570  -24.3870 N.am      1 GLU        -0.2635
     43 CA         -3.6810  -20.1320  -24.7780 C.3       1 GLU         0.1325
     44 C          -2.3160  -19.7590  -24.2090 C.2       1 GLU         0.2040
     45 O          -1.9460  -18.5850  -24.1760 O.2       1 GLU        -0.3944
     46 CB         -3.6000  -20.2330  -26.3020 C.3       1 GLU        -0.0008
     47 CG         -4.5940  -21.2130  -26.9010 C.3       1 GLU         0.0044
     48 CD         -4.3440  -21.4700  -28.3750 C.2       1 GLU         0.0350
     49 OE1        -4.4890  -20.5220  -29.1740 O.co2     1 GLU        -0.5690
     50 OE2        -4.0020  -22.6180  -28.7270 O.co2     1 GLU        -0.5690
     51 N          -1.5710  -20.7640  -23.7610 N.am      1 ALA        -0.2640
     52 CA         -0.2470  -20.5410  -23.1940 C.3       1 ALA         0.1282
     53 C           0.7510  -21.5750  -23.7030 C.2       1 ALA         0.2037
     54 O           0.3690  -22.5770  -24.3070 O.2       1 ALA        -0.3944
     55 CB         -0.3130  -20.5740  -21.6750 C.3       1 ALA        -0.0244
     56 N           2.0330  -21.3240  -23.4560 N.am      1 ASP        -0.2622
     57 CA          3.0880  -22.2330  -23.8890 C.3       1 ASP         0.1423
     58 C           4.0680  -22.5090  -22.7540 C.2       1 ASP         0.2056
     59 O           4.0570  -21.8240  -21.7310 O.2       1 ASP        -0.3943
     60 CB          3.8310  -21.6500  -25.0920 C.3       1 ASP         0.0406
     61 CG          2.8910  -21.2380  -26.2080 C.2       1 ASP         0.0393
     62 OD1         2.4720  -22.1200  -26.9870 O.co2     1 ASP        -0.5688
     63 OD2         2.5750  -20.0340  -26.3040 O.co2     1 ASP        -0.5688
     64 N           4.9150  -23.5160  -22.9420 N.am      1 ALA        -0.2639
     65 CA          5.9030  -23.8810  -21.9340 C.3       1 ALA         0.1282
     66 C           6.8330  -24.9750  -22.4470 C.2       1 ALA         0.2037
     67 O           6.3810  -26.0270  -22.8990 O.2       1 ALA        -0.3944
     68 CB          5.2110  -24.3310  -20.6570 C.3       1 ALA        -0.0244
     69 N           8.1350  -24.7200  -22.3750 N.am      1 THR        -0.2613
     70 CA          9.1300  -25.6840  -22.8330 C.3       1 THR         0.1565
     71 C           9.4340  -26.7090  -21.7460 C.2       1 THR         0.2066
     72 O           9.4260  -26.3900  -20.5560 O.2       1 THR        -0.3943
     73 CB         10.4150  -24.9630  -23.2450 C.3       1 THR         0.0924
     74 OG1        10.9330  -24.2030  -22.1680 O.3       1 THR        -0.3874
     75 CG2        10.2260  -24.0270  -24.4180 C.3       1 THR        -0.0346
     76 N           9.7010  -27.9420  -22.1610 N.am      1 PHE        -0.2619
     77 CA         10.0060  -29.0150  -21.2230 C.3       1 PHE         0.1404
     78 C          11.4960  -29.3480  -21.2410 C.2       1 PHE         0.2060
     79 O          11.8820  -30.5130  -21.3420 O.2       1 PHE        -0.3942
     80 CB          9.1870  -30.2620  -21.5590 C.3       1 PHE         0.0214
     81 CG          8.9000  -31.1330  -20.3690 C.ar      1 PHE        -0.0386
     82 CD1         7.8400  -30.8470  -19.5240 C.ar      1 PHE        -0.0601
     83 CD2         9.6920  -32.2380  -20.0960 C.ar      1 PHE        -0.0601
     84 CE1         7.5750  -31.6460  -18.4280 C.ar      1 PHE        -0.0686
     85 CE2         9.4300  -33.0400  -19.0020 C.ar      1 PHE        -0.0686
     86 CZ          8.3710  -32.7440  -18.1670 C.ar      1 PHE        -0.0687
     87 N          12.3290  -28.3170  -21.1430 N.am      1 VAL        -0.2633
     88 CA         13.7750  -28.5000  -21.1480 C.3       1 VAL         0.1332
     89 C          14.4510  -27.5610  -20.1550 C.2       1 VAL         0.2036
     90 O          14.6970  -26.3930  -20.4570 O.2       1 VAL        -0.3944
     91 CB         14.3670  -28.2580  -22.5480 C.3       1 VAL        -0.0063
     92 CG1        14.0070  -29.4000  -23.4850 C.3       1 VAL        -0.0584
     93 CG2        13.8870  -26.9280  -23.1090 C.3       1 VAL        -0.0584
     94 N          14.7500  -28.0800  -18.9680 N.am      1 GLN        -0.2693
     95 CA         15.3990  -27.2890  -17.9290 C.3       1 GLN         0.0964
     96 C          16.2390  -28.1750  -17.0150 C.2       1 GLN         0.0602
     97 O          17.3590  -27.7570  -16.6520 O.co2     1 GLN        -0.5666
     98 CB         14.3550  -26.5330  -17.1060 C.3       1 GLN        -0.0010
     99 CG         13.2180  -27.4120  -16.6110 C.3       1 GLN         0.0407
    100 CD         12.1110  -26.6150  -15.9490 C.2       1 GLN         0.1737
    101 OE1        11.6410  -25.6140  -16.4890 O.2       1 GLN        -0.3973
    102 NE2        11.6890  -27.0550  -14.7690 N.am      1 GLN        -0.3009
    103 OXT        15.7700  -29.2800  -16.6700 O.co2     1 GLN        -0.5666
    104 H1         -1.5319  -20.8521  -12.1162 H         1 SER         0.2016
    105 H2         -1.0807  -20.4354  -13.6433 H         1 SER         0.2016
    106 H3         -1.1273  -22.0206  -13.2025 H         1 SER         0.2016
    107 H4         -3.5066  -21.9551  -12.9192 H         1 SER         0.1122
    108 H5         -3.0008  -19.0575  -13.7470 H         1 SER         0.0640
    109 H6         -3.7503  -19.6604  -12.2299 H         1 SER         0.0640
    110 H7         -5.3046  -18.9274  -13.7700 H         1 SER         0.2099
    111 H8         -4.6330  -22.8267  -14.5744 H         1 LEU         0.1884
    112 H9         -3.9225  -22.1516  -17.3571 H         1 LEU         0.0800
    113 H10        -4.0615  -25.0424  -17.0933 H         1 LEU         0.0315
    114 H11        -2.7668  -24.3773  -16.0408 H         1 LEU         0.0315
    115 H12        -2.1520  -23.0386  -18.2594 H         1 LEU         0.0298
    116 H13        -0.5456  -24.8381  -18.8022 H         1 LEU         0.0232
    117 H14        -1.4828  -25.9772  -17.7772 H         1 LEU         0.0232
    118 H15        -0.6686  -24.5601  -17.0319 H         1 LEU         0.0232
    119 H16        -4.0755  -23.9123  -19.5463 H         1 LEU         0.0232
    120 H17        -3.4618  -25.5850  -19.3185 H         1 LEU         0.0232
    121 H18        -2.5062  -24.3997  -20.2718 H         1 LEU         0.0232
    122 H19        -5.8064  -21.7561  -18.2673 H         1 GLU         0.1883
    123 H20        -7.8822  -23.7303  -18.4242 H         1 GLU         0.0801
    124 H21        -8.9644  -21.3053  -17.0552 H         1 GLU         0.0330
    125 H22        -8.0097  -22.4376  -16.0388 H         1 GLU         0.0330
    126 H23       -10.2420  -23.4287  -17.8257 H         1 GLU         0.0433
    127 H24       -10.5795  -22.7435  -16.1999 H         1 GLU         0.0433
    128 H25        -7.6395  -20.1435  -18.3175 H         1 VAL         0.1883
    129 H26        -8.8895  -20.1022  -21.0196 H         1 VAL         0.0802
    130 H27        -8.5818  -17.7922  -19.0425 H         1 VAL         0.0343
    131 H28       -10.2745  -16.6946  -20.4725 H         1 VAL         0.0234
    132 H29       -10.2462  -18.1076  -21.5812 H         1 VAL         0.0234
    133 H30        -8.7784  -17.0910  -21.3841 H         1 VAL         0.0234
    134 H31       -10.0263  -19.5777  -18.1239 H         1 VAL         0.0234
    135 H32       -11.0253  -19.5293  -19.6159 H         1 VAL         0.0234
    136 H33       -10.9611  -18.0989  -18.5313 H         1 VAL         0.0234
    137 H34        -8.1051  -18.5096  -22.5520 H         1 TPO         0.1884
    138 H35        -6.4532  -17.5268  -23.8059 H         1 TPO         0.0830
    139 H36        -5.1163  -17.1002  -21.0832 H         1 TPO         0.0695
    140 H37        -3.8423  -15.3123  -22.2271 H         1 TPO         0.0260
    141 H38        -4.5917  -15.7794  -23.7913 H         1 TPO         0.0260
    142 H39        -3.4995  -16.9245  -22.9412 H         1 TPO         0.0260
    143 H40        -5.1572  -18.6268  -25.0952 H         1 GLU         0.1883
    144 H41        -3.9711  -21.1138  -24.3757 H         1 GLU         0.0801
    145 H42        -2.5849  -20.5568  -26.5755 H         1 GLU         0.0330
    146 H43        -3.7944  -19.2373  -26.7272 H         1 GLU         0.0330
    147 H44        -5.6079  -20.8034  -26.7819 H         1 GLU         0.0433
    148 H45        -4.5180  -22.1673  -26.3592 H         1 GLU         0.0433
    149 H46        -1.9277  -21.6967  -23.8142 H         1 ALA         0.1883
    150 H47         0.0990  -19.5446  -23.5061 H         1 ALA         0.0797
    151 H48         0.6918  -20.4045  -21.2606 H         1 ALA         0.0277
    152 H49        -0.6848  -21.5553  -21.3453 H         1 ALA         0.0277
    153 H50        -0.9936  -19.7860  -21.3203 H         1 ALA         0.0277
    154 H51         2.2801  -20.4910  -22.9609 H         1 ASP         0.1884
    155 H52         2.6254  -23.1846  -24.1897 H         1 ASP         0.0819
    156 H53         4.5273  -22.4087  -25.4787 H         1 ASP         0.0478
    157 H54         4.3974  -20.7663  -24.7630 H         1 ASP         0.0478
    158 H55         4.8735  -24.0357  -23.7953 H         1 ALA         0.1883
    159 H56         6.5091  -22.9916  -21.7066 H         1 ALA         0.0797
    160 H57         5.9676  -24.6030  -19.9063 H         1 ALA         0.0277
    161 H58         4.5770  -25.2040  -20.8715 H         1 ALA         0.0277
    162 H59         4.5878  -23.5116  -20.2693 H         1 ALA         0.0277
    163 H60         8.4406  -23.8458  -21.9976 H         1 THR         0.1884
    164 H61         8.7263  -26.2125  -23.7092 H         1 THR         0.0826
    165 H62        11.1530  -25.7282  -23.5277 H         1 THR         0.0639
    166 H63        11.1256  -24.7802  -21.4384 H         1 THR         0.2101
    167 H64        11.1844  -23.5444  -24.6601 H         1 THR         0.0257
    168 H65         9.4837  -23.2581  -24.1577 H         1 THR         0.0257
    169 H66         9.8726  -24.5978  -25.2894 H         1 THR         0.0257
    170 H67         9.6926  -28.1391  -23.1414 H         1 PHE         0.1885
    171 H68         9.7357  -28.6796  -20.2109 H         1 PHE         0.0823
    172 H69         9.7452  -30.8558  -22.2977 H         1 PHE         0.0474
    173 H70         8.2290  -29.9417  -21.9944 H         1 PHE         0.0474
    174 H71         7.2115  -29.9869  -19.7248 H         1 PHE         0.0557
    175 H72        10.5252  -32.4750  -20.7476 H         1 PHE         0.0557
    176 H73         6.7432  -31.4111  -17.7738 H         1 PHE         0.0599
    177 H74        10.0558  -33.9016  -18.7992 H         1 PHE         0.0599
    178 H75         8.1647  -33.3723  -17.3081 H         1 PHE         0.0559
    179 H76        11.9545  -27.3931  -21.0639 H         1 VAL         0.1883
    180 H77        13.9896  -29.5374  -20.8520 H         1 VAL         0.0802
    181 H78        15.4626  -28.2186  -22.4576 H         1 VAL         0.0343
    182 H79        14.4384  -29.2088  -24.4786 H         1 VAL         0.0234
    183 H80        12.9127  -29.4747  -23.5686 H         1 VAL         0.0234
    184 H81        14.4094  -30.3427  -23.0857 H         1 VAL         0.0234
    185 H82        14.1581  -26.1183  -22.4155 H         1 VAL         0.0234
    186 H83        12.7942  -26.9549  -23.2320 H         1 VAL         0.0234
    187 H84        14.3616  -26.7490  -24.0851 H         1 VAL         0.0234
    188 H85        14.5242  -29.0365  -18.7832 H         1 GLN         0.1875
    189 H86        16.0627  -26.5571  -18.4125 H         1 GLN         0.0727
    190 H87        13.9301  -25.7345  -17.7320 H         1 GLN         0.0330
    191 H88        14.8556  -26.0878  -16.2335 H         1 GLN         0.0330
    192 H89        13.6199  -28.1302  -15.8812 H         1 GLN         0.0504
    193 H90        12.7955  -27.9574  -17.4678 H         1 GLN         0.0504
    194 H91        10.9608  -26.5692  -14.2855 H         1 GLN         0.1814
    195 H92        12.0995  -27.8720  -14.3641 H         1 GLN         0.1814
@<TRIPOS>BOND
     1    1    2 1  
     2    2    3 1  
     3    2    5 1  
     4    3    4 2  
     5    3    7 am 
     6    5    6 1  
     7    7    8 1  
     8    8    9 1  
     9    8   11 1  
    10    9   10 2  
    11    9   15 am 
    12   11   12 1  
    13   12   13 1  
    14   12   14 1  
    15   15   16 1  
    16   16   17 1  
    17   16   19 1  
    18   17   18 2  
    19   17   24 am 
    20   19   20 1  
    21   20   21 1  
    22   21   22 ar 
    23   21   23 ar 
    24   24   25 1  
    25   25   26 1  
    26   25   28 1  
    27   26   27 2  
    28   26   31 am 
    29   28   29 1  
    30   28   30 1  
    31   31   32 1  
    32   32   33 1  
    33   32   40 1  
    34   33   34 1  
    35   33   35 1  
    36   35   36 1  
    37   36   37 ar 
    38   36   38 ar 
    39   36   39 ar 
    40   40   41 2  
    41   40   42 am 
    42   42   43 1  
    43   43   44 1  
    44   43   46 1  
    45   44   45 2  
    46   44   51 am 
    47   46   47 1  
    48   47   48 1  
    49   48   49 ar 
    50   48   50 ar 
    51   51   52 1  
    52   52   53 1  
    53   52   55 1  
    54   53   54 2  
    55   53   56 am 
    56   56   57 1  
    57   57   58 1  
    58   57   60 1  
    59   58   59 2  
    60   58   64 am 
    61   60   61 1  
    62   61   62 ar 
    63   61   63 ar 
    64   64   65 1  
    65   65   66 1  
    66   65   68 1  
    67   66   67 2  
    68   66   69 am 
    69   69   70 1  
    70   70   71 1  
    71   70   73 1  
    72   71   72 2  
    73   71   76 am 
    74   73   74 1  
    75   73   75 1  
    76   76   77 1  
    77   77   78 1  
    78   77   80 1  
    79   78   79 2  
    80   78   87 am 
    81   80   81 1  
    82   81   82 ar 
    83   81   83 ar 
    84   82   84 ar 
    85   83   85 ar 
    86   84   86 ar 
    87   85   86 ar 
    88   87   88 1  
    89   88   89 1  
    90   88   91 1  
    91   89   90 2  
    92   89   94 am 
    93   91   92 1  
    94   91   93 1  
    95   94   95 1  
    96   95   96 1  
    97   95   98 1  
    98   96   97 ar 
    99   96  103 ar 
   100   98   99 1  
   101   99  100 1  
   102  100  101 2  
   103  100  102 am 
   104    1  104 1  
   105    1  105 1  
   106    1  106 1  
   107    2  107 1  
   108    5  108 1  
   109    5  109 1  
   110    6  110 1  
   111    7  111 1  
   112    8  112 1  
   113   11  113 1  
   114   11  114 1  
   115   12  115 1  
   116   13  116 1  
   117   13  117 1  
   118   13  118 1  
   119   14  119 1  
   120   14  120 1  
   121   14  121 1  
   122   15  122 1  
   123   16  123 1  
   124   19  124 1  
   125   19  125 1  
   126   20  126 1  
   127   20  127 1  
   128   24  128 1  
   129   25  129 1  
   130   28  130 1  
   131   29  131 1  
   132   29  132 1  
   133   29  133 1  
   134   30  134 1  
   135   30  135 1  
   136   30  136 1  
   137   31  137 1  
   138   32  138 1  
   139   33  139 1  
   140   34  140 1  
   141   34  141 1  
   142   34  142 1  
   143   42  143 1  
   144   43  144 1  
   145   46  145 1  
   146   46  146 1  
   147   47  147 1  
   148   47  148 1  
   149   51  149 1  
   150   52  150 1  
   151   55  151 1  
   152   55  152 1  
   153   55  153 1  
   154   56  154 1  
   155   57  155 1  
   156   60  156 1  
   157   60  157 1  
   158   64  158 1  
   159   65  159 1  
   160   68  160 1  
   161   68  161 1  
   162   68  162 1  
   163   69  163 1  
   164   70  164 1  
   165   73  165 1  
   166   74  166 1  
   167   75  167 1  
   168   75  168 1  
   169   75  169 1  
   170   76  170 1  
   171   77  171 1  
   172   80  172 1  
   173   80  173 1  
   174   82  174 1  
   175   83  175 1  
   176   84  176 1  
   177   85  177 1  
   178   86  178 1  
   179   87  179 1  
   180   88  180 1  
   181   91  181 1  
   182   92  182 1  
   183   92  183 1  
   184   92  184 1  
   185   93  185 1  
   186   93  186 1  
   187   93  187 1  
   188   94  188 1  
   189   95  189 1  
   190   98  190 1  
   191   98  191 1  
   192   99  192 1  
   193   99  193 1  
   194  102  194 1  
   195  102  195 1  
@<TRIPOS>SUBSTRUCTURE
     1 SER         1

