5ny6_ligand
  -I-interpret- 

 38 39  0  0  0  0  0  0  0  0999 V2000
  -31.0800   -4.1410    6.4730 Cl  0  0  0  0  0
  -29.7150   -4.2180    5.4660 C   0  0  0  0  0
  -28.4480   -4.2430    6.0560 C   0  0  0  0  0
  -28.1900   -4.1870    7.7000 S   0  0  0  0  0
  -27.0480   -4.9920    7.9960 O   0  0  0  0  0
  -27.9700   -2.8450    8.1470 O   0  0  0  0  0
  -29.5420   -4.8100    8.2230 N   0  0  0  0  0
  -29.8630   -4.2640    4.0800 C   0  0  0  0  0
  -28.7190   -4.3380    3.2820 C   0  0  0  0  0
  -27.4480   -4.3490    3.8830 C   0  0  0  0  0
  -27.3030   -4.3180    5.2540 C   0  0  0  0  0
  -26.2190   -4.4420    3.0690 C   0  0  0  0  0
  -25.3420   -3.5410    3.1120 O   0  0  0  0  0
  -26.1150   -5.5540    2.3150 N   0  0  0  0  0
  -24.9560   -5.8090    1.4960 C   0  0  0  0  0
  -24.7640   -7.3430    1.5080 C   0  0  0  0  0
  -25.0590   -5.2110    0.1110 C   0  0  0  0  0
  -24.0010   -5.1380   -0.8050 C   0  0  0  0  0
  -22.7570   -5.6060   -0.4470 O   0  0  0  0  0
  -24.1340   -4.6060   -2.1100 C   0  0  0  0  0
  -25.3700   -4.1320   -2.4990 C   0  0  0  0  0
  -26.4450   -4.1950   -1.6220 C   0  0  0  0  0
  -26.3030   -4.7280   -0.3450 C   0  0  0  0  0
  -29.5349   -5.7025    8.7167 H   0  0  0  0  0
  -30.4231   -4.3202    8.0674 H   0  0  0  0  0
  -30.8543   -4.2426    3.6273 H   0  0  0  0  0
  -28.8113   -4.3871    2.1970 H   0  0  0  0  0
  -26.3119   -4.3514    5.7064 H   0  0  0  0  0
  -26.8760   -6.2331    2.3239 H   0  0  0  0  0
  -24.0726   -5.3129    1.8979 H   0  0  0  0  0
  -24.6078   -7.6803    2.5326 H   0  0  0  0  0
  -25.6529   -7.8224    1.0979 H   0  0  0  0  0
  -23.8965   -7.6041    0.9019 H   0  0  0  0  0
  -22.1479   -5.4849   -1.1791 H   0  0  0  0  0
  -23.2825   -4.5717   -2.7896 H   0  0  0  0  0
  -25.5027   -3.7082   -3.4944 H   0  0  0  0  0
  -27.4177   -3.8199   -1.9401 H   0  0  0  0  0
  -27.1691   -4.7732    0.3153 H   0  0  0  0  0
  1  2  1  0  0  0
  2  3  4  0  0  0
  2  8  4  0  0  0
  3  4  1  0  0  0
  3 11  4  0  0  0
  4  5  2  0  0  0
  4  6  2  0  0  0
  4  7  1  0  0  0
  8  9  4  0  0  0
  9 10  4  0  0  0
 10 11  4  0  0  0
 10 12  1  0  0  0
 12 13  2  0  0  0
 12 14  1  0  0  0
 14 15  1  0  0  0
 15 16  1  0  0  0
 15 17  1  0  0  0
 17 18  4  0  0  0
 17 23  4  0  0  0
 18 19  1  0  0  0
 18 20  4  0  0  0
 20 21  4  0  0  0
 21 22  4  0  0  0
 22 23  4  0  0  0
  7 24  1  0  0  0
  7 25  1  0  0  0
  8 26  1  0  0  0
  9 27  1  0  0  0
 11 28  1  0  0  0
 14 29  1  0  0  0
 15 30  1  0  0  0
 16 31  1  0  0  0
 16 32  1  0  0  0
 16 33  1  0  0  0
 19 34  1  0  0  0
 20 35  1  0  0  0
 21 36  1  0  0  0
 22 37  1  0  0  0
 23 38  1  0  0  0
M  END
$$$$
