4rvt_ligand
  -I-interpret- 

 41 42  0  0  0  0  0  0  0  0999 V2000
  -19.3810    9.2220  -28.8160 C   0  0  0  0  0
  -19.0620    9.0040  -30.1510 C   0  0  0  0  0
  -18.0250    8.1350  -30.4720 C   0  0  0  0  0
  -17.3070    7.4740  -29.4700 C   0  0  0  0  0
  -17.6280    7.7000  -28.1300 C   0  0  0  0  0
  -18.6710    8.5730  -27.7980 C   0  0  0  0  0
  -16.2710    6.6200  -29.8700 C   0  0  0  0  0
  -15.5990    6.9680  -31.0420 C   0  0  0  0  0
  -14.6130    6.2240  -31.4980 N   0  0  0  0  0
  -14.1940    5.0640  -30.8270 C   0  0  0  0  0
  -14.8180    4.6490  -29.6350 C   0  0  0  0  0
  -15.8640    5.4610  -29.1820 C   0  0  0  0  0
  -16.4940    5.1010  -28.0290 O   0  0  0  0  0
  -20.3930   10.0700  -28.5180 O   0  0  0  0  0
  -13.2700    4.4440  -31.3380 O   0  0  0  0  0
  -14.4620    3.5010  -28.8890 C   0  0  0  0  0
  -13.4750    2.4730  -29.4780 C   0  0  0  0  0
  -14.9300    3.3060  -27.7750 O   0  0  0  0  0
  -13.3540    1.2520  -28.5500 C   0  0  0  0  0
  -11.9870    0.5900  -28.7520 C   0  0  0  0  0
  -12.0460   -0.8760  -28.3200 C   0  0  0  0  0
  -11.7620   -1.7690  -29.5330 C   0  0  0  0  0
  -19.6197    9.5097  -30.9393 H   0  0  0  0  0
  -17.7683    7.9668  -31.5179 H   0  0  0  0  0
  -17.0667    7.1969  -27.3426 H   0  0  0  0  0
  -18.9290    8.7466  -26.7533 H   0  0  0  0  0
  -15.8934    7.8655  -31.5861 H   0  0  0  0  0
  -14.1417    6.4972  -32.3604 H   0  0  0  0  0
  -17.1858    5.7367  -27.8317 H   0  0  0  0  0
  -20.4967   10.1203  -27.5649 H   0  0  0  0  0
  -12.4953    2.9398  -29.5797 H   0  0  0  0  0
  -13.8428    2.1447  -30.4501 H   0  0  0  0  0
  -14.1422    0.5370  -28.7858 H   0  0  0  0  0
  -13.4525    1.5728  -27.5129 H   0  0  0  0  0
  -11.2436    1.1116  -28.1491 H   0  0  0  0  0
  -11.7158    0.6422  -29.8064 H   0  0  0  0  0
  -13.0357   -1.1014  -27.9228 H   0  0  0  0  0
  -11.3003   -1.0604  -27.5467 H   0  0  0  0  0
  -12.5108   -1.5828  -30.3029 H   0  0  0  0  0
  -10.7710   -1.5417  -29.9258 H   0  0  0  0  0
  -11.8030   -2.8152  -29.2299 H   0  0  0  0  0
  1  2  4  0  0  0
  1  6  4  0  0  0
  1 14  1  0  0  0
  2  3  4  0  0  0
  3  4  4  0  0  0
  4  5  4  0  0  0
  4  7  1  0  0  0
  5  6  4  0  0  0
  7  8  2  0  0  0
  7 12  1  0  0  0
  8  9  1  0  0  0
  9 10  1  0  0  0
 10 11  1  0  0  0
 10 15  2  0  0  0
 11 12  2  0  0  0
 11 16  1  0  0  0
 12 13  1  0  0  0
 16 17  1  0  0  0
 16 18  2  0  0  0
 17 19  1  0  0  0
 19 20  1  0  0  0
 20 21  1  0  0  0
 21 22  1  0  0  0
  2 23  1  0  0  0
  3 24  1  0  0  0
  5 25  1  0  0  0
  6 26  1  0  0  0
  8 27  1  0  0  0
  9 28  1  0  0  0
 13 29  1  0  0  0
 14 30  1  0  0  0
 17 31  1  0  0  0
 17 32  1  0  0  0
 19 33  1  0  0  0
 19 34  1  0  0  0
 20 35  1  0  0  0
 20 36  1  0  0  0
 21 37  1  0  0  0
 21 38  1  0  0  0
 22 39  1  0  0  0
 22 40  1  0  0  0
 22 41  1  0  0  0
M  END
$$$$
