6cq5_ligand
  -I-interpret- 

 43 46  0  0  0  0  0  0  0  0999 V2000
   -2.3030  -30.3910  -15.8080 C   0  0  0  0  0
   -3.2110  -29.7400  -13.6850 C   0  0  0  0  0
   -4.2540  -29.1100  -11.5600 C   0  0  0  0  0
   -5.4060  -28.6800  -10.8280 C   0  0  0  0  0
   -5.3610  -28.5240   -9.4410 C   0  0  0  0  0
   -4.2020  -28.7640   -8.6810 C   0  0  0  0  0
   -4.1670  -28.5830   -7.1460 C   0  0  0  0  0
   -5.5510  -28.9110   -6.4480 C   0  0  0  0  0
   -5.5790  -28.7280   -4.9330 C   0  0  0  0  0
   -3.0650  -29.5120   -5.0440 C   0  0  0  0  0
   -2.9360  -29.3080   -6.5550 C   0  0  0  0  0
   -3.0860  -29.1790   -9.4230 C   0  0  0  0  0
   -3.1100  -29.3500  -10.8340 C   0  0  0  0  0
   -1.8960  -29.7940  -11.5890 C   0  0  0  0  0
   -2.0130  -30.0030  -13.0430 C   0  0  0  0  0
   -0.9280  -30.4840  -13.8410 C   0  0  0  0  0
   -1.0400  -30.6860  -15.2020 C   0  0  0  0  0
    0.1380  -31.2060  -16.0870 C   0  0  0  0  0
   -2.4660  -30.5740  -17.1650 N   0  0  0  0  0
   -3.4010  -29.9160  -15.0490 N   0  0  0  0  0
   -4.3250  -29.2620  -12.9450 O   0  0  0  0  0
   -4.1240  -28.8740   -2.8520 O   0  0  0  0  0
   -3.6470  -27.0870   -4.4070 O   0  0  0  0  0
   -0.8630  -29.9770  -11.0080 O   0  0  0  0  0
    1.2490  -31.3730  -15.5420 O   0  0  0  0  0
   -0.1140  -31.4160  -17.2910 O   0  0  0  0  0
   -4.0660  -28.4250   -4.2030 S   0  0  0  0  0
   -6.3332  -28.4709  -11.3615 H   0  0  0  0  0
   -6.2648  -28.2017   -8.9240 H   0  0  0  0  0
   -4.0337  -27.5252   -6.9192 H   0  0  0  0  0
   -5.7537  -29.9650   -6.6382 H   0  0  0  0  0
   -6.2804  -28.2134   -6.8595 H   0  0  0  0  0
   -5.9446  -29.6652   -4.5133 H   0  0  0  0  0
   -6.1995  -27.8536   -4.7369 H   0  0  0  0  0
   -2.0636  -29.3708   -4.6375 H   0  0  0  0  0
   -3.5166  -30.4954   -4.9133 H   0  0  0  0  0
   -2.0550  -28.6943   -6.7431 H   0  0  0  0  0
   -2.8572  -30.2875   -7.0266 H   0  0  0  0  0
   -2.1556  -29.3800   -8.8919 H   0  0  0  0  0
    0.0240  -30.6994  -13.3559 H   0  0  0  0  0
   -1.6895  -30.9175  -17.7302 H   0  0  0  0  0
   -3.3631  -30.3659  -17.6036 H   0  0  0  0  0
    1.1858  -31.1430  -14.6121 H   0  0  0  0  0
  1 17  4  0  0  0
  1 19  1  0  0  0
 20  1  4  0  0  0
  2 15  4  0  0  0
  2 20  4  0  0  0
 21  2  1  0  0  0
  3  4  4  0  0  0
  3 13  4  0  0  0
  3 21  1  0  0  0
  4  5  4  0  0  0
  5  6  4  0  0  0
  6  7  1  0  0  0
  6 12  4  0  0  0
  7  8  1  0  0  0
  7 11  1  0  0  0
  8  9  1  0  0  0
  9 27  1  0  0  0
 11 10  1  0  0  0
 10 27  1  0  0  0
 12 13  4  0  0  0
 13 14  1  0  0  0
 14 15  1  0  0  0
 14 24  2  0  0  0
 15 16  4  0  0  0
 16 17  4  0  0  0
 17 18  1  0  0  0
 18 25  1  0  0  0
 18 26  2  0  0  0
 27 22  2  0  0  0
 27 23  2  0  0  0
  4 28  1  0  0  0
  5 29  1  0  0  0
  7 30  1  0  0  0
  8 31  1  0  0  0
  8 32  1  0  0  0
  9 33  1  0  0  0
  9 34  1  0  0  0
 10 35  1  0  0  0
 10 36  1  0  0  0
 11 37  1  0  0  0
 11 38  1  0  0  0
 12 39  1  0  0  0
 16 40  1  0  0  0
 19 41  1  0  0  0
 19 42  1  0  0  0
 25 43  1  0  0  0
M  END
$$$$
