3sax_ligand
  -I-interpret- 

 37 38  0  0  0  0  0  0  0  0999 V2000
   -0.4910    4.8960   11.1950 N   0  0  0  0  0
   -1.4110    4.1500   11.7850 C   0  0  0  0  0
   -2.0900    4.5660   12.8890 N   0  0  0  0  0
   -1.8940    5.8070   13.4560 C   0  0  0  0  0
   -0.9270    6.6330   12.8910 C   0  0  0  0  0
   -0.2560    6.1370   11.7460 C   0  0  0  0  0
   -1.7110    2.5940   11.0480 S   0  0  0  0  0
   -2.9990    1.9780   12.1560 C   0  0  0  0  0
   -4.1790    2.9210   12.2730 C   0  0  0  0  0
   -4.5440    3.5820   11.2440 O   0  0  0  0  0
   -0.5940    8.0310   13.4070 C   0  0  0  0  0
   -1.2990    8.3380   14.7670 C   0  0  0  0  0
   -4.8570    3.0830   13.6290 C   0  0  0  0  0
   -4.9810    2.0570   14.5510 C   0  0  0  0  0
   -5.6200    2.2540   15.7720 C   0  0  0  0  0
   -6.0780    3.5460   16.0670 C   0  0  0  0  0
   -5.9080    4.5950   15.2060 C   0  0  0  0  0
   -5.3010    4.3680   13.9620 C   0  0  0  0  0
   -5.9820    0.8130   16.8060 S   0  0  0  0  0
   -5.3400    1.0550   18.0790 O   0  0  0  0  0
   -6.8510    3.8100   17.5760 Cl  0  0  0  0  0
   -7.4370    0.7700   16.7900 O   0  0  0  0  0
   -5.4280   -0.4780   16.0830 N   0  0  0  0  0
   -2.4770    6.1306   14.3182 H   0  0  0  0  0
    0.4905    6.7749   11.2728 H   0  0  0  0  0
   -2.5603    1.8700   13.1480 H   0  0  0  0  0
   -3.3656    1.0360   11.7481 H   0  0  0  0  0
   -0.9419    8.7568   12.6720 H   0  0  0  0  0
    0.4834    8.0890   13.5616 H   0  0  0  0  0
   -2.3793    8.2711   14.6380 H   0  0  0  0  0
   -0.9755    7.6134   15.5142 H   0  0  0  0  0
   -1.0324    9.3429   15.0943 H   0  0  0  0  0
   -4.5699    1.0753   14.3158 H   0  0  0  0  0
   -6.2402    5.5954   15.4832 H   0  0  0  0  0
   -5.1755    5.1897   13.2569 H   0  0  0  0  0
   -4.6957   -1.0347   16.5237 H   0  0  0  0  0
   -5.8026   -0.7547   15.1756 H   0  0  0  0  0
  1  2  4  0  0  0
  1  6  4  0  0  0
  2  3  4  0  0  0
  2  7  1  0  0  0
  3  4  4  0  0  0
  4  5  4  0  0  0
  5  6  4  0  0  0
  5 11  1  0  0  0
  7  8  1  0  0  0
  8  9  1  0  0  0
  9 10  2  0  0  0
  9 13  1  0  0  0
 11 12  1  0  0  0
 13 14  4  0  0  0
 13 18  4  0  0  0
 14 15  4  0  0  0
 15 16  4  0  0  0
 15 19  1  0  0  0
 16 17  4  0  0  0
 16 21  1  0  0  0
 17 18  4  0  0  0
 19 20  2  0  0  0
 19 22  2  0  0  0
 19 23  1  0  0  0
  4 24  1  0  0  0
  6 25  1  0  0  0
  8 26  1  0  0  0
  8 27  1  0  0  0
 11 28  1  0  0  0
 11 29  1  0  0  0
 12 30  1  0  0  0
 12 31  1  0  0  0
 12 32  1  0  0  0
 14 33  1  0  0  0
 17 34  1  0  0  0
 18 35  1  0  0  0
 23 36  1  0  0  0
 23 37  1  0  0  0
M  END
$$$$
