4cff_ligand
  -I-interpret- 

 38 41  0  0  0  0  0  0  0  0999 V2000
  -60.9620  -15.0400  145.2590 O   0  0  0  0  0
  -59.8520  -14.5590  145.9680 C   0  0  0  0  0
  -58.7780  -13.8620  145.3060 C   0  0  0  0  0
  -59.7340  -14.7400  147.3850 C   0  0  0  0  0
  -60.7400  -15.4440  148.2770 C   0  0  0  0  0
  -61.4450  -15.9610  149.0110 N   0  0  0  0  0
  -58.6020  -14.2380  148.0330 C   0  0  0  0  0
  -58.4810  -14.4130  149.4190 O   0  0  0  0  0
  -57.6470  -13.6040  147.3730 N   0  0  0  0  0
  -57.6920  -13.3990  146.0520 C   0  0  0  0  0
  -56.6180  -12.6290  144.9810 S   0  0  0  0  0
  -57.4750  -12.8460  143.5430 C   0  0  0  0  0
  -58.6540  -13.5360  143.8450 C   0  0  0  0  0
  -59.6500  -13.8910  142.7110 C   0  0  0  0  0
  -59.2870  -14.8690  141.7900 C   0  0  0  0  0
  -60.1470  -15.2050  140.7410 C   0  0  0  0  0
  -60.8650  -13.2310  142.5780 C   0  0  0  0  0
  -61.7340  -13.5710  141.5280 C   0  0  0  0  0
  -61.3760  -14.5580  140.6190 C   0  0  0  0  0
  -62.3260  -14.9280  139.4530 C   0  0  0  0  0
  -62.7140  -13.9230  138.5850 C   0  0  0  0  0
  -63.5610  -14.2060  137.5250 C   0  0  0  0  0
  -64.0170  -15.5030  137.3310 C   0  0  0  0  0
  -63.6240  -16.5110  138.1990 C   0  0  0  0  0
  -62.7810  -16.2290  139.2590 C   0  0  0  0  0
  -62.3900  -17.2700  140.1350 O   0  0  0  0  0
  -61.5659  -15.4725  145.8672 H   0  0  0  0  0
  -57.6589  -14.0189  149.7196 H   0  0  0  0  0
  -57.1647  -12.5083  142.5542 H   0  0  0  0  0
  -58.3268  -15.3756  141.8873 H   0  0  0  0  0
  -59.8580  -15.9703  140.0206 H   0  0  0  0  0
  -61.1435  -12.4511  143.2867 H   0  0  0  0  0
  -62.6910  -13.0592  141.4265 H   0  0  0  0  0
  -62.3526  -12.9057  138.7352 H   0  0  0  0  0
  -63.8686  -13.4117  136.8449 H   0  0  0  0  0
  -64.6827  -15.7287  136.4980 H   0  0  0  0  0
  -63.9808  -17.5294  138.0453 H   0  0  0  0  0
  -62.7949  -18.0934  139.8526 H   0  0  0  0  0
  1  2  1  0  0  0
  2  3  4  0  0  0
  2  4  4  0  0  0
  3 10  4  0  0  0
  3 13  4  0  0  0
  4  5  1  0  0  0
  4  7  4  0  0  0
  5  6  3  0  0  0
  7  8  1  0  0  0
  7  9  4  0  0  0
  9 10  4  0  0  0
 10 11  4  0  0  0
 11 12  4  0  0  0
 12 13  4  0  0  0
 13 14  1  0  0  0
 14 15  4  0  0  0
 14 17  4  0  0  0
 15 16  4  0  0  0
 16 19  4  0  0  0
 17 18  4  0  0  0
 18 19  4  0  0  0
 19 20  1  0  0  0
 20 21  4  0  0  0
 20 25  4  0  0  0
 21 22  4  0  0  0
 22 23  4  0  0  0
 23 24  4  0  0  0
 24 25  4  0  0  0
 25 26  1  0  0  0
  1 27  1  0  0  0
  8 28  1  0  0  0
 12 29  1  0  0  0
 15 30  1  0  0  0
 16 31  1  0  0  0
 17 32  1  0  0  0
 18 33  1  0  0  0
 21 34  1  0  0  0
 22 35  1  0  0  0
 23 36  1  0  0  0
 24 37  1  0  0  0
 26 38  1  0  0  0
M  END
$$$$
