4ci2_ligand
  -I-interpret- 

 32 34  0  0  0  0  0  0  0  0999 V2000
   84.2300  156.3710   13.8710 C   0  0  0  0  0
   85.1530  156.8780   15.0090 C   0  0  0  0  0
   84.8460  158.3630   15.2820 C   0  0  0  0  0
   85.0100  159.1500   14.0030 C   0  0  0  0  0
   84.7820  158.5390   12.8080 N   0  0  0  0  0
   84.4320  157.2300   12.6430 C   0  0  0  0  0
   84.1060  152.7120   13.1650 C   0  0  0  0  0
   85.4170  153.0100   12.7900 C   0  0  0  0  0
   85.7210  154.4870   12.9980 C   0  0  0  0  0
   84.4530  154.9740   13.5320 N   0  0  0  0  0
   83.5020  154.0070   13.6410 C   0  0  0  0  0
   84.4530  150.4040   12.5990 C   0  0  0  0  0
   85.7900  150.7100   12.2340 C   0  0  0  0  0
   86.3000  152.0260   12.3190 C   0  0  0  0  0
   83.5800  151.4140   13.0630 C   0  0  0  0  0
   82.3300  154.0900   14.0400 O   0  0  0  0  0
   87.5760  152.3610   11.9750 N   0  0  0  0  0
   84.2170  156.7370   11.5430 O   0  0  0  0  0
   85.3050  160.3310   14.0740 O   0  0  0  0  0
   83.2046  156.4469   14.2327 H   0  0  0  0  0
   86.1960  156.7674   14.7124 H   0  0  0  0  0
   84.9760  156.2945   15.9125 H   0  0  0  0  0
   85.5338  158.7451   16.0363 H   0  0  0  0  0
   83.8227  158.4636   15.6437 H   0  0  0  0  0
   84.8809  159.1064   11.9662 H   0  0  0  0  0
   86.0367  154.9992   12.0891 H   0  0  0  0  0
   86.5700  154.6687   13.6570 H   0  0  0  0  0
   84.0951  149.3774   12.5205 H   0  0  0  0  0
   86.4401  149.9103   11.8792 H   0  0  0  0  0
   82.5459  151.1954   13.3294 H   0  0  0  0  0
   87.8900  153.3278   12.0598 H   0  0  0  0  0
   88.2167  151.6449   11.6328 H   0  0  0  0  0
  1  2  1  0  0  0
  1  6  1  0  0  0
 10  1  1  0  0  0
  2  3  1  0  0  0
  3  4  1  0  0  0
  5  4  1  0  0  0
  4 19  2  0  0  0
  6  5  1  0  0  0
  6 18  2  0  0  0
  7  8  4  0  0  0
  7 11  1  0  0  0
 15  7  4  0  0  0
  8  9  1  0  0  0
  8 14  4  0  0  0
 10  9  1  0  0  0
 11 10  1  0  0  0
 11 16  2  0  0  0
 12 13  4  0  0  0
 12 15  4  0  0  0
 13 14  4  0  0  0
 14 17  1  0  0  0
  1 20  1  0  0  0
  2 21  1  0  0  0
  2 22  1  0  0  0
  3 23  1  0  0  0
  3 24  1  0  0  0
  5 25  1  0  0  0
  9 26  1  0  0  0
  9 27  1  0  0  0
 12 28  1  0  0  0
 13 29  1  0  0  0
 15 30  1  0  0  0
 17 31  1  0  0  0
 17 32  1  0  0  0
M  END
$$$$
