4uuh_ligand
  -I-interpret- 

 50 53  0  0  0  0  0  0  0  0999 V2000
    5.0190   -2.5380   -2.6420 O   0  0  0  0  0
    4.7100   -3.2190   -3.6130 C   0  0  0  0  0
    5.6940   -3.8160   -4.5360 C   0  0  0  0  0
    7.0590   -3.6980   -4.2690 C   0  0  0  0  0
    3.3880   -3.4850   -3.8940 N   0  0  0  0  0
    2.9280   -4.2690   -4.9540 C   0  0  0  0  0
    3.8330   -4.8110   -5.8180 C   0  0  0  0  0
    5.2620   -4.5870   -5.6380 C   0  0  0  0  0
    6.2100   -5.2110   -6.4790 C   0  0  0  0  0
    5.8190   -5.8900   -7.7660 C   0  0  0  0  0
    7.5590   -5.1240   -6.1360 C   0  0  0  0  0
    7.9810   -4.3740   -5.0510 C   0  0  0  0  0
    1.4670   -4.4270   -5.0850 C   0  0  0  0  0
    0.6140   -4.1960   -3.9980 C   0  0  0  0  0
   -0.7630   -4.2990   -4.1440 C   0  0  0  0  0
   -1.3320   -4.6080   -5.3780 C   0  0  0  0  0
   -0.4810   -4.8640   -6.4490 C   0  0  0  0  0
    0.8950   -4.7770   -6.3110 C   0  0  0  0  0
   -2.8170   -4.4230   -5.6130 C   0  0  0  0  0
   -3.6640   -5.6300   -5.5630 N   0  3  0  0  0
   -4.6900   -5.5890   -6.6160 C   0  0  0  0  0
   -5.6010   -6.7950   -6.5880 C   0  0  0  0  0
   -4.8080   -8.0320   -6.6800 N   0  3  0  0  0
   -3.7930   -8.0950   -5.6250 C   0  0  0  0  0
   -2.8950   -6.8760   -5.6830 C   0  0  0  0  0
    7.3999   -3.0728   -3.4437 H   0  0  0  0  0
    3.6072   -4.3361   -6.7728 H   0  0  0  0  0
    3.7137   -5.8867   -5.6885 H   0  0  0  0  0
    5.1183   -6.6968   -7.5513 H   0  0  0  0  0
    5.3478   -5.1647   -8.4294 H   0  0  0  0  0
    6.7091   -6.2979   -8.2451 H   0  0  0  0  0
    8.2970   -5.6578   -6.7348 H   0  0  0  0  0
    9.0427   -4.3154   -4.8115 H   0  0  0  0  0
    1.0355   -3.9328   -3.0279 H   0  0  0  0  0
   -1.4083   -4.1358   -3.2808 H   0  0  0  0  0
   -0.9050   -5.1382   -7.4150 H   0  0  0  0  0
    1.5374   -4.9836   -7.1670 H   0  0  0  0  0
   -2.9099   -4.0386   -6.6287 H   0  0  0  0  0
   -3.1669   -3.7826   -4.8033 H   0  0  0  0  0
   -4.1061   -5.6276   -4.6438 H   0  0  0  0  0
   -4.1809   -5.5757   -7.5797 H   0  0  0  0  0
   -5.3026   -4.7023   -6.4528 H   0  0  0  0  0
   -6.2853   -6.7455   -7.4350 H   0  0  0  0  0
   -6.1607   -6.7982   -5.6527 H   0  0  0  0  0
   -4.3369   -8.0486   -7.5846 H   0  0  0  0  0
   -5.4362   -8.8285   -6.5736 H   0  0  0  0  0
   -3.1870   -8.9896   -5.7682 H   0  0  0  0  0
   -4.2900   -8.1242   -4.6553 H   0  0  0  0  0
   -2.1915   -6.9273   -4.8520 H   0  0  0  0  0
   -2.3820   -6.8722   -6.6447 H   0  0  0  0  0
  1  2  2  0  0  0
  2  3  1  0  0  0
  2  5  1  0  0  0
  3  4  4  0  0  0
  3  8  4  0  0  0
  4 12  4  0  0  0
  5  6  2  0  0  0
  6  7  1  0  0  0
  6 13  1  0  0  0
  7  8  1  0  0  0
  8  9  4  0  0  0
  9 10  1  0  0  0
  9 11  4  0  0  0
 11 12  4  0  0  0
 13 14  4  0  0  0
 13 18  4  0  0  0
 14 15  4  0  0  0
 15 16  4  0  0  0
 16 17  4  0  0  0
 16 19  1  0  0  0
 17 18  4  0  0  0
 19 20  1  0  0  0
 20 21  1  0  0  0
 20 25  1  0  0  0
 21 22  1  0  0  0
 22 23  1  0  0  0
 23 24  1  0  0  0
 24 25  1  0  0  0
  4 26  1  0  0  0
  7 27  1  0  0  0
  7 28  1  0  0  0
 10 29  1  0  0  0
 10 30  1  0  0  0
 10 31  1  0  0  0
 11 32  1  0  0  0
 12 33  1  0  0  0
 14 34  1  0  0  0
 15 35  1  0  0  0
 17 36  1  0  0  0
 18 37  1  0  0  0
 19 38  1  0  0  0
 19 39  1  0  0  0
 20 40  1  0  0  0
 21 41  1  0  0  0
 21 42  1  0  0  0
 22 43  1  0  0  0
 22 44  1  0  0  0
 23 45  1  0  0  0
 23 46  1  0  0  0
 24 47  1  0  0  0
 24 48  1  0  0  0
 25 49  1  0  0  0
 25 50  1  0  0  0
M  END
$$$$
