### 
### Created by X-TOOL on Mon Sep 10 21:13:32 2018
### 

@<TRIPOS>MOLECULE
5w5s_ligand
  203   208     1     0     0
SMALL
GAST_HUCK


@<TRIPOS>ATOM
      1 C         -22.9640  -51.9240  -23.1770 C.2       1 ACE         0.1751
      2 O         -22.7010  -52.8650  -22.4430 O.2       1 ACE        -0.3972
      3 CH3       -21.9130  -51.1500  -23.9390 C.3       1 ACE         0.0258
      4 C         -26.0760  -52.9260  -23.7800 C.2       1 PH8         0.2039
      5 N         -24.1610  -51.5240  -23.4310 N.am      1 PH8        -0.2658
      6 O         -25.9720  -52.7200  -24.9630 O.2       1 PH8        -0.3944
      7 CA        -25.2700  -52.1120  -22.7930 C.3       1 PH8         0.1310
      8 CB        -25.9190  -50.8880  -22.4080 C.3       1 PH8        -0.0106
      9 CG        -28.7000  -49.9520  -21.3070 C.ar      1 PH8        -0.0430
     10 CI        -27.1230  -51.2980  -21.7110 C.3       1 PH8        -0.0390
     11 CJ        -28.1110  -50.4080  -22.3710 C.3       1 PH8        -0.0189
     12 CZ        -29.8860  -49.1620  -19.1140 C.ar      1 PH8        -0.0687
     13 CD1       -29.7790  -50.6490  -20.9040 C.ar      1 PH8        -0.0603
     14 CD2       -28.1800  -48.8890  -20.6440 C.ar      1 PH8        -0.0603
     15 CE1       -30.4040  -50.2520  -19.7640 C.ar      1 PH8        -0.0686
     16 CE2       -28.7780  -48.4650  -19.5080 C.ar      1 PH8        -0.0686
     17 N         -26.9160  -53.7670  -23.1690 N.am      1 ORN        -0.2637
     18 CA        -27.7530  -54.7540  -23.8300 C.3       1 ORN         0.1310
     19 CB        -27.1500  -56.0810  -23.4790 C.3       1 ORN        -0.0106
     20 CG        -25.8220  -56.3160  -24.1470 C.3       1 ORN        -0.0285
     21 CD        -25.7860  -57.7290  -24.6610 C.3       1 ORN         0.0311
     22 NE        -24.9630  -57.8060  -25.8610 N.am      1 ORN        -0.2869
     23 C         -29.0430  -54.7820  -23.4020 C.2       1 ORN         0.2039
     24 O         -29.3270  -54.6050  -22.2410 O.2       1 ORN        -0.3944
     25 N         -30.0190  -55.0780  -24.2930 N.am      1 LEU        -0.2637
     26 CA        -31.4080  -55.1710  -23.8940 C.3       1 LEU         0.1312
     27 C         -31.6830  -56.5120  -23.8830 C.2       1 LEU         0.2039
     28 O         -31.9150  -57.1050  -24.9080 O.2       1 LEU        -0.3944
     29 CB        -32.3050  -54.4190  -24.8770 C.3       1 LEU        -0.0101
     30 CG        -31.7420  -53.0290  -25.1630 C.3       1 LEU        -0.0425
     31 CD1       -32.4840  -52.3790  -26.3120 C.3       1 LEU        -0.0625
     32 CD2       -31.9100  -52.1240  -23.9600 C.3       1 LEU        -0.0625
     33 N         -31.6600  -57.2230  -22.7260 N.am      1 GLU        -0.2636
     34 CA        -31.8650  -58.6710  -22.7030 C.3       1 GLU         0.1325
     35 C         -33.1900  -58.9910  -22.5100 C.2       1 GLU         0.2041
     36 O         -33.6290  -59.4170  -21.4610 O.2       1 GLU        -0.3944
     37 CB        -30.9410  -59.2690  -21.6440 C.3       1 GLU        -0.0008
     38 CG        -29.5470  -58.7130  -21.8550 C.3       1 GLU         0.0044
     39 CD        -28.6340  -59.0250  -20.6920 C.2       1 GLU         0.0350
     40 OE1       -28.9940  -58.6750  -19.5720 O.co2     1 GLU        -0.5690
     41 OE2       -27.5700  -59.5940  -20.9600 O.co2     1 GLU        -0.5690
     42 N         -34.0400  -58.8710  -23.5590 N.am      1 TYR        -0.2621
     43 CA        -35.4630  -59.0950  -23.4220 C.3       1 TYR         0.1390
     44 C         -35.8720  -60.3740  -23.7430 C.2       1 TYR         0.2059
     45 O         -36.8940  -60.8320  -23.2890 O.2       1 TYR        -0.3942
     46 CB        -36.1340  -58.0900  -24.3260 C.3       1 TYR         0.0163
     47 CG        -35.9180  -56.7620  -23.9940 C.ar      1 TYR        -0.0493
     48 CD1       -35.5250  -56.3230  -22.7530 C.ar      1 TYR        -0.0685
     49 CD2       -36.1440  -55.8060  -24.9530 C.ar      1 TYR        -0.0685
     50 CE1       -35.3560  -54.9810  -22.4900 C.ar      1 TYR        -0.0398
     51 CE2       -35.9740  -54.4640  -24.7010 C.ar      1 TYR        -0.0398
     52 CZ        -35.5730  -54.0380  -23.4620 C.ar      1 TYR         0.0805
     53 OH        -35.4040  -52.7450  -23.2010 O.3       1 TYR        -0.3376
     54 N         -35.1190  -61.1590  -24.5750 N.am      1 ZCL        -0.2618
     55 O         -33.2590  -62.7470  -25.0030 O.2       1 ZCL        -0.3942
     56 CLZ       -40.6350  -59.0500  -26.4220 Cl        1 ZCL        -0.0764
     57 CE2       -39.3930  -61.1940  -25.8140 C.ar      1 ZCL        -0.0541
     58 CE1       -38.1400  -59.6040  -27.0660 C.ar      1 ZCL         0.0477
     59 CLE1      -37.9770  -58.1740  -27.8400 Cl        1 ZCL        -0.0718
     60 CD2       -38.3280  -62.0480  -25.7750 C.ar      1 ZCL        -0.0594
     61 CD1       -37.0740  -60.4700  -27.0280 C.ar      1 ZCL        -0.0457
     62 CB        -36.0960  -62.5600  -26.3420 C.3       1 ZCL         0.0216
     63 C         -34.3450  -63.2730  -24.8920 C.2       1 ZCL         0.2060
     64 CZ        -39.3100  -59.9860  -26.4480 C.ar      1 ZCL         0.0469
     65 CG        -37.1580  -61.6900  -26.3840 C.ar      1 ZCL        -0.0378
     66 CA        -35.4870  -62.5220  -24.9580 C.3       1 ZCL         0.1405
     67 N         -34.3990  -64.6210  -24.6390 N.am      1 GLU        -0.2635
     68 CA        -33.1710  -65.3910  -24.4520 C.3       1 GLU         0.1325
     69 C         -32.6160  -65.8020  -25.6220 C.2       1 GLU         0.2041
     70 O         -31.4590  -66.1370  -25.6390 O.2       1 GLU        -0.3944
     71 CB        -33.4210  -66.5510  -23.5130 C.3       1 GLU        -0.0008
     72 CG        -32.1100  -67.2760  -23.2310 C.3       1 GLU         0.0044
     73 CD        -31.2570  -66.5810  -22.1670 C.2       1 GLU         0.0350
     74 OE1       -30.0910  -66.2850  -22.4860 O.co2     1 GLU        -0.5690
     75 OE2       -31.7760  -66.3650  -21.0630 O.co2     1 GLU        -0.5690
     76 N         -33.3150  -65.7860  -26.7800 N.am      1 TRP        -0.2627
     77 CA        -32.7010  -66.2040  -28.0340 C.3       1 TRP         0.1352
     78 C         -31.9910  -65.1840  -28.6160 C.2       1 TRP         0.2052
     79 O         -31.2720  -65.4230  -29.5580 O.2       1 TRP        -0.3942
     80 CB        -33.7670  -66.6900  -29.0040 C.3       1 TRP         0.0042
     81 CG        -34.9120  -65.7070  -29.1990 C.2       1 TRP        -0.0418
     82 CD1       -36.0330  -65.6860  -28.5260 C.2       1 TRP         0.0167
     83 CD2       -34.9280  -64.7640  -30.0900 C.ar      1 TRP        -0.0214
     84 NE1       -36.7530  -64.7040  -28.9980 N.pl3     1 TRP        -0.2890
     85 CE2       -36.0680  -64.1350  -29.9520 C.ar      1 TRP         0.0603
     86 CE3       -34.0410  -64.3980  -30.9820 C.ar      1 TRP        -0.0747
     87 CZ2       -36.3560  -63.1220  -30.7230 C.ar      1 TRP        -0.0443
     88 CZ3       -34.2950  -63.3460  -31.8220 C.ar      1 TRP        -0.0792
     89 CH2       -35.4820  -62.6920  -31.6820 C.ar      1 TRP        -0.0768
     90 N         -32.0820  -63.8850  -28.1690 N.am      1 LEU        -0.2636
     91 CA        -31.3800  -62.7630  -28.8310 C.3       1 LEU         0.1312
     92 C         -30.0700  -63.0510  -29.0500 C.2       1 LEU         0.2040
     93 O         -29.5000  -63.8600  -28.3610 O.2       1 LEU        -0.3944
     94 CB        -31.4980  -61.4740  -28.0320 C.3       1 LEU        -0.0101
     95 CG        -32.9570  -61.1150  -27.9330 C.3       1 LEU        -0.0425
     96 CD1       -33.1260  -59.8620  -27.1290 C.3       1 LEU        -0.0625
     97 CD2       -33.4990  -60.8760  -29.3170 C.3       1 LEU        -0.0625
     98 N         -29.3800  -62.4090  -30.0270 N.am      1 SER        -0.2616
     99 CA        -27.9840  -62.7280  -30.2880 C.3       1 SER         0.1538
    100 C         -27.0840  -62.1460  -29.4350 C.2       1 SER         0.2041
    101 O         -26.0110  -62.7040  -29.3020 O.2       1 SER        -0.3944
    102 CB        -27.6100  -62.4440  -31.7140 C.3       1 SER         0.0843
    103 OG        -27.3530  -61.0800  -31.9010 O.3       1 SER        -0.3903
    104 N         -27.3260  -60.9740  -28.7270 N.am      1 BAL        -0.2827
    105 CB        -26.2750  -60.4670  -27.8190 C.3       1 BAL         0.0477
    106 CA        -26.5370  -59.1360  -27.1420 C.3       1 BAL         0.0574
    107 C         -25.3430  -58.4470  -27.0060 C.2       1 BAL         0.1779
    108 O         -24.5540  -58.3850  -27.9240 O.2       1 BAL        -0.3970
    109 H1        -22.3966  -50.3554  -24.5261 H         1 ACE         0.0467
    110 H2        -21.3753  -51.8303  -24.6158 H         1 ACE         0.0467
    111 H3        -21.2022  -50.7009  -23.2298 H         1 ACE         0.0467
    112 H4        -24.3051  -50.7859  -24.0901 H         1 PH8         0.1882
    113 H5        -24.9935  -52.7341  -21.9290 H         1 PH8         0.0800
    114 H6        -26.1722  -50.2900  -23.2958 H         1 PH8         0.0314
    115 H7        -25.2697  -50.3000  -21.7427 H         1 PH8         0.0314
    116 H8        -27.0561  -51.1049  -20.6302 H         1 PH8         0.0289
    117 H9        -27.3522  -52.3605  -21.8802 H         1 PH8         0.0289
    118 H10       -27.6264  -49.6089  -22.9512 H         1 PH8         0.0426
    119 H11       -28.8019  -50.9654  -23.0206 H         1 PH8         0.0426
    120 H12       -30.3947  -48.8265  -18.2175 H         1 PH8         0.0559
    121 H13       -30.1382  -51.5003  -21.4709 H         1 PH8         0.0557
    122 H14       -27.2965  -48.3860  -21.0201 H         1 PH8         0.0557
    123 H15       -31.2747  -50.7750  -19.3852 H         1 PH8         0.0599
    124 H16       -28.4006  -47.6209  -18.9422 H         1 PH8         0.0599
    125 H17       -26.9734  -53.7124  -22.1721 H         1 ORN         0.1883
    126 H18       -27.7349  -54.5841  -24.9166 H         1 ORN         0.0800
    127 H19       -27.8446  -56.8754  -23.7897 H         1 ORN         0.0313
    128 H20       -27.0072  -56.1244  -22.3892 H         1 ORN         0.0313
    129 H21       -25.0100  -56.1654  -23.4204 H         1 ORN         0.0287
    130 H22       -25.6993  -55.6139  -24.9848 H         1 ORN         0.0287
    131 H23       -26.8090  -58.0550  -24.9003 H         1 ORN         0.0520
    132 H24       -25.3630  -58.3867  -23.8873 H         1 ORN         0.0520
    133 H25       -24.0665  -57.3632  -25.8455 H         1 ORN         0.1850
    134 H26       -29.7746  -55.2362  -25.2497 H         1 LEU         0.1883
    135 H27       -31.5458  -54.7480  -22.8880 H         1 LEU         0.0800
    136 H28       -33.3115  -54.3194  -24.4445 H         1 LEU         0.0315
    137 H29       -32.3647  -54.9855  -25.8180 H         1 LEU         0.0315
    138 H30       -30.6747  -53.1194  -25.4134 H         1 LEU         0.0298
    139 H31       -32.0638  -51.3803  -26.5016 H         1 LEU         0.0232
    140 H32       -33.5493  -52.2856  -26.0545 H         1 LEU         0.0232
    141 H33       -32.3778  -52.9988  -27.2145 H         1 LEU         0.0232
    142 H34       -31.3843  -52.5594  -23.0974 H         1 LEU         0.0232
    143 H35       -32.9796  -52.0222  -23.7243 H         1 LEU         0.0232
    144 H36       -31.4881  -51.1333  -24.1846 H         1 LEU         0.0232
    145 H37       -31.4981  -56.7422  -21.8642 H         1 GLU         0.1883
    146 H38       -31.5686  -59.0777  -23.6811 H         1 GLU         0.0801
    147 H39       -30.9227  -60.3644  -21.7429 H         1 GLU         0.0330
    148 H40       -31.3012  -58.9973  -20.6408 H         1 GLU         0.0330
    149 H41       -29.6135  -57.6213  -21.9720 H         1 GLU         0.0433
    150 H42       -29.1225  -59.1545  -22.7687 H         1 GLU         0.0433
    151 H43       -33.6726  -58.6201  -24.4546 H         1 TYR         0.1885
    152 H44       -35.7512  -58.9005  -22.3784 H         1 TYR         0.0821
    153 H45       -37.2177  -58.2762  -24.2969 H         1 TYR         0.0453
    154 H46       -35.7617  -58.2501  -25.3486 H         1 TYR         0.0453
    155 H47       -35.3444  -57.0460  -21.9658 H         1 TYR         0.0530
    156 H48       -36.4665  -56.1182  -25.9397 H         1 TYR         0.0530
    157 H49       -35.0469  -54.6658  -21.5000 H         1 TYR         0.0525
    158 H50       -36.1582  -53.7402  -25.4866 H         1 TYR         0.0525
    159 H51       -35.1263  -52.6389  -22.2987 H         1 TYR         0.2458
    160 H52       -34.2697  -60.7790  -24.9414 H         1 ZCL         0.1885
    161 H53       -40.3216  -61.4796  -25.3331 H         1 ZCL         0.0606
    162 H54       -38.4099  -63.0013  -25.2656 H         1 ZCL         0.0559
    163 H55       -36.1463  -60.1901  -27.5140 H         1 ZCL         0.0562
    164 H56       -35.3428  -62.2597  -27.0853 H         1 ZCL         0.0474
    165 H57       -36.4445  -63.5794  -26.5643 H         1 ZCL         0.0474
    166 H58       -36.2239  -62.9158  -24.2425 H         1 ZCL         0.0823
    167 H59       -35.2857  -65.0799  -24.5822 H         1 GLU         0.1883
    168 H60       -32.4406  -64.7259  -23.9681 H         1 GLU         0.0801
    169 H61       -34.1328  -67.2498  -23.9767 H         1 GLU         0.0330
    170 H62       -33.8402  -66.1733  -22.5688 H         1 GLU         0.0330
    171 H63       -31.5309  -67.3284  -24.1647 H         1 GLU         0.0433
    172 H64       -32.3404  -68.2943  -22.8848 H         1 GLU         0.0433
    173 H65       -34.2679  -65.4826  -26.7756 H         1 TRP         0.1884
    174 H66       -32.0103  -67.0332  -27.8214 H         1 TRP         0.0815
    175 H67       -34.1815  -67.6338  -28.6199 H         1 TRP         0.0397
    176 H68       -33.2926  -66.8683  -29.9803 H         1 TRP         0.0397
    177 H69       -36.3143  -66.3627  -27.7204 H         1 TRP         0.0795
    178 H70       -37.6917  -64.4284  -28.6756 H         1 TRP         0.2216
    179 H71       -33.1000  -64.9310  -31.0559 H         1 TRP         0.0540
    180 H72       -37.3051  -62.6127  -30.6007 H         1 TRP         0.0541
    181 H73       -33.5749  -63.0437  -32.5737 H         1 TRP         0.0510
    182 H74       -35.7280  -61.8489  -32.3174 H         1 TRP         0.0530
    183 H75       -32.6447  -63.6920  -27.3652 H         1 LEU         0.1883
    184 H76       -31.8595  -62.6012  -29.8077 H         1 LEU         0.0800
    185 H77       -30.9498  -60.6681  -28.5419 H         1 LEU         0.0315
    186 H78       -31.0813  -61.6206  -27.0246 H         1 LEU         0.0315
    187 H79       -33.5069  -61.9384  -27.4538 H         1 LEU         0.0298
    188 H80       -34.1947  -59.6098  -27.0635 H         1 LEU         0.0232
    189 H81       -32.5840  -59.0379  -27.6159 H         1 LEU         0.0232
    190 H82       -32.7235  -60.0184  -26.1173 H         1 LEU         0.0232
    191 H83       -33.3814  -61.7888  -29.9195 H         1 LEU         0.0232
    192 H84       -32.9462  -60.0509  -29.7899 H         1 LEU         0.0232
    193 H85       -34.5654  -60.6138  -29.2530 H         1 LEU         0.0232
    194 H86       -29.8367  -61.7078  -30.5745 H         1 SER         0.1884
    195 H87       -27.8886  -63.8140  -30.1415 H         1 SER         0.0823
    196 H88       -28.4383  -62.7478  -32.3710 H         1 SER         0.0606
    197 H89       -26.7082  -63.0189  -31.9712 H         1 SER         0.0606
    198 H90       -27.1189  -60.9245  -32.8085 H         1 SER         0.2097
    199 H91       -28.1920  -60.4847  -28.8297 H         1 BAL         0.1853
    200 H92       -26.1275  -61.2183  -27.0292 H         1 BAL         0.0545
    201 H93       -25.3500  -60.3651  -28.4055 H         1 BAL         0.0545
    202 H94       -26.9759  -59.3095  -26.1484 H         1 BAL         0.0522
    203 H95       -27.2347  -58.5444  -27.7529 H         1 BAL         0.0522
@<TRIPOS>BOND
     1    1    2 2  
     2    1    3 1  
     3    4    6 2  
     4    4    7 1  
     5    7    5 1  
     6    7    8 1  
     7    8   10 1  
     8   11    9 1  
     9    9   13 ar 
    10    9   14 ar 
    11   10   11 1  
    12   15   12 ar 
    13   16   12 ar 
    14   13   15 ar 
    15   14   16 ar 
    16    5    1 am 
    17   18   17 1  
    18   18   19 1  
    19   23   18 1  
    20   23   24 2  
    21   19   20 1  
    22   20   21 1  
    23   21   22 1  
    24   17    4 am 
    25   26   25 1  
    26   26   29 1  
    27   27   26 1  
    28   27   28 2  
    29   29   30 1  
    30   30   31 1  
    31   30   32 1  
    32   25   23 am 
    33   34   33 1  
    34   34   37 1  
    35   35   34 1  
    36   35   36 2  
    37   37   38 1  
    38   38   39 1  
    39   39   41 ar 
    40   39   40 ar 
    41   33   27 am 
    42   43   42 1  
    43   43   46 1  
    44   44   43 1  
    45   44   45 2  
    46   46   47 1  
    47   47   48 ar 
    48   47   49 ar 
    49   49   51 ar 
    50   51   52 ar 
    51   52   53 1  
    52   50   52 ar 
    53   48   50 ar 
    54   42   35 am 
    55   66   54 1  
    56   63   55 2  
    57   64   56 1  
    58   60   57 ar 
    59   57   64 ar 
    60   58   59 1  
    61   61   58 ar 
    62   58   64 ar 
    63   65   60 ar 
    64   65   61 ar 
    65   62   65 1  
    66   66   62 1  
    67   63   66 1  
    68   54   44 am 
    69   68   67 1  
    70   68   71 1  
    71   69   68 1  
    72   69   70 2  
    73   71   72 1  
    74   72   73 1  
    75   73   75 ar 
    76   73   74 ar 
    77   67   63 am 
    78   77   76 1  
    79   77   80 1  
    80   78   77 1  
    81   78   79 2  
    82   80   81 1  
    83   81   82 2  
    84   81   83 1  
    85   83   86 ar 
    86   83   85 ar 
    87   85   87 ar 
    88   85   84 1  
    89   82   84 1  
    90   87   89 ar 
    91   88   89 ar 
    92   86   88 ar 
    93   76   69 am 
    94   91   90 1  
    95   91   94 1  
    96   92   91 1  
    97   92   93 2  
    98   94   95 1  
    99   95   96 1  
   100   95   97 1  
   101   90   78 am 
   102   99   98 1  
   103   99  102 1  
   104  100   99 1  
   105  100  101 2  
   106  102  103 1  
   107   98   92 am 
   108  105  106 1  
   109  104  105 1  
   110  106  107 1  
   111  107  108 2  
   112  100  104 am 
   113  107   22 am 
   114    3  109 1  
   115    3  110 1  
   116    3  111 1  
   117    5  112 1  
   118    7  113 1  
   119    8  114 1  
   120    8  115 1  
   121   10  116 1  
   122   10  117 1  
   123   11  118 1  
   124   11  119 1  
   125   12  120 1  
   126   13  121 1  
   127   14  122 1  
   128   15  123 1  
   129   16  124 1  
   130   17  125 1  
   131   18  126 1  
   132   19  127 1  
   133   19  128 1  
   134   20  129 1  
   135   20  130 1  
   136   21  131 1  
   137   21  132 1  
   138   22  133 1  
   139   25  134 1  
   140   26  135 1  
   141   29  136 1  
   142   29  137 1  
   143   30  138 1  
   144   31  139 1  
   145   31  140 1  
   146   31  141 1  
   147   32  142 1  
   148   32  143 1  
   149   32  144 1  
   150   33  145 1  
   151   34  146 1  
   152   37  147 1  
   153   37  148 1  
   154   38  149 1  
   155   38  150 1  
   156   42  151 1  
   157   43  152 1  
   158   46  153 1  
   159   46  154 1  
   160   48  155 1  
   161   49  156 1  
   162   50  157 1  
   163   51  158 1  
   164   53  159 1  
   165   54  160 1  
   166   57  161 1  
   167   60  162 1  
   168   61  163 1  
   169   62  164 1  
   170   62  165 1  
   171   66  166 1  
   172   67  167 1  
   173   68  168 1  
   174   71  169 1  
   175   71  170 1  
   176   72  171 1  
   177   72  172 1  
   178   76  173 1  
   179   77  174 1  
   180   80  175 1  
   181   80  176 1  
   182   82  177 1  
   183   84  178 1  
   184   86  179 1  
   185   87  180 1  
   186   88  181 1  
   187   89  182 1  
   188   90  183 1  
   189   91  184 1  
   190   94  185 1  
   191   94  186 1  
   192   95  187 1  
   193   96  188 1  
   194   96  189 1  
   195   96  190 1  
   196   97  191 1  
   197   97  192 1  
   198   97  193 1  
   199   98  194 1  
   200   99  195 1  
   201  102  196 1  
   202  102  197 1  
   203  103  198 1  
   204  104  199 1  
   205  105  200 1  
   206  105  201 1  
   207  106  202 1  
   208  106  203 1  
@<TRIPOS>SUBSTRUCTURE
     1 ACE         1

