5w5s_ligand
  -I-interpret- 

204209  0  0  0  0  0  0  0  0999 V2000
  -22.9640  -51.9240  -23.1770 C   0  0  0  0  0
  -22.7010  -52.8650  -22.4430 O   0  0  0  0  0
  -21.9130  -51.1500  -23.9390 C   0  0  0  0  0
  -26.0760  -52.9260  -23.7800 C   0  0  0  0  0
  -24.1610  -51.5240  -23.4310 N   0  0  0  0  0
  -25.9720  -52.7200  -24.9630 O   0  0  0  0  0
  -25.2700  -52.1120  -22.7930 C   0  0  0  0  0
  -25.9190  -50.8880  -22.4080 C   0  0  0  0  0
  -28.7000  -49.9520  -21.3070 C   0  0  0  0  0
  -27.1230  -51.2980  -21.7110 C   0  0  0  0  0
  -28.1110  -50.4080  -22.3710 C   0  0  0  0  0
  -29.8860  -49.1620  -19.1140 C   0  0  0  0  0
  -29.7790  -50.6490  -20.9040 C   0  0  0  0  0
  -28.1800  -48.8890  -20.6440 C   0  0  0  0  0
  -30.4040  -50.2520  -19.7640 C   0  0  0  0  0
  -28.7780  -48.4650  -19.5080 C   0  0  0  0  0
  -26.9160  -53.7670  -23.1690 N   0  0  0  0  0
  -27.7530  -54.7540  -23.8300 C   0  0  0  0  0
  -27.1500  -56.0810  -23.4790 C   0  0  0  0  0
  -25.8220  -56.3160  -24.1470 C   0  0  0  0  0
  -25.7860  -57.7290  -24.6610 C   0  0  0  0  0
  -24.9630  -57.8060  -25.8610 N   0  0  0  0  0
  -29.0430  -54.7820  -23.4020 C   0  0  0  0  0
  -29.3270  -54.6050  -22.2410 O   0  0  0  0  0
  -30.0190  -55.0780  -24.2930 N   0  0  0  0  0
  -31.4080  -55.1710  -23.8940 C   0  0  0  0  0
  -31.6830  -56.5120  -23.8830 C   0  0  0  0  0
  -31.9150  -57.1050  -24.9080 O   0  0  0  0  0
  -32.3050  -54.4190  -24.8770 C   0  0  0  0  0
  -31.7420  -53.0290  -25.1630 C   0  0  0  0  0
  -32.4840  -52.3790  -26.3120 C   0  0  0  0  0
  -31.9100  -52.1240  -23.9600 C   0  0  0  0  0
  -31.6600  -57.2230  -22.7260 N   0  0  0  0  0
  -31.8650  -58.6710  -22.7030 C   0  0  0  0  0
  -33.1900  -58.9910  -22.5100 C   0  0  0  0  0
  -33.6290  -59.4170  -21.4610 O   0  0  0  0  0
  -30.9410  -59.2690  -21.6440 C   0  0  0  0  0
  -29.5470  -58.7130  -21.8550 C   0  0  0  0  0
  -28.6340  -59.0250  -20.6920 C   0  0  0  0  0
  -28.9940  -58.6750  -19.5720 O   0  0  0  0  0
  -27.5700  -59.5940  -20.9600 O   0  0  0  0  0
  -34.0400  -58.8710  -23.5590 N   0  0  0  0  0
  -35.4630  -59.0950  -23.4220 C   0  0  0  0  0
  -35.8720  -60.3740  -23.7430 C   0  0  0  0  0
  -36.8940  -60.8320  -23.2890 O   0  0  0  0  0
  -36.1340  -58.0900  -24.3260 C   0  0  0  0  0
  -35.9180  -56.7620  -23.9940 C   0  0  0  0  0
  -35.5250  -56.3230  -22.7530 C   0  0  0  0  0
  -36.1440  -55.8060  -24.9530 C   0  0  0  0  0
  -35.3560  -54.9810  -22.4900 C   0  0  0  0  0
  -35.9740  -54.4640  -24.7010 C   0  0  0  0  0
  -35.5730  -54.0380  -23.4620 C   0  0  0  0  0
  -35.4040  -52.7450  -23.2010 O   0  0  0  0  0
  -35.1190  -61.1590  -24.5750 N   0  0  0  0  0
  -33.2590  -62.7470  -25.0030 O   0  0  0  0  0
  -40.6350  -59.0500  -26.4220 Cl  0  0  0  0  0
  -39.3930  -61.1940  -25.8140 C   0  0  0  0  0
  -38.1400  -59.6040  -27.0660 C   0  0  0  0  0
  -37.9770  -58.1740  -27.8400 Cl  0  0  0  0  0
  -38.3280  -62.0480  -25.7750 C   0  0  0  0  0
  -37.0740  -60.4700  -27.0280 C   0  0  0  0  0
  -36.0960  -62.5600  -26.3420 C   0  0  0  0  0
  -34.3450  -63.2730  -24.8920 C   0  0  0  0  0
  -39.3100  -59.9860  -26.4480 C   0  0  0  0  0
  -37.1580  -61.6900  -26.3840 C   0  0  0  0  0
  -35.4870  -62.5220  -24.9580 C   0  0  0  0  0
  -34.3990  -64.6210  -24.6390 N   0  0  0  0  0
  -33.1710  -65.3910  -24.4520 C   0  0  0  0  0
  -32.6160  -65.8020  -25.6220 C   0  0  0  0  0
  -31.4590  -66.1370  -25.6390 O   0  0  0  0  0
  -33.4210  -66.5510  -23.5130 C   0  0  0  0  0
  -32.1100  -67.2760  -23.2310 C   0  0  0  0  0
  -31.2570  -66.5810  -22.1670 C   0  0  0  0  0
  -30.0910  -66.2850  -22.4860 O   0  0  0  0  0
  -31.7760  -66.3650  -21.0630 O   0  0  0  0  0
  -33.3150  -65.7860  -26.7800 N   0  0  0  0  0
  -32.7010  -66.2040  -28.0340 C   0  0  0  0  0
  -31.9910  -65.1840  -28.6160 C   0  0  0  0  0
  -31.2720  -65.4230  -29.5580 O   0  0  0  0  0
  -33.7670  -66.6900  -29.0040 C   0  0  0  0  0
  -34.9120  -65.7070  -29.1990 C   0  0  0  0  0
  -36.0330  -65.6860  -28.5260 C   0  0  0  0  0
  -34.9280  -64.7640  -30.0900 C   0  0  0  0  0
  -36.7530  -64.7040  -28.9980 N   0  0  0  0  0
  -36.0680  -64.1350  -29.9520 C   0  0  0  0  0
  -34.0410  -64.3980  -30.9820 C   0  0  0  0  0
  -36.3560  -63.1220  -30.7230 C   0  0  0  0  0
  -34.2950  -63.3460  -31.8220 C   0  0  0  0  0
  -35.4820  -62.6920  -31.6820 C   0  0  0  0  0
  -32.0820  -63.8850  -28.1690 N   0  0  0  0  0
  -31.3800  -62.7630  -28.8310 C   0  0  0  0  0
  -30.0700  -63.0510  -29.0500 C   0  0  0  0  0
  -29.5000  -63.8600  -28.3610 O   0  0  0  0  0
  -31.4980  -61.4740  -28.0320 C   0  0  0  0  0
  -32.9570  -61.1150  -27.9330 C   0  0  0  0  0
  -33.1260  -59.8620  -27.1290 C   0  0  0  0  0
  -33.4990  -60.8760  -29.3170 C   0  0  0  0  0
  -29.3800  -62.4090  -30.0270 N   0  0  0  0  0
  -27.9840  -62.7280  -30.2880 C   0  0  0  0  0
  -27.0840  -62.1460  -29.4350 C   0  0  0  0  0
  -26.0110  -62.7040  -29.3020 O   0  0  0  0  0
  -27.6100  -62.4440  -31.7140 C   0  0  0  0  0
  -27.3530  -61.0800  -31.9010 O   0  0  0  0  0
  -27.3260  -60.9740  -28.7270 N   0  0  0  0  0
  -26.2750  -60.4670  -27.8190 C   0  0  0  0  0
  -26.5370  -59.1360  -27.1420 C   0  0  0  0  0
  -25.3430  -58.4470  -27.0060 C   0  0  0  0  0
  -24.5540  -58.3850  -27.9240 O   0  0  0  0  0
  -21.2094  -50.7055  -23.2351 H   0  0  0  0  0
  -21.3809  -51.8252  -24.6091 H   0  0  0  0  0
  -22.3934  -50.3630  -24.5203 H   0  0  0  0  0
  -24.3080  -50.7712  -24.1033 H   0  0  0  0  0
  -25.0800  -52.8172  -21.9839 H   0  0  0  0  0
  -26.1477  -50.2652  -23.2728 H   0  0  0  0  0
  -25.2774  -50.2748  -21.7752 H   0  0  0  0  0
  -27.0754  -51.1962  -20.6268 H   0  0  0  0  0
  -27.3501  -52.3614  -21.7868 H   0  0  0  0  0
  -27.6861  -49.6490  -23.0279 H   0  0  0  0  0
  -28.7670  -50.8962  -23.0917 H   0  0  0  0  0
  -30.3975  -48.8246  -18.2125 H   0  0  0  0  0
  -30.1402  -51.5050  -21.4741 H   0  0  0  0  0
  -27.2916  -48.3832  -21.0222 H   0  0  0  0  0
  -31.2795  -50.7779  -19.3831 H   0  0  0  0  0
  -28.3985  -47.6163  -18.9390 H   0  0  0  0  0
  -26.9746  -53.7113  -22.1522 H   0  0  0  0  0
  -27.7840  -54.5142  -24.8928 H   0  0  0  0  0
  -27.8352  -56.8581  -23.8178 H   0  0  0  0  0
  -26.9882  -56.0985  -22.4012 H   0  0  0  0  0
  -25.0144  -56.1609  -23.4316 H   0  0  0  0  0
  -25.6939  -55.6173  -24.9737 H   0  0  0  0  0
  -26.8002  -58.0472  -24.9024 H   0  0  0  0  0
  -25.3614  -58.3772  -23.8945 H   0  0  0  0  0
  -24.0486  -57.3543  -25.8452 H   0  0  0  0  0
  -29.7697  -55.2394  -25.2688 H   0  0  0  0  0
  -31.5914  -54.7180  -22.9197 H   0  0  0  0  0
  -33.2982  -54.3147  -24.4401 H   0  0  0  0  0
  -32.3534  -54.9794  -25.8107 H   0  0  0  0  0
  -30.6869  -53.1555  -25.4054 H   0  0  0  0  0
  -32.3781  -52.9941  -27.2056 H   0  0  0  0  0
  -33.5394  -52.2871  -26.0556 H   0  0  0  0  0
  -32.0667  -51.3895  -26.4989 H   0  0  0  0  0
  -32.9695  -52.0327  -23.7207 H   0  0  0  0  0
  -31.3794  -52.5509  -23.1089 H   0  0  0  0  0
  -31.5015  -51.1394  -24.1878 H   0  0  0  0  0
  -31.4949  -56.7326  -21.8470 H   0  0  0  0  0
  -31.6081  -59.1037  -23.6699 H   0  0  0  0  0
  -30.9263  -60.3553  -21.7328 H   0  0  0  0  0
  -31.2989  -59.0094  -20.6477 H   0  0  0  0  0
  -29.6218  -57.6297  -21.9498 H   0  0  0  0  0
  -29.1282  -59.1714  -22.7509 H   0  0  0  0  0
  -27.5263  -59.7602  -21.9045 H   0  0  0  0  0
  -33.6653  -58.6151  -24.4725 H   0  0  0  0  0
  -35.7375  -58.9755  -22.3739 H   0  0  0  0  0
  -37.2071  -58.2627  -24.2443 H   0  0  0  0  0
  -35.7154  -58.2360  -25.3218 H   0  0  0  0  0
  -35.3434  -57.0500  -21.9614 H   0  0  0  0  0
  -36.4683  -56.1199  -25.9452 H   0  0  0  0  0
  -35.0452  -54.6641  -21.4945 H   0  0  0  0  0
  -36.1593  -53.7362  -25.4910 H   0  0  0  0  0
  -35.1234  -52.6378  -22.2892 H   0  0  0  0  0
  -34.2527  -60.7714  -24.9487 H   0  0  0  0  0
  -40.3267  -61.4811  -25.3305 H   0  0  0  0  0
  -38.4104  -63.0066  -25.2627 H   0  0  0  0  0
  -36.1412  -60.1886  -27.5167 H   0  0  0  0  0
  -35.3502  -62.2675  -27.0812 H   0  0  0  0  0
  -36.4378  -63.5703  -26.5668 H   0  0  0  0  0
  -36.2469  -62.9198  -24.2854 H   0  0  0  0  0
  -35.3034  -65.0890  -24.5810 H   0  0  0  0  0
  -32.4372  -64.7245  -23.9989 H   0  0  0  0  0
  -34.1249  -67.2438  -23.9742 H   0  0  0  0  0
  -33.8346  -66.1754  -22.5771 H   0  0  0  0  0
  -31.5352  -67.2937  -24.1570 H   0  0  0  0  0
  -32.3548  -68.2717  -22.8611 H   0  0  0  0  0
  -29.9299  -66.5560  -23.3928 H   0  0  0  0  0
  -34.2869  -65.4766  -26.7755 H   0  0  0  0  0
  -32.0104  -67.0154  -27.8040 H   0  0  0  0  0
  -34.1906  -67.6052  -28.5904 H   0  0  0  0  0
  -33.2872  -66.8272  -29.9730 H   0  0  0  0  0
  -36.3146  -66.3633  -27.7197 H   0  0  0  0  0
  -33.0948  -64.9340  -31.0563 H   0  0  0  0  0
  -37.3103  -62.6099  -30.6000 H   0  0  0  0  0
  -33.5709  -63.0420  -32.5779 H   0  0  0  0  0
  -35.7293  -61.8442  -32.3209 H   0  0  0  0  0
  -32.6560  -63.6882  -27.3491 H   0  0  0  0  0
  -31.8690  -62.6173  -29.7942 H   0  0  0  0  0
  -30.9476  -60.6740  -28.5272 H   0  0  0  0  0
  -31.0768  -61.6102  -27.0359 H   0  0  0  0  0
  -33.4925  -61.9317  -27.4489 H   0  0  0  0  0
  -32.7268  -60.0183  -26.1268 H   0  0  0  0  0
  -32.5885  -59.0463  -27.6125 H   0  0  0  0  0
  -34.1853  -59.6131  -27.0648 H   0  0  0  0  0
  -32.9500  -60.0587  -29.7847 H   0  0  0  0  0
  -33.3826  -61.7813  -29.9128 H   0  0  0  0  0
  -34.5554  -60.6155  -29.2521 H   0  0  0  0  0
  -29.8458  -61.6938  -30.5855 H   0  0  0  0  0
  -27.9160  -63.7992  -30.0980 H   0  0  0  0  0
  -28.4389  -62.7362  -32.3587 H   0  0  0  0  0
  -26.7095  -63.0072  -31.9591 H   0  0  0  0  0
  -27.1165  -60.9229  -32.8180 H   0  0  0  0  0
  -28.2094  -60.4749  -28.8318 H   0  0  0  0  0
  -26.1955  -61.1997  -27.0160 H   0  0  0  0  0
  -25.3913  -60.3174  -28.4394 H   0  0  0  0  0
  -26.9728  -59.3075  -26.1577 H   0  0  0  0  0
  -27.2291  -58.5498  -27.7465 H   0  0  0  0  0
  1  2  2  0  0  0
  1  3  1  0  0  0
  4  6  2  0  0  0
  4  7  1  0  0  0
  7  5  1  0  0  0
  7  8  1  0  0  0
  8 10  1  0  0  0
 11  9  1  0  0  0
  9 13  4  0  0  0
  9 14  4  0  0  0
 10 11  1  0  0  0
 15 12  4  0  0  0
 16 12  4  0  0  0
 13 15  4  0  0  0
 14 16  4  0  0  0
  5  1  1  0  0  0
 18 17  1  0  0  0
 18 19  1  0  0  0
 23 18  1  0  0  0
 23 24  2  0  0  0
 19 20  1  0  0  0
 20 21  1  0  0  0
 21 22  1  0  0  0
 17  4  1  0  0  0
 26 25  1  0  0  0
 26 29  1  0  0  0
 27 26  1  0  0  0
 27 28  2  0  0  0
 29 30  1  0  0  0
 30 31  1  0  0  0
 30 32  1  0  0  0
 25 23  1  0  0  0
 34 33  1  0  0  0
 34 37  1  0  0  0
 35 34  1  0  0  0
 35 36  2  0  0  0
 37 38  1  0  0  0
 38 39  1  0  0  0
 39 41  1  0  0  0
 39 40  2  0  0  0
 33 27  1  0  0  0
 43 42  1  0  0  0
 43 46  1  0  0  0
 44 43  1  0  0  0
 44 45  2  0  0  0
 46 47  1  0  0  0
 47 48  4  0  0  0
 47 49  4  0  0  0
 49 51  4  0  0  0
 51 52  4  0  0  0
 52 53  1  0  0  0
 50 52  4  0  0  0
 48 50  4  0  0  0
 42 35  1  0  0  0
 66 54  1  0  0  0
 63 55  2  0  0  0
 64 56  1  0  0  0
 60 57  4  0  0  0
 57 64  4  0  0  0
 58 59  1  0  0  0
 61 58  4  0  0  0
 58 64  4  0  0  0
 65 60  4  0  0  0
 65 61  4  0  0  0
 62 65  1  0  0  0
 66 62  1  0  0  0
 63 66  1  0  0  0
 54 44  1  0  0  0
 68 67  1  0  0  0
 68 71  1  0  0  0
 69 68  1  0  0  0
 69 70  2  0  0  0
 71 72  1  0  0  0
 72 73  1  0  0  0
 73 75  2  0  0  0
 73 74  1  0  0  0
 67 63  1  0  0  0
 77 76  1  0  0  0
 77 80  1  0  0  0
 78 77  1  0  0  0
 78 79  2  0  0  0
 80 81  1  0  0  0
 81 82  4  0  0  0
 81 83  4  0  0  0
 83 86  4  0  0  0
 83 85  4  0  0  0
 85 87  4  0  0  0
 85 84  4  0  0  0
 82 84  4  0  0  0
 87 89  4  0  0  0
 88 89  4  0  0  0
 86 88  4  0  0  0
 76 69  1  0  0  0
 91 90  1  0  0  0
 91 94  1  0  0  0
 92 91  1  0  0  0
 92 93  2  0  0  0
 94 95  1  0  0  0
 95 96  1  0  0  0
 95 97  1  0  0  0
 90 78  1  0  0  0
 99 98  1  0  0  0
 99102  1  0  0  0
100 99  1  0  0  0
100101  2  0  0  0
102103  1  0  0  0
 98 92  1  0  0  0
105106  1  0  0  0
104105  1  0  0  0
106107  1  0  0  0
107108  2  0  0  0
100104  1  0  0  0
107 22  1  0  0  0
  3109  1  0  0  0
  3110  1  0  0  0
  3111  1  0  0  0
  5112  1  0  0  0
  7113  1  0  0  0
  8114  1  0  0  0
  8115  1  0  0  0
 10116  1  0  0  0
 10117  1  0  0  0
 11118  1  0  0  0
 11119  1  0  0  0
 12120  1  0  0  0
 13121  1  0  0  0
 14122  1  0  0  0
 15123  1  0  0  0
 16124  1  0  0  0
 17125  1  0  0  0
 18126  1  0  0  0
 19127  1  0  0  0
 19128  1  0  0  0
 20129  1  0  0  0
 20130  1  0  0  0
 21131  1  0  0  0
 21132  1  0  0  0
 22133  1  0  0  0
 25134  1  0  0  0
 26135  1  0  0  0
 29136  1  0  0  0
 29137  1  0  0  0
 30138  1  0  0  0
 31139  1  0  0  0
 31140  1  0  0  0
 31141  1  0  0  0
 32142  1  0  0  0
 32143  1  0  0  0
 32144  1  0  0  0
 33145  1  0  0  0
 34146  1  0  0  0
 37147  1  0  0  0
 37148  1  0  0  0
 38149  1  0  0  0
 38150  1  0  0  0
 41151  1  0  0  0
 42152  1  0  0  0
 43153  1  0  0  0
 46154  1  0  0  0
 46155  1  0  0  0
 48156  1  0  0  0
 49157  1  0  0  0
 50158  1  0  0  0
 51159  1  0  0  0
 53160  1  0  0  0
 54161  1  0  0  0
 57162  1  0  0  0
 60163  1  0  0  0
 61164  1  0  0  0
 62165  1  0  0  0
 62166  1  0  0  0
 66167  1  0  0  0
 67168  1  0  0  0
 68169  1  0  0  0
 71170  1  0  0  0
 71171  1  0  0  0
 72172  1  0  0  0
 72173  1  0  0  0
 74174  1  0  0  0
 76175  1  0  0  0
 77176  1  0  0  0
 80177  1  0  0  0
 80178  1  0  0  0
 82179  1  0  0  0
 86180  1  0  0  0
 87181  1  0  0  0
 88182  1  0  0  0
 89183  1  0  0  0
 90184  1  0  0  0
 91185  1  0  0  0
 94186  1  0  0  0
 94187  1  0  0  0
 95188  1  0  0  0
 96189  1  0  0  0
 96190  1  0  0  0
 96191  1  0  0  0
 97192  1  0  0  0
 97193  1  0  0  0
 97194  1  0  0  0
 98195  1  0  0  0
 99196  1  0  0  0
102197  1  0  0  0
102198  1  0  0  0
103199  1  0  0  0
104200  1  0  0  0
105201  1  0  0  0
105202  1  0  0  0
106203  1  0  0  0
106204  1  0  0  0
M  END
$$$$
