5tca_ligand
  -I-interpret- 

 46 49  0  0  0  0  0  0  0  0999 V2000
   38.8930   23.7340   75.4770 O   0  0  0  0  0
   37.6930   23.6730   75.7590 C   0  0  0  0  0
   36.7320   24.4460   75.1970 N   0  0  0  0  0
   36.8600   25.3480   74.1310 C   0  0  0  0  0
   35.7280   25.5150   73.4350 N   0  0  0  0  0
   38.0560   25.9920   73.8050 C   0  0  0  0  0
   38.0670   26.8150   72.6940 C   0  0  0  0  0
   36.9180   26.9870   71.9450 C   0  0  0  0  0
   35.7900   26.3150   72.3790 C   0  0  0  0  0
   34.1610   26.5360   71.4020 Br  0  0  0  0  0
   37.1140   22.6600   76.8020 C   0  0  0  0  0
   37.8700   21.3650   76.6840 N   0  0  0  0  0
   38.4670   20.9700   77.9720 C   0  0  0  0  0
   38.8600   22.2190   78.6960 C   0  0  0  0  0
   37.4030   23.2700   78.4890 S   0  0  0  0  0
   38.0400   20.6930   75.5180 C   0  0  0  0  0
   37.4550   21.0170   74.4940 O   0  0  0  0  0
   38.9880   19.4930   75.5350 C   0  0  0  0  0
   39.0170   18.8950   74.2220 N   0  0  0  0  0
   39.8550   19.1900   73.2050 C   0  0  0  0  0
   40.9110   20.0100   73.1410 N   0  0  0  0  0
   41.5350   20.0560   71.9560 C   0  0  0  0  0
   41.1390   19.3280   70.8470 C   0  0  0  0  0
   40.0430   18.4820   70.9480 C   0  0  0  0  0
   39.3600   18.3830   72.1600 C   0  0  0  0  0
   38.2330   17.6130   72.6330 C   0  0  0  0  0
   38.0740   17.9730   73.9040 N   0  0  0  0  0
   37.4510   16.6300   71.9050 C   0  0  0  0  0
   37.5590   16.5110   70.6740 O   0  0  0  0  0
   36.6280   15.8870   72.6390 N   0  0  0  0  0
   35.7988   24.3610   75.5999 H   0  0  0  0  0
   38.9529   25.8501   74.4079 H   0  0  0  0  0
   38.9843   27.3296   72.4080 H   0  0  0  0  0
   36.9019   27.6199   71.0577 H   0  0  0  0  0
   36.0481   22.5339   76.6124 H   0  0  0  0  0
   39.3395   20.3379   77.8067 H   0  0  0  0  0
   37.7498   20.4000   78.5626 H   0  0  0  0  0
   39.7707   22.6708   78.3028 H   0  0  0  0  0
   39.1138   22.0436   79.7414 H   0  0  0  0  0
   38.6396   18.7609   76.2635 H   0  0  0  0  0
   39.9902   19.8215   75.8103 H   0  0  0  0  0
   42.4056   20.7048   71.8596 H   0  0  0  0  0
   41.6813   19.4180   69.9058 H   0  0  0  0  0
   39.7184   17.8991   70.0860 H   0  0  0  0  0
   36.0463   15.1778   72.1928 H   0  0  0  0  0
   36.5783   16.0263   73.6482 H   0  0  0  0  0
  1  2  2  0  0  0
  2  3  1  0  0  0
  2 11  1  0  0  0
  3  4  1  0  0  0
  4  5  4  0  0  0
  4  6  4  0  0  0
  5  9  4  0  0  0
  6  7  4  0  0  0
  7  8  4  0  0  0
  8  9  4  0  0  0
  9 10  1  0  0  0
 11 12  1  0  0  0
 11 15  1  0  0  0
 12 13  1  0  0  0
 12 16  1  0  0  0
 13 14  1  0  0  0
 14 15  1  0  0  0
 16 17  2  0  0  0
 16 18  1  0  0  0
 18 19  1  0  0  0
 19 20  4  0  0  0
 19 27  4  0  0  0
 20 21  4  0  0  0
 20 25  4  0  0  0
 21 22  4  0  0  0
 22 23  4  0  0  0
 23 24  4  0  0  0
 24 25  4  0  0  0
 25 26  4  0  0  0
 26 27  4  0  0  0
 26 28  1  0  0  0
 28 29  2  0  0  0
 28 30  1  0  0  0
  3 31  1  0  0  0
  6 32  1  0  0  0
  7 33  1  0  0  0
  8 34  1  0  0  0
 11 35  1  0  0  0
 13 36  1  0  0  0
 13 37  1  0  0  0
 14 38  1  0  0  0
 14 39  1  0  0  0
 18 40  1  0  0  0
 18 41  1  0  0  0
 22 42  1  0  0  0
 23 43  1  0  0  0
 24 44  1  0  0  0
 30 45  1  0  0  0
 30 46  1  0  0  0
M  END
$$$$
