3p2k_ligand
  -I-interpret- 

 51 53  0  0  0  0  0  0  0  0999 V2000
    9.6750   -5.6230    2.9260 N   0  3  0  0  0
    9.6010   -4.8190    1.6890 C   0  0  0  0  0
   10.9750   -4.4130    1.2720 C   0  0  0  0  0
   11.9340   -4.6880    2.0130 O   0  0  0  0  0
   11.1170   -3.7580    0.2320 O   0  0  0  0  0
    9.0650   -3.4510    1.9950 C   0  0  0  0  0
    8.2430   -3.2970    3.2430 C   0  0  0  0  0
    7.4900   -1.6460    3.1610 S   0  0  0  0  0
    8.8630   -0.6120    3.7110 C   0  0  0  0  0
    6.7190   -1.8550    4.7660 C   0  0  0  0  0
    5.8630   -3.0910    4.6040 C   0  0  0  0  0
    5.6730   -3.6010    5.8940 O   0  0  0  0  0
    4.4910   -2.7280    4.0330 C   0  0  0  0  0
    4.1530   -3.5090    2.9020 O   0  0  0  0  0
    3.5100   -3.0430    5.1370 C   0  0  0  0  0
    2.4540   -3.7810    4.5880 O   0  0  0  0  0
    4.3210   -3.9890    5.9750 C   0  0  0  0  0
    3.8530   -4.0820    7.3460 N   0  0  0  0  0
    3.8330   -3.1450    8.3340 C   0  0  0  0  0
    3.2990   -3.7260    9.4600 N   0  0  0  0  0
    2.9980   -5.0240    9.1770 C   0  0  0  0  0
    2.4620   -6.0640    9.9240 C   0  0  0  0  0
    2.1240   -5.8990   11.2020 N   0  0  0  0  0
    2.2770   -7.2950    9.3420 N   0  0  0  0  0
    2.6320   -7.4950    8.0240 C   0  0  0  0  0
    3.1700   -6.4640    7.2750 N   0  0  0  0  0
    3.3540   -5.2530    7.8530 C   0  0  0  0  0
   10.0402   -6.5497    2.7064 H   0  0  0  0  0
   10.2934   -5.1619    3.5933 H   0  0  0  0  0
    8.7423   -5.7106    3.3294 H   0  0  0  0  0
    9.0286   -5.4153    0.9785 H   0  0  0  0  0
   11.6211   -5.1986    2.7633 H   0  0  0  0  0
    8.3975   -3.2039    1.1694 H   0  0  0  0  0
    9.9396   -2.8162    2.1373 H   0  0  0  0  0
    8.8620   -3.4007    4.1342 H   0  0  0  0  0
    7.4795   -4.0723    3.3065 H   0  0  0  0  0
    9.1572   -0.9066    4.7184 H   0  0  0  0  0
    9.7067   -0.7396    3.0328 H   0  0  0  0  0
    8.5515    0.4325    3.7129 H   0  0  0  0  0
    6.1339   -0.9834    5.0594 H   0  0  0  0  0
    7.4523   -1.9628    5.5652 H   0  0  0  0  0
    6.3427   -3.8009    3.9302 H   0  0  0  0  0
    4.4822   -1.6857    3.7141 H   0  0  0  0  0
    3.2875   -3.2463    2.5802 H   0  0  0  0  0
    3.1099   -2.1720    5.6560 H   0  0  0  0  0
    1.8193   -3.9906    5.2771 H   0  0  0  0  0
    4.2045   -4.9984    5.5804 H   0  0  0  0  0
    4.1795   -2.1152    8.2474 H   0  0  0  0  0
    2.2574   -4.9934   11.6520 H   0  0  0  0  0
    1.7318   -6.6783   11.7305 H   0  0  0  0  0
    2.4872   -8.4746    7.5686 H   0  0  0  0  0
  1  2  1  0  0  0
  2  3  1  0  0  0
  2  6  1  0  0  0
  3  4  1  0  0  0
  3  5  2  0  0  0
  6  7  1  0  0  0
  7  8  1  0  0  0
  8  9  1  0  0  0
  8 10  1  0  0  0
 10 11  1  0  0  0
 11 12  1  0  0  0
 11 13  1  0  0  0
 12 17  1  0  0  0
 13 14  1  0  0  0
 13 15  1  0  0  0
 15 16  1  0  0  0
 15 17  1  0  0  0
 17 18  1  0  0  0
 18 19  4  0  0  0
 18 27  4  0  0  0
 19 20  4  0  0  0
 20 21  4  0  0  0
 21 22  4  0  0  0
 21 27  4  0  0  0
 22 23  1  0  0  0
 22 24  4  0  0  0
 24 25  4  0  0  0
 25 26  4  0  0  0
 26 27  4  0  0  0
  1 28  1  0  0  0
  1 29  1  0  0  0
  1 30  1  0  0  0
  2 31  1  0  0  0
  4 32  1  0  0  0
  6 33  1  0  0  0
  6 34  1  0  0  0
  7 35  1  0  0  0
  7 36  1  0  0  0
  9 37  1  0  0  0
  9 38  1  0  0  0
  9 39  1  0  0  0
 10 40  1  0  0  0
 10 41  1  0  0  0
 11 42  1  0  0  0
 13 43  1  0  0  0
 14 44  1  0  0  0
 15 45  1  0  0  0
 16 46  1  0  0  0
 17 47  1  0  0  0
 19 48  1  0  0  0
 23 49  1  0  0  0
 23 50  1  0  0  0
 25 51  1  0  0  0
M  END
$$$$
