3lbk_ligand
  -I-interpret- 

 48 52  0  0  0  0  0  0  0  0999 V2000
   19.3890   15.1240    3.3630 C   0  0  0  0  0
   19.8380   13.7230    4.2620 Cl  0  0  0  0  0
   19.6630   16.3950    3.7780 C   0  0  0  0  0
   19.2800   17.4870    3.0140 C   0  0  0  0  0
   18.6040   17.2920    1.8150 C   0  0  0  0  0
   18.3430   15.9980    1.4010 C   0  0  0  0  0
   18.7350   14.9180    2.1640 C   0  0  0  0  0
   17.7030   16.0300    0.2640 N   0  0  0  0  0
   17.5480   17.2960   -0.1130 C   0  0  0  0  0
   16.8080   17.5960   -1.4360 C   0  0  0  0  0
   16.1340   16.6590   -1.9010 O   0  0  0  0  0
   16.8590   18.7050   -1.9680 O   0  0  0  0  0
   18.0530   18.1340    0.8610 C   0  0  0  0  0
   18.1610   19.5260    0.9100 C   0  0  0  0  0
   17.5110   20.4480    1.7510 C   0  0  0  0  0
   16.5290   20.2190    2.7060 C   0  0  0  0  0
   16.5750   20.9180    3.8990 C   0  0  0  0  0
   15.6070   20.7620    4.8740 C   0  0  0  0  0
   14.5390   19.9150    4.6420 C   0  0  0  0  0
   14.4720   19.2340    3.4340 C   0  0  0  0  0
   15.4610   19.3910    2.4730 C   0  0  0  0  0
   17.9720   21.6750    1.4750 N   0  0  0  0  0
   18.8840   21.5630    0.5100 C   0  0  0  0  0
   19.0050   20.2670    0.1910 N   0  0  0  0  0
   19.8810   19.7410   -0.8460 C   0  0  0  0  0
   21.0330   18.9670   -0.2960 C   0  0  0  0  0
   21.4040   17.8070   -0.9410 C   0  0  0  0  0
   22.4660   17.0810   -0.4430 C   0  0  0  0  0
   23.1340   17.5120    0.6680 C   0  0  0  0  0
   24.4730   16.6010    1.2070 Cl  0  0  0  0  0
   22.7740   18.6820    1.3270 C   0  0  0  0  0
   21.7000   19.4050    0.8330 C   0  0  0  0  0
   20.1884   16.5533    4.7198 H   0  0  0  0  0
   19.5088   18.4973    3.3532 H   0  0  0  0  0
   18.5291   13.9039    1.8215 H   0  0  0  0  0
   16.2308   15.8869   -1.3388 H   0  0  0  0  0
   17.3975   21.6112    4.0753 H   0  0  0  0  0
   15.6852   21.3022    5.8175 H   0  0  0  0  0
   13.7622   19.7841    5.3954 H   0  0  0  0  0
   13.6320   18.5676    3.2378 H   0  0  0  0  0
   15.3884   18.8531    1.5277 H   0  0  0  0  0
   19.4375   22.3856    0.0571 H   0  0  0  0  0
   20.2839   20.5874   -1.4023 H   0  0  0  0  0
   19.2929   19.0659   -1.4677 H   0  0  0  0  0
   20.8682   17.4694   -1.8282 H   0  0  0  0  0
   22.7734   16.1598   -0.9379 H   0  0  0  0  0
   23.3208   19.0209    2.2069 H   0  0  0  0  0
   21.3812   20.3188    1.3344 H   0  0  0  0  0
  1  2  1  0  0  0
  1  3  4  0  0  0
  1  7  4  0  0  0
  3  4  4  0  0  0
  4  5  4  0  0  0
  5  6  4  0  0  0
  5 13  4  0  0  0
  6  7  4  0  0  0
  6  8  4  0  0  0
  8  9  4  0  0  0
  9 10  1  0  0  0
  9 13  4  0  0  0
 10 11  1  0  0  0
 10 12  2  0  0  0
 13 14  1  0  0  0
 14 15  4  0  0  0
 14 24  4  0  0  0
 15 16  1  0  0  0
 15 22  4  0  0  0
 16 17  4  0  0  0
 16 21  4  0  0  0
 17 18  4  0  0  0
 18 19  4  0  0  0
 19 20  4  0  0  0
 20 21  4  0  0  0
 22 23  4  0  0  0
 23 24  4  0  0  0
 24 25  1  0  0  0
 25 26  1  0  0  0
 26 27  4  0  0  0
 26 32  4  0  0  0
 27 28  4  0  0  0
 28 29  4  0  0  0
 29 30  1  0  0  0
 29 31  4  0  0  0
 31 32  4  0  0  0
  3 33  1  0  0  0
  4 34  1  0  0  0
  7 35  1  0  0  0
 11 36  1  0  0  0
 17 37  1  0  0  0
 18 38  1  0  0  0
 19 39  1  0  0  0
 20 40  1  0  0  0
 21 41  1  0  0  0
 23 42  1  0  0  0
 25 43  1  0  0  0
 25 44  1  0  0  0
 27 45  1  0  0  0
 28 46  1  0  0  0
 31 47  1  0  0  0
 32 48  1  0  0  0
M  END
$$$$
