5lgp_ligand
  -I-interpret- 

159160  0  0  0  0  0  0  0  0999 V2000
   40.1160   15.7730  128.9270 N   0  3  0  0  0
   41.0380   15.2020  127.9500 C   0  0  0  0  0
   41.4090   16.2660  126.9110 C   0  0  0  0  0
   42.5650   16.7020  126.8430 O   0  0  0  0  0
   40.4230   13.9690  127.2940 C   0  0  0  0  0
   39.7550   13.0090  128.2650 C   0  0  0  0  0
   38.3210   13.4000  128.6020 C   0  0  0  0  0
   37.8570   14.4800  128.2300 O   0  0  0  0  0
   37.6110   12.5180  129.3050 N   0  0  0  0  0
   40.4380   16.6950  126.1080 N   0  0  0  0  0
   40.6080   17.9380  125.3690 C   0  0  0  0  0
   40.6040   19.1040  126.3510 C   0  0  0  0  0
   40.0070   19.0340  127.4310 O   0  0  0  0  0
   39.5010   18.1270  124.3240 C   0  0  0  0  0
   39.6330   17.1790  123.1390 C   0  0  0  0  0
   40.6910   16.5940  122.9070 O   0  0  0  0  0
   38.5510   17.0350  122.3720 N   0  0  0  0  0
   41.2990   20.1760  125.9830 N   0  0  0  0  0
   41.4480   21.3490  126.8450 C   0  0  0  0  0
   41.1180   22.6170  126.0590 C   0  0  0  0  0
   41.9450   23.5270  125.9360 O   0  0  0  0  0
   42.8620   21.4000  127.4310 C   0  0  0  0  0
   43.9990   21.0500  126.4650 C   0  0  0  0  0
   45.6280   21.6130  127.0460 S   0  0  0  0  0
   46.1720   20.2150  127.9820 C   0  0  0  0  0
   39.8980   22.7180  125.5280 N   0  0  0  0  0
   39.5300   23.9000  124.7310 C   0  0  0  0  0
   39.4960   25.1440  125.6070 C   0  0  0  0  0
   38.7070   25.2330  126.5520 O   0  0  0  0  0
   38.1390   23.5460  124.1900 C   0  0  0  0  0
   37.5700   22.6230  125.2170 C   0  0  0  0  0
   38.7450   21.8330  125.7660 C   0  0  0  0  0
   40.3590   26.1060  125.2890 N   0  0  0  0  0
   40.4410   27.3430  126.0280 C   0  0  0  0  0
   41.4090   27.3340  127.1900 C   0  0  0  0  0
   41.6320   28.3920  127.7930 O   0  0  0  0  0
   41.9940   26.1870  127.5280 N   0  0  0  0  0
   42.9310   26.1140  128.6450 C   0  0  0  0  0
   44.3300   26.3650  128.0950 C   0  0  0  0  0
   44.9860   25.4590  127.5760 O   0  0  0  0  0
   42.8350   24.7750  129.3600 C   0  0  0  0  0
   44.7840   27.6040  128.2100 N   0  0  0  0  0
   46.0470   28.0290  127.6380 C   0  0  0  0  0
   47.1930   27.2920  128.3190 C   0  0  0  0  0
   48.0780   26.7590  127.6530 O   0  0  0  0  0
   46.1880   29.5410  127.7640 C   0  0  0  0  0
   44.9670   30.2450  127.1510 C   0  0  0  0  0
   47.4760   30.0240  127.1180 C   0  0  0  0  0
   44.7040   29.9450  125.6960 C   0  0  0  0  0
   47.1740   27.2620  129.6470 N   0  0  0  0  0
   48.1550   26.4720  130.4030 C   0  0  0  0  0
   47.5240   25.1760  131.0160 C   0  0  0  0  0
   46.4530   25.2220  131.5690 O   0  0  0  0  0
   48.7370   27.2950  131.5480 C   0  0  0  0  0
   49.4340   28.5880  131.1360 C   0  0  0  0  0
   50.8530   28.3580  130.6600 C   0  0  0  0  0
   51.5540   29.6270  130.5130 N   0  0  0  0  0
   52.3810   30.1700  131.4020 C   0  0  0  0  0
   52.7140   29.5220  132.5000 N   0  0  0  0  0
   52.8430   31.3980  131.2070 N   0  0  0  0  0
   48.2350   24.0070  130.8960 N   0  0  0  0  0
   47.7280   22.7520  131.5020 C   0  0  0  0  0
   47.5680   22.8320  133.0220 C   0  0  0  0  0
   48.3200   23.5610  133.6830 O   0  0  0  0  0
   48.8040   21.7210  131.1330 C   0  0  0  0  0
   49.5410   22.3090  129.9650 C   0  0  0  0  0
   49.5340   23.7840  130.2080 C   0  0  0  0  0
   46.5990   22.1060  133.5730 N   0  0  0  0  0
   46.4750   22.0150  135.0190 C   0  0  0  0  0
   47.7480   21.4560  135.6180 C   0  0  0  0  0
   48.3000   20.4690  135.1240 O   0  0  0  0  0
   45.2870   21.1350  135.4010 C   0  0  0  0  0
   48.2130   22.0870  136.6860 N   0  0  0  0  0
   49.4670   21.6410  137.2820 C   0  0  0  0  0
   49.3270   20.2390  137.8340 C   0  0  0  0  0
   48.2390   19.7900  138.1950 O   0  0  0  0  0
   49.9190   22.5990  138.3670 C   0  0  0  0  0
   50.2950   19.4870  137.9460 O   0  0  0  0  0
   40.5423   16.5948  129.3551 H   0  0  0  0  0
   39.2505   16.0422  128.4591 H   0  0  0  0  0
   39.9132   15.0796  129.6471 H   0  0  0  0  0
   41.9500   14.8828  128.4545 H   0  0  0  0  0
   41.2350   13.4239  126.8127 H   0  0  0  0  0
   39.6507   14.3218  126.6105 H   0  0  0  0  0
   40.3285   13.0233  129.1918 H   0  0  0  0  0
   39.7281   12.0267  127.7934 H   0  0  0  0  0
   36.6442   12.7252  129.5554 H   0  0  0  0  0
   38.0344   11.6357  129.5926 H   0  0  0  0  0
   39.5781   16.1551  126.0107 H   0  0  0  0  0
   41.5587   17.8991  124.8372 H   0  0  0  0  0
   39.5737   19.1459  123.9438 H   0  0  0  0  0
   38.5472   17.9207  124.8096 H   0  0  0  0  0
   38.5811   16.4214  121.5577 H   0  0  0  0  0
   37.6937   17.5385  122.5998 H   0  0  0  0  0
   41.7449   20.1810  125.0657 H   0  0  0  0  0
   40.7484   21.2779  127.6779 H   0  0  0  0  0
   42.8927   20.6538  128.2249 H   0  0  0  0  0
   43.0290   22.4315  127.7413 H   0  0  0  0  0
   43.7944   21.5494  125.5180 H   0  0  0  0  0
   44.0360   19.9642  126.3767 H   0  0  0  0  0
   45.4674   20.0249  128.7916 H   0  0  0  0  0
   46.2242   19.3419  127.3316 H   0  0  0  0  0
   47.1586   20.4194  128.3978 H   0  0  0  0  0
   40.2384   24.1255  123.9339 H   0  0  0  0  0
   38.1867   23.0844  123.2037 H   0  0  0  0  0
   37.5182   24.4297  124.0423 H   0  0  0  0  0
   36.8191   21.9632  124.7823 H   0  0  0  0  0
   37.0623   23.1761  126.0072 H   0  0  0  0  0
   38.6227   21.5815  126.8195 H   0  0  0  0  0
   38.8574   20.8625  125.2827 H   0  0  0  0  0
   40.9841   25.9641  124.4956 H   0  0  0  0  0
   39.4509   27.5247  126.4461 H   0  0  0  0  0
   40.7954   28.1020  125.3306 H   0  0  0  0  0
   41.7834   25.3426  126.9961 H   0  0  0  0  0
   42.6888   26.8710  129.3910 H   0  0  0  0  0
   41.8241   24.6419  129.7453 H   0  0  0  0  0
   43.0666   23.9729  128.6592 H   0  0  0  0  0
   43.5457   24.7539  130.1861 H   0  0  0  0  0
   44.2233   28.2859  128.7209 H   0  0  0  0  0
   46.0769   27.7817  126.5768 H   0  0  0  0  0
   46.2341   29.7938  128.8233 H   0  0  0  0  0
   45.1619   31.3155  127.2160 H   0  0  0  0  0
   44.0962   29.8906  127.7025 H   0  0  0  0  0
   48.3267   29.5510  127.6087 H   0  0  0  0  0
   47.4719   29.7598  126.0605 H   0  0  0  0  0
   47.5500   31.1064  127.2231 H   0  0  0  0  0
   45.5652   30.2507  125.1019 H   0  0  0  0  0
   44.5364   28.8752  125.5715 H   0  0  0  0  0
   43.8211   30.4931  125.3672 H   0  0  0  0  0
   46.4661   27.7967  130.1504 H   0  0  0  0  0
   48.9335   26.1897  129.6943 H   0  0  0  0  0
   49.4933   26.6723  132.0259 H   0  0  0  0  0
   47.8986   27.5819  132.1826 H   0  0  0  0  0
   49.4743   29.2402  132.0084 H   0  0  0  0  0
   48.8703   29.0252  130.3118 H   0  0  0  0  0
   50.8251   27.8548  129.6935 H   0  0  0  0  0
   51.3779   27.7464  131.3938 H   0  0  0  0  0
   51.3960   30.1463  129.6494 H   0  0  0  0  0
   52.3364   28.5912  132.6772 H   0  0  0  0  0
   53.4495   31.8313  131.9033 H   0  0  0  0  0
   52.5918   31.9090  130.3607 H   0  0  0  0  0
   46.7301   22.5106  131.1359 H   0  0  0  0  0
   48.3628   20.7565  130.8817 H   0  0  0  0  0
   49.4740   21.5265  131.9705 H   0  0  0  0  0
   49.0673   22.0529  129.0173 H   0  0  0  0  0
   50.5550   21.9166  129.8874 H   0  0  0  0  0
   50.3866   24.1174  130.7997 H   0  0  0  0  0
   49.6287   24.3626  129.2891 H   0  0  0  0  0
   45.9376   21.6091  132.9763 H   0  0  0  0  0
   46.3069   23.0167  135.4144 H   0  0  0  0  0
   44.3721   21.5650  134.9934 H   0  0  0  0  0
   45.4322   20.1342  134.9943 H   0  0  0  0  0
   45.2117   21.0799  136.4870 H   0  0  0  0  0
   47.7012   22.8736  137.0857 H   0  0  0  0  0
   50.2276   21.6281  136.5013 H   0  0  0  0  0
   47.5600   20.4560  138.0643 H   0  0  0  0  0
   50.0667   23.5896  137.9368 H   0  0  0  0  0
   49.1578   22.6494  139.1456 H   0  0  0  0  0
   50.8562   22.2442  138.7958 H   0  0  0  0  0
  1  2  1  0  0  0
  2  3  1  0  0  0
  2  5  1  0  0  0
  3  4  2  0  0  0
  3 10  1  0  0  0
  5  6  1  0  0  0
  6  7  1  0  0  0
  7  8  2  0  0  0
  7  9  1  0  0  0
 10 11  1  0  0  0
 11 12  1  0  0  0
 11 14  1  0  0  0
 12 13  2  0  0  0
 12 18  1  0  0  0
 14 15  1  0  0  0
 15 16  2  0  0  0
 15 17  1  0  0  0
 18 19  1  0  0  0
 19 20  1  0  0  0
 19 22  1  0  0  0
 20 21  2  0  0  0
 20 26  1  0  0  0
 22 23  1  0  0  0
 23 24  1  0  0  0
 24 25  1  0  0  0
 26 27  1  0  0  0
 26 32  1  0  0  0
 27 28  1  0  0  0
 27 30  1  0  0  0
 28 29  2  0  0  0
 28 33  1  0  0  0
 30 31  1  0  0  0
 31 32  1  0  0  0
 33 34  1  0  0  0
 34 35  1  0  0  0
 35 36  2  0  0  0
 35 37  1  0  0  0
 37 38  1  0  0  0
 38 39  1  0  0  0
 38 41  1  0  0  0
 39 40  2  0  0  0
 39 42  1  0  0  0
 42 43  1  0  0  0
 43 44  1  0  0  0
 43 46  1  0  0  0
 44 45  2  0  0  0
 44 50  1  0  0  0
 46 47  1  0  0  0
 46 48  1  0  0  0
 47 49  1  0  0  0
 50 51  1  0  0  0
 51 52  1  0  0  0
 51 54  1  0  0  0
 52 53  2  0  0  0
 52 61  1  0  0  0
 54 55  1  0  0  0
 55 56  1  0  0  0
 56 57  1  0  0  0
 57 58  1  0  0  0
 58 59  2  0  0  0
 58 60  1  0  0  0
 61 62  1  0  0  0
 61 67  1  0  0  0
 62 63  1  0  0  0
 62 65  1  0  0  0
 63 64  2  0  0  0
 63 68  1  0  0  0
 65 66  1  0  0  0
 66 67  1  0  0  0
 68 69  1  0  0  0
 69 70  1  0  0  0
 69 72  1  0  0  0
 70 71  2  0  0  0
 70 73  1  0  0  0
 73 74  1  0  0  0
 74 75  1  0  0  0
 74 77  1  0  0  0
 75 76  1  0  0  0
 75 78  2  0  0  0
  1 79  1  0  0  0
  1 80  1  0  0  0
  1 81  1  0  0  0
  2 82  1  0  0  0
  5 83  1  0  0  0
  5 84  1  0  0  0
  6 85  1  0  0  0
  6 86  1  0  0  0
  9 87  1  0  0  0
  9 88  1  0  0  0
 10 89  1  0  0  0
 11 90  1  0  0  0
 14 91  1  0  0  0
 14 92  1  0  0  0
 17 93  1  0  0  0
 17 94  1  0  0  0
 18 95  1  0  0  0
 19 96  1  0  0  0
 22 97  1  0  0  0
 22 98  1  0  0  0
 23 99  1  0  0  0
 23100  1  0  0  0
 25101  1  0  0  0
 25102  1  0  0  0
 25103  1  0  0  0
 27104  1  0  0  0
 30105  1  0  0  0
 30106  1  0  0  0
 31107  1  0  0  0
 31108  1  0  0  0
 32109  1  0  0  0
 32110  1  0  0  0
 33111  1  0  0  0
 34112  1  0  0  0
 34113  1  0  0  0
 37114  1  0  0  0
 38115  1  0  0  0
 41116  1  0  0  0
 41117  1  0  0  0
 41118  1  0  0  0
 42119  1  0  0  0
 43120  1  0  0  0
 46121  1  0  0  0
 47122  1  0  0  0
 47123  1  0  0  0
 48124  1  0  0  0
 48125  1  0  0  0
 48126  1  0  0  0
 49127  1  0  0  0
 49128  1  0  0  0
 49129  1  0  0  0
 50130  1  0  0  0
 51131  1  0  0  0
 54132  1  0  0  0
 54133  1  0  0  0
 55134  1  0  0  0
 55135  1  0  0  0
 56136  1  0  0  0
 56137  1  0  0  0
 57138  1  0  0  0
 59139  1  0  0  0
 60140  1  0  0  0
 60141  1  0  0  0
 62142  1  0  0  0
 65143  1  0  0  0
 65144  1  0  0  0
 66145  1  0  0  0
 66146  1  0  0  0
 67147  1  0  0  0
 67148  1  0  0  0
 68149  1  0  0  0
 69150  1  0  0  0
 72151  1  0  0  0
 72152  1  0  0  0
 72153  1  0  0  0
 73154  1  0  0  0
 74155  1  0  0  0
 76156  1  0  0  0
 77157  1  0  0  0
 77158  1  0  0  0
 77159  1  0  0  0
M  END
$$$$
