### 
### Created by X-TOOL on Tue Oct 16 15:17:51 2018
### 

@<TRIPOS>MOLECULE
5lgp_ligand
  159   160     1     0     0
SMALL
GAST_HUCK


@<TRIPOS>ATOM
      1 N          40.1160   15.7730  128.9270 N.4       1 GLN         0.2380
      2 CA         41.0380   15.2020  127.9500 C.3       1 GLN         0.0671
      3 C          41.4090   16.2660  126.9110 C.2       1 GLN         0.2270
      4 O          42.5650   16.7020  126.8430 O.2       1 GLN        -0.3907
      5 CB         40.4230   13.9690  127.2940 C.3       1 GLN         0.0247
      6 CG         39.7550   13.0090  128.2650 C.3       1 GLN         0.0443
      7 CD         38.3210   13.4000  128.6020 C.2       1 GLN         0.1738
      8 OE1        37.8570   14.4800  128.2300 O.2       1 GLN        -0.3973
      9 NE2        37.6110   12.5180  129.3050 N.am      1 GLN        -0.3009
     10 N          40.4380   16.6950  126.1080 N.am      1 GLN        -0.2589
     11 CA         40.6080   17.9380  125.3690 C.3       1 GLN         0.1477
     12 C          40.6040   19.1040  126.3510 C.2       1 GLN         0.2063
     13 O          40.0070   19.0340  127.4310 O.2       1 GLN        -0.3942
     14 CB         39.5010   18.1270  124.3240 C.3       1 GLN         0.0773
     15 CG         39.6330   17.1790  123.1390 C.2       1 GLN         0.1780
     16 OD1        40.6910   16.5940  122.9070 O.2       1 GLN        -0.3970
     17 ND2        38.5510   17.0350  122.3720 N.am      1 GLN        -0.3007
     18 N          41.2990   20.1760  125.9830 N.am      1 GLN        -0.2636
     19 CA         41.4480   21.3490  126.8450 C.3       1 GLN         0.1319
     20 C          41.1180   22.6170  126.0590 C.2       1 GLN         0.2064
     21 O          41.9450   23.5270  125.9360 O.2       1 GLN        -0.3942
     22 CB         42.8620   21.4000  127.4310 C.3       1 GLN        -0.0034
     23 CG         43.9990   21.0500  126.4650 C.3       1 GLN        -0.0024
     24 SD         45.6280   21.6130  127.0460 S.3       1 GLN        -0.1639
     25 CE         46.1720   20.2150  127.9820 C.3       1 GLN        -0.0181
     26 N          39.8980   22.7180  125.5280 N.am      1 GLN        -0.2498
     27 CA         39.5300   23.9000  124.7310 C.3       1 GLN         0.1338
     28 C          39.4960   25.1440  125.6070 C.2       1 GLN         0.2039
     29 O          38.7070   25.2330  126.5520 O.2       1 GLN        -0.3944
     30 CB         38.1390   23.5460  124.1900 C.3       1 GLN        -0.0104
     31 CG         37.5700   22.6230  125.2170 C.3       1 GLN        -0.0281
     32 CD         38.7450   21.8330  125.7660 C.3       1 GLN         0.0369
     33 N          40.3590   26.1060  125.2890 N.am      1 GLN        -0.2664
     34 CA         40.4410   27.3430  126.0280 C.3       1 GLN         0.1201
     35 C          41.4090   27.3340  127.1900 C.2       1 GLN         0.2007
     36 O          41.6320   28.3920  127.7930 O.2       1 GLN        -0.3947
     37 N          41.9940   26.1870  127.5280 N.am      1 GLN        -0.2642
     38 CA         42.9310   26.1140  128.6450 C.3       1 GLN         0.1282
     39 C          44.3300   26.3650  128.0950 C.2       1 GLN         0.2036
     40 O          44.9860   25.4590  127.5760 O.2       1 GLN        -0.3944
     41 CB         42.8350   24.7750  129.3600 C.3       1 GLN        -0.0244
     42 N          44.7840   27.6040  128.2100 N.am      1 GLN        -0.2635
     43 CA         46.0470   28.0290  127.6380 C.3       1 GLN         0.1335
     44 C          47.1930   27.2920  128.3190 C.2       1 GLN         0.2042
     45 O          48.0780   26.7590  127.6530 O.2       1 GLN        -0.3944
     46 CB         46.1880   29.5410  127.7640 C.3       1 GLN        -0.0037
     47 CG1        44.9670   30.2450  127.1510 C.3       1 GLN        -0.0491
     48 CG2        47.4760   30.0240  127.1180 C.3       1 GLN        -0.0582
     49 CD1        44.7040   29.9450  125.6960 C.3       1 GLN        -0.0648
     50 N          47.1740   27.2620  129.6470 N.am      1 GLN        -0.2637
     51 CA         48.1550   26.4720  130.4030 C.3       1 GLN         0.1313
     52 C          47.5240   25.1760  131.0160 C.2       1 GLN         0.2064
     53 O          46.4530   25.2220  131.5690 O.2       1 GLN        -0.3942
     54 CB         48.7370   27.2950  131.5480 C.3       1 GLN        -0.0092
     55 CG         49.4340   28.5880  131.1360 C.3       1 GLN        -0.0156
     56 CD         50.8530   28.3580  130.6600 C.3       1 GLN         0.0627
     57 NE         51.5540   29.6270  130.5130 N.pl3     1 GLN        -0.2723
     58 CZ         52.3810   30.1700  131.4020 C.cat     1 GLN         0.2882
     59 NH1        52.7140   29.5220  132.5000 N.pl3     1 GLN        -0.2849
     60 NH2        52.8430   31.3980  131.2070 N.pl3     1 GLN        -0.2849
     61 N          48.2350   24.0070  130.8960 N.am      1 GLN        -0.2498
     62 CA         47.7280   22.7520  131.5020 C.3       1 GLN         0.1338
     63 C          47.5680   22.8320  133.0220 C.2       1 GLN         0.2041
     64 O          48.3200   23.5610  133.6830 O.2       1 GLN        -0.3944
     65 CB         48.8040   21.7210  131.1330 C.3       1 GLN        -0.0104
     66 CG         49.5410   22.3090  129.9650 C.3       1 GLN        -0.0281
     67 CD         49.5340   23.7840  130.2080 C.3       1 GLN         0.0369
     68 N          46.5990   22.1060  133.5730 N.am      1 GLN        -0.2640
     69 CA         46.4750   22.0150  135.0190 C.3       1 GLN         0.1282
     70 C          47.7480   21.4560  135.6180 C.2       1 GLN         0.2031
     71 O          48.3000   20.4690  135.1240 O.2       1 GLN        -0.3944
     72 CB         45.2870   21.1350  135.4010 C.3       1 GLN        -0.0244
     73 N          48.2130   22.0870  136.6860 N.am      1 GLN        -0.2698
     74 CA         49.4670   21.6410  137.2820 C.3       1 GLN         0.0916
     75 C          49.3270   20.2390  137.8340 C.2       1 GLN         0.0598
     76 O          48.2390   19.7900  138.1950 O.co2     1 GLN        -0.5666
     77 CB         49.9190   22.5990  138.3670 C.3       1 GLN        -0.0300
     78 OXT        50.2950   19.4870  137.9460 O.co2     1 GLN        -0.5666
     79 H1         39.8731   15.0720  129.6094 H         1 GLN         0.2015
     80 H2         39.2816   16.0881  128.4574 H         1 GLN         0.2015
     81 H3         40.5566   16.5531  129.3889 H         1 GLN         0.2015
     82 H4         41.9552   14.8922  128.4722 H         1 GLN         0.1100
     83 H5         41.2210   13.4255  126.7669 H         1 GLN         0.0370
     84 H6         39.6677   14.3057  126.5686 H         1 GLN         0.0370
     85 H7         40.3403   12.9893  129.1961 H         1 GLN         0.0506
     86 H8         39.7475   12.0052  127.8153 H         1 GLN         0.0506
     87 H9         36.6644   12.7229  129.5540 H         1 GLN         0.1814
     88 H10        38.0249   11.6513  129.5835 H         1 GLN         0.1814
     89 H11        39.5950   16.1656  126.0126 H         1 GLN         0.1886
     90 H12        41.5773   17.9102  124.8497 H         1 GLN         0.0826
     91 H13        39.5431   19.1613  123.9518 H         1 GLN         0.0551
     92 H14        38.5288   17.9506  124.8074 H         1 GLN         0.0551
     93 H15        38.5774   16.4258  121.5794 H         1 GLN         0.1814
     94 H16        37.7135   17.5362  122.5897 H         1 GLN         0.1814
     95 H17        41.7362   20.1809  125.0836 H         1 GLN         0.1883
     96 H18        40.7342   21.2640  127.6776 H         1 GLN         0.0800
     97 H19        42.9042   20.6922  128.2720 H         1 GLN         0.0320
     98 H20        43.0368   22.4208  127.8017 H         1 GLN         0.0320
     99 H21        43.7912   21.5228  125.4938 H         1 GLN         0.0378
    100 H22        44.0298   19.9574  126.3418 H         1 GLN         0.0378
    101 H23        47.1677   20.4201  128.4022 H         1 GLN         0.0340
    102 H24        46.2251   19.3331  127.3267 H         1 GLN         0.0340
    103 H25        45.4617   20.0221  128.7995 H         1 GLN         0.0340
    104 H26        40.2404   24.0553  123.9057 H         1 GLN         0.0802
    105 H27        38.2161   23.0439  123.2143 H         1 GLN         0.0313
    106 H28        37.5181   24.4485  124.0899 H         1 GLN         0.0313
    107 H29        36.8354   21.9456  124.7571 H         1 GLN         0.0287
    108 H30        37.0864   23.1971  126.0210 H         1 GLN         0.0287
    109 H31        38.6172   21.6345  126.8404 H         1 GLN         0.0524
    110 H32        38.8633   20.8805  125.2287 H         1 GLN         0.0524
    111 H33        40.9718   25.9669  124.5111 H         1 GLN         0.1881
    112 H34        39.4394   27.5721  126.4209 H         1 GLN         0.0763
    113 H35        40.7520   28.1358  125.3318 H         1 GLN         0.0763
    114 H36        41.7875   25.3591  127.0065 H         1 GLN         0.1883
    115 H37        42.6867   26.9061  129.3681 H         1 GLN         0.0797
    116 H38        43.5519   24.7525  130.1940 H         1 GLN         0.0277
    117 H39        43.0686   23.9646  128.6538 H         1 GLN         0.0277
    118 H40        41.8152   24.6395  129.7493 H         1 GLN         0.0277
    119 H41        44.2343   28.2725  128.7109 H         1 GLN         0.1883
    120 H42        46.0559   27.7694  126.5691 H         1 GLN         0.0803
    121 H43        46.2281   29.7936  128.8338 H         1 GLN         0.0345
    122 H44        45.1164   31.3302  127.2511 H         1 GLN         0.0267
    123 H45        44.0786   29.9427  127.7248 H         1 GLN         0.0267
    124 H46        48.3320   29.5053  127.5743 H         1 GLN         0.0235
    125 H47        47.5796   31.1082  127.2724 H         1 GLN         0.0235
    126 H48        47.4488   29.8081  126.0397 H         1 GLN         0.0235
    127 H49        43.8131   30.4976  125.3629 H         1 GLN         0.0230
    128 H50        44.5346   28.8656  125.5689 H         1 GLN         0.0230
    129 H51        45.5724   30.2531  125.0953 H         1 GLN         0.0230
    130 H52        46.4800   27.7862  130.1405 H         1 GLN         0.1883
    131 H53        48.9659   26.1822  129.7186 H         1 GLN         0.0800
    132 H54        49.4696   26.6686  132.0780 H         1 GLN         0.0313
    133 H55        47.9149   27.5554  132.2309 H         1 GLN         0.0313
    134 H56        49.4583   29.2665  132.0015 H         1 GLN         0.0301
    135 H57        48.8601   29.0535  130.3212 H         1 GLN         0.0301
    136 H58        50.8299   27.8426  129.6885 H         1 GLN         0.0689
    137 H59        51.3843   27.7339  131.3936 H         1 GLN         0.0689
    138 H60        51.3945   30.1514  129.6410 H         1 GLN         0.2642
    139 H61        53.3556   29.9554  133.1793 H         1 GLN         0.2615
    140 H62        52.3327   28.5821  132.6790 H         1 GLN         0.2615
    141 H63        52.5893   31.9140  130.3524 H         1 GLN         0.2615
    142 H64        53.4554   31.8355  131.9101 H         1 GLN         0.2615
    143 H65        46.7590   22.4812  131.0575 H         1 GLN         0.0802
    144 H66        48.3393   20.7645  130.8519 H         1 GLN         0.0313
    145 H67        49.4891   21.5613  131.9786 H         1 GLN         0.0313
    146 H68        49.0265   22.0697  129.0227 H         1 GLN         0.0287
    147 H69        50.5722   21.9281  129.9267 H         1 GLN         0.0287
    148 H70        50.3766   24.0824  130.8491 H         1 GLN         0.0524
    149 H71        49.5793   24.3404  129.2602 H         1 GLN         0.0524
    150 H72        45.9505   21.6188  132.9880 H         1 GLN         0.1883
    151 H73        46.3087   23.0250  135.4218 H         1 GLN         0.0797
    152 H74        45.2099   21.0786  136.4968 H         1 GLN         0.0277
    153 H75        45.4323   20.1246  134.9912 H         1 GLN         0.0277
    154 H76        44.3629   21.5679  134.9903 H         1 GLN         0.0277
    155 H77        47.7113   22.8582  137.0779 H         1 GLN         0.1875
    156 H78        50.2353   21.6260  136.4949 H         1 GLN         0.0723
    157 H79        50.8648   22.2420  138.8005 H         1 GLN         0.0270
    158 H80        49.1517   22.6507  139.1534 H         1 GLN         0.0270
    159 H81        50.0685   23.5991  137.9341 H         1 GLN         0.0270
@<TRIPOS>BOND
     1    1    2 1  
     2    2    3 1  
     3    2    5 1  
     4    3    4 2  
     5    3   10 am 
     6    5    6 1  
     7    6    7 1  
     8    7    8 2  
     9    7    9 am 
    10   10   11 1  
    11   11   12 1  
    12   11   14 1  
    13   12   13 2  
    14   12   18 am 
    15   14   15 1  
    16   15   16 2  
    17   15   17 am 
    18   18   19 1  
    19   19   20 1  
    20   19   22 1  
    21   20   21 2  
    22   20   26 am 
    23   22   23 1  
    24   23   24 1  
    25   24   25 1  
    26   26   27 1  
    27   26   32 1  
    28   27   28 1  
    29   27   30 1  
    30   28   29 2  
    31   28   33 am 
    32   30   31 1  
    33   31   32 1  
    34   33   34 1  
    35   34   35 1  
    36   35   36 2  
    37   35   37 am 
    38   37   38 1  
    39   38   39 1  
    40   38   41 1  
    41   39   40 2  
    42   39   42 am 
    43   42   43 1  
    44   43   44 1  
    45   43   46 1  
    46   44   45 2  
    47   44   50 am 
    48   46   47 1  
    49   46   48 1  
    50   47   49 1  
    51   50   51 1  
    52   51   52 1  
    53   51   54 1  
    54   52   53 2  
    55   52   61 am 
    56   54   55 1  
    57   55   56 1  
    58   56   57 1  
    59   57   58 ar 
    60   58   59 ar 
    61   58   60 ar 
    62   61   62 1  
    63   61   67 1  
    64   62   63 1  
    65   62   65 1  
    66   63   64 2  
    67   63   68 am 
    68   65   66 1  
    69   66   67 1  
    70   68   69 1  
    71   69   70 1  
    72   69   72 1  
    73   70   71 2  
    74   70   73 am 
    75   73   74 1  
    76   74   75 1  
    77   74   77 1  
    78   75   76 ar 
    79   75   78 ar 
    80    1   79 1  
    81    1   80 1  
    82    1   81 1  
    83    2   82 1  
    84    5   83 1  
    85    5   84 1  
    86    6   85 1  
    87    6   86 1  
    88    9   87 1  
    89    9   88 1  
    90   10   89 1  
    91   11   90 1  
    92   14   91 1  
    93   14   92 1  
    94   17   93 1  
    95   17   94 1  
    96   18   95 1  
    97   19   96 1  
    98   22   97 1  
    99   22   98 1  
   100   23   99 1  
   101   23  100 1  
   102   25  101 1  
   103   25  102 1  
   104   25  103 1  
   105   27  104 1  
   106   30  105 1  
   107   30  106 1  
   108   31  107 1  
   109   31  108 1  
   110   32  109 1  
   111   32  110 1  
   112   33  111 1  
   113   34  112 1  
   114   34  113 1  
   115   37  114 1  
   116   38  115 1  
   117   41  116 1  
   118   41  117 1  
   119   41  118 1  
   120   42  119 1  
   121   43  120 1  
   122   46  121 1  
   123   47  122 1  
   124   47  123 1  
   125   48  124 1  
   126   48  125 1  
   127   48  126 1  
   128   49  127 1  
   129   49  128 1  
   130   49  129 1  
   131   50  130 1  
   132   51  131 1  
   133   54  132 1  
   134   54  133 1  
   135   55  134 1  
   136   55  135 1  
   137   56  136 1  
   138   56  137 1  
   139   57  138 1  
   140   59  139 1  
   141   59  140 1  
   142   60  141 1  
   143   60  142 1  
   144   62  143 1  
   145   65  144 1  
   146   65  145 1  
   147   66  146 1  
   148   66  147 1  
   149   67  148 1  
   150   67  149 1  
   151   68  150 1  
   152   69  151 1  
   153   72  152 1  
   154   72  153 1  
   155   72  154 1  
   156   73  155 1  
   157   74  156 1  
   158   77  157 1  
   159   77  158 1  
   160   77  159 1  
@<TRIPOS>SUBSTRUCTURE
     1 GLN         1

