2vhj_ligand
  -I-interpret- 

 42 44  0  0  0  0  0  0  0  0999 V2000
   82.3950   49.4680    4.9070 P   0  0  0  0  0
   81.8260   48.0800    4.7170 O   0  0  0  0  0
   83.4800   49.5640    5.9450 O   0  0  0  0  0
   81.3470   50.5540    5.0370 O   0  0  0  0  0
   84.6730   49.1350    3.3000 P   0  0  0  0  0
   85.1380   49.4540    1.8960 O   0  0  0  0  0
   84.5900   47.6880    3.7090 O   0  0  0  0  0
   83.2090   49.7790    3.5450 O   0  0  0  0  0
   85.6080   49.9260    4.3450 O   0  0  0  0  0
   86.7460   50.6650    3.9040 C   0  0  0  0  0
   86.2890   52.0300    3.4160 C   0  0  0  0  0
   87.0630   53.0710    4.0200 O   0  0  0  0  0
   86.3770   52.2070    1.9050 C   0  0  0  0  0
   85.0590   52.3500    1.3820 O   0  0  0  0  0
   87.2040   53.4550    1.6550 C   0  0  0  0  0
   86.5040   54.4360    0.8700 O   0  0  0  0  0
   87.5480   53.9950    3.0400 C   0  0  0  0  0
   89.0110   54.1150    3.2030 N   0  0  0  0  0
   89.8700   53.0820    3.1570 C   0  0  0  0  0
   91.1410   53.5190    3.3440 N   0  0  0  0  0
   91.1010   54.8500    3.5240 C   0  0  0  0  0
   92.0930   55.9190    3.7740 C   0  0  0  0  0
   93.4080   55.6140    3.8690 N   0  0  0  0  0
   91.6380   57.1900    3.9000 N   0  0  0  0  0
   90.3230   57.4910    3.8050 C   0  0  0  0  0
   89.3690   56.5600    3.5780 N   0  0  0  0  0
   89.6890   55.2460    3.4300 C   0  0  0  0  0
   81.1439   48.1047    4.0419 H   0  0  0  0  0
   80.6845   50.4415    4.3514 H   0  0  0  0  0
   85.1438   50.4057    1.7705 H   0  0  0  0  0
   87.2402   50.1305    3.0927 H   0  0  0  0  0
   87.4489   50.7852    4.7283 H   0  0  0  0  0
   85.2401   52.0935    3.7057 H   0  0  0  0  0
   86.8419   51.3506    1.4166 H   0  0  0  0  0
   85.1043   52.4622    0.4297 H   0  0  0  0  0
   88.0948   53.2187    1.0730 H   0  0  0  0  0
   87.0676   55.2023    0.7408 H   0  0  0  0  0
   87.0918   54.9775    3.1607 H   0  0  0  0  0
   89.5863   52.0424    2.9930 H   0  0  0  0  0
   93.7158   54.6468    3.7683 H   0  0  0  0  0
   94.0914   56.3513    4.0413 H   0  0  0  0  0
   90.0182   58.5316    3.9165 H   0  0  0  0  0
  1  2  1  0  0  0
  1  3  2  0  0  0
  1  4  1  0  0  0
  8  1  1  0  0  0
  5  6  1  0  0  0
  5  7  2  0  0  0
  5  8  1  0  0  0
  5  9  1  0  0  0
  9 10  1  0  0  0
 10 11  1  0  0  0
 11 12  1  0  0  0
 11 13  1  0  0  0
 12 17  1  0  0  0
 13 14  1  0  0  0
 13 15  1  0  0  0
 15 16  1  0  0  0
 15 17  1  0  0  0
 17 18  1  0  0  0
 18 19  4  0  0  0
 18 27  4  0  0  0
 19 20  4  0  0  0
 20 21  4  0  0  0
 21 22  4  0  0  0
 21 27  4  0  0  0
 22 23  1  0  0  0
 22 24  4  0  0  0
 24 25  4  0  0  0
 25 26  4  0  0  0
 26 27  4  0  0  0
  2 28  1  0  0  0
  4 29  1  0  0  0
  6 30  1  0  0  0
 10 31  1  0  0  0
 10 32  1  0  0  0
 11 33  1  0  0  0
 13 34  1  0  0  0
 14 35  1  0  0  0
 15 36  1  0  0  0
 16 37  1  0  0  0
 17 38  1  0  0  0
 19 39  1  0  0  0
 23 40  1  0  0  0
 23 41  1  0  0  0
 25 42  1  0  0  0
M  END
$$$$
