1vea_ligand
  -I-interpret- 

 37 39  0  0  0  0  0  0  0  0999 V2000
   47.5760 -104.1540   85.8410 C   0  0  0  0  0
   48.7270 -103.3370   85.8210 C   0  0  0  0  0
   49.0690 -102.5490   86.9540 C   0  0  0  0  0
   48.2600 -102.5680   88.1270 C   0  0  0  0  0
   47.0960 -103.3810   88.1770 C   0  0  0  0  0
   46.7520 -104.1930   86.9960 C   0  0  0  0  0
   45.6150 -104.9930   87.0380 C   0  0  0  0  0
   44.7720 -105.0540   88.1830 C   0  0  0  0  0
   45.0930 -104.2690   89.3340 C   0  0  0  0  0
   46.2500 -103.4340   89.3320 C   0  0  0  0  0
   43.7410 -105.8130   88.1690 N   0  0  0  0  0
   40.7010 -107.8190   89.1320 N   0  3  0  0  0
   41.8840 -107.4200   88.3920 C   0  0  0  0  0
   43.0920 -106.7670   89.0460 C   0  0  0  0  0
   43.4620 -107.0920   90.1560 O   0  0  0  0  0
   42.0380 -107.6090   87.0730 C   0  0  0  0  0
   41.2440 -108.1990   85.9550 C   0  0  0  0  0
   41.6720 -108.0770   84.6490 N   0  0  0  0  0
   40.0600 -108.9180   86.0510 C   0  0  0  0  0
   40.6730 -108.7600   84.0420 C   0  0  0  0  0
   39.6590 -109.3010   84.7860 N   0  0  0  0  0
   47.3198 -104.7554   84.9687 H   0  0  0  0  0
   49.3571 -103.3101   84.9320 H   0  0  0  0  0
   49.9607 -101.9228   86.9250 H   0  0  0  0  0
   48.5347 -101.9577   88.9873 H   0  0  0  0  0
   45.3610 -105.5935   86.1645 H   0  0  0  0  0
   44.4524 -104.3085   90.2150 H   0  0  0  0  0
   46.4906 -102.8355   90.2106 H   0  0  0  0  0
   43.2312 -105.7197   87.2905 H   0  0  0  0  0
   40.0240 -108.2328   88.4910 H   0  0  0  0  0
   40.9606 -108.5032   89.8425 H   0  0  0  0  0
   40.2899 -107.0004   89.5807 H   0  0  0  0  0
   40.9032 -107.5610   88.8461 H   0  0  0  0  0
   42.8112 -108.3755   87.1241 H   0  0  0  0  0
   41.9697 -106.5652   86.7664 H   0  0  0  0  0
   39.5313 -109.1441   86.9770 H   0  0  0  0  0
   40.6760 -108.8794   82.9586 H   0  0  0  0  0
  1  2  4  0  0  0
  6  1  4  0  0  0
  2  3  4  0  0  0
  4  3  4  0  0  0
  5  4  4  0  0  0
  6  5  4  0  0  0
 10  5  4  0  0  0
  7  6  4  0  0  0
  8  7  4  0  0  0
  8  9  4  0  0  0
 11  8  1  0  0  0
  9 10  4  0  0  0
 14 11  1  0  0  0
 13 12  1  0  0  0
 13 14  1  0  0  0
 13 16  1  0  0  0
 14 15  2  0  0  0
 16 17  1  0  0  0
 17 18  4  0  0  0
 17 19  4  0  0  0
 18 20  4  0  0  0
 19 21  4  0  0  0
 20 21  4  0  0  0
  1 22  1  0  0  0
  2 23  1  0  0  0
  3 24  1  0  0  0
  4 25  1  0  0  0
  7 26  1  0  0  0
  9 27  1  0  0  0
 10 28  1  0  0  0
 11 29  1  0  0  0
 12 30  1  0  0  0
 12 31  1  0  0  0
 12 32  1  0  0  0
 13 33  1  0  0  0
 16 34  1  0  0  0
 16 35  1  0  0  0
 19 36  1  0  0  0
 20 37  1  0  0  0
M  END
$$$$
