6eru_ligand
  -I-interpret- 

261262  0  0  0  0  0  0  0  0999 V2000
   18.1930  -35.5250   25.3600 N   0  3  0  0  0
   17.4530  -34.9890   24.2220 C   0  0  0  0  0
   16.6240  -33.7620   24.5770 C   0  0  0  0  0
   16.3110  -33.5030   25.7470 O   0  0  0  0  0
   16.5070  -36.0480   23.6270 C   0  0  0  0  0
   15.3750  -36.2180   24.4920 O   0  0  0  0  0
   17.2360  -37.3800   23.4830 C   0  0  0  0  0
   16.2410  -33.0080   23.5480 N   0  0  0  0  0
   15.3220  -31.9030   23.7820 C   0  0  0  0  0
   14.0040  -32.4050   24.3650 C   0  0  0  0  0
   13.4760  -31.8200   25.3200 O   0  0  0  0  0
   15.0860  -31.1410   22.4790 C   0  0  0  0  0
   16.3570  -30.7830   21.9170 O   0  0  0  0  0
   14.2530  -29.8790   22.7440 C   0  0  0  0  0
   13.4670  -33.4990   23.8110 N   0  0  0  0  0
   12.2100  -34.0470   24.3120 C   0  0  0  0  0
   12.3100  -34.3940   25.7960 C   0  0  0  0  0
   11.4490  -34.0080   26.5960 O   0  0  0  0  0
   11.8010  -35.2740   23.4930 C   0  0  0  0  0
   10.5130  -35.9090   23.9970 C   0  0  0  0  0
   10.4830  -37.2310   24.4450 C   0  0  0  0  0
    9.3340  -35.1670   24.0560 C   0  0  0  0  0
    9.2930  -37.8030   24.9130 C   0  0  0  0  0
    8.1580  -35.7150   24.5140 C   0  0  0  0  0
    8.1380  -37.0330   24.9430 C   0  0  0  0  0
    6.9550  -37.5560   25.4040 O   0  0  0  0  0
   13.3660  -35.1130   26.1860 N   0  0  0  0  0
   13.5770  -35.3990   27.6050 C   0  0  0  0  0
   13.6450  -34.1160   28.4190 C   0  0  0  0  0
   13.0580  -34.0320   29.5050 O   0  0  0  0  0
   14.8500  -36.2200   27.7940 C   0  0  0  0  0
   14.3290  -33.0890   27.8930 N   0  0  0  0  0
   14.4000  -31.8110   28.6000 C   0  0  0  0  0
   13.0170  -31.2090   28.7890 C   0  0  0  0  0
   12.7040  -30.6740   29.8590 O   0  0  0  0  0
   15.3090  -30.8380   27.8430 C   0  0  0  0  0
   16.7760  -31.2270   27.9300 C   0  0  0  0  0
   17.1170  -32.0120   28.8420 O   0  0  0  0  0
   17.5810  -30.7510   27.0960 O   0  0  0  0  0
   12.1750  -31.2890   27.7570 N   0  0  0  0  0
   10.7860  -30.8440   27.8710 C   0  0  0  0  0
   10.0770  -31.5850   28.9920 C   0  0  0  0  0
    9.4440  -30.9700   29.8610 O   0  0  0  0  0
   10.0680  -31.0660   26.5320 C   0  0  0  0  0
    8.6070  -30.6880   26.5300 C   0  0  0  0  0
    7.6600  -31.5610   26.0270 C   0  0  0  0  0
    8.1870  -29.4480   26.9800 C   0  0  0  0  0
    6.3010  -31.2040   25.9840 C   0  0  0  0  0
    6.8460  -29.0990   26.9580 C   0  0  0  0  0
    5.9010  -29.9790   26.4640 C   0  0  0  0  0
   10.1490  -32.9190   28.9680 N   0  0  0  0  0
    9.5700  -33.7060   30.0560 C   0  0  0  0  0
   10.1340  -33.2460   31.4000 C   0  0  0  0  0
    9.3890  -32.9720   32.3420 O   0  0  0  0  0
    9.8170  -35.2080   29.8210 C   0  0  0  0  0
    9.1010  -35.6850   28.5520 C   0  0  0  0  0
    9.3610  -35.9810   31.0410 C   0  0  0  0  0
   11.4630  -33.1050   31.4920 N   0  0  0  0  0
   12.0760  -32.6790   32.7500 C   0  0  0  0  0
   11.6190  -31.2950   33.1900 C   0  0  0  0  0
   11.8090  -30.9370   34.3590 O   0  0  0  0  0
   13.6030  -32.6920   32.6310 C   0  0  0  0  0
   11.0370  -30.4960   32.2830 N   0  0  0  0  0
   10.6850  -29.1260   32.6360 C   0  0  0  0  0
    9.5090  -29.0550   33.5940 C   0  0  0  0  0
    9.3180  -28.0180   34.2380 O   0  0  0  0  0
   10.3490  -28.3070   31.3790 C   0  0  0  0  0
    9.0550  -28.6380   30.8790 O   0  0  0  0  0
    8.7000  -30.1070   33.6810 N   0  0  0  0  0
    7.4640  -30.0240   34.4340 C   0  0  0  0  0
    6.3760  -29.1900   33.7900 C   0  0  0  0  0
    5.3480  -28.9400   34.4300 O   0  0  0  0  0
    6.5630  -28.7360   32.5480 N   0  0  0  0  0
    5.5860  -27.8650   31.8990 C   0  0  0  0  0
    4.9590  -28.5420   30.6740 C   0  0  0  0  0
    4.6920  -27.9040   29.6430 O   0  0  0  0  0
    6.2220  -26.5150   31.5420 C   0  0  0  0  0
    6.6240  -25.6750   32.7910 C   0  0  0  0  0
    7.1340  -24.2660   32.4080 C   0  0  0  0  0
    6.1050  -23.4000   31.8180 N   0  0  0  0  0
    5.1690  -22.7430   32.5060 C   0  0  0  0  0
    5.1020  -22.8480   33.8110 N   0  0  0  0  0
    4.2780  -21.9780   31.8830 N   0  0  0  0  0
    4.7270  -29.8610   30.7800 N   0  0  0  0  0
    4.0620  -30.6380   29.7400 C   0  0  0  0  0
    2.5450  -30.5910   29.8460 C   0  0  0  0  0
    1.8660  -30.9520   28.8810 O   0  0  0  0  0
    4.5150  -32.1100   29.7690 C   0  0  0  0  0
    4.0240  -32.7580   30.9470 O   0  0  0  0  0
    6.0190  -32.2240   29.7230 C   0  0  0  0  0
    1.9990  -30.1540   30.9850 N   0  0  0  0  0
    0.5620  -30.0480   31.1570 C   0  0  0  0  0
   -0.0060  -28.7430   30.5910 C   0  0  0  0  0
    0.6910  -27.9400   29.9720 O   0  0  0  0  0
   -1.3110  -28.5590   30.7940 N   0  0  0  0  0
   -1.9640  -27.3360   30.3560 C   0  0  0  0  0
   -1.3820  -26.1370   31.1020 C   0  0  0  0  0
   -1.1970  -26.1790   32.3230 O   0  0  0  0  0
   -3.4760  -27.4280   30.5760 C   0  0  0  0  0
   -4.1660  -28.4670   29.6870 C   0  0  0  0  0
   -5.6950  -28.5000   29.8800 C   0  0  0  0  0
   -6.3740  -27.3920   29.2080 N   0  0  0  0  0
   -6.8380  -26.3030   29.8240 C   0  0  0  0  0
   -6.7090  -26.1720   31.1410 N   0  0  0  0  0
   -7.4430  -25.3450   29.1250 N   0  0  0  0  0
   -1.0930  -25.0670   30.3600 N   0  0  0  0  0
   -0.3640  -23.9100   30.8690 C   0  0  0  0  0
   -1.3300  -22.7590   31.1200 C   0  0  0  0  0
   -2.1550  -22.4390   30.2560 O   0  0  0  0  0
    0.7290  -23.4870   29.8790 C   0  0  0  0  0
    1.8820  -24.4840   29.7690 C   0  0  0  0  0
    2.5560  -24.4770   28.3790 C   0  0  0  0  0
    1.6450  -24.8100   27.2670 N   0  0  0  0  0
    2.0560  -25.1990   26.0610 C   0  0  0  0  0
    3.3540  -25.3110   25.7940 N   0  0  0  0  0
    1.1670  -25.4750   25.1150 N   0  0  0  0  0
   -1.2420  -22.1540   32.3050 N   0  0  0  0  0
   -2.0960  -21.0240   32.6540 C   0  0  0  0  0
   -1.5290  -19.7170   32.1000 C   0  0  0  0  0
   -0.3170  -19.5680   31.9200 O   0  0  0  0  0
   -2.2410  -20.8980   34.1740 C   0  0  0  0  0
   -3.1750  -21.8330   34.6870 O   0  0  0  0  0
   -2.4280  -18.7710   31.8400 N   0  0  0  0  0
   -2.0600  -17.4120   31.4530 C   0  0  0  0  0
   -1.4430  -16.6350   32.6190 C   0  0  0  0  0
   -1.3340  -17.1160   33.7540 O   0  0  0  0  0
   -3.2820  -16.6500   30.9490 C   0  0  0  0  0
   -1.0920  -15.3860   32.3000 N   0  0  0  0  0
   -0.4960  -14.3500   33.1600 C   0  0  0  0  0
    0.9900  -14.6450   33.2390 C   0  0  0  0  0
    1.8250  -13.8040   32.9140 O   0  0  0  0  0
   -1.1570  -14.2480   34.5500 C   0  0  0  0  0
    1.3960  -15.7490   33.5700 O   0  0  0  0  0
   18.8101  -34.8036   25.7330 H   0  0  0  0  0
   17.5363  -35.8195   26.0828 H   0  0  0  0  0
   18.7480  -36.3253   25.0567 H   0  0  0  0  0
   18.2106  -34.6992   23.4939 H   0  0  0  0  0
   16.1738  -35.7142   22.6443 H   0  0  0  0  0
   14.9151  -35.3803   24.5836 H   0  0  0  0  0
   17.5726  -37.7164   24.4636 H   0  0  0  0  0
   16.5581  -38.1195   23.0568 H   0  0  0  0  0
   18.0964  -37.2527   22.8261 H   0  0  0  0  0
   16.5869  -33.2021   22.6083 H   0  0  0  0  0
   15.7677  -31.2245   24.5094 H   0  0  0  0  0
   14.5375  -31.7725   21.7801 H   0  0  0  0  0
   16.2193  -30.3032   21.0970 H   0  0  0  0  0
   13.2909  -30.1631   23.1703 H   0  0  0  0  0
   14.7853  -29.2340   23.4430 H   0  0  0  0  0
   14.0934  -29.3470   21.8061 H   0  0  0  0  0
   13.9409  -33.9543   23.0309 H   0  0  0  0  0
   11.4396  -33.2836   24.2028 H   0  0  0  0  0
   12.5962  -36.0147   23.5773 H   0  0  0  0  0
   11.6370  -34.9522   22.4646 H   0  0  0  0  0
   11.3967  -37.8252   24.4304 H   0  0  0  0  0
    9.3442  -34.1266   23.7311 H   0  0  0  0  0
    9.2740  -38.8396   25.2494 H   0  0  0  0  0
    7.2475  -35.1163   24.5394 H   0  0  0  0  0
    6.2688  -36.8866   25.3523 H   0  0  0  0  0
   14.0269  -35.4635   25.4926 H   0  0  0  0  0
   12.7272  -35.9790   27.9649 H   0  0  0  0  0
   14.7587  -37.1600   27.2498 H   0  0  0  0  0
   15.7028  -35.6588   27.4120 H   0  0  0  0  0
   14.9943  -36.4253   28.8547 H   0  0  0  0  0
   14.8016  -33.2000   26.9960 H   0  0  0  0  0
   14.8225  -31.9931   29.5881 H   0  0  0  0  0
   15.1948  -29.8515   28.2923 H   0  0  0  0  0
   15.0182  -30.8532   26.7926 H   0  0  0  0  0
   17.1089  -30.1758   26.4895 H   0  0  0  0  0
   12.5067  -31.6683   26.8701 H   0  0  0  0  0
   10.7688  -29.7811   28.1118 H   0  0  0  0  0
   10.1200  -32.1333   26.3171 H   0  0  0  0  0
   10.5616  -30.4293   25.7978 H   0  0  0  0  0
    7.9713  -32.5387   25.6591 H   0  0  0  0  0
    8.9214  -28.7362   27.3569 H   0  0  0  0  0
    5.5667  -31.8959   25.5715 H   0  0  0  0  0
    6.5342  -28.1241   27.3327 H   0  0  0  0  0
    4.8464  -29.7037   26.4551 H   0  0  0  0  0
   10.6090  -33.3896   28.1887 H   0  0  0  0  0
    8.4918  -33.5475   30.0761 H   0  0  0  0  0
   10.8822  -35.3843   29.6714 H   0  0  0  0  0
    8.0291  -35.5164   28.6560 H   0  0  0  0  0
    9.4761  -35.1279   27.6935 H   0  0  0  0  0
    9.2905  -36.7486   28.4075 H   0  0  0  0  0
    9.9246  -35.6476   31.9124 H   0  0  0  0  0
    8.2980  -35.8045   31.2050 H   0  0  0  0  0
    9.5334  -37.0453   30.8806 H   0  0  0  0  0
   12.0507  -33.2957   30.6804 H   0  0  0  0  0
   11.7513  -33.3914   33.5084 H   0  0  0  0  0
   13.9392  -33.7018   32.3955 H   0  0  0  0  0
   13.9101  -32.0111   31.8372 H   0  0  0  0  0
   14.0425  -32.3724   33.5759 H   0  0  0  0  0
   10.8406  -30.8473   31.3457 H   0  0  0  0  0
   11.5590  -28.7070   33.1347 H   0  0  0  0  0
   11.0875  -28.5317   30.6094 H   0  0  0  0  0
   10.3613  -27.2487   31.6395 H   0  0  0  0  0
    8.8718  -28.1133   30.0963 H   0  0  0  0  0
    8.9510  -30.9786   33.2145 H   0  0  0  0  0
    7.7058  -29.5464   35.3835 H   0  0  0  0  0
    7.0759  -31.0394   34.5141 H   0  0  0  0  0
    7.4068  -29.0034   32.0412 H   0  0  0  0  0
    4.7764  -27.6756   32.6039 H   0  0  0  0  0
    5.4842  -25.9407   30.9818 H   0  0  0  0  0
    7.1304  -26.7180   30.9748 H   0  0  0  0  0
    7.4290  -26.1984   33.3069 H   0  0  0  0  0
    5.7408  -25.5569   33.4189 H   0  0  0  0  0
    7.9155  -24.3968   31.6595 H   0  0  0  0  0
    7.4757  -23.7850   33.3245 H   0  0  0  0  0
    6.1058  -23.2923   30.8037 H   0  0  0  0  0
    5.7692  -23.4362   34.3103 H   0  0  0  0  0
    3.5623  -21.4882   32.4198 H   0  0  0  0  0
    4.3101  -21.8808   30.8681 H   0  0  0  0  0
    5.0300  -30.3415   31.6272 H   0  0  0  0  0
    4.3529  -30.1765   28.7964 H   0  0  0  0  0
    4.1043  -32.5981   28.8852 H   0  0  0  0  0
    4.3136  -33.6733   30.9517 H   0  0  0  0  0
    6.3890  -31.7655   28.8059 H   0  0  0  0  0
    6.4474  -31.7125   30.5849 H   0  0  0  0  0
    6.3032  -33.2761   29.7450 H   0  0  0  0  0
    2.6107  -29.8870   31.7564 H   0  0  0  0  0
    0.3503  -30.0695   32.2260 H   0  0  0  0  0
    0.0986  -30.8756   30.6200 H   0  0  0  0  0
   -1.8565  -29.2833   31.2611 H   0  0  0  0  0
   -1.7839  -27.2031   29.2892 H   0  0  0  0  0
   -3.9008  -26.4549   30.3296 H   0  0  0  0  0
   -3.6368  -27.7272   31.6117 H   0  0  0  0  0
   -3.7750  -29.4482   29.9562 H   0  0  0  0  0
   -3.9669  -28.2019   28.6486 H   0  0  0  0  0
   -5.8990  -28.4189   30.9477 H   0  0  0  0  0
   -6.0663  -29.4300   29.4495 H   0  0  0  0  0
   -6.5017  -27.4564   28.1981 H   0  0  0  0  0
   -6.2540  -26.9056   31.6843 H   0  0  0  0  0
   -7.8038  -24.5176   29.6000 H   0  0  0  0  0
   -7.5457  -25.4384   28.1145 H   0  0  0  0  0
   -1.3973  -25.0570   29.3865 H   0  0  0  0  0
    0.1142  -24.1805   31.8104 H   0  0  0  0  0
    1.1462  -22.5463   30.2383 H   0  0  0  0  0
    0.2660  -23.4161   28.8948 H   0  0  0  0  0
    1.4753  -25.4815   29.9357 H   0  0  0  0  0
    2.6355  -24.2026   30.5046 H   0  0  0  0  0
    3.3370  -25.2371   28.3951 H   0  0  0  0  0
    2.9235  -23.4659   28.2035 H   0  0  0  0  0
    0.6409  -24.7381   27.4315 H   0  0  0  0  0
    3.6603  -25.6073   24.8673 H   0  0  0  0  0
    4.0432  -25.1006   26.5159 H   0  0  0  0  0
    0.1698  -25.3892   25.3116 H   0  0  0  0  0
   -0.5600  -22.4900   32.9850 H   0  0  0  0  0
   -3.0745  -21.2087   32.2106 H   0  0  0  0  0
   -2.5963  -19.8936   34.4045 H   0  0  0  0  0
   -1.2707  -21.0938   34.6305 H   0  0  0  0  0
   -3.2418  -21.7275   35.6389 H   0  0  0  0  0
   -3.4179  -19.0056   31.9143 H   0  0  0  0  0
   -1.3186  -17.4989   30.6587 H   0  0  0  0  0
   -3.6980  -17.1649   30.0830 H   0  0  0  0  0
   -4.0308  -16.6030   31.7397 H   0  0  0  0  0
   -2.9871  -15.6396   30.6656 H   0  0  0  0  0
   -1.2592  -15.1137   31.3313 H   0  0  0  0  0
   -0.6689  -13.3663   32.7235 H   0  0  0  0  0
    1.3796  -12.9869   32.6783 H   0  0  0  0  0
   -2.2133  -14.0065   34.4317 H   0  0  0  0  0
   -1.0568  -15.2011   35.0694 H   0  0  0  0  0
   -0.6663  -13.4646   35.1276 H   0  0  0  0  0
  1  2  1  0  0  0
  2  3  1  0  0  0
  2  5  1  0  0  0
  3  4  2  0  0  0
  3  8  1  0  0  0
  5  6  1  0  0  0
  5  7  1  0  0  0
  8  9  1  0  0  0
  9 10  1  0  0  0
  9 12  1  0  0  0
 10 11  2  0  0  0
 10 15  1  0  0  0
 12 13  1  0  0  0
 12 14  1  0  0  0
 15 16  1  0  0  0
 16 17  1  0  0  0
 16 19  1  0  0  0
 17 18  2  0  0  0
 17 27  1  0  0  0
 19 20  1  0  0  0
 20 21  4  0  0  0
 20 22  4  0  0  0
 21 23  4  0  0  0
 22 24  4  0  0  0
 23 25  4  0  0  0
 24 25  4  0  0  0
 25 26  1  0  0  0
 27 28  1  0  0  0
 28 29  1  0  0  0
 28 31  1  0  0  0
 29 30  2  0  0  0
 29 32  1  0  0  0
 32 33  1  0  0  0
 33 34  1  0  0  0
 33 36  1  0  0  0
 34 35  2  0  0  0
 34 40  1  0  0  0
 36 37  1  0  0  0
 37 38  2  0  0  0
 37 39  1  0  0  0
 40 41  1  0  0  0
 41 42  1  0  0  0
 41 44  1  0  0  0
 42 43  2  0  0  0
 42 51  1  0  0  0
 44 45  1  0  0  0
 45 46  4  0  0  0
 45 47  4  0  0  0
 46 48  4  0  0  0
 47 49  4  0  0  0
 48 50  4  0  0  0
 49 50  4  0  0  0
 51 52  1  0  0  0
 52 53  1  0  0  0
 52 55  1  0  0  0
 53 54  2  0  0  0
 53 58  1  0  0  0
 55 56  1  0  0  0
 55 57  1  0  0  0
 58 59  1  0  0  0
 59 60  1  0  0  0
 59 62  1  0  0  0
 60 61  2  0  0  0
 60 63  1  0  0  0
 63 64  1  0  0  0
 64 65  1  0  0  0
 64 67  1  0  0  0
 65 66  2  0  0  0
 65 69  1  0  0  0
 67 68  1  0  0  0
 69 70  1  0  0  0
 70 71  1  0  0  0
 71 72  2  0  0  0
 71 73  1  0  0  0
 73 74  1  0  0  0
 74 75  1  0  0  0
 74 77  1  0  0  0
 75 76  2  0  0  0
 75 84  1  0  0  0
 77 78  1  0  0  0
 78 79  1  0  0  0
 79 80  1  0  0  0
 80 81  1  0  0  0
 81 82  2  0  0  0
 81 83  1  0  0  0
 84 85  1  0  0  0
 85 86  1  0  0  0
 85 88  1  0  0  0
 86 87  2  0  0  0
 86 91  1  0  0  0
 88 89  1  0  0  0
 88 90  1  0  0  0
 91 92  1  0  0  0
 92 93  1  0  0  0
 93 94  2  0  0  0
 93 95  1  0  0  0
 95 96  1  0  0  0
 96 97  1  0  0  0
 96 99  1  0  0  0
 97 98  2  0  0  0
 97106  1  0  0  0
 99100  1  0  0  0
100101  1  0  0  0
101102  1  0  0  0
102103  1  0  0  0
103104  2  0  0  0
103105  1  0  0  0
106107  1  0  0  0
107108  1  0  0  0
107110  1  0  0  0
108109  2  0  0  0
108117  1  0  0  0
110111  1  0  0  0
111112  1  0  0  0
112113  1  0  0  0
113114  1  0  0  0
114115  1  0  0  0
114116  2  0  0  0
117118  1  0  0  0
118119  1  0  0  0
118121  1  0  0  0
119120  2  0  0  0
119123  1  0  0  0
121122  1  0  0  0
123124  1  0  0  0
124125  1  0  0  0
124127  1  0  0  0
125126  2  0  0  0
125128  1  0  0  0
128129  1  0  0  0
129130  1  0  0  0
129132  1  0  0  0
130131  1  0  0  0
130133  2  0  0  0
  1134  1  0  0  0
  1135  1  0  0  0
  1136  1  0  0  0
  2137  1  0  0  0
  5138  1  0  0  0
  6139  1  0  0  0
  7140  1  0  0  0
  7141  1  0  0  0
  7142  1  0  0  0
  8143  1  0  0  0
  9144  1  0  0  0
 12145  1  0  0  0
 13146  1  0  0  0
 14147  1  0  0  0
 14148  1  0  0  0
 14149  1  0  0  0
 15150  1  0  0  0
 16151  1  0  0  0
 19152  1  0  0  0
 19153  1  0  0  0
 21154  1  0  0  0
 22155  1  0  0  0
 23156  1  0  0  0
 24157  1  0  0  0
 26158  1  0  0  0
 27159  1  0  0  0
 28160  1  0  0  0
 31161  1  0  0  0
 31162  1  0  0  0
 31163  1  0  0  0
 32164  1  0  0  0
 33165  1  0  0  0
 36166  1  0  0  0
 36167  1  0  0  0
 39168  1  0  0  0
 40169  1  0  0  0
 41170  1  0  0  0
 44171  1  0  0  0
 44172  1  0  0  0
 46173  1  0  0  0
 47174  1  0  0  0
 48175  1  0  0  0
 49176  1  0  0  0
 50177  1  0  0  0
 51178  1  0  0  0
 52179  1  0  0  0
 55180  1  0  0  0
 56181  1  0  0  0
 56182  1  0  0  0
 56183  1  0  0  0
 57184  1  0  0  0
 57185  1  0  0  0
 57186  1  0  0  0
 58187  1  0  0  0
 59188  1  0  0  0
 62189  1  0  0  0
 62190  1  0  0  0
 62191  1  0  0  0
 63192  1  0  0  0
 64193  1  0  0  0
 67194  1  0  0  0
 67195  1  0  0  0
 68196  1  0  0  0
 69197  1  0  0  0
 70198  1  0  0  0
 70199  1  0  0  0
 73200  1  0  0  0
 74201  1  0  0  0
 77202  1  0  0  0
 77203  1  0  0  0
 78204  1  0  0  0
 78205  1  0  0  0
 79206  1  0  0  0
 79207  1  0  0  0
 80208  1  0  0  0
 82209  1  0  0  0
 83210  1  0  0  0
 83211  1  0  0  0
 84212  1  0  0  0
 85213  1  0  0  0
 88214  1  0  0  0
 89215  1  0  0  0
 90216  1  0  0  0
 90217  1  0  0  0
 90218  1  0  0  0
 91219  1  0  0  0
 92220  1  0  0  0
 92221  1  0  0  0
 95222  1  0  0  0
 96223  1  0  0  0
 99224  1  0  0  0
 99225  1  0  0  0
100226  1  0  0  0
100227  1  0  0  0
101228  1  0  0  0
101229  1  0  0  0
102230  1  0  0  0
104231  1  0  0  0
105232  1  0  0  0
105233  1  0  0  0
106234  1  0  0  0
107235  1  0  0  0
110236  1  0  0  0
110237  1  0  0  0
111238  1  0  0  0
111239  1  0  0  0
112240  1  0  0  0
112241  1  0  0  0
113242  1  0  0  0
115243  1  0  0  0
115244  1  0  0  0
116245  1  0  0  0
117246  1  0  0  0
118247  1  0  0  0
121248  1  0  0  0
121249  1  0  0  0
122250  1  0  0  0
123251  1  0  0  0
124252  1  0  0  0
127253  1  0  0  0
127254  1  0  0  0
127255  1  0  0  0
128256  1  0  0  0
129257  1  0  0  0
131258  1  0  0  0
132259  1  0  0  0
132260  1  0  0  0
132261  1  0  0  0
M  END
$$$$
