### 
### Created by X-TOOL on Mon Aug  2 16:13:18 2021
### 

@<TRIPOS>MOLECULE
6eru_ligand
  262   263     1     0     0
SMALL
GAST_HUCK


@<TRIPOS>ATOM
      1 N          18.1930  -35.5250   25.3600 N.4       1 THR         0.2398
      2 CA         17.4530  -34.9890   24.2220 C.3       1 THR         0.0910
      3 C          16.6240  -33.7620   24.5770 C.2       1 THR         0.2293
      4 O          16.3110  -33.5030   25.7470 O.2       1 THR        -0.3906
      5 CB         16.5070  -36.0480   23.6270 C.3       1 THR         0.1120
      6 OG1        15.3750  -36.2180   24.4920 O.3       1 THR        -0.3840
      7 CG2        17.2360  -37.3800   23.4830 C.3       1 THR        -0.0314
      8 N          16.2410  -33.0080   23.5480 N.am      1 THR        -0.2585
      9 CA         15.3220  -31.9030   23.7820 C.3       1 THR         0.1566
     10 C          14.0040  -32.4050   24.3650 C.2       1 THR         0.2066
     11 O          13.4760  -31.8200   25.3200 O.2       1 THR        -0.3943
     12 CB         15.0860  -31.1410   22.4790 C.3       1 THR         0.0924
     13 OG1        16.3570  -30.7830   21.9170 O.3       1 THR        -0.3874
     14 CG2        14.2530  -29.8790   22.7440 C.3       1 THR        -0.0346
     15 N          13.4670  -33.4990   23.8110 N.am      1 THR        -0.2621
     16 CA         12.2100  -34.0470   24.3120 C.3       1 THR         0.1390
     17 C          12.3100  -34.3940   25.7960 C.2       1 THR         0.2057
     18 O          11.4490  -34.0080   26.5960 O.2       1 THR        -0.3942
     19 CB         11.8010  -35.2740   23.4930 C.3       1 THR         0.0163
     20 CG         10.5130  -35.9090   23.9970 C.ar      1 THR        -0.0493
     21 CD1        10.4830  -37.2310   24.4450 C.ar      1 THR        -0.0685
     22 CD2         9.3340  -35.1670   24.0560 C.ar      1 THR        -0.0685
     23 CE1         9.2930  -37.8030   24.9130 C.ar      1 THR        -0.0398
     24 CE2         8.1580  -35.7150   24.5140 C.ar      1 THR        -0.0398
     25 CZ          8.1380  -37.0330   24.9430 C.ar      1 THR         0.0805
     26 OH          6.9550  -37.5560   25.4040 O.3       1 THR        -0.3376
     27 N          13.3660  -35.1130   26.1860 N.am      1 THR        -0.2639
     28 CA         13.5770  -35.3990   27.6050 C.3       1 THR         0.1282
     29 C          13.6450  -34.1160   28.4190 C.2       1 THR         0.2037
     30 O          13.0580  -34.0320   29.5050 O.2       1 THR        -0.3944
     31 CB         14.8500  -36.2200   27.7940 C.3       1 THR        -0.0244
     32 N          14.3290  -33.0890   27.8930 N.am      1 THR        -0.2622
     33 CA         14.4000  -31.8110   28.6000 C.3       1 THR         0.1423
     34 C          13.0170  -31.2090   28.7890 C.2       1 THR         0.2057
     35 O          12.7040  -30.6740   29.8590 O.2       1 THR        -0.3943
     36 CB         15.3090  -30.8380   27.8430 C.3       1 THR         0.0406
     37 CG         16.7760  -31.2270   27.9300 C.2       1 THR         0.0393
     38 OD1        17.1170  -32.0120   28.8420 O.co2     1 THR        -0.5688
     39 OD2        17.5810  -30.7510   27.0960 O.co2     1 THR        -0.5688
     40 N          12.1750  -31.2890   27.7570 N.am      1 THR        -0.2618
     41 CA         10.7860  -30.8440   27.8710 C.3       1 THR         0.1404
     42 C          10.0770  -31.5850   28.9920 C.2       1 THR         0.2060
     43 O           9.4440  -30.9700   29.8610 O.2       1 THR        -0.3942
     44 CB         10.0680  -31.0660   26.5320 C.3       1 THR         0.0214
     45 CG          8.6070  -30.6880   26.5300 C.ar      1 THR        -0.0386
     46 CD1         7.6600  -31.5610   26.0270 C.ar      1 THR        -0.0601
     47 CD2         8.1870  -29.4480   26.9800 C.ar      1 THR        -0.0601
     48 CE1         6.3010  -31.2040   25.9840 C.ar      1 THR        -0.0686
     49 CE2         6.8460  -29.0990   26.9580 C.ar      1 THR        -0.0686
     50 CZ          5.9010  -29.9790   26.4640 C.ar      1 THR        -0.0687
     51 N          10.1490  -32.9190   28.9680 N.am      1 THR        -0.2633
     52 CA          9.5700  -33.7060   30.0560 C.3       1 THR         0.1333
     53 C          10.1340  -33.2460   31.4000 C.2       1 THR         0.2041
     54 O           9.3890  -32.9720   32.3420 O.2       1 THR        -0.3944
     55 CB          9.8170  -35.2080   29.8210 C.3       1 THR        -0.0063
     56 CG1         9.1010  -35.6850   28.5520 C.3       1 THR        -0.0584
     57 CG2         9.3610  -35.9810   31.0410 C.3       1 THR        -0.0584
     58 N          11.4630  -33.1050   31.4920 N.am      1 THR        -0.2640
     59 CA         12.0760  -32.6790   32.7500 C.3       1 THR         0.1282
     60 C          11.6190  -31.2950   33.1900 C.2       1 THR         0.2037
     61 O          11.8090  -30.9370   34.3590 O.2       1 THR        -0.3944
     62 CB         13.6030  -32.6920   32.6310 C.3       1 THR        -0.0244
     63 N          11.0370  -30.4960   32.2830 N.am      1 THR        -0.2616
     64 CA         10.6850  -29.1260   32.6360 C.3       1 THR         0.1539
     65 C           9.5090  -29.0550   33.5940 C.2       1 THR         0.2060
     66 O           9.3180  -28.0180   34.2380 O.2       1 THR        -0.3943
     67 CB         10.3490  -28.3070   31.3790 C.3       1 THR         0.0843
     68 OG          9.0550  -28.6380   30.8790 O.3       1 THR        -0.3903
     69 N           8.7000  -30.1070   33.6810 N.am      1 THR        -0.2663
     70 CA          7.4640  -30.0240   34.4340 C.3       1 THR         0.1201
     71 C           6.3760  -29.1900   33.7900 C.2       1 THR         0.2007
     72 O           5.3480  -28.9400   34.4300 O.2       1 THR        -0.3947
     73 N           6.5630  -28.7360   32.5480 N.am      1 THR        -0.2640
     74 CA          5.5860  -27.8650   31.8990 C.3       1 THR         0.1311
     75 C           4.9590  -28.5420   30.6740 C.2       1 THR         0.2040
     76 O           4.6920  -27.9040   29.6430 O.2       1 THR        -0.3944
     77 CB          6.2220  -26.5150   31.5420 C.3       1 THR        -0.0092
     78 CG          6.6240  -25.6750   32.7910 C.3       1 THR        -0.0156
     79 CD          7.1340  -24.2660   32.4080 C.3       1 THR         0.0627
     80 NE          6.1050  -23.4000   31.8180 N.pl3     1 THR        -0.2723
     81 CZ          5.1690  -22.7430   32.5060 C.cat     1 THR         0.2882
     82 NH1         5.1020  -22.8480   33.8110 N.pl3     1 THR        -0.2849
     83 NH2         4.2780  -21.9780   31.8830 N.pl3     1 THR        -0.2849
     84 N           4.7270  -29.8610   30.7800 N.am      1 THR        -0.2613
     85 CA          4.0620  -30.6380   29.7400 C.3       1 THR         0.1565
     86 C           2.5450  -30.5910   29.8460 C.2       1 THR         0.2063
     87 O           1.8660  -30.9520   28.8810 O.2       1 THR        -0.3943
     88 CB          4.5150  -32.1100   29.7690 C.3       1 THR         0.0924
     89 OG1         4.0240  -32.7580   30.9470 O.3       1 THR        -0.3874
     90 CG2         6.0190  -32.2240   29.7230 C.3       1 THR        -0.0346
     91 N           1.9990  -30.1540   30.9850 N.am      1 THR        -0.2663
     92 CA          0.5620  -30.0480   31.1570 C.3       1 THR         0.1201
     93 C          -0.0060  -28.7430   30.5910 C.2       1 THR         0.2007
     94 O           0.6910  -27.9400   29.9720 O.2       1 THR        -0.3947
     95 N          -1.3110  -28.5590   30.7940 N.am      1 THR        -0.2640
     96 CA         -1.9640  -27.3360   30.3560 C.3       1 THR         0.1311
     97 C          -1.3820  -26.1370   31.1020 C.2       1 THR         0.2039
     98 O          -1.1970  -26.1790   32.3230 O.2       1 THR        -0.3944
     99 CB         -3.4760  -27.4280   30.5760 C.3       1 THR        -0.0092
    100 CG         -4.1660  -28.4670   29.6870 C.3       1 THR        -0.0156
    101 CD         -5.6950  -28.5000   29.8800 C.3       1 THR         0.0627
    102 NE         -6.3740  -27.3920   29.2080 N.pl3     1 THR        -0.2723
    103 CZ         -6.8380  -26.3030   29.8240 C.cat     1 THR         0.2882
    104 NH1        -6.7090  -26.1720   31.1410 N.pl3     1 THR        -0.2849
    105 NH2        -7.4430  -25.3450   29.1250 N.pl3     1 THR        -0.2849
    106 N          -1.0930  -25.0670   30.3600 N.am      1 THR        -0.2637
    107 CA         -0.3640  -23.9100   30.8690 C.3       1 THR         0.1311
    108 C          -1.3300  -22.7590   31.1200 C.2       1 THR         0.2040
    109 O          -2.1550  -22.4390   30.2560 O.2       1 THR        -0.3944
    110 CB          0.7290  -23.4870   29.8790 C.3       1 THR        -0.0092
    111 CG          1.8820  -24.4840   29.7690 C.3       1 THR        -0.0156
    112 CD          2.5560  -24.4770   28.3790 C.3       1 THR         0.0627
    113 NE          1.6450  -24.8100   27.2670 N.pl3     1 THR        -0.2723
    114 CZ          2.0560  -25.1990   26.0610 C.cat     1 THR         0.2882
    115 NH1         3.3540  -25.3110   25.7940 N.pl3     1 THR        -0.2849
    116 NH2         1.1670  -25.4750   25.1150 N.pl3     1 THR        -0.2849
    117 N          -1.2420  -22.1540   32.3050 N.am      1 THR        -0.2616
    118 CA         -2.0960  -21.0240   32.6540 C.3       1 THR         0.1539
    119 C          -1.5290  -19.7170   32.1000 C.2       1 THR         0.2062
    120 O          -0.3170  -19.5680   31.9200 O.2       1 THR        -0.3943
    121 CB         -2.2410  -20.8980   34.1740 C.3       1 THR         0.0843
    122 OG         -3.1750  -21.8330   34.6870 O.3       1 THR        -0.3903
    123 N          -2.4280  -18.7710   31.8400 N.am      1 THR        -0.2639
    124 CA         -2.0600  -17.4120   31.4530 C.3       1 THR         0.1282
    125 C          -1.4430  -16.6350   32.6190 C.2       1 THR         0.2031
    126 O          -1.3340  -17.1160   33.7540 O.2       1 THR        -0.3944
    127 CB         -3.2820  -16.6500   30.9490 C.3       1 THR        -0.0244
    128 N          -1.0920  -15.3860   32.3000 N.am      1 THR        -0.2698
    129 CA         -0.4960  -14.3500   33.1600 C.3       1 THR         0.0916
    130 C           0.9900  -14.6450   33.2390 C.2       1 THR         0.0598
    131 O           1.8250  -13.8040   32.9140 O.co2     1 THR        -0.5666
    132 CB         -1.1570  -14.2480   34.5500 C.3       1 THR        -0.0300
    133 OXT         1.3960  -15.7490   33.5700 O.co2     1 THR        -0.5666
    134 H1         18.8032  -34.8128   25.7295 H         1 THR         0.2016
    135 H2         18.7419  -36.3160   25.0615 H         1 THR         0.2016
    136 H3         17.5450  -35.8163   26.0751 H         1 THR         0.2016
    137 H4         18.1852  -34.7001   23.4536 H         1 THR         0.1125
    138 H5         16.1638  -35.7128   22.6372 H         1 THR         0.0674
    139 H6         14.7920  -36.8715   24.1240 H         1 THR         0.2102
    140 H7         16.5514  -38.1285   23.0574 H         1 THR         0.0258
    141 H8         17.5805  -37.7182   24.4714 H         1 THR         0.0258
    142 H9         18.1018  -37.2540   22.8163 H         1 THR         0.0258
    143 H10        16.5802  -33.1983   22.6267 H         1 THR         0.1885
    144 H11        15.7807  -31.2164   24.5088 H         1 THR         0.0826
    145 H12        14.5441  -31.7871   21.7727 H         1 THR         0.0639
    146 H13        16.2207  -30.3082   21.1055 H         1 THR         0.2101
    147 H14        14.0912  -29.3412   21.7982 H         1 THR         0.0257
    148 H15        14.7892  -29.2271   23.4493 H         1 THR         0.0257
    149 H16        13.2817  -30.1644   23.1743 H         1 THR         0.0257
    150 H17        13.9316  -33.9454   23.0462 H         1 THR         0.1885
    151 H18        11.4309  -33.2796   24.1936 H         1 THR         0.0821
    152 H19        12.6073  -36.0201   23.5489 H         1 THR         0.0453
    153 H20        11.6570  -34.9674   22.4465 H         1 THR         0.0453
    154 H21        11.3916  -37.8220   24.4305 H         1 THR         0.0530
    155 H22         9.3442  -34.1323   23.7329 H         1 THR         0.0530
    156 H23         9.2741  -38.8339   25.2476 H         1 THR         0.0525
    157 H24         7.2525  -35.1196   24.5392 H         1 THR         0.0525
    158 H25         7.0890  -38.4604   25.6618 H         1 THR         0.2458
    159 H26        14.0140  -35.4566   25.5062 H         1 THR         0.1883
    160 H27        12.7244  -35.9918   27.9679 H         1 THR         0.0797
    161 H28        14.9967  -36.4279   28.8642 H         1 THR         0.0277
    162 H29        15.7115  -35.6547   27.4089 H         1 THR         0.0277
    163 H30        14.7591  -37.1690   27.2453 H         1 THR         0.0277
    164 H31        14.7924  -33.1978   27.0135 H         1 THR         0.1884
    165 H32        14.8352  -31.9908   29.5941 H         1 THR         0.0819
    166 H33        15.1844  -29.8325   28.2713 H         1 THR         0.0478
    167 H34        15.0093  -30.8255   26.7847 H         1 THR         0.0478
    168 H35        12.5002  -31.6609   26.8875 H         1 THR         0.1885
    169 H36        10.7767  -29.7688   28.1029 H         1 THR         0.0823
    170 H37        10.1464  -32.1324   26.2737 H         1 THR         0.0474
    171 H38        10.5786  -30.4646   25.7655 H         1 THR         0.0474
    172 H39         7.9695  -32.5333   25.6611 H         1 THR         0.0557
    173 H40         8.9173  -28.7401   27.3548 H         1 THR         0.0557
    174 H41         5.5707  -31.8921   25.5738 H         1 THR         0.0599
    175 H42         6.5359  -28.1294   27.3307 H         1 THR         0.0599
    176 H43         4.8522  -29.7053   26.4551 H         1 THR         0.0559
    177 H44        10.6000  -33.3804   28.2040 H         1 THR         0.1883
    178 H45         8.4832  -33.5364   30.0656 H         1 THR         0.0802
    179 H46        10.8967  -35.3708   29.6877 H         1 THR         0.0343
    180 H47         9.2915  -36.7584   28.4050 H         1 THR         0.0234
    181 H48         9.4787  -35.1235   27.6848 H         1 THR         0.0234
    182 H49         8.0191  -35.5155   28.6557 H         1 THR         0.0234
    183 H50         9.8947  -35.6122   31.9293 H         1 THR         0.0234
    184 H51         9.5785  -37.0500   30.9002 H         1 THR         0.0234
    185 H52         8.2786  -35.8422   31.1796 H         1 THR         0.0234
    186 H53        12.0392  -33.2920   30.6963 H         1 THR         0.1883
    187 H54        11.7806  -33.3981   33.5282 H         1 THR         0.0797
    188 H55        14.0478  -32.3696   33.5840 H         1 THR         0.0277
    189 H56        13.9143  -32.0051   31.8302 H         1 THR         0.0277
    190 H57        13.9436  -33.7106   32.3934 H         1 THR         0.0277
    191 H58        10.8445  -30.8404   31.3641 H         1 THR         0.1884
    192 H59        11.5571  -28.6706   33.1279 H         1 THR         0.0823
    193 H60        11.0986  -28.5180   30.6022 H         1 THR         0.0606
    194 H61        10.3733  -27.2365   31.6310 H         1 THR         0.0606
    195 H62         9.0295  -29.5611   30.6559 H         1 THR         0.2097
    196 H63         8.9461  -30.9615   33.2236 H         1 THR         0.1881
    197 H64         7.6922  -29.5865   35.4171 H         1 THR         0.0763
    198 H65         7.0769  -31.0449   34.5679 H         1 THR         0.0763
    199 H66         7.3903  -28.9981   32.0511 H         1 THR         0.1883
    200 H67         4.7777  -27.6725   32.6199 H         1 THR         0.0800
    201 H68         5.5002  -25.9348   30.9484 H         1 THR         0.0313
    202 H69         7.1245  -26.7019   30.9415 H         1 THR         0.0313
    203 H70         7.4212  -26.2051   33.3328 H         1 THR         0.0301
    204 H71         5.7452  -25.5682   33.4439 H         1 THR         0.0301
    205 H72         7.9503  -24.3794   31.6795 H         1 THR         0.0689
    206 H73         7.5180  -23.7781   33.3160 H         1 THR         0.0689
    207 H74         6.1058  -23.2913   30.7938 H         1 THR         0.2642
    208 H75         4.3756  -22.3366   34.3322 H         1 THR         0.2615
    209 H76         5.7758  -23.4419   34.3151 H         1 THR         0.2615
    210 H77         4.3104  -21.8799   30.8582 H         1 THR         0.2615
    211 H78         3.5552  -21.4834   32.4251 H         1 THR         0.2615
    212 H79         5.0241  -30.3321   31.6106 H         1 THR         0.1884
    213 H80         4.3487  -30.2066   28.7696 H         1 THR         0.0826
    214 H81         4.0988  -32.6180   28.8866 H         1 THR         0.0639
    215 H82         4.3106  -33.6637   30.9516 H         1 THR         0.2101
    216 H83         6.3071  -33.2854   29.7452 H         1 THR         0.0257
    217 H84         6.4526  -31.7082   30.5924 H         1 THR         0.0257
    218 H85         6.3937  -31.7617   28.7979 H         1 THR         0.0257
    219 H86         2.5987  -29.8923   31.7412 H         1 THR         0.1881
    220 H87         0.3317  -30.0953   32.2316 H         1 THR         0.0763
    221 H88         0.0825  -30.8933   30.6417 H         1 THR         0.0763
    222 H89        -1.8458  -29.2691   31.2520 H         1 THR         0.1883
    223 H90        -1.7760  -27.2038   29.2803 H         1 THR         0.0800
    224 H91        -3.9180  -26.4429   30.3658 H         1 THR         0.0313
    225 H92        -3.6583  -27.6949   31.6274 H         1 THR         0.0313
    226 H93        -3.7602  -29.4605   29.9282 H         1 THR         0.0301
    227 H94        -3.9500  -28.2281   28.6352 H         1 THR         0.0301
    228 H95        -5.9149  -28.4462   30.9564 H         1 THR         0.0689
    229 H96        -6.0804  -29.4468   29.4739 H         1 THR         0.0689
    230 H97        -6.5029  -27.4570   28.1882 H         1 THR         0.2642
    231 H98        -7.0686  -25.3298   31.6124 H         1 THR         0.2615
    232 H99        -6.2495  -26.9128   31.6897 H         1 THR         0.2615
    233 H100       -7.5467  -25.4393   28.1046 H         1 THR         0.2615
    234 H101       -7.8074  -24.5095   29.6046 H         1 THR         0.2615
    235 H102       -1.3913  -25.0572   29.4056 H         1 THR         0.1883
    236 H103        0.1129  -24.1845   31.8215 H         1 THR         0.0800
    237 H104        1.1374  -22.5194   30.2061 H         1 THR         0.0313
    238 H105        0.2718  -23.3748   28.8849 H         1 THR         0.0313
    239 H106        1.4920  -25.4938   29.9642 H         1 THR         0.0301
    240 H107        2.6382  -24.2302   30.5264 H         1 THR         0.0301
    241 H108        3.3739  -25.2125   28.3878 H         1 THR         0.0689
    242 H109        2.9677  -23.4729   28.1996 H         1 THR         0.0689
    243 H110        0.6311  -24.7374   27.4331 H         1 THR         0.2642
    244 H111        3.6633  -25.6124   24.8589 H         1 THR         0.2615
    245 H112        4.0500  -25.0963   26.5223 H         1 THR         0.2615
    246 H113        0.1600  -25.3906   25.3142 H         1 THR         0.2615
    247 H114        1.4841  -25.7736   24.1816 H         1 THR         0.2615
    248 H115       -0.5733  -22.4834   32.9716 H         1 THR         0.1884
    249 H116       -3.0908  -21.1924   32.2157 H         1 THR         0.0823
    250 H117       -2.5831  -19.8812   34.4172 H         1 THR         0.0606
    251 H118       -1.2620  -21.0774   34.6424 H         1 THR         0.0606
    252 H119       -3.2411  -21.7286   35.6290 H         1 THR         0.2097
    253 H120       -3.3985  -19.0010   31.9129 H         1 THR         0.1883
    254 H121       -1.3198  -17.4735   30.6417 H         1 THR         0.0797
    255 H122       -2.9857  -15.6301   30.6626 H         1 THR         0.0277
    256 H123       -4.0385  -16.6018   31.7461 H         1 THR         0.0277
    257 H124       -3.7027  -17.1686   30.0749 H         1 THR         0.0277
    258 H125       -1.2559  -15.1191   31.3503 H         1 THR         0.1875
    259 H126       -0.6300  -13.3759   32.6670 H         1 THR         0.0723
    260 H127       -0.6626  -13.4577   35.1340 H         1 THR         0.0270
    261 H128       -1.0566  -15.2093   35.0752 H         1 THR         0.0270
    262 H129       -2.2231  -14.0042   34.4321 H         1 THR         0.0270
@<TRIPOS>BOND
     1    1    2 1  
     2    2    3 1  
     3    2    5 1  
     4    3    4 2  
     5    3    8 am 
     6    5    6 1  
     7    5    7 1  
     8    8    9 1  
     9    9   10 1  
    10    9   12 1  
    11   10   11 2  
    12   10   15 am 
    13   12   13 1  
    14   12   14 1  
    15   15   16 1  
    16   16   17 1  
    17   16   19 1  
    18   17   18 2  
    19   17   27 am 
    20   19   20 1  
    21   20   21 ar 
    22   20   22 ar 
    23   21   23 ar 
    24   22   24 ar 
    25   23   25 ar 
    26   24   25 ar 
    27   25   26 1  
    28   27   28 1  
    29   28   29 1  
    30   28   31 1  
    31   29   30 2  
    32   29   32 am 
    33   32   33 1  
    34   33   34 1  
    35   33   36 1  
    36   34   35 2  
    37   34   40 am 
    38   36   37 1  
    39   37   38 ar 
    40   37   39 ar 
    41   40   41 1  
    42   41   42 1  
    43   41   44 1  
    44   42   43 2  
    45   42   51 am 
    46   44   45 1  
    47   45   46 ar 
    48   45   47 ar 
    49   46   48 ar 
    50   47   49 ar 
    51   48   50 ar 
    52   49   50 ar 
    53   51   52 1  
    54   52   53 1  
    55   52   55 1  
    56   53   54 2  
    57   53   58 am 
    58   55   56 1  
    59   55   57 1  
    60   58   59 1  
    61   59   60 1  
    62   59   62 1  
    63   60   61 2  
    64   60   63 am 
    65   63   64 1  
    66   64   65 1  
    67   64   67 1  
    68   65   66 2  
    69   65   69 am 
    70   67   68 1  
    71   69   70 1  
    72   70   71 1  
    73   71   72 2  
    74   71   73 am 
    75   73   74 1  
    76   74   75 1  
    77   74   77 1  
    78   75   76 2  
    79   75   84 am 
    80   77   78 1  
    81   78   79 1  
    82   79   80 1  
    83   80   81 ar 
    84   81   82 ar 
    85   81   83 ar 
    86   84   85 1  
    87   85   86 1  
    88   85   88 1  
    89   86   87 2  
    90   86   91 am 
    91   88   89 1  
    92   88   90 1  
    93   91   92 1  
    94   92   93 1  
    95   93   94 2  
    96   93   95 am 
    97   95   96 1  
    98   96   97 1  
    99   96   99 1  
   100   97   98 2  
   101   97  106 am 
   102   99  100 1  
   103  100  101 1  
   104  101  102 1  
   105  102  103 ar 
   106  103  104 ar 
   107  103  105 ar 
   108  106  107 1  
   109  107  108 1  
   110  107  110 1  
   111  108  109 2  
   112  108  117 am 
   113  110  111 1  
   114  111  112 1  
   115  112  113 1  
   116  113  114 ar 
   117  114  115 ar 
   118  114  116 ar 
   119  117  118 1  
   120  118  119 1  
   121  118  121 1  
   122  119  120 2  
   123  119  123 am 
   124  121  122 1  
   125  123  124 1  
   126  124  125 1  
   127  124  127 1  
   128  125  126 2  
   129  125  128 am 
   130  128  129 1  
   131  129  130 1  
   132  129  132 1  
   133  130  131 ar 
   134  130  133 ar 
   135    1  134 1  
   136    1  135 1  
   137    1  136 1  
   138    2  137 1  
   139    5  138 1  
   140    6  139 1  
   141    7  140 1  
   142    7  141 1  
   143    7  142 1  
   144    8  143 1  
   145    9  144 1  
   146   12  145 1  
   147   13  146 1  
   148   14  147 1  
   149   14  148 1  
   150   14  149 1  
   151   15  150 1  
   152   16  151 1  
   153   19  152 1  
   154   19  153 1  
   155   21  154 1  
   156   22  155 1  
   157   23  156 1  
   158   24  157 1  
   159   26  158 1  
   160   27  159 1  
   161   28  160 1  
   162   31  161 1  
   163   31  162 1  
   164   31  163 1  
   165   32  164 1  
   166   33  165 1  
   167   36  166 1  
   168   36  167 1  
   169   40  168 1  
   170   41  169 1  
   171   44  170 1  
   172   44  171 1  
   173   46  172 1  
   174   47  173 1  
   175   48  174 1  
   176   49  175 1  
   177   50  176 1  
   178   51  177 1  
   179   52  178 1  
   180   55  179 1  
   181   56  180 1  
   182   56  181 1  
   183   56  182 1  
   184   57  183 1  
   185   57  184 1  
   186   57  185 1  
   187   58  186 1  
   188   59  187 1  
   189   62  188 1  
   190   62  189 1  
   191   62  190 1  
   192   63  191 1  
   193   64  192 1  
   194   67  193 1  
   195   67  194 1  
   196   68  195 1  
   197   69  196 1  
   198   70  197 1  
   199   70  198 1  
   200   73  199 1  
   201   74  200 1  
   202   77  201 1  
   203   77  202 1  
   204   78  203 1  
   205   78  204 1  
   206   79  205 1  
   207   79  206 1  
   208   80  207 1  
   209   82  208 1  
   210   82  209 1  
   211   83  210 1  
   212   83  211 1  
   213   84  212 1  
   214   85  213 1  
   215   88  214 1  
   216   89  215 1  
   217   90  216 1  
   218   90  217 1  
   219   90  218 1  
   220   91  219 1  
   221   92  220 1  
   222   92  221 1  
   223   95  222 1  
   224   96  223 1  
   225   99  224 1  
   226   99  225 1  
   227  100  226 1  
   228  100  227 1  
   229  101  228 1  
   230  101  229 1  
   231  102  230 1  
   232  104  231 1  
   233  104  232 1  
   234  105  233 1  
   235  105  234 1  
   236  106  235 1  
   237  107  236 1  
   238  110  237 1  
   239  110  238 1  
   240  111  239 1  
   241  111  240 1  
   242  112  241 1  
   243  112  242 1  
   244  113  243 1  
   245  115  244 1  
   246  115  245 1  
   247  116  246 1  
   248  116  247 1  
   249  117  248 1  
   250  118  249 1  
   251  121  250 1  
   252  121  251 1  
   253  122  252 1  
   254  123  253 1  
   255  124  254 1  
   256  127  255 1  
   257  127  256 1  
   258  127  257 1  
   259  128  258 1  
   260  129  259 1  
   261  132  260 1  
   262  132  261 1  
   263  132  262 1  
@<TRIPOS>SUBSTRUCTURE
     1 THR         1

