4mo8_ligand
  -I-interpret- 

 27 27  0  0  0  0  0  0  0  0999 V2000
   -5.2720    1.0160   16.3920 S   0  0  0  0  0
   -4.6950    1.3190   17.6640 O   0  0  0  0  0
   -6.6160    1.4200   16.1170 O   0  0  0  0  0
   -4.2660    1.7550   15.3610 N   0  0  0  0  0
   -4.3770    1.4240   13.9240 C   0  0  0  0  0
   -4.7620    2.6430   13.1590 C   0  0  0  0  0
   -3.0370    5.6360   14.2580 N   0  0  0  0  0
   -1.8430    3.0400   12.0910 N   0  0  0  0  0
   -2.5170    3.8890   12.9950 C   0  0  0  0  0
   -2.0460    5.0460   13.5560 C   0  0  0  0  0
   -4.0960    4.8550   14.1470 C   0  0  0  0  0
   -5.3780    5.0870   14.8300 C   0  0  0  0  0
   -3.8330    3.7600   13.3880 N   0  0  0  0  0
   -0.6440    3.2610   11.9030 O   0  0  0  0  0
   -2.4650    2.1620   11.4940 O   0  0  0  0  0
   -5.1640   -0.5580   16.1400 N   0  0  0  0  0
   -3.5760    2.4290   15.6928 H   0  0  0  0  0
   -5.1374    0.6551   13.7870 H   0  0  0  0  0
   -3.4168    1.0570   13.5615 H   0  0  0  0  0
   -5.7528    2.9527   13.4913 H   0  0  0  0  0
   -4.7414    2.3973   12.0972 H   0  0  0  0  0
   -1.0312    5.4300   13.4522 H   0  0  0  0  0
   -5.2189    5.0873   15.9083 H   0  0  0  0  0
   -5.7837    6.0503   14.5210 H   0  0  0  0  0
   -6.0780    4.2946   14.5650 H   0  0  0  0  0
   -4.7325   -1.1586   16.8426 H   0  0  0  0  0
   -5.5265   -0.9623   15.2766 H   0  0  0  0  0
  1  2  2  0  0  0
  1  3  2  0  0  0
  4  1  1  0  0  0
  1 16  1  0  0  0
  5  4  1  0  0  0
  6  5  1  0  0  0
 13  6  1  0  0  0
 10  7  4  0  0  0
  7 11  4  0  0  0
  9  8  1  0  0  0
  8 14  2  0  0  0
  8 15  2  0  0  0
  9 10  4  0  0  0
  9 13  4  0  0  0
 11 12  1  0  0  0
 11 13  4  0  0  0
  4 17  1  0  0  0
  5 18  1  0  0  0
  5 19  1  0  0  0
  6 20  1  0  0  0
  6 21  1  0  0  0
 10 22  1  0  0  0
 12 23  1  0  0  0
 12 24  1  0  0  0
 12 25  1  0  0  0
 16 26  1  0  0  0
 16 27  1  0  0  0
M  END
$$$$
