3b50_ligand
  -I-interpret- 

 40 40  0  0  0  0  0  0  0  0999 V2000
    7.7790   -9.5130  -11.1610 C   0  0  0  0  0
    9.0520   -9.2390  -11.9040 C   0  0  0  0  0
   10.1800   -8.7400  -11.0090 C   0  0  0  0  0
   11.3590   -8.2780  -11.8590 C   0  0  0  0  0
   10.8240   -7.1970  -12.8110 C   0  0  0  0  0
    9.7250   -7.8030  -13.6960 C   0  0  0  0  0
    9.1030   -6.7920  -14.6600 C   0  0  0  0  0
    7.9550   -7.4210  -15.4450 C   0  0  0  0  0
    7.3850   -6.4740  -16.4860 C   0  0  0  0  0
   12.4520   -5.4880  -13.5230 C   0  0  0  0  0
   13.5640   -5.1490  -14.4890 C   0  0  0  0  0
   11.9210   -6.7250  -13.6610 N   0  0  0  0  0
    7.3530  -10.6830  -11.1010 O   0  0  0  0  0
    7.1790   -8.5230  -10.6660 O   0  0  0  0  0
    9.4450  -10.3810  -12.6470 O   0  0  0  0  0
   12.3790   -7.8060  -10.9690 O   0  0  0  0  0
    8.6920   -8.2590  -12.8420 O   0  0  0  0  0
    8.6140   -5.6730  -13.9380 O   0  0  0  0  0
    8.3910   -8.6280  -16.0380 O   0  0  0  0  0
    8.3560   -5.9950  -17.4350 O   0  0  0  0  0
   12.0820   -4.6860  -12.6420 O   0  0  0  0  0
   10.5051   -9.5513  -10.3577 H   0  0  0  0  0
    9.8191   -7.9020  -10.4127 H   0  0  0  0  0
   11.8029   -9.0686  -12.4641 H   0  0  0  0  0
   10.4160   -6.3656  -12.2362 H   0  0  0  0  0
   10.1798   -8.5961  -14.2895 H   0  0  0  0  0
    9.8756   -6.4735  -15.3598 H   0  0  0  0  0
    7.1457   -7.6360  -14.7472 H   0  0  0  0  0
    6.9959   -5.6054  -15.9548 H   0  0  0  0  0
    6.6298   -7.0254  -17.0461 H   0  0  0  0  0
   13.2890   -4.2629  -15.0611 H   0  0  0  0  0
   14.4804   -4.9535  -13.9321 H   0  0  0  0  0
   13.7217   -5.9870  -15.1680 H   0  0  0  0  0
   12.2951   -7.3472  -14.3775 H   0  0  0  0  0
    7.6882   -7.7262  -10.8314 H   0  0  0  0  0
    9.7014  -11.0817  -12.0430 H   0  0  0  0  0
   12.6682   -8.5267  -10.4046 H   0  0  0  0  0
    9.3331   -5.2741  -13.4426 H   0  0  0  0  0
    7.6669   -9.0209  -16.5308 H   0  0  0  0  0
    7.9276   -5.4048  -18.0592 H   0  0  0  0  0
  2  1  1  0  0  0
  1 13  2  0  0  0
  1 14  1  0  0  0
  3  2  1  0  0  0
  2 15  1  0  0  0
 17  2  1  0  0  0
  4  3  1  0  0  0
  5  4  1  0  0  0
  4 16  1  0  0  0
  5  6  1  0  0  0
 12  5  1  0  0  0
  6  7  1  0  0  0
  6 17  1  0  0  0
  7  8  1  0  0  0
  7 18  1  0  0  0
  8  9  1  0  0  0
  8 19  1  0  0  0
  9 20  1  0  0  0
 10 11  1  0  0  0
 10 12  1  0  0  0
 10 21  2  0  0  0
  3 22  1  0  0  0
  3 23  1  0  0  0
  4 24  1  0  0  0
  5 25  1  0  0  0
  6 26  1  0  0  0
  7 27  1  0  0  0
  8 28  1  0  0  0
  9 29  1  0  0  0
  9 30  1  0  0  0
 11 31  1  0  0  0
 11 32  1  0  0  0
 11 33  1  0  0  0
 12 34  1  0  0  0
 14 35  1  0  0  0
 15 36  1  0  0  0
 16 37  1  0  0  0
 18 38  1  0  0  0
 19 39  1  0  0  0
 20 40  1  0  0  0
M  END
$$$$
