1bji_ligand
  -I-interpret- 

 56 57  0  0  0  0  0  0  0  0999 V2000
   23.7040   20.1290   65.2380 C   0  0  0  0  0
   24.3820   21.1730   65.2880 O   0  0  0  0  0
   22.5200   20.0760   65.6350 O   0  0  0  0  0
   24.2850   19.0260   64.6280 C   0  0  0  0  0
   23.6200   17.9000   64.2370 C   0  0  0  0  0
   24.2200   17.0020   63.1800 C   0  0  0  0  0
   25.6680   16.9470   63.2730 C   0  0  0  0  0
   26.3350   16.2020   62.1880 N   0  0  0  0  0
   27.0420   15.0800   62.3280 C   0  0  0  0  0
   27.2660   14.5750   63.4110 O   0  0  0  0  0
   27.7040   14.3420   61.2240 C   0  0  0  0  0
   26.1640   18.3740   63.3030 C   0  0  0  0  0
   25.6120   19.0450   64.3690 O   0  0  0  0  0
   27.6610   18.2750   63.5730 C   0  0  0  0  0
   27.9280   17.9720   64.7320 O   0  0  0  0  0
   28.6180   18.4690   62.6520 N   0  0  0  0  0
   30.0060   18.3720   63.1720 C   0  0  0  0  0
   30.5980   16.9840   62.9900 C   0  0  0  0  0
   32.0180   17.0640   63.4730 C   0  0  0  0  0
   32.2970   17.0400   64.8270 C   0  0  0  0  0
   33.0810   17.1290   62.5700 C   0  0  0  0  0
   33.6060   17.0720   65.2810 C   0  0  0  0  0
   34.3940   17.1650   63.0160 C   0  0  0  0  0
   34.6500   17.1340   64.3760 C   0  0  0  0  0
   28.2350   18.8470   61.2970 C   0  0  0  0  0
   28.0520   20.4090   61.2910 C   0  0  0  0  0
   29.1410   21.3770   61.6740 C   0  0  0  0  0
   23.7350   15.7120   63.4460 N   0  3  0  0  0
   22.1811   19.1866   65.5095 H   0  0  0  0  0
   22.6589   17.6492   64.6859 H   0  0  0  0  0
   23.9559   17.3782   62.1916 H   0  0  0  0  0
   25.9197   16.3932   64.1774 H   0  0  0  0  0
   26.2473   16.5797   61.2446 H   0  0  0  0  0
   28.7822   14.3417   61.3841 H   0  0  0  0  0
   27.3381   13.3154   61.2042 H   0  0  0  0  0
   27.4763   14.8286   60.2756 H   0  0  0  0  0
   25.9134   18.8918   62.3771 H   0  0  0  0  0
   29.9820   18.5908   64.2395 H   0  0  0  0  0
   30.6240   19.0774   62.6166 H   0  0  0  0  0
   30.5562   16.6740   61.9458 H   0  0  0  0  0
   30.0339   16.2405   63.5531 H   0  0  0  0  0
   31.4783   16.9954   65.5453 H   0  0  0  0  0
   32.8762   17.1518   61.4996 H   0  0  0  0  0
   33.8127   17.0483   66.3510 H   0  0  0  0  0
   35.2163   17.2172   62.3024 H   0  0  0  0  0
   35.6788   17.1586   64.7352 H   0  0  0  0  0
   27.3108   18.3489   61.0039 H   0  0  0  0  0
   28.9996   18.5451   60.5813 H   0  0  0  0  0
   27.3007   20.5692   62.0643 H   0  0  0  0  0
   27.8886   20.6310   60.2364 H   0  0  0  0  0
   29.4487   21.1874   62.7023 H   0  0  0  0  0
   29.9937   21.2448   61.0080 H   0  0  0  0  0
   28.7657   22.3967   61.5878 H   0  0  0  0  0
   22.7166   15.7145   63.3888 H   0  0  0  0  0
   24.1137   15.0594   62.7596 H   0  0  0  0  0
   24.0235   15.4279   64.3822 H   0  0  0  0  0
  4  1  1  0  0  0
  1  3  1  0  0  0
  1  2  2  0  0  0
  4 13  1  0  0  0
  4  5  2  0  0  0
  5  6  1  0  0  0
  6 28  1  0  0  0
  6  7  1  0  0  0
  7 12  1  0  0  0
  7  8  1  0  0  0
  8  9  1  0  0  0
  9 11  1  0  0  0
  9 10  2  0  0  0
 12 14  1  0  0  0
 12 13  1  0  0  0
 14 16  1  0  0  0
 14 15  2  0  0  0
 16 25  1  0  0  0
 16 17  1  0  0  0
 17 18  1  0  0  0
 18 19  1  0  0  0
 19 21  4  0  0  0
 19 20  4  0  0  0
 20 22  4  0  0  0
 22 24  4  0  0  0
 24 23  4  0  0  0
 21 23  4  0  0  0
 25 26  1  0  0  0
 26 27  1  0  0  0
  3 29  1  0  0  0
  5 30  1  0  0  0
  6 31  1  0  0  0
  7 32  1  0  0  0
  8 33  1  0  0  0
 11 34  1  0  0  0
 11 35  1  0  0  0
 11 36  1  0  0  0
 12 37  1  0  0  0
 17 38  1  0  0  0
 17 39  1  0  0  0
 18 40  1  0  0  0
 18 41  1  0  0  0
 20 42  1  0  0  0
 21 43  1  0  0  0
 22 44  1  0  0  0
 23 45  1  0  0  0
 24 46  1  0  0  0
 25 47  1  0  0  0
 25 48  1  0  0  0
 26 49  1  0  0  0
 26 50  1  0  0  0
 27 51  1  0  0  0
 27 52  1  0  0  0
 27 53  1  0  0  0
 28 54  1  0  0  0
 28 55  1  0  0  0
 28 56  1  0  0  0
M  END
$$$$
