1m4h_ligand
  -I-interpret- 

136136  0  0  0  0  0  0  0  0999 V2000
   11.1220   29.4490   23.3140 N   0  3  0  0  0
   11.8500   28.6420   22.3030 C   0  0  0  0  0
   13.2100   29.2920   21.9560 C   0  0  0  0  0
   14.0480   28.6840   21.2830 O   0  0  0  0  0
   10.9630   28.4700   21.0640 C   0  0  0  0  0
    9.4770   28.7240   21.3640 C   0  0  0  0  0
    8.5060   27.7970   20.6320 C   0  0  0  0  0
    8.6040   26.5590   20.8030 O   0  0  0  0  0
    7.6280   28.3090   19.8990 O   0  0  0  0  0
   13.4340   30.5150   22.4330 N   0  0  0  0  0
   14.7100   31.2010   22.2040 C   0  0  0  0  0
   15.6730   31.0240   23.3670 C   0  0  0  0  0
   15.2850   31.1170   24.5250 O   0  0  0  0  0
   14.5150   32.7070   22.0100 C   0  0  0  0  0
   14.4540   33.2550   20.5880 C   0  0  0  0  0
   14.6110   34.7640   20.6670 C   0  0  0  0  0
   15.5710   32.6570   19.7270 C   0  0  0  0  0
   16.9380   30.7960   23.0510 N   0  0  0  0  0
   17.9670   30.6470   24.0720 C   0  0  0  0  0
   19.2370   31.3320   23.5750 C   0  0  0  0  0
   20.2660   30.6840   23.3720 O   0  0  0  0  0
   18.2310   29.1630   24.3360 C   0  0  0  0  0
   17.2250   28.5600   25.2710 C   0  0  0  0  0
   17.2000   28.9960   26.4420 O   0  0  0  0  0
   16.4630   27.6650   24.8350 O   0  0  0  0  0
   18.5040   34.2610   19.5410 C   0  0  0  0  0
   20.2700   32.5050   19.8340 C   0  0  0  0  0
   19.2120   33.3590   20.5450 C   0  0  0  0  0
   19.8770   34.2000   21.6510 C   0  0  0  0  0
   19.1690   32.6450   23.3900 N   0  0  0  0  0
   20.3140   33.3830   22.8760 C   0  0  0  0  0
   20.9920   34.2860   23.9390 C   0  0  0  0  0
   20.0970   35.3160   24.3740 O   0  0  0  0  0
   21.4410   33.4560   25.1450 C   0  0  0  0  0
   22.7240   33.9080   25.8560 C   0  0  0  0  0
   22.7020   33.4210   27.3060 C   0  0  0  0  0
   23.9340   33.3320   25.1300 C   0  0  0  0  0
   23.9630   32.1460   24.8050 O   0  0  0  0  0
   24.9340   34.1650   24.8620 N   0  0  0  0  0
   26.1550   33.6530   24.2480 C   0  0  0  0  0
   26.9260   32.8090   25.2750 C   0  0  0  0  0
   26.8330   33.0570   26.4770 O   0  0  0  0  0
   27.0510   34.8040   23.7610 C   0  0  0  0  0
   27.5890   35.5710   24.9460 C   0  0  0  0  0
   28.1950   34.2500   22.8890 C   0  0  0  0  0
   27.6690   31.8110   24.8080 N   0  0  0  0  0
   28.4500   30.9720   25.7120 C   0  0  0  0  0
   29.7510   31.6970   25.9940 C   0  0  0  0  0
   30.2440   32.4370   25.1490 O   0  0  0  0  0
   28.7620   29.6060   25.0690 C   0  0  0  0  0
   27.5390   28.8890   24.4820 C   0  0  0  0  0
   27.8170   27.4530   24.0460 C   0  0  0  0  0
   28.8130   27.2120   23.3270 O   0  0  0  0  0
   27.0230   26.5630   24.4180 O   0  0  0  0  0
   30.3080   31.5050   27.1820 N   0  0  0  0  0
   31.5780   32.1460   27.5100 C   0  0  0  0  0
   32.6270   31.0960   27.8940 C   0  0  0  0  0
   33.6730   31.0080   27.2060 O   0  0  0  0  0
   31.3970   33.1480   28.6520 C   0  0  0  0  0
   32.5980   34.0170   28.8900 C   0  0  0  0  0
   33.1390   34.7760   27.8610 C   0  0  0  0  0
   33.1800   34.0960   30.1530 C   0  0  0  0  0
   34.2490   35.6120   28.0840 C   0  0  0  0  0
   34.2920   34.9290   30.3890 C   0  0  0  0  0
   34.8230   35.6870   29.3460 C   0  0  0  0  0
   32.3850   30.3620   28.8750 O   0  0  0  0  0
   11.7085   29.5660   24.1403 H   0  0  0  0  0
   10.8995   30.3636   22.9212 H   0  0  0  0  0
   10.2595   28.9699   23.5728 H   0  0  0  0  0
   12.0697   27.6550   22.7100 H   0  0  0  0  0
   11.0651   27.4416   20.7175 H   0  0  0  0  0
   11.2842   29.1960   20.3171 H   0  0  0  0  0
    9.2565   29.7384   21.0317 H   0  0  0  0  0
    9.3359   28.5505   22.4308 H   0  0  0  0  0
    9.3364   26.3760   21.3960 H   0  0  0  0  0
   12.7035   30.9841   22.9684 H   0  0  0  0  0
   15.1228   30.7477   21.3028 H   0  0  0  0  0
   15.3961   33.1684   22.4559 H   0  0  0  0  0
   13.5387   32.9262   22.4422 H   0  0  0  0  0
   13.5025   32.9893   20.1275 H   0  0  0  0  0
   13.8039   35.1809   21.2693 H   0  0  0  0  0
   15.5701   35.0047   21.1257 H   0  0  0  0  0
   14.5713   35.1852   19.6625 H   0  0  0  0  0
   16.5381   32.9108   20.1611 H   0  0  0  0  0
   15.4603   31.5732   19.6919 H   0  0  0  0  0
   15.5067   33.0630   18.7175 H   0  0  0  0  0
   17.1992   30.7227   22.0677 H   0  0  0  0  0
   17.6405   31.1049   25.0057 H   0  0  0  0  0
   19.2151   29.0724   24.7958 H   0  0  0  0  0
   18.1660   28.6347   23.3848 H   0  0  0  0  0
   16.6658   27.4953   23.9121 H   0  0  0  0  0
   19.2336   34.9171   19.0663 H   0  0  0  0  0
   18.0179   33.6472   18.7827 H   0  0  0  0  0
   17.7559   34.8616   20.0585 H   0  0  0  0  0
   19.7875   31.8876   19.0763 H   0  0  0  0  0
   21.0032   33.1575   19.3599 H   0  0  0  0  0
   20.7683   31.8653   20.5625 H   0  0  0  0  0
   18.4707   32.7029   21.0012 H   0  0  0  0  0
   19.1405   34.9274   21.9923 H   0  0  0  0  0
   20.7740   34.6475   21.2229 H   0  0  0  0  0
   18.3058   33.1418   23.6102 H   0  0  0  0  0
   21.0729   32.6557   22.5875 H   0  0  0  0  0
   21.8658   34.7464   23.4778 H   0  0  0  0  0
   20.5350   35.8627   25.0304 H   0  0  0  0  0
   20.6431   33.5433   25.8825 H   0  0  0  0  0
   21.6473   32.4570   24.7610 H   0  0  0  0  0
   22.7859   34.9962   25.8469 H   0  0  0  0  0
   21.8356   33.8418   27.8162 H   0  0  0  0  0
   22.6413   32.3328   27.3216 H   0  0  0  0  0
   23.6135   33.7426   27.8098 H   0  0  0  0  0
   24.8487   35.1568   25.0842 H   0  0  0  0  0
   25.8794   33.0412   23.3890 H   0  0  0  0  0
   26.4627   35.4887   23.1501 H   0  0  0  0  0
   26.7577   35.9793   25.5207 H   0  0  0  0  0
   28.1734   34.9006   25.5761 H   0  0  0  0  0
   28.2227   36.3846   24.5932 H   0  0  0  0  0
   28.7932   33.5533   23.4763 H   0  0  0  0  0
   27.7749   33.7326   22.0265 H   0  0  0  0  0
   28.8231   35.0737   22.5497 H   0  0  0  0  0
   27.6939   31.6288   23.8047 H   0  0  0  0  0
   27.8847   30.7924   26.6265 H   0  0  0  0  0
   29.1618   28.9657   25.8553 H   0  0  0  0  0
   29.4515   29.7898   24.2451 H   0  0  0  0  0
   27.2314   29.4439   23.5957 H   0  0  0  0  0
   26.7793   28.8503   25.2627 H   0  0  0  0  0
   29.2885   28.0284   23.1569 H   0  0  0  0  0
   29.8477   30.9076   27.8688 H   0  0  0  0  0
   31.9256   32.6823   26.6270 H   0  0  0  0  0
   33.6509   31.6652   26.5066 H   0  0  0  0  0
   31.2239   32.5753   29.5631 H   0  0  0  0  0
   30.5693   33.8036   28.3817 H   0  0  0  0  0
   32.6975   34.7236   26.8658 H   0  0  0  0  0
   32.7692   33.5046   30.9712 H   0  0  0  0  0
   34.6589   36.2019   27.2642 H   0  0  0  0  0
   34.7354   34.9806   31.3834 H   0  0  0  0  0
   35.6828   36.3339   29.5202 H   0  0  0  0  0
  3  2  1  0  0  0
  2  5  1  0  0  0
  2  1  1  0  0  0
  5  6  1  0  0  0
  6  7  1  0  0  0
  7  8  1  0  0  0
  7  9  2  0  0  0
  3  4  2  0  0  0
 12 11  1  0  0  0
 11 14  1  0  0  0
 11 10  1  0  0  0
 14 15  1  0  0  0
 15 17  1  0  0  0
 15 16  1  0  0  0
 12 13  2  0  0  0
 20 19  1  0  0  0
 19 22  1  0  0  0
 19 18  1  0  0  0
 22 23  1  0  0  0
 23 24  2  0  0  0
 23 25  1  0  0  0
 20 21  2  0  0  0
 28 26  1  0  0  0
 28 27  1  0  0  0
 29 28  1  0  0  0
 31 29  1  0  0  0
 30 31  1  0  0  0
 31 32  1  0  0  0
 32 33  1  0  0  0
 34 35  1  0  0  0
 35 37  1  0  0  0
 35 36  1  0  0  0
 37 38  2  0  0  0
 40 41  1  0  0  0
 40 43  1  0  0  0
 39 40  1  0  0  0
 43 44  1  0  0  0
 43 45  1  0  0  0
 41 42  2  0  0  0
 47 48  1  0  0  0
 47 50  1  0  0  0
 46 47  1  0  0  0
 50 51  1  0  0  0
 51 52  1  0  0  0
 52 53  1  0  0  0
 52 54  2  0  0  0
 48 49  2  0  0  0
 56 57  1  0  0  0
 56 59  1  0  0  0
 55 56  1  0  0  0
 59 60  1  0  0  0
 60 62  4  0  0  0
 60 61  4  0  0  0
 61 63  4  0  0  0
 63 65  4  0  0  0
 64 65  4  0  0  0
 62 64  4  0  0  0
 57 66  2  0  0  0
 57 58  1  0  0  0
 10  3  1  0  0  0
 18 12  1  0  0  0
 41 46  1  0  0  0
 48 55  1  0  0  0
 32 34  1  0  0  0
 37 39  1  0  0  0
 30 20  1  0  0  0
  1 67  1  0  0  0
  1 68  1  0  0  0
  1 69  1  0  0  0
  2 70  1  0  0  0
  5 71  1  0  0  0
  5 72  1  0  0  0
  6 73  1  0  0  0
  6 74  1  0  0  0
  8 75  1  0  0  0
 10 76  1  0  0  0
 11 77  1  0  0  0
 14 78  1  0  0  0
 14 79  1  0  0  0
 15 80  1  0  0  0
 16 81  1  0  0  0
 16 82  1  0  0  0
 16 83  1  0  0  0
 17 84  1  0  0  0
 17 85  1  0  0  0
 17 86  1  0  0  0
 18 87  1  0  0  0
 19 88  1  0  0  0
 22 89  1  0  0  0
 22 90  1  0  0  0
 25 91  1  0  0  0
 26 92  1  0  0  0
 26 93  1  0  0  0
 26 94  1  0  0  0
 27 95  1  0  0  0
 27 96  1  0  0  0
 27 97  1  0  0  0
 28 98  1  0  0  0
 29 99  1  0  0  0
 29100  1  0  0  0
 30101  1  0  0  0
 31102  1  0  0  0
 32103  1  0  0  0
 33104  1  0  0  0
 34105  1  0  0  0
 34106  1  0  0  0
 35107  1  0  0  0
 36108  1  0  0  0
 36109  1  0  0  0
 36110  1  0  0  0
 39111  1  0  0  0
 40112  1  0  0  0
 43113  1  0  0  0
 44114  1  0  0  0
 44115  1  0  0  0
 44116  1  0  0  0
 45117  1  0  0  0
 45118  1  0  0  0
 45119  1  0  0  0
 46120  1  0  0  0
 47121  1  0  0  0
 50122  1  0  0  0
 50123  1  0  0  0
 51124  1  0  0  0
 51125  1  0  0  0
 53126  1  0  0  0
 55127  1  0  0  0
 56128  1  0  0  0
 58129  1  0  0  0
 59130  1  0  0  0
 59131  1  0  0  0
 61132  1  0  0  0
 62133  1  0  0  0
 63134  1  0  0  0
 64135  1  0  0  0
 65136  1  0  0  0
M  END
$$$$
