5vqz_ligand
  -I-interpret- 

 60 63  0  0  0  0  0  0  0  0999 V2000
  -30.5170  -38.2700   40.3890 C   0  0  0  0  0
  -31.8270  -37.6820   39.8560 C   0  0  0  0  0
  -34.0390  -37.8410   38.8140 C   0  0  0  0  0
  -35.9700  -44.2330   43.4190 N   0  0  0  0  0
  -32.3350  -44.1890   38.6330 C   0  0  0  0  0
  -34.2070  -40.2890   41.1470 C   0  0  0  0  0
  -34.8690  -41.1810   42.0100 C   0  0  0  0  0
  -32.8080  -38.4600   39.3180 N   0  0  0  0  0
  -35.4270  -43.4940   42.7120 C   0  0  0  0  0
  -34.7440  -42.5680   41.8240 C   0  0  0  0  0
  -27.7400  -42.1800   35.3960 C   0  0  0  0  0
  -29.1310  -42.3550   35.5840 C   0  0  0  0  0
  -29.5630  -42.9570   33.2870 C   0  0  0  0  0
  -26.9330  -41.7960   36.4820 C   0  0  0  0  0
  -27.5070  -41.5840   37.7490 C   0  0  0  0  0
  -28.8910  -41.7570   37.9390 C   0  0  0  0  0
  -29.6990  -42.1410   36.8500 C   0  0  0  0  0
  -30.6280  -43.8170   32.5910 C   0  0  0  0  0
  -30.0460  -46.1360   33.1200 C   0  0  0  0  0
  -31.3290  -47.4110   34.8050 C   0  0  0  0  0
  -32.1570  -46.2280   34.9950 C   0  0  0  0  0
  -31.9080  -45.1080   34.2780 C   0  0  0  0  0
  -31.8050  -41.8020   37.9760 C   0  0  0  0  0
  -30.0180  -42.7250   34.6050 O   0  0  0  0  0
  -31.0540  -42.3320   36.9550 O   0  0  0  0  0
  -30.8840  -45.0210   33.3480 N   0  0  0  0  0
  -32.4800  -42.6860   38.8440 C   0  0  0  0  0
  -30.3150  -47.2760   33.8640 N   0  0  0  0  0
  -33.2760  -42.1730   39.8970 C   0  0  0  0  0
  -33.9510  -43.0580   40.7710 C   0  0  0  0  0
  -31.9520  -36.4600   39.9310 O   0  0  0  0  0
  -33.4040  -40.7660   40.0800 C   0  0  0  0  0
  -32.7210  -39.8800   39.1990 C   0  0  0  0  0
  -31.9400  -40.4110   38.1510 C   0  0  0  0  0
  -31.4720  -48.4730   35.4020 O   0  0  0  0  0
  -29.1150  -46.1430   32.3160 O   0  0  0  0  0
  -29.6789  -37.8499   39.8329 H   0  0  0  0  0
  -30.4133  -38.0241   41.4458 H   0  0  0  0  0
  -30.5298  -39.3530   40.2662 H   0  0  0  0  0
  -34.1464  -38.0612   37.7519 H   0  0  0  0  0
  -34.8946  -38.2416   39.3577 H   0  0  0  0  0
  -33.9874  -36.7620   38.9593 H   0  0  0  0  0
  -32.6984  -44.4519   37.6395 H   0  0  0  0  0
  -31.2850  -44.4676   38.7227 H   0  0  0  0  0
  -32.9183  -44.7183   39.3865 H   0  0  0  0  0
  -34.3128  -39.2151   41.3007 H   0  0  0  0  0
  -35.4807  -40.7950   42.8254 H   0  0  0  0  0
  -27.2956  -42.3420   34.4140 H   0  0  0  0  0
  -29.4196  -42.0156   32.7566 H   0  0  0  0  0
  -28.5996  -43.4669   33.2951 H   0  0  0  0  0
  -25.8604  -41.6623   36.3418 H   0  0  0  0  0
  -26.8774  -41.2846   38.5869 H   0  0  0  0  0
  -29.3346  -41.5951   38.9214 H   0  0  0  0  0
  -30.2669  -44.0929   31.6002 H   0  0  0  0  0
  -31.5519  -43.2434   32.5168 H   0  0  0  0  0
  -32.9762  -46.2449   35.7139 H   0  0  0  0  0
  -32.5409  -44.2352   34.4389 H   0  0  0  0  0
  -29.7158  -48.0863   33.7065 H   0  0  0  0  0
  -33.8550  -44.1340   40.6261 H   0  0  0  0  0
  -31.4323  -39.7331   37.4649 H   0  0  0  0  0
  2  1  1  0  0  0
  8  2  1  0  0  0
  2 31  2  0  0  0
  8  3  1  0  0  0
  9  4  3  0  0  0
 27  5  1  0  0  0
  6  7  4  0  0  0
 32  6  4  0  0  0
  7 10  4  0  0  0
 33  8  1  0  0  0
 10  9  1  0  0  0
 30 10  4  0  0  0
 12 11  4  0  0  0
 11 14  4  0  0  0
 17 12  4  0  0  0
 12 24  1  0  0  0
 13 18  1  0  0  0
 24 13  1  0  0  0
 15 14  4  0  0  0
 16 15  4  0  0  0
 17 16  4  0  0  0
 25 17  1  0  0  0
 18 26  1  0  0  0
 26 19  1  0  0  0
 19 28  1  0  0  0
 19 36  2  0  0  0
 21 20  1  0  0  0
 28 20  1  0  0  0
 20 35  2  0  0  0
 22 21  2  0  0  0
 26 22  1  0  0  0
 23 25  1  0  0  0
 27 23  4  0  0  0
 23 34  4  0  0  0
 29 27  4  0  0  0
 29 30  4  0  0  0
 32 29  4  0  0  0
 32 33  4  0  0  0
 33 34  4  0  0  0
  1 37  1  0  0  0
  1 38  1  0  0  0
  1 39  1  0  0  0
  3 40  1  0  0  0
  3 41  1  0  0  0
  3 42  1  0  0  0
  5 43  1  0  0  0
  5 44  1  0  0  0
  5 45  1  0  0  0
  6 46  1  0  0  0
  7 47  1  0  0  0
 11 48  1  0  0  0
 13 49  1  0  0  0
 13 50  1  0  0  0
 14 51  1  0  0  0
 15 52  1  0  0  0
 16 53  1  0  0  0
 18 54  1  0  0  0
 18 55  1  0  0  0
 21 56  1  0  0  0
 22 57  1  0  0  0
 28 58  1  0  0  0
 30 59  1  0  0  0
 34 60  1  0  0  0
M  END
$$$$
