### 
### Created by X-TOOL on Mon Sep 10 21:13:02 2018
### 

@<TRIPOS>MOLECULE
3o86_ligand
   27    27     1     0     0
SMALL
GAST_HUCK


@<TRIPOS>ATOM
      1 OAA        23.2060    8.1130   13.9990 O.2       1 BSF        -0.1556
      2 OAB        25.0920    7.4110   12.5410 O.2       1 BSF        -0.1556
      3 OAC        25.5620    4.0940   16.5910 O.3       1 BSF        -0.8710
      4 OAD        26.7640    5.9530   17.5360 O.3       1 BSF        -0.8710
      5 CAF        21.0720    5.7270    9.7450 C.ar      1 BSF        -0.0687
      6 CAG        22.3930    5.3150    9.7020 C.ar      1 BSF        -0.0685
      7 CAH        20.4720    6.0410   10.9660 C.ar      1 BSF        -0.0685
      8 CAI        23.1210    5.2410   10.8760 C.ar      1 BSF        -0.0587
      9 CAJ        21.2030    5.9660   12.1460 C.ar      1 BSF        -0.0587
     10 CAK        26.2610    5.9550   14.9110 C.3       1 BSF        -0.2502
     11 CAL        23.3440    5.4830   13.3490 C.3       1 BSF         0.1153
     12 NAM        25.0140    6.6900   15.1170 N.am      1 BSF        -0.4017
     13 CAN        22.5290    5.5640   12.0830 C.ar      1 BSF        -0.0205
     14 SAP        24.2280    7.0380   13.7130 S.o2      1 BSF         0.0227
     15 BOR        26.6420    5.1450   16.2600 B         1 BSF         3.0000
     16 H          25.4197    3.5313   15.8263 H         1 BSF        -0.1290
     17 H          27.0279    5.3749   18.2555 H         1 BSF        -0.1290
     18 H          20.4980    5.8066    8.8218 H         1 BSF         0.0559
     19 H          22.8556    5.0511    8.7510 H         1 BSF         0.0599
     20 H          19.4260    6.3462   10.9941 H         1 BSF         0.0599
     21 H          24.1645    4.9271   10.8494 H         1 BSF         0.0557
     22 H          20.7433    6.2181   13.1017 H         1 BSF         0.0557
     23 H          27.0600    6.6566   14.6716 H         1 BSF        -0.1900
     24 H          26.1351    5.2508   14.0886 H         1 BSF        -0.1900
     25 H          24.0872    4.6961   13.2204 H         1 BSF         0.0681
     26 H          22.6621    5.2828   14.1754 H         1 BSF         0.0681
     27 H          24.6663    6.9598   16.0372 H         1 BSF         0.1255
@<TRIPOS>BOND
     1   14    1 2  
     2   14    2 2  
     3   15    3 1  
     4   15    4 1  
     5    6    5 ar 
     6    7    5 ar 
     7    8    6 ar 
     8    9    7 ar 
     9   13    8 ar 
    10   13    9 ar 
    11   12   10 1  
    12   10   15 1  
    13   11   13 1  
    14   14   11 1  
    15   12   14 am 
    16    3   16 1  
    17    4   17 1  
    18    5   18 1  
    19    6   19 1  
    20    7   20 1  
    21    8   21 1  
    22    9   22 1  
    23   10   23 1  
    24   10   24 1  
    25   11   25 1  
    26   11   26 1  
    27   12   27 1  
@<TRIPOS>SUBSTRUCTURE
     1 BSF         1

