3o86_ligand
  -I-interpret- 

 27 27  0  0  0  0  0  0  0  0999 V2000
   23.2060    8.1130   13.9990 O   0  0  0  0  0
   25.0920    7.4110   12.5410 O   0  0  0  0  0
   25.5620    4.0940   16.5910 O   0  0  0  0  0
   26.7640    5.9530   17.5360 O   0  0  0  0  0
   21.0720    5.7270    9.7450 C   0  0  0  0  0
   22.3930    5.3150    9.7020 C   0  0  0  0  0
   20.4720    6.0410   10.9660 C   0  0  0  0  0
   23.1210    5.2410   10.8760 C   0  0  0  0  0
   21.2030    5.9660   12.1460 C   0  0  0  0  0
   26.2610    5.9550   14.9110 C   0  0  0  0  0
   23.3440    5.4830   13.3490 C   0  0  0  0  0
   25.0140    6.6900   15.1170 N   0  0  0  0  0
   22.5290    5.5640   12.0830 C   0  0  0  0  0
   24.2280    7.0380   13.7130 S   0  0  0  0  0
   26.6420    5.1450   16.2600 B   0  0  0  0  0
   25.8073    3.6263   17.3927 H   0  0  0  0  0
   26.9917    5.3687   18.2629 H   0  0  0  0  0
   20.4980    5.8066    8.8218 H   0  0  0  0  0
   22.8556    5.0511    8.7510 H   0  0  0  0  0
   19.4260    6.3462   10.9941 H   0  0  0  0  0
   24.1645    4.9271   10.8494 H   0  0  0  0  0
   20.7433    6.2181   13.1017 H   0  0  0  0  0
   27.0600    6.6566   14.6716 H   0  0  0  0  0
   26.1351    5.2508   14.0886 H   0  0  0  0  0
   24.0872    4.6961   13.2204 H   0  0  0  0  0
   22.6621    5.2828   14.1754 H   0  0  0  0  0
   24.6663    6.9598   16.0372 H   0  0  0  0  0
 14  1  2  0  0  0
 14  2  2  0  0  0
 15  3  1  0  0  0
 15  4  1  0  0  0
  6  5  4  0  0  0
  7  5  4  0  0  0
  8  6  4  0  0  0
  9  7  4  0  0  0
 13  8  4  0  0  0
 13  9  4  0  0  0
 12 10  1  0  0  0
 10 15  1  0  0  0
 11 13  1  0  0  0
 14 11  1  0  0  0
 12 14  1  0  0  0
  3 16  1  0  0  0
  4 17  1  0  0  0
  5 18  1  0  0  0
  6 19  1  0  0  0
  7 20  1  0  0  0
  8 21  1  0  0  0
  9 22  1  0  0  0
 10 23  1  0  0  0
 10 24  1  0  0  0
 11 25  1  0  0  0
 11 26  1  0  0  0
 12 27  1  0  0  0
M  END
$$$$
