4qw1_ligand
  -I-interpret- 

 53 54  0  0  0  0  0  0  0  0999 V2000
   62.3880 -132.9490   35.9420 N   0  0  0  0  0
   61.7320 -134.1030   36.1660 C   0  0  0  0  0
   61.5690 -135.0340   35.1430 C   0  0  0  0  0
   62.0960 -134.7680   33.8700 N   0  0  0  0  0
   62.7790 -133.5660   33.6360 C   0  0  0  0  0
   62.9240 -132.6510   34.6760 C   0  0  0  0  0
   61.2160 -134.3540   37.4290 C   0  0  0  0  0
   60.4460 -133.5510   37.9560 O   0  0  0  0  0
   61.6160 -135.5050   37.9920 N   0  0  0  0  0
   61.1890 -135.8950   39.3420 C   0  0  0  0  0
   60.5320 -137.2570   39.3340 C   0  0  0  0  0
   59.3100 -137.1180   38.6470 C   0  0  0  0  0
   59.1000 -137.7540   37.4200 C   0  0  0  0  0
   57.8840 -137.6120   36.7520 C   0  0  0  0  0
   56.8650 -136.8400   37.3010 C   0  0  0  0  0
   57.0650 -136.2070   38.5230 C   0  0  0  0  0
   58.2790 -136.3500   39.1940 C   0  0  0  0  0
   62.4480 -135.9320   40.2010 C   0  0  0  0  0
   63.5570 -136.0030   39.6760 O   0  0  0  0  0
   62.2540 -135.8300   41.5230 N   0  0  0  0  0
   63.3980 -135.8350   42.4520 C   0  0  0  0  0
   63.6150 -134.4880   43.1130 C   0  0  0  0  0
   63.4390 -133.3320   42.1030 C   0  0  0  0  0
   62.9700 -132.0870   42.8710 C   0  0  0  0  0
   64.7480 -133.0330   41.3520 C   0  0  0  0  0
   63.1700 -136.8580   43.5790 B   0  0  0  0  0
   61.9360 -136.5690   44.2590 O   0  0  0  0  0
   63.1170 -138.1860   43.0470 O   0  0  0  0  0
   61.0344 -135.9652   35.3304 H   0  0  0  0  0
   63.1921 -133.3500   32.6507 H   0  0  0  0  0
   63.4492 -131.7104   34.5101 H   0  0  0  0  0
   62.2332 -136.1255   37.4681 H   0  0  0  0  0
   60.4566 -135.1869   39.7297 H   0  0  0  0  0
   60.3656 -137.6120   40.3511 H   0  0  0  0  0
   61.1704 -137.9913   38.8427 H   0  0  0  0  0
   59.8907 -138.3640   36.9831 H   0  0  0  0  0
   57.7310 -138.1089   35.7940 H   0  0  0  0  0
   55.9156 -136.7320   36.7765 H   0  0  0  0  0
   56.2717 -135.5983   38.9569 H   0  0  0  0  0
   58.4251 -135.8575   40.1553 H   0  0  0  0  0
   61.3057 -135.7481   41.8897 H   0  0  0  0  0
   64.2711 -136.0889   41.8509 H   0  0  0  0  0
   64.6312 -134.4539   43.5057 H   0  0  0  0  0
   62.8789 -134.3691   43.9081 H   0  0  0  0  0
   62.6990 -133.6200   41.3563 H   0  0  0  0  0
   62.0215 -132.3013   43.3634 H   0  0  0  0  0
   63.7169 -131.8202   43.6187 H   0  0  0  0  0
   62.8400 -131.2592   42.1739 H   0  0  0  0  0
   65.5199 -132.7510   42.0680 H   0  0  0  0  0
   65.0639 -133.9224   40.8068 H   0  0  0  0  0
   64.5844 -132.2145   40.6510 H   0  0  0  0  0
   61.8004 -137.2106   44.9601 H   0  0  0  0  0
   62.9745 -138.8105   43.7620 H   0  0  0  0  0
  1  2  4  0  0  0
  1  6  4  0  0  0
  2  3  4  0  0  0
  2  7  1  0  0  0
  3  4  4  0  0  0
  4  5  4  0  0  0
  5  6  4  0  0  0
  7  8  2  0  0  0
  7  9  1  0  0  0
  9 10  1  0  0  0
 10 11  1  0  0  0
 10 18  1  0  0  0
 11 12  1  0  0  0
 12 13  4  0  0  0
 12 17  4  0  0  0
 13 14  4  0  0  0
 14 15  4  0  0  0
 15 16  4  0  0  0
 16 17  4  0  0  0
 18 19  2  0  0  0
 18 20  1  0  0  0
 20 21  1  0  0  0
 21 22  1  0  0  0
 21 26  1  0  0  0
 22 23  1  0  0  0
 23 24  1  0  0  0
 23 25  1  0  0  0
 26 27  1  0  0  0
 26 28  1  0  0  0
  3 29  1  0  0  0
  5 30  1  0  0  0
  6 31  1  0  0  0
  9 32  1  0  0  0
 10 33  1  0  0  0
 11 34  1  0  0  0
 11 35  1  0  0  0
 13 36  1  0  0  0
 14 37  1  0  0  0
 15 38  1  0  0  0
 16 39  1  0  0  0
 17 40  1  0  0  0
 20 41  1  0  0  0
 21 42  1  0  0  0
 22 43  1  0  0  0
 22 44  1  0  0  0
 23 45  1  0  0  0
 24 46  1  0  0  0
 24 47  1  0  0  0
 24 48  1  0  0  0
 25 49  1  0  0  0
 25 50  1  0  0  0
 25 51  1  0  0  0
 27 52  1  0  0  0
 28 53  1  0  0  0
M  END
$$$$
