### 
### Created by X-TOOL on Mon Sep 10 21:13:23 2018
### 

@<TRIPOS>MOLECULE
4qw1_ligand
   53    54     1     0     0
SMALL
GAST_HUCK


@<TRIPOS>ATOM
      1 N1         62.3880 -132.9490   35.9420 N.ar      1 BO2        -0.2509
      2 C2         61.7320 -134.1030   36.1660 C.ar      1 BO2         0.1532
      3 C3         61.5690 -135.0340   35.1430 C.ar      1 BO2         0.0620
      4 N4         62.0960 -134.7680   33.8700 N.ar      1 BO2        -0.2653
      5 C5         62.7790 -133.5660   33.6360 C.ar      1 BO2         0.0462
      6 C6         62.9240 -132.6510   34.6760 C.ar      1 BO2         0.0475
      7 C7         61.2160 -134.3540   37.4290 C.2       1 BO2         0.2349
      8 O8         60.4460 -133.5510   37.9560 O.2       1 BO2        -0.3755
      9 N9         61.6160 -135.5050   37.9920 N.am      1 BO2        -0.2600
     10 C10        61.1890 -135.8950   39.3420 C.3       1 BO2         0.1378
     11 C11        60.5320 -137.2570   39.3340 C.3       1 BO2         0.0213
     12 C12        59.3100 -137.1180   38.6470 C.ar      1 BO2        -0.0385
     13 C13        59.1000 -137.7540   37.4200 C.ar      1 BO2        -0.0601
     14 C14        57.8840 -137.6120   36.7520 C.ar      1 BO2        -0.0686
     15 C15        56.8650 -136.8400   37.3010 C.ar      1 BO2        -0.0687
     16 C16        57.0650 -136.2070   38.5230 C.ar      1 BO2        -0.0686
     17 C17        58.2790 -136.3500   39.1940 C.ar      1 BO2        -0.0601
     18 C18        62.4480 -135.9320   40.2010 C.2       1 BO2         0.1755
     19 O19        63.5570 -136.0030   39.6760 O.2       1 BO2        -0.3969
     20 N20        62.2540 -135.8300   41.5230 N.am      1 BO2        -0.4361
     21 C21        63.3980 -135.8350   42.4520 C.3       1 BO2        -0.2261
     22 C22        63.6150 -134.4880   43.1130 C.3       1 BO2        -0.1585
     23 C23        63.4390 -133.3320   42.1030 C.3       1 BO2        -0.0721
     24 C24        62.9700 -132.0870   42.8710 C.3       1 BO2        -0.0649
     25 C25        64.7480 -133.0330   41.3520 C.3       1 BO2        -0.0649
     26 B26        63.1700 -136.8580   43.5790 B         1 BO2         3.0000
     27 O27        61.9360 -136.5690   44.2590 O.3       1 BO2        -0.8710
     28 O28        63.1170 -138.1860   43.0470 O.3       1 BO2        -0.8710
     29 H          61.0373 -135.9601   35.3294 H         1 BO2         0.0978
     30 H          63.1898 -133.3512   32.6561 H         1 BO2         0.0958
     31 H          63.4463 -131.7156   34.5110 H         1 BO2         0.0941
     32 H          62.2211 -136.1133   37.4784 H         1 BO2         0.1883
     33 H          60.4806 -135.1533   39.7395 H         1 BO2         0.0823
     34 H          60.3500 -137.5953   40.3648 H         1 BO2         0.0474
     35 H          61.1756 -137.9844   38.8176 H         1 BO2         0.0474
     36 H          59.8863 -138.3606   36.9855 H         1 BO2         0.0557
     37 H          57.7319 -138.1061   35.7992 H         1 BO2         0.0599
     38 H          55.9209 -136.7326   36.7794 H         1 BO2         0.0559
     39 H          56.2761 -135.6016   38.9545 H         1 BO2         0.0599
     40 H          58.4243 -135.8602   40.1500 H         1 BO2         0.0557
     41 H          61.3243 -135.7497   41.8825 H         1 BO2         0.1459
     42 H          64.3060 -136.1035   41.8921 H         1 BO2        -0.1822
     43 H          64.6341 -134.4513   43.5255 H         1 BO2        -0.0063
     44 H          62.8853 -134.3667   43.9271 H         1 BO2        -0.0063
     45 H          62.6707 -133.6142   41.3681 H         1 BO2         0.0272
     46 H          62.8385 -131.2508   42.1685 H         1 BO2         0.0232
     47 H          63.7229 -131.8166   43.6259 H         1 BO2         0.0232
     48 H          62.0127 -132.3020   43.3684 H         1 BO2         0.0232
     49 H          65.0717 -133.9321   40.8072 H         1 BO2         0.0232
     50 H          65.5259 -132.7412   42.0729 H         1 BO2         0.0232
     51 H          64.5823 -132.2120   40.6389 H         1 BO2         0.0232
     52 H          61.8124 -137.1909   44.9664 H         1 BO2        -0.1290
     53 H          62.9915 -138.8053   43.7563 H         1 BO2        -0.1290
@<TRIPOS>BOND
     1    1    2 ar 
     2    1    6 ar 
     3    2    3 ar 
     4    2    7 1  
     5    3    4 ar 
     6    4    5 ar 
     7    5    6 ar 
     8    7    8 2  
     9    7    9 am 
    10    9   10 1  
    11   10   11 1  
    12   10   18 1  
    13   11   12 1  
    14   12   13 ar 
    15   12   17 ar 
    16   13   14 ar 
    17   14   15 ar 
    18   15   16 ar 
    19   16   17 ar 
    20   18   19 2  
    21   18   20 am 
    22   20   21 1  
    23   21   22 1  
    24   21   26 1  
    25   22   23 1  
    26   23   24 1  
    27   23   25 1  
    28   26   27 1  
    29   26   28 1  
    30    3   29 1  
    31    5   30 1  
    32    6   31 1  
    33    9   32 1  
    34   10   33 1  
    35   11   34 1  
    36   11   35 1  
    37   13   36 1  
    38   14   37 1  
    39   15   38 1  
    40   16   39 1  
    41   17   40 1  
    42   20   41 1  
    43   21   42 1  
    44   22   43 1  
    45   22   44 1  
    46   23   45 1  
    47   24   46 1  
    48   24   47 1  
    49   24   48 1  
    50   25   49 1  
    51   25   50 1  
    52   25   51 1  
    53   27   52 1  
    54   28   53 1  
@<TRIPOS>SUBSTRUCTURE
     1 BO2         1

