1i3z_ligand
  -I-interpret- 

175175  0  0  0  0  0  0  0  0999 V2000
   14.7410   23.2200   18.5370 N   0  3  0  0  0
   15.1030   21.8700   18.0480 C   0  0  0  0  0
   16.5910   21.8450   17.8680 C   0  0  0  0  0
   17.2730   22.8090   18.2050 O   0  0  0  0  0
   14.3830   21.5360   16.7350 C   0  0  0  0  0
   14.4280   22.6170   15.8150 O   0  0  0  0  0
   17.1080   20.7480   17.3330 N   0  0  0  0  0
   18.5550   20.5940   17.1660 C   0  0  0  0  0
   18.8390   20.5060   15.6830 C   0  0  0  0  0
   19.7070   19.7990   15.2400 O   0  0  0  0  0
   18.9980   19.3080   17.8460 C   0  0  0  0  0
   18.9340   19.4260   19.3750 C   0  0  0  0  0
   19.2500   18.1050   20.0520 C   0  0  0  0  0
   19.8430   20.5700   19.9130 C   0  0  0  0  0
   17.9770   21.1520   14.9090 N   0  0  0  0  0
   18.1050   21.1250   13.4660 C   0  0  0  0  0
   18.1980   22.5350   12.9800 C   0  0  0  0  0
   17.4330   23.3930   13.4090 O   0  0  0  0  0
   16.8800   20.4640   12.8810 C   0  0  0  0  0
   17.1050   19.0530   12.8590 O   0  0  0  0  0
   16.7040   20.8920   11.4080 C   0  0  0  0  0
   19.1580   22.8020   12.1160 N   0  0  0  0  0
   19.2160   24.1280   11.5160 C   0  0  0  0  0
   18.8070   23.9910   10.0530 C   0  0  0  0  0
   19.3460   23.1390    9.3500 O   0  0  0  0  0
   20.6320   24.7130   11.6240 C   0  0  0  0  0
   21.0740   24.7550   13.0900 C   0  0  0  0  0
   20.6390   26.1330   11.0570 C   0  0  0  0  0
   20.7290   26.0810   13.7990 C   0  0  0  0  0
   17.8530   24.7990    9.6050 N   0  0  0  0  0
   17.4190   24.7290    8.2120 C   0  0  0  0  0
   18.4260   25.5990    7.4570 C   0  0  0  0  0
   18.8090   26.6650    7.9530 O   0  0  0  0  0
   15.9140   25.0680    8.0230 C   0  0  0  0  0
   15.0180   23.8270    8.1290 C   0  0  0  0  0
   14.4800   23.4330    9.3510 C   0  0  0  0  0
   14.7510   23.0300    7.0250 C   0  0  0  0  0
   13.6860   22.3110    9.4600 C   0  0  0  0  0
   13.9680   21.8920    7.1310 C   0  0  0  0  0
   13.4340   21.5350    8.3580 C   0  0  0  0  0
   12.7270   20.5120    8.4890 O   0  0  0  0  0
   11.1290   20.5460    8.2940 P   0  0  0  0  0
   10.7570   20.8670    6.8770 O   0  0  0  0  0
   10.5350   21.6490    9.1660 O   0  0  0  0  0
   10.6470   19.1220    8.6620 O   0  0  0  0  0
   18.9070   25.1410    6.3030 N   0  0  0  0  0
   19.8930   25.9350    5.5810 C   0  0  0  0  0
   19.5920   25.9070    4.1100 C   0  0  0  0  0
   18.8100   25.0980    3.6510 O   0  0  0  0  0
   21.3090   25.4160    5.8490 C   0  0  0  0  0
   20.1820   26.8320    3.3710 N   0  0  0  0  0
   20.0660   26.7920    1.9050 C   0  0  0  0  0
   21.4530   26.4870    1.2980 C   0  0  0  0  0
   22.4630   26.7990    1.9180 O   0  0  0  0  0
   19.5450   28.1240    1.3220 C   0  0  0  0  0
   18.4130   28.8420    2.0720 C   0  0  0  0  0
   17.7970   29.9960    1.2660 C   0  0  0  0  0
   16.5760   30.0440    1.0960 O   0  0  0  0  0
   18.6320   30.9320    0.8050 N   0  0  0  0  0
   21.5030   25.8860    0.1040 N   0  0  0  0  0
   22.7460   25.6170   -0.5860 C   0  0  0  0  0
   23.3590   26.9750   -1.0470 C   0  0  0  0  0
   22.6230   27.8930   -1.4490 O   0  0  0  0  0
   22.4840   24.6480   -1.7560 C   0  0  0  0  0
   23.7350   24.3620   -2.5750 C   0  0  0  0  0
   21.8680   23.3250   -1.2180 C   0  0  0  0  0
   24.6920   27.0950   -0.9860 N   0  0  0  0  0
   25.3710   28.3620   -1.3560 C   0  0  0  0  0
   26.3940   28.4030   -2.5270 C   0  0  0  0  0
   27.2400   29.2840   -2.5530 O   0  0  0  0  0
   26.0370   28.9620   -0.1170 C   0  0  0  0  0
   25.0700   29.2470    1.0290 C   0  0  0  0  0
   25.7880   29.7650    2.2590 C   0  0  0  0  0
   26.9590   29.4550    2.4700 O   0  0  0  0  0
   25.0930   30.5600    3.0710 N   0  0  0  0  0
   26.3190   27.4770   -3.4770 N   0  0  0  0  0
   27.2530   27.3830   -4.6070 C   0  0  0  0  0
   26.5441   26.6191   -5.7249 C   0  0  0  0  0
   28.5340   26.6190   -4.2060 C   0  0  0  0  0
   29.5420   26.4210   -5.3230 C   0  0  0  0  0
   31.0060   26.2990   -4.7980 C   0  0  0  0  0
   31.2450   27.2600   -3.6220 C   0  0  0  0  0
   32.7120   27.3830   -3.2130 N   0  3  0  0  0
   26.8000   26.7650   -6.9260 O   0  0  0  0  0
   25.5979   25.7476   -5.3870 O   0  0  0  0  0
   15.2360   23.4086   19.4087 H   0  0  0  0  0
   15.0035   23.9151   17.8382 H   0  0  0  0  0
   13.7350   23.2629   18.6998 H   0  0  0  0  0
   14.7917   21.1139   18.7687 H   0  0  0  0  0
   13.3382   21.3250   16.9628 H   0  0  0  0  0
   14.8818   20.6800   16.2804 H   0  0  0  0  0
   13.9684   22.3694   15.0094 H   0  0  0  0  0
   16.4867   19.9972   17.0320 H   0  0  0  0  0
   19.0905   21.4346   17.6073 H   0  0  0  0  0
   20.0298   19.1047   17.5593 H   0  0  0  0  0
   18.3292   18.5057   17.5343 H   0  0  0  0  0
   17.9064   19.6880   19.6271 H   0  0  0  0  0
   18.5275   17.3533   19.7341 H   0  0  0  0  0
   20.2543   17.7863   19.7730 H   0  0  0  0  0
   19.1943   18.2299   21.1334 H   0  0  0  0  0
   20.8772   20.3740   19.6301 H   0  0  0  0  0
   19.5216   21.5195   19.4850 H   0  0  0  0  0
   19.7643   20.6145   20.9992 H   0  0  0  0  0
   17.2128   21.6755   15.3359 H   0  0  0  0  0
   18.9930   20.5689   13.1656 H   0  0  0  0  0
   16.0087   20.7417   13.4742 H   0  0  0  0  0
   16.3358   18.6132   12.4896 H   0  0  0  0  0
   16.5878   21.9746   11.3569 H   0  0  0  0  0
   17.5824   20.5922   10.8364 H   0  0  0  0  0
   15.8180   20.4103   10.9944 H   0  0  0  0  0
   19.8483   22.0918   11.8720 H   0  0  0  0  0
   18.5427   24.8071   12.0390 H   0  0  0  0  0
   21.3200   24.0836   11.0595 H   0  0  0  0  0
   22.1584   24.6461   13.1085 H   0  0  0  0  0
   20.5479   23.9569   13.6138 H   0  0  0  0  0
   20.3340   26.1066   10.0109 H   0  0  0  0  0
   19.9441   26.7526   11.6239 H   0  0  0  0  0
   21.6438   26.5485   11.1335 H   0  0  0  0  0
   21.2228   26.9056   13.2849 H   0  0  0  0  0
   19.6498   26.2324   13.7784 H   0  0  0  0  0
   21.0716   26.0385   14.8329 H   0  0  0  0  0
   17.4207   25.4725   10.2374 H   0  0  0  0  0
   17.4348   23.7190    7.8023 H   0  0  0  0  0
   15.7861   25.4926    7.0273 H   0  0  0  0  0
   15.6230   25.7627    8.8109 H   0  0  0  0  0
   14.6912   24.0248   10.2417 H   0  0  0  0  0
   15.1655   23.3047    6.0551 H   0  0  0  0  0
   13.2574   22.0402   10.4249 H   0  0  0  0  0
   13.7727   21.2792    6.2510 H   0  0  0  0  0
   10.7517   21.4798   10.0858 H   0  0  0  0  0
   10.8903   18.9277    9.5701 H   0  0  0  0  0
   18.5897   24.2465    5.9293 H   0  0  0  0  0
   19.8389   26.9649    5.9339 H   0  0  0  0  0
   21.5208   25.4766    6.9165 H   0  0  0  0  0
   21.3827   24.3792    5.5210 H   0  0  0  0  0
   22.0276   26.0242    5.2996 H   0  0  0  0  0
   20.7187   27.5749    3.8187 H   0  0  0  0  0
   19.3466   26.0136    1.6508 H   0  0  0  0  0
   19.1318   27.8715    0.3455 H   0  0  0  0  0
   20.3939   28.8070    1.3549 H   0  0  0  0  0
   18.8339   29.2623    2.9854 H   0  0  0  0  0
   17.6258   28.1126    2.2626 H   0  0  0  0  0
   18.2666   31.7309    0.2867 H   0  0  0  0  0
   19.6348   30.8475    0.9714 H   0  0  0  0  0
   20.6279   25.6055   -0.3387 H   0  0  0  0  0
   23.4682   25.1309    0.0699 H   0  0  0  0  0
   21.7773   25.1343   -2.4285 H   0  0  0  0  0
   24.1156   25.2943   -2.9922 H   0  0  0  0  0
   24.4932   23.9134   -1.9332 H   0  0  0  0  0
   23.4887   23.6742   -3.3840 H   0  0  0  0  0
   22.5609   22.8626   -0.5150 H   0  0  0  0  0
   20.9271   23.5429   -0.7126 H   0  0  0  0  0
   21.6858   22.6456   -2.0506 H   0  0  0  0  0
   25.2517   26.2994   -0.6790 H   0  0  0  0  0
   24.5351   28.9338   -1.7591 H   0  0  0  0  0
   26.4764   29.9141   -0.4145 H   0  0  0  0  0
   26.7629   28.2340    0.2452 H   0  0  0  0  0
   24.5688   28.3157    1.2928 H   0  0  0  0  0
   24.3642   30.0093    0.6990 H   0  0  0  0  0
   25.5307   30.9399    3.9103 H   0  0  0  0  0
   24.1231   30.7889    2.8534 H   0  0  0  0  0
   25.5675   26.7899   -3.4181 H   0  0  0  0  0
   27.5436   28.3837   -4.9268 H   0  0  0  0  0
   28.2197   25.6252   -3.8872 H   0  0  0  0  0
   29.0283   27.2159   -3.4395 H   0  0  0  0  0
   29.4924   27.2917   -5.9769 H   0  0  0  0  0
   29.2928   25.4934   -5.8382 H   0  0  0  0  0
   31.6919   26.5541   -5.6058 H   0  0  0  0  0
   31.1736   25.2773   -4.4571 H   0  0  0  0  0
   30.7008   26.8649   -2.7642 H   0  0  0  0  0
   30.9121   28.2487   -3.9379 H   0  0  0  0  0
   32.7925   28.0336   -2.4315 H   0  0  0  0  0
   33.0634   26.4675   -2.9324 H   0  0  0  0  0
   33.2561   27.7298   -4.0030 H   0  0  0  0  0
   25.5028   25.7346   -4.4318 H   0  0  0  0  0
  1  2  1  0  0  0
  2  3  1  0  0  0
  2  5  1  0  0  0
  3  4  2  0  0  0
  3  7  1  0  0  0
  5  6  1  0  0  0
  7  8  1  0  0  0
  8  9  1  0  0  0
  8 11  1  0  0  0
  9 10  2  0  0  0
  9 15  1  0  0  0
 11 12  1  0  0  0
 12 13  1  0  0  0
 12 14  1  0  0  0
 15 16  1  0  0  0
 16 17  1  0  0  0
 16 19  1  0  0  0
 17 18  2  0  0  0
 17 22  1  0  0  0
 19 20  1  0  0  0
 19 21  1  0  0  0
 22 23  1  0  0  0
 23 24  1  0  0  0
 23 26  1  0  0  0
 24 25  2  0  0  0
 24 30  1  0  0  0
 26 27  1  0  0  0
 26 28  1  0  0  0
 27 29  1  0  0  0
 30 31  1  0  0  0
 31 32  1  0  0  0
 31 34  1  0  0  0
 32 33  2  0  0  0
 32 46  1  0  0  0
 34 35  1  0  0  0
 35 36  4  0  0  0
 35 37  4  0  0  0
 36 38  4  0  0  0
 37 39  4  0  0  0
 38 40  4  0  0  0
 39 40  4  0  0  0
 40 41  1  0  0  0
 41 42  1  0  0  0
 42 43  2  0  0  0
 42 44  1  0  0  0
 42 45  1  0  0  0
 46 47  1  0  0  0
 47 48  1  0  0  0
 47 50  1  0  0  0
 48 49  2  0  0  0
 48 51  1  0  0  0
 51 52  1  0  0  0
 52 53  1  0  0  0
 52 55  1  0  0  0
 53 54  2  0  0  0
 53 60  1  0  0  0
 55 56  1  0  0  0
 56 57  1  0  0  0
 57 58  2  0  0  0
 57 59  1  0  0  0
 60 61  1  0  0  0
 61 62  1  0  0  0
 61 64  1  0  0  0
 62 63  2  0  0  0
 62 67  1  0  0  0
 64 65  1  0  0  0
 64 66  1  0  0  0
 67 68  1  0  0  0
 68 69  1  0  0  0
 68 71  1  0  0  0
 69 70  2  0  0  0
 69 76  1  0  0  0
 71 72  1  0  0  0
 72 73  1  0  0  0
 73 74  2  0  0  0
 73 75  1  0  0  0
 76 77  1  0  0  0
 77 78  1  0  0  0
 77 79  1  0  0  0
 78 84  2  0  0  0
 79 80  1  0  0  0
 80 81  1  0  0  0
 81 82  1  0  0  0
 82 83  1  0  0  0
 78 85  1  0  0  0
  1 86  1  0  0  0
  1 87  1  0  0  0
  1 88  1  0  0  0
  2 89  1  0  0  0
  5 90  1  0  0  0
  5 91  1  0  0  0
  6 92  1  0  0  0
  7 93  1  0  0  0
  8 94  1  0  0  0
 11 95  1  0  0  0
 11 96  1  0  0  0
 12 97  1  0  0  0
 13 98  1  0  0  0
 13 99  1  0  0  0
 13100  1  0  0  0
 14101  1  0  0  0
 14102  1  0  0  0
 14103  1  0  0  0
 15104  1  0  0  0
 16105  1  0  0  0
 19106  1  0  0  0
 20107  1  0  0  0
 21108  1  0  0  0
 21109  1  0  0  0
 21110  1  0  0  0
 22111  1  0  0  0
 23112  1  0  0  0
 26113  1  0  0  0
 27114  1  0  0  0
 27115  1  0  0  0
 28116  1  0  0  0
 28117  1  0  0  0
 28118  1  0  0  0
 29119  1  0  0  0
 29120  1  0  0  0
 29121  1  0  0  0
 30122  1  0  0  0
 31123  1  0  0  0
 34124  1  0  0  0
 34125  1  0  0  0
 36126  1  0  0  0
 37127  1  0  0  0
 38128  1  0  0  0
 39129  1  0  0  0
 44130  1  0  0  0
 45131  1  0  0  0
 46132  1  0  0  0
 47133  1  0  0  0
 50134  1  0  0  0
 50135  1  0  0  0
 50136  1  0  0  0
 51137  1  0  0  0
 52138  1  0  0  0
 55139  1  0  0  0
 55140  1  0  0  0
 56141  1  0  0  0
 56142  1  0  0  0
 59143  1  0  0  0
 59144  1  0  0  0
 60145  1  0  0  0
 61146  1  0  0  0
 64147  1  0  0  0
 65148  1  0  0  0
 65149  1  0  0  0
 65150  1  0  0  0
 66151  1  0  0  0
 66152  1  0  0  0
 66153  1  0  0  0
 67154  1  0  0  0
 68155  1  0  0  0
 71156  1  0  0  0
 71157  1  0  0  0
 72158  1  0  0  0
 72159  1  0  0  0
 75160  1  0  0  0
 75161  1  0  0  0
 76162  1  0  0  0
 77163  1  0  0  0
 79164  1  0  0  0
 79165  1  0  0  0
 80166  1  0  0  0
 80167  1  0  0  0
 81168  1  0  0  0
 81169  1  0  0  0
 82170  1  0  0  0
 82171  1  0  0  0
 83172  1  0  0  0
 83173  1  0  0  0
 83174  1  0  0  0
 85175  1  0  0  0
M  END
$$$$
