### 
### Created by X-TOOL on Mon Sep 10 21:12:50 2018
### 

@<TRIPOS>MOLECULE
1i3z_ligand
  173   173     1     0     0
SMALL
GAST_HUCK


@<TRIPOS>ATOM
      1 N          14.7410   23.2200   18.5370 N.4       1 SER         0.2396
      2 CA         15.1030   21.8700   18.0480 C.3       1 SER         0.0885
      3 C          16.5910   21.8450   17.8680 C.2       1 SER         0.2290
      4 O          17.2730   22.8090   18.2050 O.2       1 SER        -0.3906
      5 CB         14.3830   21.5360   16.7350 C.3       1 SER         0.1041
      6 OG         14.4280   22.6170   15.8150 O.3       1 SER        -0.3870
      7 N          17.1080   20.7480   17.3330 N.am      1 LEU        -0.2609
      8 CA         18.5550   20.5940   17.1660 C.3       1 LEU         0.1313
      9 C          18.8390   20.5060   15.6830 C.2       1 LEU         0.2040
     10 O          19.7070   19.7990   15.2400 O.2       1 LEU        -0.3944
     11 CB         18.9980   19.3080   17.8460 C.3       1 LEU        -0.0101
     12 CG         18.9340   19.4260   19.3750 C.3       1 LEU        -0.0425
     13 CD1        19.2500   18.1050   20.0520 C.3       1 LEU        -0.0625
     14 CD2        19.8430   20.5700   19.9130 C.3       1 LEU        -0.0625
     15 N          17.9770   21.1520   14.9090 N.am      1 THR        -0.2613
     16 CA         18.1050   21.1250   13.4660 C.3       1 THR         0.1565
     17 C          18.1980   22.5350   12.9800 C.2       1 THR         0.2065
     18 O          17.4330   23.3930   13.4090 O.2       1 THR        -0.3943
     19 CB         16.8800   20.4640   12.8810 C.3       1 THR         0.0924
     20 OG1        17.1050   19.0530   12.8590 O.3       1 THR        -0.3874
     21 CG2        16.7040   20.8920   11.4080 C.3       1 THR        -0.0346
     22 N          19.1580   22.8020   12.1160 N.am      1 ILE        -0.2634
     23 CA         19.2160   24.1280   11.5160 C.3       1 ILE         0.1335
     24 C          18.8070   23.9910   10.0530 C.2       1 ILE         0.2044
     25 O          19.3460   23.1390    9.3500 O.2       1 ILE        -0.3944
     26 CB         20.6320   24.7130   11.6240 C.3       1 ILE        -0.0037
     27 CG1        21.0740   24.7550   13.0900 C.3       1 ILE        -0.0491
     28 CG2        20.6390   26.1330   11.0570 C.3       1 ILE        -0.0582
     29 CD1        20.7290   26.0810   13.7990 C.3       1 ILE        -0.0648
     30 N          17.8530   24.7990    9.6050 N.am      1 PTR        -0.2607
     31 CA         17.4190   24.7290    8.2120 C.3       1 PTR         0.1468
     32 C          18.4260   25.5990    7.4570 C.2       1 PTR         0.2074
     33 O          18.8090   26.6650    7.9530 O.2       1 PTR        -0.3941
     34 CB         15.9140   25.0680    8.0230 C.3       1 PTR         0.0400
     35 CG         15.0180   23.8270    8.1290 C.ar      1 PTR        -0.0004
     36 CD1        14.4800   23.4330    9.3510 C.ar      1 PTR        -0.0239
     37 CD2        14.7510   23.0300    7.0250 C.ar      1 PTR        -0.0239
     38 CE1        13.6860   22.3110    9.4600 C.ar      1 PTR         0.0115
     39 CE2        13.9680   21.8920    7.1310 C.ar      1 PTR         0.0115
     40 CZ         13.4340   21.5350    8.3580 C.ar      1 PTR         0.1728
     41 OH         12.7270   20.5120    8.4890 O.3       1 PTR        -0.2040
     42 P          11.1290   20.5460    8.2940 P.3       1 PTR         0.1348
     43 O1P        10.7570   20.8670    6.8770 O.co2     1 PTR        -0.6653
     44 O2P        10.5350   21.6490    9.1660 O.co2     1 PTR        -0.6653
     45 O3P        10.6470   19.1220    8.6620 O.co2     1 PTR        -0.6653
     46 N          18.9070   25.1410    6.3030 N.am      1 ALA        -0.2638
     47 CA         19.8930   25.9350    5.5810 C.3       1 ALA         0.1282
     48 C          19.5920   25.9070    4.1100 C.2       1 ALA         0.2036
     49 O          18.8100   25.0980    3.6510 O.2       1 ALA        -0.3944
     50 CB         21.3090   25.4160    5.8490 C.3       1 ALA        -0.0244
     51 N          20.1820   26.8320    3.3710 N.am      1 GLN        -0.2636
     52 CA         20.0660   26.7920    1.9050 C.3       1 GLN         0.1330
     53 C          21.4530   26.4870    1.2980 C.2       1 GLN         0.2041
     54 O          22.4630   26.7990    1.9180 O.2       1 GLN        -0.3944
     55 CB         19.5450   28.1240    1.3220 C.3       1 GLN         0.0045
     56 CG         18.4130   28.8420    2.0720 C.3       1 GLN         0.0412
     57 CD         17.7970   29.9960    1.2660 C.2       1 GLN         0.1737
     58 OE1        16.5760   30.0440    1.0960 O.2       1 GLN        -0.3973
     59 NE2        18.6320   30.9320    0.8050 N.am      1 GLN        -0.3009
     60 N          21.5030   25.8860    0.1040 N.am      1 VAL        -0.2635
     61 CA         22.7460   25.6170   -0.5860 C.3       1 VAL         0.1332
     62 C          23.3590   26.9750   -1.0470 C.2       1 VAL         0.2042
     63 O          22.6230   27.8930   -1.4490 O.2       1 VAL        -0.3944
     64 CB         22.4840   24.6480   -1.7560 C.3       1 VAL        -0.0063
     65 CG1        23.7350   24.3620   -2.5750 C.3       1 VAL        -0.0584
     66 CG2        21.8680   23.3250   -1.2180 C.3       1 VAL        -0.0584
     67 N          24.6920   27.0950   -0.9860 N.am      1 GLN        -0.2636
     68 CA         25.3710   28.3620   -1.3560 C.3       1 GLN         0.1330
     69 C          26.3940   28.4030   -2.5270 C.2       1 GLN         0.2041
     70 O          27.2400   29.2840   -2.5530 O.2       1 GLN        -0.3944
     71 CB         26.0370   28.9620   -0.1170 C.3       1 GLN         0.0045
     72 CG         25.0700   29.2470    1.0290 C.3       1 GLN         0.0412
     73 CD         25.7880   29.7650    2.2590 C.2       1 GLN         0.1737
     74 OE1        26.9590   29.4550    2.4700 O.2       1 GLN        -0.3973
     75 NE2        25.0930   30.5600    3.0710 N.am      1 GLN        -0.3009
     76 N          26.3190   27.4770   -3.4770 N.am      1 LYS        -0.2624
     77 CA         27.2530   27.3830   -4.6070 C.3       1 LYS         0.1420
     78 C          26.5441   26.6191   -5.7249 C.2       1 LYS         0.2571
     79 CB         28.5340   26.6190   -4.2060 C.3       1 LYS        -0.0109
     80 CG         29.5420   26.4210   -5.3230 C.3       1 LYS        -0.0439
     81 CD         31.0060   26.2990   -4.7980 C.3       1 LYS        -0.0124
     82 CE         31.2450   27.2600   -3.6220 C.3       1 LYS        -0.0354
     83 NZ         32.7120   27.3830   -3.2130 N.4       1 LYS         0.2185
     84 OXT        26.8000   26.7650   -6.9260 O.2       1 LYS        -0.3680
     85 H1         13.7432   23.2729   18.6697 H         1 SER         0.2016
     86 H2         15.0270   23.9103   17.8605 H         1 SER         0.2016
     87 H3         15.2063   23.3958   19.4137 H         1 SER         0.2016
     88 H4         14.8157   21.1229   18.8025 H         1 SER         0.1122
     89 H5         13.3314   21.3012   16.9561 H         1 SER         0.0640
     90 H6         14.8660   20.6599   16.2777 H         1 SER         0.0640
     91 H7         13.9732   22.3720   15.0177 H         1 SER         0.2099
     92 H8         16.4989   20.0119   17.0379 H         1 LEU         0.1884
     93 H9         19.0844   21.4527   17.6047 H         1 LEU         0.0800
     94 H10        20.0332   19.0851   17.5483 H         1 LEU         0.0315
     95 H11        18.3391   18.4884   17.5234 H         1 LEU         0.0315
     96 H12        17.8975   19.6860   19.6358 H         1 LEU         0.0298
     97 H13        19.1941   18.2298   21.1435 H         1 LEU         0.0232
     98 H14        20.2634   17.7823   19.7713 H         1 LEU         0.0232
     99 H15        18.5215   17.3455   19.7321 H         1 LEU         0.0232
    100 H16        19.5887   21.5109   19.4030 H         1 LEU         0.0232
    101 H17        20.8972   20.3220   19.7205 H         1 LEU         0.0232
    102 H18        19.6852   20.6854   20.9955 H         1 LEU         0.0232
    103 H19        17.2277   21.6652   15.3276 H         1 THR         0.1884
    104 H20        19.0067   20.5662   13.1750 H         1 THR         0.0826
    105 H21        15.9872   20.7163   13.4719 H         1 THR         0.0639
    106 H22        16.3438   18.6177   12.4934 H         1 THR         0.2101
    107 H23        15.8101   20.4065   10.9894 H         1 THR         0.0257
    108 H24        17.5898   20.5899   10.8300 H         1 THR         0.0257
    109 H25        16.5866   21.9844   11.3551 H         1 THR         0.0257
    110 H26        19.8348   22.1057   11.8768 H         1 ILE         0.1883
    111 H27        18.5129   24.7967   12.0342 H         1 ILE         0.0803
    112 H28        21.3298   24.0851   11.0506 H         1 ILE         0.0345
    113 H29        22.1640   24.6126   13.1293 H         1 ILE         0.0267
    114 H30        20.5773   23.9336   13.6271 H         1 ILE         0.0267
    115 H31        20.3222   26.1088   10.0039 H         1 ILE         0.0235
    116 H32        21.6546   26.5500   11.1249 H         1 ILE         0.0235
    117 H33        19.9451   26.7618   11.6342 H         1 ILE         0.0235
    118 H34        21.0742   26.0394   14.8426 H         1 ILE         0.0230
    119 H35        19.6400   26.2350   13.7790 H         1 ILE         0.0230
    120 H36        21.2268   26.9141   13.2811 H         1 ILE         0.0230
    121 H37        17.4292   25.4593   10.2250 H         1 PTR         0.1886
    122 H38        17.5427   23.6940    7.8606 H         1 PTR         0.0840
    123 H39        15.7755   25.5200    7.0298 H         1 PTR         0.0584
    124 H40        15.6138   25.7879    8.7986 H         1 PTR         0.0584
    125 H41        14.6900   24.0215   10.2368 H         1 PTR         0.0703
    126 H42        15.1633   23.3032    6.0604 H         1 PTR         0.0703
    127 H43        13.2598   22.0416   10.4196 H         1 PTR         0.0736
    128 H44        13.7738   21.2826    6.2558 H         1 PTR         0.0736
    129 H45        18.5959   24.2641    5.9367 H         1 ALA         0.1883
    130 H46        19.8311   26.9754    5.9327 H         1 ALA         0.0797
    131 H47        22.0351   26.0290    5.2950 H         1 ALA         0.0277
    132 H48        21.3847   24.3696    5.5183 H         1 ALA         0.0277
    133 H49        21.5241   25.4767    6.9261 H         1 ALA         0.0277
    134 H50        20.7082   27.5603    3.8100 H         1 GLN         0.1883
    135 H51        19.3650   25.9902    1.6301 H         1 GLN         0.0801
    136 H52        19.1838   27.9171    0.3038 H         1 GLN         0.0337
    137 H53        20.3979   28.8170    1.2748 H         1 GLN         0.0337
    138 H54        18.8167   29.2470    3.0117 H         1 GLN         0.0504
    139 H55        17.6227   28.1108    2.2974 H         1 GLN         0.0504
    140 H56        18.2765   31.7020    0.2752 H         1 GLN         0.1814
    141 H57        19.6123   30.8624    0.9898 H         1 GLN         0.1814
    142 H58        20.6451   25.6110   -0.3300 H         1 VAL         0.1883
    143 H59        23.4488   25.1356    0.1099 H         1 VAL         0.0802
    144 H60        21.7498   25.1209   -2.4248 H         1 VAL         0.0343
    145 H61        23.4878   23.6679   -3.3918 H         1 VAL         0.0234
    146 H62        24.5010   23.9092   -1.9284 H         1 VAL         0.0234
    147 H63        24.1201   25.3021   -2.9967 H         1 VAL         0.0234
    148 H64        20.9667   23.5527   -0.6299 H         1 VAL         0.0234
    149 H65        22.6022   22.8116   -0.5797 H         1 VAL         0.0234
    150 H66        21.5994   22.6750   -2.0638 H         1 VAL         0.0234
    151 H67        25.2407   26.3150   -0.6850 H         1 GLN         0.1883
    152 H68        24.5604   29.0418   -1.6572 H         1 GLN         0.0801
    153 H69        26.5189   29.9075   -0.4065 H         1 GLN         0.0337
    154 H70        26.8005   28.2561    0.2418 H         1 GLN         0.0337
    155 H71        24.5437   28.3170    1.2898 H         1 GLN         0.0504
    156 H72        24.3403   30.0012    0.6993 H         1 GLN         0.0504
    157 H73        25.5206   30.9286    3.8964 H         1 GLN         0.1814
    158 H74        24.1436   30.7882    2.8552 H         1 GLN         0.1814
    159 H75        25.5822   26.8034   -3.4193 H         1 LYS         0.1885
    160 H76        27.5225   28.3926   -4.9507 H         1 LYS         0.0816
    161 O1         25.5979   25.7476   -5.3870 O.3       1 LYS        -0.2910
    162 H77        28.2371   25.6269   -3.8353 H         1 LYS         0.0313
    163 H78        29.0265   27.1800   -3.3981 H         1 LYS         0.0313
    164 H79        29.4837   27.2811   -6.0062 H         1 LYS         0.0269
    165 H80        29.2861   25.5010   -5.8690 H         1 LYS         0.0269
    166 H81        31.7031   26.5452   -5.6125 H         1 LYS         0.0317
    167 H82        31.1841   25.2667   -4.4623 H         1 LYS         0.0317
    168 H83        30.6730   26.8965   -2.7556 H         1 LYS         0.0813
    169 H84        30.8807   28.2572   -3.9097 H         1 LYS         0.0813
    170 H85        32.7927   28.0257   -2.4407 H         1 LYS         0.1994
    171 H86        33.2507   27.7257   -3.9930 H         1 LYS         0.1994
    172 H87        33.0604   26.4788   -2.9354 H         1 LYS         0.1994
    173 H88        25.8418   24.8822   -5.6939 H         1 LYS         0.2540
@<TRIPOS>BOND
     1    1    2 1  
     2    2    3 1  
     3    2    5 1  
     4    3    4 2  
     5    3    7 am 
     6    5    6 1  
     7    7    8 1  
     8    8    9 1  
     9    8   11 1  
    10    9   10 2  
    11    9   15 am 
    12   11   12 1  
    13   12   13 1  
    14   12   14 1  
    15   15   16 1  
    16   16   17 1  
    17   16   19 1  
    18   17   18 2  
    19   17   22 am 
    20   19   20 1  
    21   19   21 1  
    22   22   23 1  
    23   23   24 1  
    24   23   26 1  
    25   24   25 2  
    26   24   30 am 
    27   26   27 1  
    28   26   28 1  
    29   27   29 1  
    30   30   31 1  
    31   31   32 1  
    32   31   34 1  
    33   32   33 2  
    34   32   46 am 
    35   34   35 1  
    36   35   36 ar 
    37   35   37 ar 
    38   36   38 ar 
    39   37   39 ar 
    40   38   40 ar 
    41   39   40 ar 
    42   40   41 1  
    43   41   42 1  
    44   42   43 ar 
    45   42   44 ar 
    46   42   45 ar 
    47   46   47 1  
    48   47   48 1  
    49   47   50 1  
    50   48   49 2  
    51   48   51 am 
    52   51   52 1  
    53   52   53 1  
    54   52   55 1  
    55   53   54 2  
    56   53   60 am 
    57   55   56 1  
    58   56   57 1  
    59   57   58 2  
    60   57   59 am 
    61   60   61 1  
    62   61   62 1  
    63   61   64 1  
    64   62   63 2  
    65   62   67 am 
    66   64   65 1  
    67   64   66 1  
    68   67   68 1  
    69   68   69 1  
    70   68   71 1  
    71   69   70 2  
    72   69   76 am 
    73   71   72 1  
    74   72   73 1  
    75   73   74 2  
    76   73   75 am 
    77   76   77 1  
    78   77   78 1  
    79   77   79 1  
    80   78   84 2  
    81   79   80 1  
    82   80   81 1  
    83   81   82 1  
    84   82   83 1  
    85    1   85 1  
    86    1   86 1  
    87    1   87 1  
    88    2   88 1  
    89    5   89 1  
    90    5   90 1  
    91    6   91 1  
    92    7   92 1  
    93    8   93 1  
    94   11   94 1  
    95   11   95 1  
    96   12   96 1  
    97   13   97 1  
    98   13   98 1  
    99   13   99 1  
   100   14  100 1  
   101   14  101 1  
   102   14  102 1  
   103   15  103 1  
   104   16  104 1  
   105   19  105 1  
   106   20  106 1  
   107   21  107 1  
   108   21  108 1  
   109   21  109 1  
   110   22  110 1  
   111   23  111 1  
   112   26  112 1  
   113   27  113 1  
   114   27  114 1  
   115   28  115 1  
   116   28  116 1  
   117   28  117 1  
   118   29  118 1  
   119   29  119 1  
   120   29  120 1  
   121   30  121 1  
   122   31  122 1  
   123   34  123 1  
   124   34  124 1  
   125   36  125 1  
   126   37  126 1  
   127   38  127 1  
   128   39  128 1  
   129   46  129 1  
   130   47  130 1  
   131   50  131 1  
   132   50  132 1  
   133   50  133 1  
   134   51  134 1  
   135   52  135 1  
   136   55  136 1  
   137   55  137 1  
   138   56  138 1  
   139   56  139 1  
   140   59  140 1  
   141   59  141 1  
   142   60  142 1  
   143   61  143 1  
   144   64  144 1  
   145   65  145 1  
   146   65  146 1  
   147   65  147 1  
   148   66  148 1  
   149   66  149 1  
   150   66  150 1  
   151   67  151 1  
   152   68  152 1  
   153   71  153 1  
   154   71  154 1  
   155   72  155 1  
   156   72  156 1  
   157   75  157 1  
   158   75  158 1  
   159   76  159 1  
   160   77  160 1  
   161   78  161 1  
   162   79  162 1  
   163   79  163 1  
   164   80  164 1  
   165   80  165 1  
   166   81  166 1  
   167   81  167 1  
   168   82  168 1  
   169   82  169 1  
   170   83  170 1  
   171   83  171 1  
   172   83  172 1  
   173  161  173 1  
@<TRIPOS>SUBSTRUCTURE
     1 SER         1

