3m67_ligand
  -I-interpret- 

 41 44  0  0  0  0  0  0  0  0999 V2000
   -0.9270   10.1030   12.6310 O   0  0  0  0  0
   -0.0930   10.6550   13.6500 C   0  0  0  0  0
   -0.2270    9.8520   14.9910 C   0  0  0  0  0
   -1.3620    9.0050   15.0230 O   0  0  0  0  0
   -1.4000    8.1260   13.9740 C   0  0  0  0  0
   -1.1380    8.7250   12.6270 C   0  0  0  0  0
   -1.1110    7.9580   11.5160 C   0  0  0  0  0
   -1.3320    6.5110   11.7280 C   0  0  0  0  0
   -1.3290    5.4380   10.7570 N   0  0  0  0  0
   -1.5480    4.3620   11.4530 C   0  0  0  0  0
   -1.7210    4.6760   12.8490 N   0  0  0  0  0
   -1.5620    6.0270   12.9320 C   0  0  0  0  0
   -1.6090    6.8340   14.1510 C   0  0  0  0  0
   -1.7000    2.6640   10.8590 S   0  0  0  0  0
   -2.8380    2.0910   12.2030 C   0  0  0  0  0
   -4.0810    3.0480   12.3070 C   0  0  0  0  0
   -4.5050    3.6230   11.2210 O   0  0  0  0  0
   -4.7750    3.2600   13.6590 C   0  0  0  0  0
   -4.9800    2.1460   14.6020 C   0  0  0  0  0
   -5.5860    2.3660   15.7880 C   0  0  0  0  0
   -6.0250    3.7320   16.0690 C   0  0  0  0  0
   -5.8820    4.7600   15.2190 C   0  0  0  0  0
   -5.2350    4.5050   13.9510 C   0  0  0  0  0
   -5.8860    0.9300   16.8560 S   0  0  0  0  0
   -7.4410    0.8990   16.8550 O   0  0  0  0  0
   -6.7940    3.9290   17.5810 Cl  0  0  0  0  0
   -5.2700    1.1430   18.2330 O   0  0  0  0  0
   -5.1900   -0.3770   16.0070 N   0  0  0  0  0
   -0.3996   11.6854   13.8298 H   0  0  0  0  0
    0.9434   10.6039   13.3164 H   0  0  0  0  0
   -0.3314   10.5750   15.8000 H   0  0  0  0  0
    0.6576    9.2228   15.0891 H   0  0  0  0  0
   -0.9373    8.3786   10.5256 H   0  0  0  0  0
   -1.8022    6.4012   15.1326 H   0  0  0  0  0
   -2.3016    2.0985   13.1519 H   0  0  0  0  0
   -3.1824    1.0827   11.9731 H   0  0  0  0  0
   -4.6418    1.1431   14.3414 H   0  0  0  0  0
   -6.2422    5.7562   15.4760 H   0  0  0  0  0
   -5.1161    5.3125   13.2285 H   0  0  0  0  0
   -5.7886   -1.0750   15.5654 H   0  0  0  0  0
   -4.1755   -0.4601   15.9412 H   0  0  0  0  0
  1  2  1  0  0  0
  1  6  1  0  0  0
  2  3  1  0  0  0
  3  4  1  0  0  0
  4  5  1  0  0  0
  5  6  4  0  0  0
  5 13  4  0  0  0
  6  7  4  0  0  0
  7  8  4  0  0  0
  8  9  4  0  0  0
  8 12  4  0  0  0
  9 10  4  0  0  0
 10 11  4  0  0  0
 10 14  1  0  0  0
 11 12  4  0  0  0
 12 13  4  0  0  0
 14 15  1  0  0  0
 15 16  1  0  0  0
 16 17  2  0  0  0
 16 18  1  0  0  0
 18 19  4  0  0  0
 18 23  4  0  0  0
 19 20  4  0  0  0
 20 21  4  0  0  0
 20 24  1  0  0  0
 21 22  4  0  0  0
 21 26  1  0  0  0
 22 23  4  0  0  0
 24 25  2  0  0  0
 24 27  2  0  0  0
 24 28  1  0  0  0
  2 29  1  0  0  0
  2 30  1  0  0  0
  3 31  1  0  0  0
  3 32  1  0  0  0
  7 33  1  0  0  0
 13 34  1  0  0  0
 15 35  1  0  0  0
 15 36  1  0  0  0
 19 37  1  0  0  0
 22 38  1  0  0  0
 23 39  1  0  0  0
 28 40  1  0  0  0
 28 41  1  0  0  0
M  END
$$$$
