4u6c_ligand
  -I-interpret- 

 32 32  0  0  0  0  0  0  0  0999 V2000
   22.1400   -2.2300   12.4160 O   0  0  0  0  0
   21.4250   -2.4610   11.0310 P   0  0  0  0  0
   21.2720   -1.2070   10.3490 O   0  0  0  0  0
   20.0030   -3.0490   11.1970 O   0  0  0  0  0
   22.2870   -3.5930    9.9370 C   0  0  0  0  0
   23.6130   -3.1450    9.5080 N   0  3  0  0  0
   22.1150   -4.5890   11.0210 C   0  0  0  0  0
   23.3410   -5.2490   11.3480 C   0  0  0  0  0
   23.3740   -6.4380   10.4970 C   0  0  0  0  0
   22.0580   -7.1200   10.1530 C   0  0  0  0  0
   22.4690   -8.5520    9.8860 C   0  0  0  0  0
   23.7250   -8.7550   10.7150 C   0  0  0  0  0
   24.0500   -7.4460   11.3900 C   0  0  0  0  0
   22.2397   -3.0713   12.8676 H   0  0  0  0  0
   20.0580   -3.8930   11.6511 H   0  0  0  0  0
   21.9870   -3.8497    8.9210 H   0  0  0  0  0
   23.5134   -2.4633    8.7558 H   0  0  0  0  0
   24.0968   -2.7150   10.2963 H   0  0  0  0  0
   24.1495   -3.9456    9.1740 H   0  0  0  0  0
   21.4049   -5.3423   10.6798 H   0  0  0  0  0
   21.7642   -4.0652   11.9102 H   0  0  0  0  0
   23.3884   -5.5094   12.4054 H   0  0  0  0  0
   24.2034   -4.6055   11.1741 H   0  0  0  0  0
   23.8135   -6.1334    9.5472 H   0  0  0  0  0
   21.5570   -6.6608    9.3008 H   0  0  0  0  0
   21.3203   -7.0365   10.9511 H   0  0  0  0  0
   22.6484   -8.7322    8.8261 H   0  0  0  0  0
   21.6840   -9.2574   10.1586 H   0  0  0  0  0
   24.5522   -9.0671   10.0775 H   0  0  0  0  0
   23.5644   -9.5346   11.4597 H   0  0  0  0  0
   23.7024   -7.4013   12.4221 H   0  0  0  0  0
   25.1215   -7.2739   11.4917 H   0  0  0  0  0
  1  2  1  0  0  0
  2  3  2  0  0  0
  2  4  1  0  0  0
  2  5  1  0  0  0
  5  6  1  0  0  0
  5  7  1  0  0  0
  7  8  1  0  0  0
  8  9  1  0  0  0
  9 10  1  0  0  0
  9 13  1  0  0  0
 10 11  1  0  0  0
 11 12  1  0  0  0
 12 13  1  0  0  0
  1 14  1  0  0  0
  4 15  1  0  0  0
  5 16  1  0  0  0
  6 17  1  0  0  0
  6 18  1  0  0  0
  6 19  1  0  0  0
  7 20  1  0  0  0
  7 21  1  0  0  0
  8 22  1  0  0  0
  8 23  1  0  0  0
  9 24  1  0  0  0
 10 25  1  0  0  0
 10 26  1  0  0  0
 11 27  1  0  0  0
 11 28  1  0  0  0
 12 29  1  0  0  0
 12 30  1  0  0  0
 13 31  1  0  0  0
 13 32  1  0  0  0
M  END
$$$$
