1rth_ligand
  -I-interpret- 

 36 38  0  0  0  0  0  0  0  0999 V2000
   -1.5530  -35.6200   23.1860 N   0  0  0  0  0
   -2.4820  -35.0520   22.3410 C   0  0  0  0  0
   -3.4460  -34.1360   22.8040 C   0  0  0  0  0
   -3.4460  -33.7790   24.2040 C   0  0  0  0  0
   -2.4880  -34.3490   25.0450 C   0  0  0  0  0
   -2.4630  -33.9540   26.5200 C   0  0  0  0  0
   -3.5450  -33.6850   27.0400 O   0  0  0  0  0
   -1.3080  -33.8460   27.2310 N   0  0  0  0  0
   -1.4150  -33.5610   28.6910 C   0  0  0  0  0
    0.0770  -34.0530   26.7760 C   0  0  0  0  0
    1.1310  -33.2750   27.2920 C   0  0  0  0  0
    2.4600  -33.4350   26.7960 C   0  0  0  0  0
    2.7370  -34.3700   25.7890 C   0  0  0  0  0
    4.1550  -34.5340   25.2150 N   0  0  0  0  0
    4.3450  -35.3100   24.2770 O   0  0  0  0  0
    5.0340  -33.9020   25.7420 O   0  0  0  0  0
    1.6850  -35.1500   25.3050 C   0  0  0  0  0
    0.3740  -34.9970   25.8070 C   0  0  0  0  0
   -0.6670  -35.8440   25.4330 N   0  0  0  0  0
   -0.3720  -37.3680   25.4130 C   0  0  0  0  0
   -0.1980  -37.9540   24.0750 C   0  0  0  0  0
   -1.5670  -35.2720   24.5080 C   0  0  0  0  0
   -2.4701  -35.3195   21.2844 H   0  0  0  0  0
   -4.1773  -33.7051   22.1202 H   0  0  0  0  0
   -4.1812  -33.0768   24.5970 H   0  0  0  0  0
   -1.0064  -34.3998   29.2545 H   0  0  0  0  0
   -0.8539  -32.6564   28.9254 H   0  0  0  0  0
   -2.4627  -33.4193   28.9564 H   0  0  0  0  0
    0.9307  -32.5449   28.0762 H   0  0  0  0  0
    3.2661  -32.8250   27.2037 H   0  0  0  0  0
    1.8787  -35.8888   24.5273 H   0  0  0  0  0
   -1.2355  -37.8601   25.8606 H   0  0  0  0  0
    0.5697  -37.5117   25.9428 H   0  0  0  0  0
   -1.1079  -37.8054   23.4935 H   0  0  0  0  0
    0.6388  -37.4683   23.5731 H   0  0  0  0  0
    0.0035  -39.0209   24.1704 H   0  0  0  0  0
  1 22  4  0  0  0
  1  2  4  0  0  0
  2  3  4  0  0  0
  3  4  4  0  0  0
  4  5  4  0  0  0
  5 22  4  0  0  0
  5  6  1  0  0  0
  6  8  1  0  0  0
  6  7  2  0  0  0
  8 10  1  0  0  0
  8  9  1  0  0  0
 10 18  4  0  0  0
 10 11  4  0  0  0
 11 12  4  0  0  0
 12 13  4  0  0  0
 13 17  4  0  0  0
 13 14  1  0  0  0
 14 16  2  0  0  0
 14 15  2  0  0  0
 17 18  4  0  0  0
 18 19  1  0  0  0
 19 22  1  0  0  0
 19 20  1  0  0  0
 20 21  1  0  0  0
  2 23  1  0  0  0
  3 24  1  0  0  0
  4 25  1  0  0  0
  9 26  1  0  0  0
  9 27  1  0  0  0
  9 28  1  0  0  0
 11 29  1  0  0  0
 12 30  1  0  0  0
 17 31  1  0  0  0
 20 32  1  0  0  0
 20 33  1  0  0  0
 21 34  1  0  0  0
 21 35  1  0  0  0
 21 36  1  0  0  0
M  END
$$$$
