4azt_ligand
  -I-interpret- 

 40 43  0  0  0  0  0  0  0  0999 V2000
   15.7620  -56.0660   14.9240 N   0  0  0  0  0
   15.2500  -54.6800   15.0640 C   0  0  0  0  0
   14.8350  -57.0760   14.3350 C   0  0  0  0  0
   16.9640  -56.0320   14.3210 C   0  0  0  0  0
   13.8200  -54.6340   15.4670 C   0  0  0  0  0
   13.0780  -55.3620   14.4770 O   0  0  0  0  0
   13.3730  -56.7870   14.6880 C   0  0  0  0  0
   21.4440  -54.4580   12.7670 C   0  0  0  0  0
   20.8370  -55.7270   12.7960 C   0  0  0  0  0
   20.7670  -53.3280   13.2420 C   0  0  0  0  0
   19.5360  -55.8940   13.2810 C   0  0  0  0  0
   18.8920  -54.7600   13.7570 C   0  0  0  0  0
   18.8910  -57.1450   13.3360 C   0  0  0  0  0
   19.4590  -53.4990   13.7410 C   0  0  0  0  0
   17.6080  -54.8260   14.2600 O   0  0  0  0  0
   18.6700  -52.4650   14.2330 C   0  0  0  0  0
   18.7010  -51.1950   13.6520 C   0  0  0  0  0
   17.8770  -50.1540   14.1300 C   0  0  0  0  0
   17.7870  -52.7110   15.2910 C   0  0  0  0  0
   16.9760  -51.6740   15.7760 C   0  0  0  0  0
   17.0160  -50.3930   15.2040 C   0  0  0  0  0
   17.6030  -57.2030   13.8810 C   0  0  0  0  0
   19.3940  -58.1900   12.8940 O   0  0  0  0  0
   15.3401  -54.1906   14.0942 H   0  0  0  0  0
   15.8325  -54.1852   15.8411 H   0  0  0  0  0
   15.0961  -58.0545   14.7381 H   0  0  0  0  0
   14.9372  -57.0410   13.2504 H   0  0  0  0  0
   13.4708  -53.6033   15.5282 H   0  0  0  0  0
   13.6840  -55.0782   16.4530 H   0  0  0  0  0
   13.1999  -57.0383   15.7344 H   0  0  0  0  0
   12.7242  -57.3863   14.0492 H   0  0  0  0  0
   22.4537  -54.3532   12.3699 H   0  0  0  0  0
   21.3898  -56.5941   12.4345 H   0  0  0  0  0
   21.2373  -52.3448   13.2265 H   0  0  0  0  0
   19.3731  -51.0049   12.8152 H   0  0  0  0  0
   17.9120  -49.1692   13.6641 H   0  0  0  0  0
   17.7298  -53.7043   15.7362 H   0  0  0  0  0
   16.3031  -51.8666   16.6116 H   0  0  0  0  0
   16.3835  -49.5949   15.5927 H   0  0  0  0  0
   17.0928  -58.1626   13.9645 H   0  0  0  0  0
  1  2  1  0  0  0
  1  3  1  0  0  0
  4  1  1  0  0  0
  2  5  1  0  0  0
  3  7  1  0  0  0
 15  4  1  0  0  0
  4 22  2  0  0  0
  5  6  1  0  0  0
  7  6  1  0  0  0
  9  8  4  0  0  0
 10  8  4  0  0  0
 11  9  4  0  0  0
 14 10  4  0  0  0
 12 11  4  0  0  0
 11 13  1  0  0  0
 12 14  4  0  0  0
 12 15  1  0  0  0
 13 22  1  0  0  0
 13 23  2  0  0  0
 14 16  1  0  0  0
 16 17  4  0  0  0
 16 19  4  0  0  0
 17 18  4  0  0  0
 18 21  4  0  0  0
 19 20  4  0  0  0
 20 21  4  0  0  0
  2 24  1  0  0  0
  2 25  1  0  0  0
  3 26  1  0  0  0
  3 27  1  0  0  0
  5 28  1  0  0  0
  5 29  1  0  0  0
  7 30  1  0  0  0
  7 31  1  0  0  0
  8 32  1  0  0  0
  9 33  1  0  0  0
 10 34  1  0  0  0
 17 35  1  0  0  0
 18 36  1  0  0  0
 19 37  1  0  0  0
 20 38  1  0  0  0
 21 39  1  0  0  0
 22 40  1  0  0  0
M  END
$$$$
