1hsh_ligand
  -I-interpret- 

 94 98  0  0  0  0  0  0  0  0999 V2000
   11.8340    4.3590    9.9060 N   0  3  0  0  0
   12.7330    3.1970    9.9370 C   0  0  0  0  0
   13.3080    2.6910    8.6070 C   0  0  0  0  0
   14.1000    1.4240    8.8820 C   0  0  0  0  0
   13.5090    0.3830    9.1850 O   0  0  0  0  0
   15.4300    1.5170    8.8220 N   0  0  0  0  0
   16.4300    0.3730    9.1140 C   0  0  0  0  0
   17.9040    0.8640    9.0220 C   0  0  0  0  0
   16.4940   -0.6600    7.9530 C   0  0  0  0  0
   16.1200   -0.3140   10.5490 C   0  0  0  0  0
   12.2600    2.5380    7.5910 N   0  3  0  0  0
   11.2470    3.6340    7.5410 C   0  0  0  0  0
   10.7520    4.1370    8.9100 C   0  0  0  0  0
   12.7070    2.0400    6.3020 C   0  0  0  0  0
   11.7170    1.0420    5.6970 C   0  0  0  0  0
   11.8160    1.0600    4.2690 O   0  0  0  0  0
   11.8960   -0.4230    6.0910 C   0  0  0  0  0
   11.0140   -1.4400    5.3650 C   0  0  0  0  0
   11.6830   -2.7690    5.7160 C   0  0  0  0  0
   10.8330   -3.9550    5.4080 C   0  0  0  0  0
   10.4000   -4.2230    4.1150 C   0  0  0  0  0
    9.4470   -5.2180    3.8990 C   0  0  0  0  0
    8.9360   -5.9430    4.9810 C   0  0  0  0  0
    9.3790   -5.6790    6.2700 C   0  0  0  0  0
   10.3260   -4.6920    6.4830 C   0  0  0  0  0
    9.5570   -1.3850    5.8630 C   0  0  0  0  0
    9.2740   -0.9040    6.9590 O   0  0  0  0  0
    8.6380   -1.9010    5.0490 N   0  0  0  0  0
    7.2200   -2.0180    5.3980 C   0  0  0  0  0
    6.4390   -2.8300    4.3370 C   0  0  0  0  0
    7.1820   -2.9470    3.1220 O   0  0  0  0  0
    5.0390   -2.2750    4.3350 C   0  0  0  0  0
    5.0260   -0.8500    4.8220 C   0  0  0  0  0
    4.1270    0.2010    4.7200 C   0  0  0  0  0
    4.5010    1.4360    5.2500 C   0  0  0  0  0
    5.7400    1.6180    5.8890 C   0  0  0  0  0
    6.6740    0.5710    6.0220 C   0  0  0  0  0
    6.4170   -0.7040    5.5100 C   0  0  0  0  0
   11.4660    4.9870   11.2060 C   0  0  0  0  0
   12.5180    5.3700   12.3280 C   0  0  0  0  0
   13.6040    6.2000   12.0930 C   0  0  0  0  0
   14.5190    6.6560   13.1340 N   0  0  0  0  0
   14.1940    6.1760   14.4180 C   0  0  0  0  0
   13.1230    5.3490   14.6790 C   0  0  0  0  0
   12.2840    4.9420   13.6370 C   0  0  0  0  0
   12.3852    5.1469    9.5657 H   0  0  0  0  0
   12.1283    2.3752   10.3205 H   0  0  0  0  0
   13.5962    3.5162   10.5210 H   0  0  0  0  0
   13.9916    3.4241    8.1789 H   0  0  0  0  0
   15.8217    2.4218    8.5607 H   0  0  0  0  0
   18.0900    1.5998    9.8044 H   0  0  0  0  0
   18.5768    0.0162    9.1514 H   0  0  0  0  0
   18.0739    1.3187    8.0460 H   0  0  0  0  0
   17.2845   -1.3829    8.1547 H   0  0  0  0  0
   15.5378   -1.1775    7.8757 H   0  0  0  0  0
   16.7044   -0.1411    7.0178 H   0  0  0  0  0
   15.1590   -0.8266   10.5050 H   0  0  0  0  0
   16.9058   -1.0320   10.7840 H   0  0  0  0  0
   16.0875    0.4562   11.3196 H   0  0  0  0  0
   11.7166    1.7543    7.9529 H   0  0  0  0  0
   10.3765    3.2306    7.0237 H   0  0  0  0  0
   11.7284    4.4814    7.0529 H   0  0  0  0  0
   10.2667    5.0986    8.7429 H   0  0  0  0  0
   10.0940    3.3687    9.3160 H   0  0  0  0  0
   13.6595    1.5300    6.4458 H   0  0  0  0  0
   12.7951    2.8871    5.6217 H   0  0  0  0  0
   10.7594    1.3803    6.0927 H   0  0  0  0  0
   11.1921    0.4316    3.8982 H   0  0  0  0  0
   11.6242   -0.4867    7.1446 H   0  0  0  0  0
   12.9241   -0.6799    5.8359 H   0  0  0  0  0
   10.9423   -1.2638    4.2917 H   0  0  0  0  0
   11.8734   -2.7693    6.7892 H   0  0  0  0  0
   12.5909   -2.8495    5.1181 H   0  0  0  0  0
   10.8031   -3.6586    3.2741 H   0  0  0  0  0
    9.1004   -5.4308    2.8877 H   0  0  0  0  0
    8.1879   -6.7174    4.8114 H   0  0  0  0  0
    8.9824   -6.2470    7.1115 H   0  0  0  0  0
   10.6784   -4.4881    7.4941 H   0  0  0  0  0
    8.9378   -2.2330    4.1323 H   0  0  0  0  0
    7.2855   -2.4866    6.3800 H   0  0  0  0  0
    6.3148   -3.8909    4.5541 H   0  0  0  0  0
    6.6736   -3.4542    2.4849 H   0  0  0  0  0
    4.4214   -2.8787    5.0000 H   0  0  0  0  0
    4.6528   -2.3010    3.3161 H   0  0  0  0  0
    3.1576    0.0662    4.2403 H   0  0  0  0  0
    3.8163    2.2800    5.1667 H   0  0  0  0  0
    5.9859    2.5995    6.2942 H   0  0  0  0  0
    7.6170    0.7595    6.5351 H   0  0  0  0  0
   10.8685    4.2133   11.6882 H   0  0  0  0  0
   11.0709    5.9567   10.9033 H   0  0  0  0  0
   13.7846    6.5312   11.0704 H   0  0  0  0  0
   14.8264    6.4762   15.2535 H   0  0  0  0  0
   12.9299    5.0122   15.6975 H   0  0  0  0  0
   11.4401    4.2851   13.8480 H   0  0  0  0  0
  1 39  1  0  0  0
  1 13  1  0  0  0
  1  2  1  0  0  0
  2  3  1  0  0  0
  3 11  1  0  0  0
  3  4  1  0  0  0
  4  6  1  0  0  0
  4  5  2  0  0  0
  6  7  1  0  0  0
  7 10  1  0  0  0
  7  9  1  0  0  0
  7  8  1  0  0  0
 11 14  1  0  0  0
 11 12  1  0  0  0
 12 13  1  0  0  0
 14 15  1  0  0  0
 15 17  1  0  0  0
 15 16  1  0  0  0
 17 18  1  0  0  0
 18 26  1  0  0  0
 18 19  1  0  0  0
 19 20  1  0  0  0
 20 25  4  0  0  0
 20 21  4  0  0  0
 21 22  4  0  0  0
 22 23  4  0  0  0
 23 24  4  0  0  0
 24 25  4  0  0  0
 26 28  1  0  0  0
 26 27  2  0  0  0
 28 29  1  0  0  0
 29 38  1  0  0  0
 29 30  1  0  0  0
 30 32  1  0  0  0
 30 31  1  0  0  0
 32 33  1  0  0  0
 33 38  4  0  0  0
 33 34  4  0  0  0
 34 35  4  0  0  0
 35 36  4  0  0  0
 36 37  4  0  0  0
 37 38  4  0  0  0
 39 40  1  0  0  0
 40 45  4  0  0  0
 40 41  4  0  0  0
 41 42  4  0  0  0
 42 43  4  0  0  0
 43 44  4  0  0  0
 44 45  4  0  0  0
  1 46  1  0  0  0
  2 47  1  0  0  0
  2 48  1  0  0  0
  3 49  1  0  0  0
  6 50  1  0  0  0
  8 51  1  0  0  0
  8 52  1  0  0  0
  8 53  1  0  0  0
  9 54  1  0  0  0
  9 55  1  0  0  0
  9 56  1  0  0  0
 10 57  1  0  0  0
 10 58  1  0  0  0
 10 59  1  0  0  0
 11 60  1  0  0  0
 12 61  1  0  0  0
 12 62  1  0  0  0
 13 63  1  0  0  0
 13 64  1  0  0  0
 14 65  1  0  0  0
 14 66  1  0  0  0
 15 67  1  0  0  0
 16 68  1  0  0  0
 17 69  1  0  0  0
 17 70  1  0  0  0
 18 71  1  0  0  0
 19 72  1  0  0  0
 19 73  1  0  0  0
 21 74  1  0  0  0
 22 75  1  0  0  0
 23 76  1  0  0  0
 24 77  1  0  0  0
 25 78  1  0  0  0
 28 79  1  0  0  0
 29 80  1  0  0  0
 30 81  1  0  0  0
 31 82  1  0  0  0
 32 83  1  0  0  0
 32 84  1  0  0  0
 34 85  1  0  0  0
 35 86  1  0  0  0
 36 87  1  0  0  0
 37 88  1  0  0  0
 39 89  1  0  0  0
 39 90  1  0  0  0
 41 91  1  0  0  0
 43 92  1  0  0  0
 44 93  1  0  0  0
 45 94  1  0  0  0
M  END
$$$$
