5xst_ligand
  -I-interpret- 

 35 38  0  0  0  0  0  0  0  0999 V2000
   23.1790  -15.1800  -19.7050 C   0  0  0  0  0
   22.4800  -14.7750  -21.0090 C   0  0  0  0  0
   21.1240  -14.8870  -21.1050 C   0  0  0  0  0
   20.4660  -14.5410  -22.3290 C   0  0  0  0  0
   21.2010  -14.0760  -23.4400 C   0  0  0  0  0
   22.6120  -13.9650  -23.3480 C   0  0  0  0  0
   24.7790  -13.6130  -23.5640 C   0  0  0  0  0
   26.0620  -13.3780  -24.1150 C   0  0  0  0  0
   26.3840  -13.1200  -25.4490 C   0  0  0  0  0
   27.7670  -13.0410  -25.7260 C   0  0  0  0  0
   28.5780  -13.2620  -24.6620 C   0  0  0  0  0
   30.0750  -13.2010  -24.7350 C   0  0  0  0  0
   30.5630  -12.5150  -26.0390 C   0  0  0  0  0
   28.3590  -12.7390  -27.0940 C   0  0  0  0  0
   23.2490  -14.3110  -22.1340 C   0  0  0  0  0
   19.0780  -14.6770  -22.3930 F   0  0  0  0  0
   24.6330  -15.0250  -19.5660 N   0  0  0  0  0
   23.5770  -13.5610  -24.2060 N   0  0  0  0  0
   29.8070  -12.9050  -27.1970 N   0  3  0  0  0
   24.5790  -14.0970  -22.3260 N   0  0  0  0  0
   22.5480  -15.6730  -18.7980 O   0  0  0  0  0
   27.5540  -13.5750  -23.3060 S   0  0  0  0  0
   20.5429  -15.2388  -20.2526 H   0  0  0  0  0
   20.6881  -13.8040  -24.3625 H   0  0  0  0  0
   25.6244  -12.9892  -26.2197 H   0  0  0  0  0
   30.4599  -14.2207  -24.7204 H   0  0  0  0  0
   30.4352  -12.6187  -23.8869 H   0  0  0  0  0
   31.5984  -12.8134  -26.2031 H   0  0  0  0  0
   30.4438  -11.4390  -25.9122 H   0  0  0  0  0
   28.1493  -11.6895  -27.3005 H   0  0  0  0  0
   27.9128  -13.4482  -27.7911 H   0  0  0  0  0
   25.0992  -15.3315  -18.7121 H   0  0  0  0  0
   25.1765  -14.6109  -20.3233 H   0  0  0  0  0
   29.9747  -13.9024  -27.3289 H   0  0  0  0  0
   30.1135  -12.3003  -27.9591 H   0  0  0  0  0
  2  1  1  0  0  0
  1 17  1  0  0  0
  1 21  2  0  0  0
  2  3  4  0  0  0
 15  2  4  0  0  0
  4  3  4  0  0  0
  5  4  4  0  0  0
  4 16  1  0  0  0
  6  5  4  0  0  0
  6 15  4  0  0  0
 18  6  4  0  0  0
  7  8  1  0  0  0
  7 18  4  0  0  0
  7 20  4  0  0  0
  8  9  4  0  0  0
  8 22  4  0  0  0
  9 10  4  0  0  0
 10 11  4  0  0  0
 10 14  1  0  0  0
 11 12  1  0  0  0
 11 22  4  0  0  0
 12 13  1  0  0  0
 13 19  1  0  0  0
 14 19  1  0  0  0
 15 20  4  0  0  0
  3 23  1  0  0  0
  5 24  1  0  0  0
  9 25  1  0  0  0
 12 26  1  0  0  0
 12 27  1  0  0  0
 13 28  1  0  0  0
 13 29  1  0  0  0
 14 30  1  0  0  0
 14 31  1  0  0  0
 17 32  1  0  0  0
 17 33  1  0  0  0
 19 34  1  0  0  0
 19 35  1  0  0  0
M  END
$$$$
