### 
### Created by X-TOOL on Mon Sep 10 21:13:10 2018
### 

@<TRIPOS>MOLECULE
4dum_ligand
   50    53     1     0     0
SMALL
GAST_HUCK


@<TRIPOS>ATOM
      1 C1         -0.7240    4.2280  -23.1750 C.3       1 HLI         0.1020
      2 N1          0.5040    0.4000  -25.0040 N.2       1 HLI        -0.1578
      3 O1         -3.0750    2.9530  -24.8790 O.2       1 HLI        -0.3202
      4 P1          6.4800    3.3990  -24.4070 P.3       1 HLI        -0.0149
      5 CL1        -0.1510    4.9350  -16.5750 Cl        1 HLI        -0.0810
      6 C2         -1.3040    1.5810  -24.9480 C.2       1 HLI         0.3512
      7 N2         -0.2710    2.3890  -24.7800 N.pl3     1 HLI        -0.1134
      8 O2          6.7670    4.7860  -23.9700 O.co2     1 HLI        -0.6760
      9 C3         -0.8060    0.3030  -25.0880 C.2       1 HLI         0.3099
     10 N3         -3.5070    0.6960  -25.1880 N.am      1 HLI        -0.2354
     11 O3          7.1170    3.2800  -25.8450 O.co2     1 HLI        -0.6760
     12 C4          0.8480    1.6630  -24.8150 C.2       1 HLI         0.2428
     13 N4         -1.6080   -0.7520  -25.2650 N.pl3     1 HLI        -0.2078
     14 O4          7.2840    2.3050  -23.4910 O.co2     1 HLI        -0.6760
     15 C5         -2.9520   -0.6040  -25.3240 C.cat     1 HLI         0.2018
     16 N5         -3.7470   -1.6810  -25.5120 N.pl3     1 HLI        -0.3234
     17 O5          0.4600    4.0380  -22.3970 O.3       1 HLI        -0.3146
     18 C6         -2.6590    1.8010  -24.9970 C.2       1 HLI         0.3382
     19 C7          2.1630    2.0770  -24.7050 C.ar      1 HLI         0.0999
     20 C8         -0.3840    3.8590  -24.6110 C.3       1 HLI         0.1167
     21 C9          3.0860    1.2580  -24.0500 C.ar      1 HLI        -0.0066
     22 C10         4.4200    1.6670  -23.9560 C.ar      1 HLI        -0.0117
     23 C11         4.8020    2.8770  -24.5280 C.ar      1 HLI         0.0447
     24 C12         3.9000    3.7020  -25.1960 C.ar      1 HLI        -0.0117
     25 C13         2.5720    3.2850  -25.2950 C.ar      1 HLI        -0.0066
     26 C14        -3.7650   -2.3710  -26.8260 C.3       1 HLI         0.0126
     27 C15         0.2940    4.2490  -21.0580 C.ar      1 HLI         0.0917
     28 C16        -0.8430    4.8810  -20.5490 C.ar      1 HLI        -0.0324
     29 C17        -0.9800    5.0900  -19.1750 C.ar      1 HLI        -0.0567
     30 C18         0.0180    4.6660  -18.2900 C.ar      1 HLI         0.0285
     31 C19         1.1560    4.0380  -18.8050 C.ar      1 HLI        -0.0567
     32 C20         1.2970    3.8340  -20.1790 C.ar      1 HLI        -0.0324
     33 H          -1.0606    5.2629  -23.1145 H         1 HLI         0.0645
     34 H          -1.5339    3.6023  -22.7998 H         1 HLI         0.0645
     35 H          -4.5176    0.8277  -25.2288 H         1 HLI         0.1835
     36 H          -1.2007   -1.6826  -25.3570 H         1 HLI         0.2445
     37 H          -4.3349   -2.0197  -24.7504 H         1 HLI         0.1799
     38 H           0.5740    4.3116  -24.8672 H         1 HLI         0.0690
     39 H          -1.1813    4.2218  -25.2597 H         1 HLI         0.0690
     40 H           2.7694    0.3094  -23.6164 H         1 HLI         0.0856
     41 H           5.1522    1.0453  -23.4407 H         1 HLI         0.0747
     42 H           4.2230    4.6483  -25.6299 H         1 HLI         0.0747
     43 H           1.8490    3.8988  -25.8322 H         1 HLI         0.0856
     44 H          -4.0827   -1.6706  -27.5984 H         1 HLI         0.0495
     45 H          -2.7648   -2.7382  -27.0559 H         1 HLI         0.0495
     46 H          -4.4607   -3.2091  -26.7853 H         1 HLI         0.0495
     47 H          -1.6281    5.2131  -21.2284 H         1 HLI         0.0543
     48 H          -1.8702    5.5867  -18.7892 H         1 HLI         0.0595
     49 H           1.9413    3.7042  -18.1268 H         1 HLI         0.0595
     50 H           2.1928    3.3492  -20.5670 H         1 HLI         0.0543
@<TRIPOS>BOND
     1   17    1 1  
     2    1   20 1  
     3    2    9 1  
     4   12    2 2  
     5   18    3 2  
     6    4    8 ar 
     7    4   11 ar 
     8    4   14 ar 
     9   23    4 1  
    10   30    5 1  
    11    7    6 1  
    12    6    9 2  
    13    6   18 1  
    14    7   12 1  
    15   20    7 1  
    16    9   13 1  
    17   10   15 ar 
    18   18   10 am 
    19   12   19 1  
    20   13   15 ar 
    21   15   16 ar 
    22   16   26 1  
    23   27   17 1  
    24   19   21 ar 
    25   19   25 ar 
    26   21   22 ar 
    27   22   23 ar 
    28   24   23 ar 
    29   25   24 ar 
    30   28   27 ar 
    31   27   32 ar 
    32   29   28 ar 
    33   29   30 ar 
    34   30   31 ar 
    35   31   32 ar 
    36    1   33 1  
    37    1   34 1  
    38   10   35 1  
    39   13   36 1  
    40   16   37 1  
    41   20   38 1  
    42   20   39 1  
    43   21   40 1  
    44   22   41 1  
    45   24   42 1  
    46   25   43 1  
    47   26   44 1  
    48   26   45 1  
    49   26   46 1  
    50   28   47 1  
    51   29   48 1  
    52   31   49 1  
    53   32   50 1  
@<TRIPOS>SUBSTRUCTURE
     1 HLI         1

