4dum_ligand
  -I-interpret- 

 51 54  0  0  0  0  0  0  0  0999 V2000
   -0.7240    4.2280  -23.1750 C   0  0  0  0  0
    0.5040    0.4000  -25.0040 N   0  0  0  0  0
   -3.0750    2.9530  -24.8790 O   0  0  0  0  0
    6.4800    3.3990  -24.4070 P   0  0  0  0  0
   -0.1510    4.9350  -16.5750 Cl  0  0  0  0  0
   -1.3040    1.5810  -24.9480 C   0  0  0  0  0
   -0.2710    2.3890  -24.7800 N   0  0  0  0  0
    6.7670    4.7860  -23.9700 O   0  0  0  0  0
   -0.8060    0.3030  -25.0880 C   0  0  0  0  0
   -3.5070    0.6960  -25.1880 N   0  0  0  0  0
    7.1170    3.2800  -25.8450 O   0  0  0  0  0
    0.8480    1.6630  -24.8150 C   0  0  0  0  0
   -1.6080   -0.7520  -25.2650 N   0  0  0  0  0
    7.2840    2.3050  -23.4910 O   0  0  0  0  0
   -2.9520   -0.6040  -25.3240 C   0  0  0  0  0
   -3.7470   -1.6810  -25.5120 N   0  0  0  0  0
    0.4600    4.0380  -22.3970 O   0  0  0  0  0
   -2.6590    1.8010  -24.9970 C   0  0  0  0  0
    2.1630    2.0770  -24.7050 C   0  0  0  0  0
   -0.3840    3.8590  -24.6110 C   0  0  0  0  0
    3.0860    1.2580  -24.0500 C   0  0  0  0  0
    4.4200    1.6670  -23.9560 C   0  0  0  0  0
    4.8020    2.8770  -24.5280 C   0  0  0  0  0
    3.9000    3.7020  -25.1960 C   0  0  0  0  0
    2.5720    3.2850  -25.2950 C   0  0  0  0  0
   -3.7650   -2.3710  -26.8260 C   0  0  0  0  0
    0.2940    4.2490  -21.0580 C   0  0  0  0  0
   -0.8430    4.8810  -20.5490 C   0  0  0  0  0
   -0.9800    5.0900  -19.1750 C   0  0  0  0  0
    0.0180    4.6660  -18.2900 C   0  0  0  0  0
    1.1560    4.0380  -18.8050 C   0  0  0  0  0
    1.2970    3.8340  -20.1790 C   0  0  0  0  0
   -1.0606    5.2629  -23.1145 H   0  0  0  0  0
   -1.5339    3.6023  -22.7998 H   0  0  0  0  0
    6.9652    2.3967  -26.1889 H   0  0  0  0  0
   -1.2007   -1.6826  -25.3570 H   0  0  0  0  0
    7.0779    1.4191  -23.7980 H   0  0  0  0  0
   -4.3349   -2.0197  -24.7504 H   0  0  0  0  0
    0.5740    4.3116  -24.8672 H   0  0  0  0  0
   -1.1813    4.2218  -25.2597 H   0  0  0  0  0
    2.7694    0.3094  -23.6164 H   0  0  0  0  0
    5.1522    1.0453  -23.4407 H   0  0  0  0  0
    4.2230    4.6483  -25.6299 H   0  0  0  0  0
    1.8490    3.8988  -25.8322 H   0  0  0  0  0
   -4.0827   -1.6706  -27.5984 H   0  0  0  0  0
   -2.7648   -2.7382  -27.0559 H   0  0  0  0  0
   -4.4607   -3.2091  -26.7853 H   0  0  0  0  0
   -1.6281    5.2131  -21.2284 H   0  0  0  0  0
   -1.8702    5.5867  -18.7892 H   0  0  0  0  0
    1.9413    3.7042  -18.1268 H   0  0  0  0  0
    2.1928    3.3492  -20.5670 H   0  0  0  0  0
 17  1  1  0  0  0
  1 20  1  0  0  0
  2  9  4  0  0  0
 12  2  4  0  0  0
 18  3  2  0  0  0
  4  8  2  0  0  0
  4 11  1  0  0  0
  4 14  1  0  0  0
 23  4  1  0  0  0
 30  5  1  0  0  0
  7  6  4  0  0  0
  6  9  4  0  0  0
  6 18  1  0  0  0
  7 12  4  0  0  0
 20  7  1  0  0  0
  9 13  1  0  0  0
 10 15  4  0  0  0
 18 10  1  0  0  0
 12 19  1  0  0  0
 13 15  1  0  0  0
 15 16  1  0  0  0
 16 26  1  0  0  0
 27 17  1  0  0  0
 19 21  4  0  0  0
 19 25  4  0  0  0
 21 22  4  0  0  0
 22 23  4  0  0  0
 24 23  4  0  0  0
 25 24  4  0  0  0
 28 27  4  0  0  0
 27 32  4  0  0  0
 29 28  4  0  0  0
 29 30  4  0  0  0
 30 31  4  0  0  0
 31 32  4  0  0  0
  1 33  1  0  0  0
  1 34  1  0  0  0
 11 35  1  0  0  0
 13 36  1  0  0  0
 14 37  1  0  0  0
 16 38  1  0  0  0
 20 39  1  0  0  0
 20 40  1  0  0  0
 21 41  1  0  0  0
 22 42  1  0  0  0
 24 43  1  0  0  0
 25 44  1  0  0  0
 26 45  1  0  0  0
 26 46  1  0  0  0
 26 47  1  0  0  0
 28 48  1  0  0  0
 29 49  1  0  0  0
 31 50  1  0  0  0
 32 51  1  0  0  0
M  END
$$$$
