5hgc_ligand
  -I-interpret- 

 56 59  0  0  0  0  0  0  0  0999 V2000
   25.7830   58.1600   27.7680 C   0  0  0  0  0
   25.1330   59.4320   27.2300 C   0  0  0  0  0
   24.3960   60.1910   28.3100 C   0  0  0  0  0
   24.6200   59.8800   29.7420 C   0  0  0  0  0
   25.7010   59.1800   30.1060 C   0  0  0  0  0
   26.1800   59.2620   31.5390 C   0  0  0  0  0
   26.4640   57.8450   32.0860 C   0  0  0  0  0
   27.2150   56.8970   31.1440 C   0  0  0  0  0
   26.5460   56.8940   29.7520 C   0  0  0  0  0
   26.4700   58.3040   29.1240 C   0  0  0  0  0
   27.2140   54.3560   29.4460 C   0  0  0  0  0
   27.0300   55.7460   28.7980 C   0  0  0  0  0
   27.9360   54.4500   30.8240 C   0  0  0  0  0
   27.2010   55.4830   31.6810 C   0  0  0  0  0
   27.6160   55.1770   33.1000 C   0  0  0  0  0
   27.8080   53.6670   33.1520 C   0  0  0  0  0
   27.7940   53.1680   31.6850 C   0  0  0  0  0
   29.4530   54.7800   30.7050 C   0  0  0  0  0
   27.8310   59.0060   28.9240 C   0  0  0  0  0
   28.8140   52.0760   31.4210 C   0  0  0  0  0
   28.5180   50.9710   30.4280 C   0  0  0  0  0
   23.6660   61.1070   27.9880 O   0  0  0  0  0
   28.3020   56.2070   28.3320 O   0  0  0  0  0
   26.5360   52.5060   31.4200 O   0  0  0  0  0
   29.8890   52.0700   32.0010 O   0  0  0  0  0
   29.7710   50.7680   29.7770 O   0  0  0  0  0
   26.5566   57.8778   27.0538 H   0  0  0  0  0
   24.9832   57.4310   27.8984 H   0  0  0  0  0
   24.4142   59.1488   26.4611 H   0  0  0  0  0
   25.9190   60.0763   26.8361 H   0  0  0  0  0
   23.9082   60.2196   30.4944 H   0  0  0  0  0
   25.4079   59.7323   32.1479 H   0  0  0  0  0
   27.0968   59.8503   31.5765 H   0  0  0  0  0
   25.4916   57.3874   32.2683 H   0  0  0  0  0
   27.1027   57.9771   32.9593 H   0  0  0  0  0
   28.2441   57.2484   31.0687 H   0  0  0  0  0
   25.5050   56.6193   29.9219 H   0  0  0  0  0
   27.8248   53.7461   28.7804 H   0  0  0  0  0
   26.2281   53.9193   29.6052 H   0  0  0  0  0
   26.2696   55.5788   28.0352 H   0  0  0  0  0
   26.1146   55.4019   31.6457 H   0  0  0  0  0
   26.8641   55.5086   33.8161 H   0  0  0  0  0
   28.5301   55.7051   33.3712 H   0  0  0  0  0
   27.0156   53.1936   33.7317 H   0  0  0  0  0
   28.7477   53.4107   33.6414 H   0  0  0  0  0
   29.9489   54.0002   30.1270 H   0  0  0  0  0
   29.5765   55.7399   30.2035 H   0  0  0  0  0
   29.8919   54.8302   31.7015 H   0  0  0  0  0
   28.3246   59.1204   29.8891 H   0  0  0  0  0
   28.4555   58.4038   28.2642 H   0  0  0  0  0
   27.6700   59.9875   28.4781 H   0  0  0  0  0
   27.7222   51.2356   29.7318 H   0  0  0  0  0
   28.1434   50.0664   30.9072 H   0  0  0  0  0
   28.6770   55.5569   27.7333 H   0  0  0  0  0
   26.4703   51.7170   31.9629 H   0  0  0  0  0
   29.6801   50.0743   29.1196 H   0  0  0  0  0
  1  2  1  0  0  0
  1 10  1  0  0  0
  2  3  1  0  0  0
  3  4  1  0  0  0
  3 22  2  0  0  0
  4  5  2  0  0  0
  5  6  1  0  0  0
  5 10  1  0  0  0
  6  7  1  0  0  0
  7  8  1  0  0  0
  8  9  1  0  0  0
  8 14  1  0  0  0
  9 10  1  0  0  0
  9 12  1  0  0  0
 10 19  1  0  0  0
 12 11  1  0  0  0
 11 13  1  0  0  0
 12 23  1  0  0  0
 13 14  1  0  0  0
 13 17  1  0  0  0
 13 18  1  0  0  0
 14 15  1  0  0  0
 15 16  1  0  0  0
 16 17  1  0  0  0
 17 20  1  0  0  0
 17 24  1  0  0  0
 20 21  1  0  0  0
 20 25  2  0  0  0
 21 26  1  0  0  0
  1 27  1  0  0  0
  1 28  1  0  0  0
  2 29  1  0  0  0
  2 30  1  0  0  0
  4 31  1  0  0  0
  6 32  1  0  0  0
  6 33  1  0  0  0
  7 34  1  0  0  0
  7 35  1  0  0  0
  8 36  1  0  0  0
  9 37  1  0  0  0
 11 38  1  0  0  0
 11 39  1  0  0  0
 12 40  1  0  0  0
 14 41  1  0  0  0
 15 42  1  0  0  0
 15 43  1  0  0  0
 16 44  1  0  0  0
 16 45  1  0  0  0
 18 46  1  0  0  0
 18 47  1  0  0  0
 18 48  1  0  0  0
 19 49  1  0  0  0
 19 50  1  0  0  0
 19 51  1  0  0  0
 21 52  1  0  0  0
 21 53  1  0  0  0
 23 54  1  0  0  0
 24 55  1  0  0  0
 26 56  1  0  0  0
M  END
$$$$
