6bu0_ligand
  -I-interpret- 

 54 54  0  0  0  0  0  0  0  0999 V2000
  -22.9730    3.5140   -9.0200 C   0  0  0  0  0
  -23.9640    4.5630   -8.5330 C   0  0  0  0  0
  -24.8250    5.2270   -9.6050 C   0  0  0  0  0
  -25.1660    4.3860  -10.8660 C   0  0  0  0  0
  -24.4410    3.0160  -10.9840 C   0  0  0  0  0
  -23.7780    2.4500   -9.7440 C   0  0  0  0  0
  -22.1490    4.0940   -9.9960 O   0  0  0  0  0
  -20.5220    4.3630   -9.8580 P   0  0  0  0  0
  -20.3450    5.8610  -10.0660 O   0  0  0  0  0
  -19.7630    3.6730  -10.9630 O   0  0  0  0  0
  -20.0060    3.7830   -8.5620 O   0  0  0  0  0
  -23.2080    5.6130   -8.0500 O   0  0  0  0  0
  -23.2840    5.9280   -6.4460 P   0  0  0  0  0
  -22.8540    4.6820   -5.6980 O   0  0  0  0  0
  -22.3320    7.0710   -6.1850 O   0  0  0  0  0
  -24.7040    6.3140   -6.0870 O   0  0  0  0  0
  -26.0170    5.7150   -9.0350 O   0  0  0  0  0
  -26.2850    7.3440   -9.0550 P   0  0  0  0  0
  -26.3010    7.9020   -7.6410 O   0  0  0  0  0
  -25.1190    7.9580   -9.7920 O   0  0  0  0  0
  -27.6320    7.6570   -9.6640 O   0  0  0  0  0
  -26.5490    4.5380  -11.1720 O   0  0  0  0  0
  -27.7050    3.4870  -11.6820 P   0  0  0  0  0
  -28.9940    4.2840  -11.7300 O   0  0  0  0  0
  -27.4290    2.9370  -13.0660 O   0  0  0  0  0
  -27.7920    2.3440  -10.6960 O   0  0  0  0  0
  -25.1280    1.9960  -11.6510 O   0  0  0  0  0
  -24.4600    1.2990  -13.0000 P   0  0  0  0  0
  -25.3470    1.6730  -14.1460 O   0  0  0  0  0
  -23.0400    1.7210  -13.3380 O   0  0  0  0  0
  -24.4710   -0.1970  -12.7740 O   0  0  0  0  0
  -22.8430    1.6250  -10.3430 O   0  0  0  0  0
  -22.5750    0.1810   -9.6380 P   0  0  0  0  0
  -23.5170    0.0850   -8.4550 O   0  0  0  0  0
  -22.8620   -0.9490  -10.6170 O   0  0  0  0  0
  -21.1050    0.3160   -9.3290 O   0  0  0  0  0
  -22.3922    3.1213   -8.1854 H   0  0  0  0  0
  -24.6200    4.0392   -7.8378 H   0  0  0  0  0
  -24.1871    6.0274   -9.9801 H   0  0  0  0  0
  -24.6792    4.7846  -11.7561 H   0  0  0  0  0
  -23.6340    3.3592  -11.6314 H   0  0  0  0  0
  -24.4815    2.0126   -9.0356 H   0  0  0  0  0
  -20.8166    6.3364   -9.3781 H   0  0  0  0  0
  -20.4627    4.1942   -7.8245 H   0  0  0  0  0
  -23.4734    3.9714   -5.8796 H   0  0  0  0  0
  -25.2895    5.5734   -6.2610 H   0  0  0  0  0
  -27.0374    7.5219   -7.1565 H   0  0  0  0  0
  -28.3218    7.2362   -9.1457 H   0  0  0  0  0
  -28.9033    4.9991  -12.3640 H   0  0  0  0  0
  -27.3737    3.6625  -13.6923 H   0  0  0  0  0
  -22.4567    1.4880  -12.6120 H   0  0  0  0  0
  -23.8963   -0.4122  -12.0358 H   0  0  0  0  0
  -24.4195    0.0030   -8.7718 H   0  0  0  0  0
  -23.8065   -0.9956  -10.7822 H   0  0  0  0  0
  1  2  1  0  0  0
  1  6  1  0  0  0
  1  7  1  0  0  0
  2  3  1  0  0  0
  2 12  1  0  0  0
  3  4  1  0  0  0
  3 17  1  0  0  0
  4  5  1  0  0  0
  4 22  1  0  0  0
  5  6  1  0  0  0
  5 27  1  0  0  0
  6 32  1  0  0  0
  7  8  1  0  0  0
  8  9  1  0  0  0
  8 10  2  0  0  0
  8 11  1  0  0  0
 12 13  1  0  0  0
 13 14  1  0  0  0
 13 15  2  0  0  0
 13 16  1  0  0  0
 17 18  1  0  0  0
 18 19  1  0  0  0
 18 20  2  0  0  0
 18 21  1  0  0  0
 22 23  1  0  0  0
 23 24  1  0  0  0
 23 25  1  0  0  0
 23 26  2  0  0  0
 27 28  1  0  0  0
 28 29  2  0  0  0
 28 30  1  0  0  0
 28 31  1  0  0  0
 32 33  1  0  0  0
 33 34  1  0  0  0
 33 35  1  0  0  0
 33 36  2  0  0  0
  1 37  1  0  0  0
  2 38  1  0  0  0
  3 39  1  0  0  0
  4 40  1  0  0  0
  5 41  1  0  0  0
  6 42  1  0  0  0
  9 43  1  0  0  0
 11 44  1  0  0  0
 14 45  1  0  0  0
 16 46  1  0  0  0
 19 47  1  0  0  0
 21 48  1  0  0  0
 24 49  1  0  0  0
 25 50  1  0  0  0
 30 51  1  0  0  0
 31 52  1  0  0  0
 34 53  1  0  0  0
 35 54  1  0  0  0
M  END
$$$$
