### 
### Created by X-TOOL on Wed Jan  1 15:39:37 2020
### 

@<TRIPOS>MOLECULE
6bu0_ligand
   42    42     1     0     0
SMALL
GAST_HUCK


@<TRIPOS>ATOM
      1 C1        -22.9730    3.5140   -9.0200 C.3       1 IHP         0.1556
      2 C2        -23.9640    4.5630   -8.5330 C.3       1 IHP         0.1556
      3 C3        -24.8250    5.2270   -9.6050 C.3       1 IHP         0.1556
      4 C4        -25.1660    4.3860  -10.8660 C.3       1 IHP         0.1556
      5 C5        -24.4410    3.0160  -10.9840 C.3       1 IHP         0.1556
      6 C6        -23.7780    2.4500   -9.7440 C.3       1 IHP         0.1556
      7 O11       -22.1490    4.0940   -9.9960 O.3       1 IHP        -0.2668
      8 P1        -20.5220    4.3630   -9.8580 P.3       1 IHP         0.2013
      9 O21       -20.3450    5.8610  -10.0660 O.co2     1 IHP        -0.5537
     10 O31       -19.7630    3.6730  -10.9630 O.co2     1 IHP        -0.5537
     11 O41       -20.0060    3.7830   -8.5620 O.co2     1 IHP        -0.5537
     12 O12       -23.2080    5.6130   -8.0500 O.3       1 IHP        -0.2668
     13 P2        -23.2840    5.9280   -6.4460 P.3       1 IHP         0.2013
     14 O22       -22.8540    4.6820   -5.6980 O.co2     1 IHP        -0.5537
     15 O32       -22.3320    7.0710   -6.1850 O.co2     1 IHP        -0.5537
     16 O42       -24.7040    6.3140   -6.0870 O.co2     1 IHP        -0.5537
     17 O13       -26.0170    5.7150   -9.0350 O.3       1 IHP        -0.2668
     18 P3        -26.2850    7.3440   -9.0550 P.3       1 IHP         0.2013
     19 O23       -26.3010    7.9020   -7.6410 O.co2     1 IHP        -0.5537
     20 O33       -25.1190    7.9580   -9.7920 O.co2     1 IHP        -0.5537
     21 O43       -27.6320    7.6570   -9.6640 O.co2     1 IHP        -0.5537
     22 O14       -26.5490    4.5380  -11.1720 O.3       1 IHP        -0.2668
     23 P4        -27.7050    3.4870  -11.6820 P.3       1 IHP         0.2013
     24 O24       -28.9940    4.2840  -11.7300 O.co2     1 IHP        -0.5537
     25 O34       -27.4290    2.9370  -13.0660 O.co2     1 IHP        -0.5537
     26 O44       -27.7920    2.3440  -10.6960 O.co2     1 IHP        -0.5537
     27 O15       -25.1280    1.9960  -11.6510 O.3       1 IHP        -0.2668
     28 P5        -24.4600    1.2990  -13.0000 P.3       1 IHP         0.2013
     29 O25       -25.3470    1.6730  -14.1460 O.co2     1 IHP        -0.5537
     30 O35       -23.0400    1.7210  -13.3380 O.co2     1 IHP        -0.5537
     31 O45       -24.4710   -0.1970  -12.7740 O.co2     1 IHP        -0.5537
     32 O16       -22.8430    1.6250  -10.3430 O.3       1 IHP        -0.2668
     33 P6        -22.5750    0.1810   -9.6380 P.3       1 IHP         0.2013
     34 O26       -23.5170    0.0850   -8.4550 O.co2     1 IHP        -0.5537
     35 O36       -22.8620   -0.9490  -10.6170 O.co2     1 IHP        -0.5537
     36 O46       -21.1050    0.3160   -9.3290 O.co2     1 IHP        -0.5537
     37 H1        -22.3872    3.0958   -8.1882 H         1 IHP         0.0710
     38 H2        -24.6058    4.1240   -7.7549 H         1 IHP         0.0710
     39 H3        -24.2490    6.0934   -9.9621 H         1 IHP         0.0710
     40 H4        -24.6861    4.9460  -11.6822 H         1 IHP         0.0710
     41 H5        -23.5973    3.2507  -11.6496 H         1 IHP         0.0710
     42 H6        -24.4797    1.9332   -9.0728 H         1 IHP         0.0710
@<TRIPOS>BOND
     1    1    2 1  
     2    1    6 1  
     3    1    7 1  
     4    2    3 1  
     5    2   12 1  
     6    3    4 1  
     7    3   17 1  
     8    4    5 1  
     9    4   22 1  
    10    5    6 1  
    11    5   27 1  
    12    6   32 1  
    13    7    8 1  
    14    8    9 ar 
    15    8   10 ar 
    16    8   11 ar 
    17   12   13 1  
    18   13   14 ar 
    19   13   15 ar 
    20   13   16 ar 
    21   17   18 1  
    22   18   19 ar 
    23   18   20 ar 
    24   18   21 ar 
    25   22   23 1  
    26   23   24 ar 
    27   23   25 ar 
    28   23   26 ar 
    29   27   28 1  
    30   28   29 ar 
    31   28   30 ar 
    32   28   31 ar 
    33   32   33 1  
    34   33   34 ar 
    35   33   35 ar 
    36   33   36 ar 
    37    1   37 1  
    38    2   38 1  
    39    3   39 1  
    40    4   40 1  
    41    5   41 1  
    42    6   42 1  
@<TRIPOS>SUBSTRUCTURE
     1 IHP         1

