1hlf_ligand
  -I-interpret- 

 29 30  0  0  0  0  0  0  0  0999 V2000
   33.9140   22.7470   27.8160 C   0  0  0  0  0
   33.9590   23.1090   26.2940 C   0  0  0  0  0
   34.0230   24.5300   26.1100 O   0  0  0  0  0
   32.6840   22.5620   25.5680 C   0  0  0  0  0
   32.8740   22.7290   24.1700 O   0  0  0  0  0
   32.4650   21.0480   25.8970 C   0  0  0  0  0
   31.2700   20.6050   25.3200 O   0  0  0  0  0
   32.4260   20.8230   27.4610 C   0  0  0  0  0
   32.3420   19.3660   27.8420 C   0  0  0  0  0
   33.4520   18.6970   27.2850 O   0  0  0  0  0
   33.6310   21.3600   28.0650 O   0  0  0  0  0
   35.2420   23.1450   28.3750 N   0  0  0  0  0
   35.0320   24.0940   29.2830 C   0  0  0  0  0
   36.3110   24.7340   30.1710 S   0  0  0  0  0
   33.7580   24.4600   29.4730 N   0  0  0  0  0
   33.0470   23.6770   28.6300 C   0  0  0  0  0
   31.8210   23.7490   28.6050 O   0  0  0  0  0
   34.8517   22.6505   25.8685 H   0  0  0  0  0
   34.8025   24.8740   26.5523 H   0  0  0  0  0
   31.8032   23.1078   25.9061 H   0  0  0  0  0
   33.0077   23.6595   23.9753 H   0  0  0  0  0
   33.2961   20.4760   25.4844 H   0  0  0  0  0
   31.3029   20.7455   24.3709 H   0  0  0  0  0
   31.5308   21.3308   27.8200 H   0  0  0  0  0
   31.4162   18.9334   27.4627 H   0  0  0  0  0
   32.3494   19.2626   28.9271 H   0  0  0  0  0
   33.4137   17.7666   27.5185 H   0  0  0  0  0
   36.1472   22.7581   28.1079 H   0  0  0  0  0
   33.4026   25.1714   30.1117 H   0  0  0  0  0
  1  2  1  0  0  0
  1 11  1  0  0  0
  1 12  1  0  0  0
  1 16  1  0  0  0
  2  3  1  0  0  0
  2  4  1  0  0  0
  4  5  1  0  0  0
  4  6  1  0  0  0
  6  7  1  0  0  0
  6  8  1  0  0  0
  8  9  1  0  0  0
  8 11  1  0  0  0
  9 10  1  0  0  0
 12 13  1  0  0  0
 13 14  2  0  0  0
 13 15  1  0  0  0
 15 16  1  0  0  0
 16 17  2  0  0  0
  2 18  1  0  0  0
  3 19  1  0  0  0
  4 20  1  0  0  0
  5 21  1  0  0  0
  6 22  1  0  0  0
  7 23  1  0  0  0
  8 24  1  0  0  0
  9 25  1  0  0  0
  9 26  1  0  0  0
 10 27  1  0  0  0
 12 28  1  0  0  0
 15 29  1  0  0  0
M  END
$$$$
