4feq_ligand
  -I-interpret- 

 66 69  0  0  0  0  0  0  0  0999 V2000
    8.7970  -10.5110   15.1260 N   0  0  0  0  0
   10.7970  -11.4130   14.3210 N   0  0  0  0  0
    9.0110  -14.1410   16.1580 C   0  0  0  0  0
    9.9580  -10.3630   14.4460 C   0  0  0  0  0
    6.3190  -10.6840   16.2460 C   0  0  0  0  0
    4.9120  -11.2080   15.9910 C   0  0  0  0  0
    6.2640   -9.9300   17.5610 C   0  0  0  0  0
    9.7480   -7.9190   14.4580 C   0  0  0  0  0
    9.6320  -16.4100   18.3200 C   0  0  0  0  0
    9.2990  -17.8700   18.6580 C   0  0  0  0  0
    9.9370  -19.5080   20.3960 C   0  0  0  0  0
   10.5110  -17.2360   20.7870 C   0  0  0  0  0
    6.7190   -4.1480   14.3590 C   0  0  0  0  0
   10.5070  -19.5720   21.7990 C   0  0  0  0  0
   11.0320  -18.0580   22.0480 C   0  0  0  0  0
    9.5430  -20.5120   19.8020 O   0  0  0  0  0
    9.9080  -18.2600   19.9390 N   0  0  0  0  0
   10.1110  -16.3360   16.8790 C   0  0  0  0  0
   10.0460  -14.9700   16.3700 N   0  0  0  0  0
    7.8570  -14.4400   16.4350 O   0  0  0  0  0
    9.3090  -12.7850   15.5710 C   0  0  0  0  0
    8.4480  -11.6940   15.6930 C   0  0  0  0  0
    7.2760  -11.7760   16.3530 N   0  0  0  0  0
    5.0630  -10.4700   18.3230 C   0  0  0  0  0
    4.1390  -11.1120   17.2980 C   0  0  0  0  0
   10.4900  -12.6030   14.8570 C   0  0  0  0  0
   10.2880   -9.1690   13.9110 N   0  0  0  0  0
    8.6330   -7.3560   13.5780 C   0  0  0  0  0
    7.7060   -6.3600   14.2680 C   0  0  0  0  0
    6.9420   -6.7120   15.3800 C   0  0  0  0  0
    6.0970   -5.7610   15.9520 C   0  0  0  0  0
    6.0060   -4.5230   15.4340 N   0  0  0  0  0
    7.5750   -5.0680   13.7550 C   0  0  0  0  0
    6.6418  -10.0476   15.4220 H   0  0  0  0  0
    4.9486  -12.2416   15.6469 H   0  0  0  0  0
    4.4221  -10.6182   15.2163 H   0  0  0  0  0
    6.1666   -8.8578   17.3907 H   0  0  0  0  0
    7.1824  -10.0735   18.1303 H   0  0  0  0  0
   10.5538   -7.1865   14.5039 H   0  0  0  0  0
    9.3365   -8.1247   15.4462 H   0  0  0  0  0
   10.4131  -16.0459   18.9874 H   0  0  0  0  0
    8.7440  -15.7906   18.4457 H   0  0  0  0  0
    9.6934  -18.5124   17.8707 H   0  0  0  0  0
    8.2169  -17.9753   18.7361 H   0  0  0  0  0
   11.3103  -16.6930   20.2826 H   0  0  0  0  0
    9.8054  -16.4519   21.0616 H   0  0  0  0  0
    6.6294   -3.1362   13.9635 H   0  0  0  0  0
   11.2975  -20.3156   21.9006 H   0  0  0  0  0
    9.7735  -19.8921   22.5390 H   0  0  0  0  0
   10.6563  -17.6465   22.9848 H   0  0  0  0  0
   12.1171  -18.0144   22.1415 H   0  0  0  0  0
    9.4671  -16.9665   16.2658 H   0  0  0  0  0
   11.1469  -16.6729   16.8393 H   0  0  0  0  0
   10.9540  -14.5714   16.1312 H   0  0  0  0  0
    7.0615  -12.5950   16.9219 H   0  0  0  0  0
    4.5513   -9.6683   18.8554 H   0  0  0  0  0
    5.3760  -11.1989   19.0706 H   0  0  0  0  0
    3.8252  -12.1012   17.6313 H   0  0  0  0  0
    3.2373  -10.5138   17.1670 H   0  0  0  0  0
   11.1758  -13.4409   14.7317 H   0  0  0  0  0
   10.9230   -9.1348   13.1135 H   0  0  0  0  0
    8.0156   -8.2013   13.2740 H   0  0  0  0  0
    9.1173   -6.8207   12.7613 H   0  0  0  0  0
    7.0043   -7.7172   15.7969 H   0  0  0  0  0
    5.5041   -6.0239   16.8281 H   0  0  0  0  0
    8.1471   -4.7760   12.8744 H   0  0  0  0  0
  4  1  4  0  0  0
  1 22  4  0  0  0
  4  2  4  0  0  0
  2 26  4  0  0  0
  3 19  1  0  0  0
  3 20  2  0  0  0
 21  3  1  0  0  0
 27  4  1  0  0  0
  5  6  1  0  0  0
  5  7  1  0  0  0
 23  5  1  0  0  0
  6 25  1  0  0  0
  7 24  1  0  0  0
  8 27  1  0  0  0
 28  8  1  0  0  0
  9 10  1  0  0  0
 18  9  1  0  0  0
 10 17  1  0  0  0
 11 14  1  0  0  0
 11 16  2  0  0  0
 17 11  1  0  0  0
 12 15  1  0  0  0
 17 12  1  0  0  0
 13 32  4  0  0  0
 33 13  4  0  0  0
 15 14  1  0  0  0
 19 18  1  0  0  0
 22 21  4  0  0  0
 26 21  4  0  0  0
 22 23  1  0  0  0
 24 25  1  0  0  0
 29 28  1  0  0  0
 29 30  4  0  0  0
 29 33  4  0  0  0
 30 31  4  0  0  0
 31 32  4  0  0  0
  5 34  1  0  0  0
  6 35  1  0  0  0
  6 36  1  0  0  0
  7 37  1  0  0  0
  7 38  1  0  0  0
  8 39  1  0  0  0
  8 40  1  0  0  0
  9 41  1  0  0  0
  9 42  1  0  0  0
 10 43  1  0  0  0
 10 44  1  0  0  0
 12 45  1  0  0  0
 12 46  1  0  0  0
 13 47  1  0  0  0
 14 48  1  0  0  0
 14 49  1  0  0  0
 15 50  1  0  0  0
 15 51  1  0  0  0
 18 52  1  0  0  0
 18 53  1  0  0  0
 19 54  1  0  0  0
 23 55  1  0  0  0
 24 56  1  0  0  0
 24 57  1  0  0  0
 25 58  1  0  0  0
 25 59  1  0  0  0
 26 60  1  0  0  0
 27 61  1  0  0  0
 28 62  1  0  0  0
 28 63  1  0  0  0
 30 64  1  0  0  0
 31 65  1  0  0  0
 33 66  1  0  0  0
M  END
$$$$
