4rqv_ligand
  -I-interpret- 

 32 35  0  0  0  0  0  0  0  0999 V2000
  -16.7030   16.8390  -14.1770 Cl  0  0  0  0  0
  -15.3440   17.4660  -13.3210 C   0  0  0  0  0
  -15.2530   17.2270  -11.9600 C   0  0  0  0  0
  -14.1710   17.7170  -11.2560 C   0  0  0  0  0
  -13.2010   18.4350  -11.9220 C   0  0  0  0  0
  -13.2980   18.6800  -13.2960 C   0  0  0  0  0
  -14.3750   18.1940  -13.9920 C   0  0  0  0  0
  -12.0830   18.9030  -11.1440 N   0  0  0  0  0
  -12.2790   18.5170   -9.8430 C   0  0  0  0  0
  -11.3760   18.8680   -8.8380 N   0  0  0  0  0
  -11.2830   18.0210   -7.4700 S   0  0  0  0  0
  -12.4570   18.1020   -6.7160 O   0  0  0  0  0
  -10.2890   18.5440   -6.6320 O   0  0  0  0  0
  -10.9700   16.3810   -8.0320 C   0  0  0  0  0
  -10.0000   15.9450   -8.9870 C   0  0  0  0  0
  -10.1760   14.4470   -9.1500 C   0  0  0  0  0
   -9.4250   13.6190   -9.9870 C   0  0  0  0  0
   -9.7120   12.2640  -10.0130 C   0  0  0  0  0
  -10.7230   11.6990   -9.2190 C   0  0  0  0  0
  -11.4700   12.5280   -8.3920 C   0  0  0  0  0
  -11.1870   13.8960   -8.3660 C   0  0  0  0  0
  -11.8540   15.1290   -7.5090 S   0  0  0  0  0
  -13.6990   17.6550   -9.6710 S   0  0  0  0  0
  -16.0289   16.6570  -11.4489 H   0  0  0  0  0
  -12.5246   19.2520  -13.8086 H   0  0  0  0  0
  -14.4677   18.3786  -15.0622 H   0  0  0  0  0
  -10.7650   19.6738   -8.9716 H   0  0  0  0  0
   -9.2709   16.5711   -9.5014 H   0  0  0  0  0
   -8.6289   14.0306  -10.6074 H   0  0  0  0  0
   -9.1342   11.6152  -10.6713 H   0  0  0  0  0
  -10.9184   10.6271   -9.2511 H   0  0  0  0  0
  -12.2663   12.1169   -7.7716 H   0  0  0  0  0
  1  2  1  0  0  0
  2  3  4  0  0  0
  2  7  4  0  0  0
  3  4  4  0  0  0
  4  5  4  0  0  0
  4 23  4  0  0  0
  5  6  4  0  0  0
  5  8  4  0  0  0
  6  7  4  0  0  0
  8  9  4  0  0  0
  9 10  1  0  0  0
  9 23  4  0  0  0
 10 11  1  0  0  0
 11 12  2  0  0  0
 11 13  2  0  0  0
 11 14  1  0  0  0
 14 15  4  0  0  0
 14 22  4  0  0  0
 15 16  4  0  0  0
 16 17  4  0  0  0
 16 21  4  0  0  0
 17 18  4  0  0  0
 18 19  4  0  0  0
 19 20  4  0  0  0
 20 21  4  0  0  0
 21 22  4  0  0  0
  3 24  1  0  0  0
  6 25  1  0  0  0
  7 26  1  0  0  0
 10 27  1  0  0  0
 15 28  1  0  0  0
 17 29  1  0  0  0
 18 30  1  0  0  0
 19 31  1  0  0  0
 20 32  1  0  0  0
M  END
$$$$
