6g6y_ligand
  -I-interpret- 

 37 38  0  0  0  0  0  0  0  0999 V2000
   10.0730   17.9400   -0.5020 C   0  0  0  0  0
    9.3750   19.2320   -4.1000 C   0  0  0  0  0
    9.1970   16.6210    2.9700 C   0  0  0  0  0
   11.9100   15.5770    1.2760 C   0  0  0  0  0
   11.4530   17.0220    1.4550 C   0  0  0  0  0
   12.2340   17.6390    2.6630 C   0  0  0  0  0
   11.8320   18.8500    3.1770 C   0  0  0  0  0
   12.5430   19.3960    4.2330 C   0  0  0  0  0
   13.6720   18.7890    4.7580 C   0  0  0  0  0
   14.0570   17.5450    4.2290 C   0  0  0  0  0
   13.3540   17.0030    3.1770 C   0  0  0  0  0
   10.1550   18.8600   -2.8380 C   0  0  0  0  0
    7.6680   16.7010    2.8860 C   0  0  0  0  0
    9.4300   18.3160   -1.7380 N   0  0  0  0  0
    9.1380   17.3900    0.5150 N   0  3  0  0  0
    9.9100   16.9960    1.7770 N   0  0  0  0  0
   11.3250   19.0100   -2.7200 O   0  0  0  0  0
    9.7450   16.2980    3.9710 O   0  0  0  0  0
   11.6600   17.9170    0.1090 S   0  0  0  0  0
   10.6553   18.4465   -1.2718 H   0  0  0  0  0
    9.4877   20.2986   -4.2941 H   0  0  0  0  0
    9.7630   18.6645   -4.9459 H   0  0  0  0  0
    8.3204   18.9970   -3.9562 H   0  0  0  0  0
   11.3367   15.1127    0.4736 H   0  0  0  0  0
   12.9701   15.5612    1.0230 H   0  0  0  0  0
   11.7484   15.0286    2.2040 H   0  0  0  0  0
   10.9695   19.3706    2.7608 H   0  0  0  0  0
   12.2021   20.3364    4.6661 H   0  0  0  0  0
   14.2441   19.2614    5.5565 H   0  0  0  0  0
   14.9091   17.0115    4.6502 H   0  0  0  0  0
   13.6827   16.0595    2.7413 H   0  0  0  0  0
    7.2419   15.7206    3.0992 H   0  0  0  0  0
    7.3026   17.4238    3.6155 H   0  0  0  0  0
    7.3764   17.0152    1.8838 H   0  0  0  0  0
    8.4220   18.1881   -1.8275 H   0  0  0  0  0
    8.6747   16.5651    0.1337 H   0  0  0  0  0
    8.4456   18.1001    0.7531 H   0  0  0  0  0
 14  1  1  0  0  0
  1 15  1  0  0  0
  1 19  1  0  0  0
 12  2  1  0  0  0
  3 13  1  0  0  0
 16  3  1  0  0  0
  3 18  2  0  0  0
  5  4  1  0  0  0
  5  6  1  0  0  0
  5 16  1  0  0  0
 19  5  1  0  0  0
  6  7  4  0  0  0
  6 11  4  0  0  0
  7  8  4  0  0  0
  8  9  4  0  0  0
 10  9  4  0  0  0
 11 10  4  0  0  0
 12 14  1  0  0  0
 12 17  2  0  0  0
 15 16  1  0  0  0
  1 20  1  0  0  0
  2 21  1  0  0  0
  2 22  1  0  0  0
  2 23  1  0  0  0
  4 24  1  0  0  0
  4 25  1  0  0  0
  4 26  1  0  0  0
  7 27  1  0  0  0
  8 28  1  0  0  0
  9 29  1  0  0  0
 10 30  1  0  0  0
 11 31  1  0  0  0
 13 32  1  0  0  0
 13 33  1  0  0  0
 13 34  1  0  0  0
 14 35  1  0  0  0
 15 36  1  0  0  0
 15 37  1  0  0  0
M  END
$$$$
