3w1f_ligand
  -I-interpret- 

 49 52  0  0  0  0  0  0  0  0999 V2000
   -0.2380  -36.0670   -4.4770 O   0  0  0  0  0
   -1.1540  -35.1860   -5.1570 S   0  0  0  0  0
   -0.8420  -33.7900   -4.8890 O   0  0  0  0  0
   -2.6600  -35.3950   -4.6320 N   0  0  0  0  0
   -1.0420  -35.5980   -6.7090 C   0  0  0  0  0
   -0.6020  -34.6240   -7.5930 C   0  0  0  0  0
   -1.3670  -36.9700   -7.2390 C   0  0  0  0  0
   -1.8500  -38.1010   -6.3820 C   0  0  0  0  0
   -1.2220  -37.2140   -8.5980 C   0  0  0  0  0
   -0.7790  -36.1810   -9.4260 C   0  0  0  0  0
   -0.4740  -34.9080   -8.9360 C   0  0  0  0  0
    0.0110  -33.8120   -9.8210 C   0  0  0  0  0
   -0.1880  -32.4770   -9.6510 N   0  0  0  0  0
    0.4390  -31.7530  -10.6780 N   0  0  0  0  0
    0.8290  -33.9510  -11.0360 C   0  0  0  0  0
    1.3270  -35.0650  -11.6880 C   0  0  0  0  0
    2.0640  -34.8720  -12.8520 C   0  0  0  0  0
    2.5720  -35.9420  -13.5350 O   0  0  0  0  0
    2.3340  -37.2800  -13.1130 C   0  0  0  0  0
    3.4080  -38.1290  -13.7530 C   0  0  0  0  0
    1.0520  -32.5810  -11.5330 C   0  0  0  0  0
    1.7870  -32.3900  -12.6940 C   0  0  0  0  0
    2.3150  -33.4880  -13.3570 C   0  0  0  0  0
    3.0910  -33.2870  -14.6130 C   0  0  0  0  0
    4.1290  -34.0860  -15.0820 C   0  0  0  0  0
    4.5440  -33.5840  -16.2600 N   0  0  0  0  0
    3.7270  -32.4770  -16.5160 N   0  0  0  0  0
    4.0100  -31.7590  -17.7810 C   0  0  0  0  0
    2.8500  -32.2840  -15.5430 C   0  0  0  0  0
   -2.8562  -36.0849   -3.9067 H   0  0  0  0  0
   -3.4188  -34.8377   -5.0243 H   0  0  0  0  0
   -0.3560  -33.6284   -7.2238 H   0  0  0  0  0
   -1.1020  -38.3237   -5.6211 H   0  0  0  0  0
   -2.7859  -37.8167   -5.9010 H   0  0  0  0  0
   -2.0121  -38.9821   -7.0029 H   0  0  0  0  0
   -1.4503  -38.1962   -9.0118 H   0  0  0  0  0
   -0.6669  -36.3741  -10.4929 H   0  0  0  0  0
    1.1466  -36.0675  -11.2999 H   0  0  0  0  0
    1.3412  -37.6137  -13.4147 H   0  0  0  0  0
    2.3699  -37.3588  -12.0264 H   0  0  0  0  0
    3.3386  -38.0437  -14.8374 H   0  0  0  0  0
    4.3875  -37.7839  -13.4220 H   0  0  0  0  0
    3.2697  -39.1696  -13.4595 H   0  0  0  0  0
    1.9484  -31.3844  -13.0824 H   0  0  0  0  0
    4.5354  -34.9654  -14.5825 H   0  0  0  0  0
    5.0356  -31.3902  -17.7663 H   0  0  0  0  0
    3.8798  -32.4409  -18.6213 H   0  0  0  0  0
    3.3221  -30.9196  -17.8826 H   0  0  0  0  0
    2.0950  -31.5000  -15.4841 H   0  0  0  0  0
  1  2  2  0  0  0
  2  3  2  0  0  0
  2  4  1  0  0  0
  2  5  1  0  0  0
  5  6  4  0  0  0
  5  7  4  0  0  0
  6 11  4  0  0  0
  7  8  1  0  0  0
  7  9  4  0  0  0
  9 10  4  0  0  0
 10 11  4  0  0  0
 11 12  1  0  0  0
 12 13  4  0  0  0
 12 15  4  0  0  0
 13 14  4  0  0  0
 14 21  4  0  0  0
 15 16  4  0  0  0
 15 21  4  0  0  0
 16 17  4  0  0  0
 17 18  1  0  0  0
 17 23  4  0  0  0
 18 19  1  0  0  0
 19 20  1  0  0  0
 21 22  4  0  0  0
 22 23  4  0  0  0
 23 24  1  0  0  0
 24 25  4  0  0  0
 24 29  4  0  0  0
 25 26  4  0  0  0
 26 27  4  0  0  0
 27 28  1  0  0  0
 27 29  4  0  0  0
  4 30  1  0  0  0
  4 31  1  0  0  0
  6 32  1  0  0  0
  8 33  1  0  0  0
  8 34  1  0  0  0
  8 35  1  0  0  0
  9 36  1  0  0  0
 10 37  1  0  0  0
 16 38  1  0  0  0
 19 39  1  0  0  0
 19 40  1  0  0  0
 20 41  1  0  0  0
 20 42  1  0  0  0
 20 43  1  0  0  0
 22 44  1  0  0  0
 25 45  1  0  0  0
 28 46  1  0  0  0
 28 47  1  0  0  0
 28 48  1  0  0  0
 29 49  1  0  0  0
M  END
$$$$
