3kwf_ligand
  -I-interpret- 

 57 60  0  0  0  0  0  0  0  0999 V2000
   48.7350   51.7550   37.1960 N   0  0  0  0  0
   48.2640   51.8230   35.8120 C   0  0  0  0  0
   48.1470   50.6300   33.7140 N   0  3  0  0  0
   46.6950   50.9460   33.5510 C   0  0  0  0  0
   49.4710   52.7140   37.7600 C   0  0  0  0  0
   46.3340   51.0010   32.0960 C   0  0  0  0  0
   48.4810   50.4660   35.1410 C   0  0  0  0  0
   46.2830   52.2260   34.3140 C   0  0  0  0  0
   46.7800   52.2400   35.7600 C   0  0  0  0  0
   47.1310   50.3550   31.1400 C   0  0  0  0  0
   45.1740   51.6760   31.6670 C   0  0  0  0  0
   44.8200   51.7160   30.3100 C   0  0  0  0  0
   48.4090   50.5870   38.0070 C   0  0  0  0  0
   46.7640   50.3920   29.7960 C   0  0  0  0  0
   45.6120   51.0640   29.3700 C   0  0  0  0  0
   49.6790   52.3580   39.2140 C   0  0  0  0  0
   48.5130   49.3980   32.9940 C   0  0  0  0  0
   48.7340   51.1670   39.3910 C   0  0  0  0  0
   49.9350   53.7120   37.2250 O   0  0  0  0  0
   48.3950   49.6020   31.4910 C   0  0  0  0  0
   46.5900   53.5710   36.2940 N   0  3  0  0  0
   43.6840   52.3590   29.8690 O   0  0  0  0  0
   45.2700   51.0880   28.0280 O   0  0  0  0  0
   48.2900   49.4930   40.9380 F   0  0  0  0  0
   49.3250   50.1300   40.3040 C   0  0  0  0  0
   45.6530   50.0350   27.1280 C   0  0  0  0  0
   43.0620   53.4560   30.5460 C   0  0  0  0  0
   48.8328   52.5800   35.2721 H   0  0  0  0  0
   48.6734   51.4107   33.3218 H   0  0  0  0  0
   46.1210   50.1383   34.0053 H   0  0  0  0  0
   47.8495   49.7047   35.5991 H   0  0  0  0  0
   49.5140   50.1389   35.2594 H   0  0  0  0  0
   45.1939   52.2660   34.3350 H   0  0  0  0  0
   46.7273   53.0784   33.8001 H   0  0  0  0  0
   46.2175   51.5277   36.3636 H   0  0  0  0  0
   44.5415   52.1751   32.4012 H   0  0  0  0  0
   48.9514   49.6778   37.7476 H   0  0  0  0  0
   47.3923   50.2118   37.8899 H   0  0  0  0  0
   47.3883   49.8861   29.0595 H   0  0  0  0  0
   49.4651   53.1824   39.8942 H   0  0  0  0  0
   50.7158   52.1250   39.4564 H   0  0  0  0  0
   47.8372   48.5980   33.2962 H   0  0  0  0  0
   49.5441   49.1403   33.2359 H   0  0  0  0  0
   47.8108   51.5017   39.8641 H   0  0  0  0  0
   49.2523   50.1823   31.1498 H   0  0  0  0  0
   48.3640   48.6252   31.0082 H   0  0  0  0  0
   46.9169   53.5984   37.2598 H   0  0  0  0  0
   47.1206   54.2392   35.7351 H   0  0  0  0  0
   45.5990   53.8105   36.2622 H   0  0  0  0  0
   49.9849   50.5994   41.0336 H   0  0  0  0  0
   49.9168   49.4150   39.7325 H   0  0  0  0  0
   46.7400   49.9578   27.1027 H   0  0  0  0  0
   45.2284   49.0920   27.4724 H   0  0  0  0  0
   45.2801   50.2593   26.1287 H   0  0  0  0  0
   42.7626   53.1416   31.5458 H   0  0  0  0  0
   43.7681   54.2831   30.6200 H   0  0  0  0  0
   42.1833   53.7758   29.9859 H   0  0  0  0  0
  2  1  1  0  0  0
  1  5  1  0  0  0
  1 13  1  0  0  0
  7  2  1  0  0  0
  2  9  1  0  0  0
  3  4  1  0  0  0
  3  7  1  0  0  0
  3 17  1  0  0  0
  4  6  1  0  0  0
  4  8  1  0  0  0
  5 16  1  0  0  0
  5 19  2  0  0  0
  6 10  4  0  0  0
  6 11  4  0  0  0
  8  9  1  0  0  0
  9 21  1  0  0  0
 10 14  4  0  0  0
 10 20  1  0  0  0
 11 12  4  0  0  0
 12 15  4  0  0  0
 12 22  1  0  0  0
 13 18  1  0  0  0
 14 15  4  0  0  0
 15 23  1  0  0  0
 16 18  1  0  0  0
 17 20  1  0  0  0
 18 25  1  0  0  0
 22 27  1  0  0  0
 23 26  1  0  0  0
 25 24  1  0  0  0
  2 28  1  0  0  0
  3 29  1  0  0  0
  4 30  1  0  0  0
  7 31  1  0  0  0
  7 32  1  0  0  0
  8 33  1  0  0  0
  8 34  1  0  0  0
  9 35  1  0  0  0
 11 36  1  0  0  0
 13 37  1  0  0  0
 13 38  1  0  0  0
 14 39  1  0  0  0
 16 40  1  0  0  0
 16 41  1  0  0  0
 17 42  1  0  0  0
 17 43  1  0  0  0
 18 44  1  0  0  0
 20 45  1  0  0  0
 20 46  1  0  0  0
 21 47  1  0  0  0
 21 48  1  0  0  0
 21 49  1  0  0  0
 25 50  1  0  0  0
 25 51  1  0  0  0
 26 52  1  0  0  0
 26 53  1  0  0  0
 26 54  1  0  0  0
 27 55  1  0  0  0
 27 56  1  0  0  0
 27 57  1  0  0  0
M  END
$$$$
