1o86_ligand
  -I-interpret- 

 62 63  0  0  0  0  0  0  0  0999 V2000
   40.2910   33.7430   45.1200 O   0  0  0  0  0
   43.3690   36.2010   48.2690 O   0  0  0  0  0
   41.9390   37.2830   47.0690 O   0  0  0  0  0
   38.8430   33.3680   41.8670 O   0  0  0  0  0
   40.7030   32.2720   42.3260 O   0  0  0  0  0
   41.8970   34.0630   47.2660 N   0  3  0  0  0
   41.8100   34.5330   43.5990 N   0  0  0  0  0
   43.3290   27.7740   44.0870 N   0  3  0  0  0
   41.5020   34.0520   44.8400 C   0  0  0  0  0
   42.6120   33.8520   45.9430 C   0  0  0  0  0
   42.2590   36.2670   47.6540 C   0  0  0  0  0
   41.3150   35.0650   47.6820 C   0  0  0  0  0
   40.7150   34.6850   42.5590 C   0  0  0  0  0
   41.5050   35.2370   41.3530 C   0  0  0  0  0
   42.8260   35.3690   41.6800 C   0  0  0  0  0
   43.1380   34.9560   43.0620 C   0  0  0  0  0
   40.0810   33.2840   42.2240 C   0  0  0  0  0
   43.2520   32.4730   45.7840 C   0  0  0  0  0
   42.4840   31.2480   45.5360 C   0  0  0  0  0
   43.2960   30.0620   44.8420 C   0  0  0  0  0
   42.4870   28.8950   44.6290 C   0  0  0  0  0
   40.5860   35.3650   48.9320 C   0  0  0  0  0
   39.4080   36.2990   49.1630 C   0  0  0  0  0
   38.8470   36.4010   50.5490 C   0  0  0  0  0
   38.5660   35.2060   51.3310 C   0  0  0  0  0
   38.0160   35.3190   52.6560 C   0  0  0  0  0
   37.7370   36.6270   53.2180 C   0  0  0  0  0
   38.0140   37.8220   52.4430 C   0  0  0  0  0
   38.5680   37.7100   51.1120 C   0  0  0  0  0
   43.4595   35.3341   48.6714 H   0  0  0  0  0
   38.5745   34.2897   41.8616 H   0  0  0  0  0
   41.1129   33.4191   47.1615 H   0  0  0  0  0
   42.6831   34.0185   47.9145 H   0  0  0  0  0
   42.7440   26.9514   43.9399 H   0  0  0  0  0
   43.7443   28.0603   43.2004 H   0  0  0  0  0
   44.0680   27.5523   44.7541 H   0  0  0  0  0
   43.4438   34.5524   45.8681 H   0  0  0  0  0
   40.4932   34.8234   47.0079 H   0  0  0  0  0
   39.8837   35.3185   42.8682 H   0  0  0  0  0
   41.1044   36.2128   41.0782 H   0  0  0  0  0
   41.4103   34.5457   40.5156 H   0  0  0  0  0
   43.0806   36.4250   41.5896 H   0  0  0  0  0
   43.3941   34.7233   41.0103 H   0  0  0  0  0
   43.5934   35.7549   43.6472 H   0  0  0  0  0
   43.8822   34.1608   43.1056 H   0  0  0  0  0
   43.6899   32.2923   46.7657 H   0  0  0  0  0
   43.8411   32.5806   44.8732 H   0  0  0  0  0
   41.6795   31.5174   44.8517 H   0  0  0  0  0
   42.1633   30.8783   46.5100 H   0  0  0  0  0
   44.1187   29.7859   45.5016 H   0  0  0  0  0
   43.6420   30.4141   43.8702 H   0  0  0  0  0
   41.7010   29.1309   43.9116 H   0  0  0  0  0
   42.0483   28.5861   45.5778 H   0  0  0  0  0
   40.1158   34.4006   49.1243 H   0  0  0  0  0
   41.3627   35.8813   49.4961 H   0  0  0  0  0
   38.5984   35.8970   48.5538 H   0  0  0  0  0
   39.7814   37.2961   48.9297 H   0  0  0  0  0
   38.7730   34.2216   50.9113 H   0  0  0  0  0
   37.8088   34.4209   53.2379 H   0  0  0  0  0
   37.3197   36.7120   54.2214 H   0  0  0  0  0
   37.8043   38.8051   52.8645 H   0  0  0  0  0
   38.7762   38.6085   50.5312 H   0  0  0  0  0
  9  1  2  0  0  0
  9 10  1  0  0  0
 10 18  1  0  0  0
 12 11  1  0  0  0
 13 14  1  0  0  0
 13 17  1  0  0  0
 14 15  1  0  0  0
 16 15  1  0  0  0
 18 19  1  0  0  0
 19 20  1  0  0  0
 20 21  1  0  0  0
 22 23  1  0  0  0
 23 24  1  0  0  0
 24 25  4  0  0  0
 24 29  4  0  0  0
 25 26  4  0  0  0
 26 27  4  0  0  0
 28 27  4  0  0  0
 29 28  4  0  0  0
 12 22  1  0  0  0
 21  8  1  0  0  0
 17  5  2  0  0  0
 17  4  1  0  0  0
  7 16  1  0  0  0
  7 13  1  0  0  0
  6 12  1  0  0  0
 11  3  2  0  0  0
 11  2  1  0  0  0
 10  6  1  0  0  0
  9  7  1  0  0  0
  2 30  1  0  0  0
  4 31  1  0  0  0
  6 32  1  0  0  0
  6 33  1  0  0  0
  8 34  1  0  0  0
  8 35  1  0  0  0
  8 36  1  0  0  0
 10 37  1  0  0  0
 12 38  1  0  0  0
 13 39  1  0  0  0
 14 40  1  0  0  0
 14 41  1  0  0  0
 15 42  1  0  0  0
 15 43  1  0  0  0
 16 44  1  0  0  0
 16 45  1  0  0  0
 18 46  1  0  0  0
 18 47  1  0  0  0
 19 48  1  0  0  0
 19 49  1  0  0  0
 20 50  1  0  0  0
 20 51  1  0  0  0
 21 52  1  0  0  0
 21 53  1  0  0  0
 22 54  1  0  0  0
 22 55  1  0  0  0
 23 56  1  0  0  0
 23 57  1  0  0  0
 25 58  1  0  0  0
 26 59  1  0  0  0
 27 60  1  0  0  0
 28 61  1  0  0  0
 29 62  1  0  0  0
M  END
$$$$
