1jet_ligand
  -I-interpret- 

 58 57  0  0  0  0  0  0  0  0999 V2000
    6.7290   16.4500   14.9920 N   0  3  0  0  0
    6.2530   17.7560   14.4370 C   0  0  0  0  0
    5.0450   18.2510   15.2150 C   0  0  0  0  0
    4.2800   17.4480   15.7620 O   0  0  0  0  0
    5.9680   17.6540   12.9460 C   0  0  0  0  0
    5.1180   16.4580   12.5480 C   0  0  0  0  0
    4.9780   16.3570   11.0330 C   0  0  0  0  0
    6.2490   15.7930   10.4040 C   0  0  0  0  0
    6.4830   14.3920   10.8750 N   0  3  0  0  0
    4.9230   19.5660   15.3190 N   0  0  0  0  0
    3.8390   20.1950   16.0660 C   0  0  0  0  0
    2.5280   20.1380   15.3050 C   0  0  0  0  0
    2.4620   20.4270   14.1110 O   0  0  0  0  0
    4.2130   21.6510   16.3500 C   0  0  0  0  0
    1.4530   19.7490   16.0220 N   0  0  0  0  0
    0.1430   19.6800   15.4080 C   0  0  0  0  0
   -0.8750   20.5130   16.1950 C   0  0  0  0  0
   -1.9550   20.7840   15.6090 O   0  0  0  0  0
   -0.3480   18.2320   15.2750 C   0  0  0  0  0
   -1.6030   18.1240   14.4160 C   0  0  0  0  0
   -1.5520   17.0510   13.3670 C   0  0  0  0  0
   -2.5720   17.3320   12.2680 C   0  0  0  0  0
   -3.8410   17.8600   12.8360 N   0  3  0  0  0
   -0.5530   20.9080   17.3330 O   0  0  0  0  0
    6.9105   16.5522   15.9905 H   0  0  0  0  0
    6.0125   15.7387   14.8465 H   0  0  0  0  0
    7.5872   16.1722   14.5159 H   0  0  0  0  0
    7.0489   18.4916   14.5536 H   0  0  0  0  0
    6.9292   17.5439   12.4439 H   0  0  0  0  0
    5.4120   18.5485   12.6652 H   0  0  0  0  0
    4.1249   16.5788   12.9808 H   0  0  0  0  0
    5.6017   15.5519   12.9128 H   0  0  0  0  0
    4.8009   17.3543   10.6305 H   0  0  0  0  0
    4.1473   15.6903   10.8018 H   0  0  0  0  0
    7.0964   16.4132   10.6961 H   0  0  0  0  0
    6.1389   15.7905    9.3196 H   0  0  0  0  0
    7.3346   14.0285   10.4471 H   0  0  0  0  0
    6.5827   14.3880   11.8901 H   0  0  0  0  0
    5.6907   13.8079   10.6077 H   0  0  0  0  0
    5.6126   20.1609   14.8597 H   0  0  0  0  0
    3.7001   19.6502   16.9998 H   0  0  0  0  0
    4.3200   22.1878   15.4074 H   0  0  0  0  0
    3.4291   22.1162   16.9476 H   0  0  0  0  0
    5.1555   21.6827   16.8967 H   0  0  0  0  0
    1.5640   19.5013   17.0052 H   0  0  0  0  0
    0.2369   20.0956   14.4047 H   0  0  0  0  0
   -1.9642   20.3627   14.7464 H   0  0  0  0  0
   -0.5876   17.8629   16.2722 H   0  0  0  0  0
    0.4401   17.6499   14.7974 H   0  0  0  0  0
   -1.7139   19.0743   13.8938 H   0  0  0  0  0
   -2.4264   17.8754   15.0856 H   0  0  0  0  0
   -1.7838   16.0915   13.8293 H   0  0  0  0  0
   -0.5543   17.0307   12.9284 H   0  0  0  0  0
   -2.7858   16.4001   11.7445 H   0  0  0  0  0
   -2.1570   18.0777   11.5899 H   0  0  0  0  0
   -4.5023   18.0382   12.0801 H   0  0  0  0  0
   -4.2354   17.1740   13.4797 H   0  0  0  0  0
   -3.6527   18.7286   13.3364 H   0  0  0  0  0
  3  2  1  0  0  0
  2  5  1  0  0  0
  2  1  1  0  0  0
  5  6  1  0  0  0
  6  7  1  0  0  0
  7  8  1  0  0  0
  8  9  1  0  0  0
  3  4  2  0  0  0
 12 11  1  0  0  0
 11 14  1  0  0  0
 11 10  1  0  0  0
 12 13  2  0  0  0
 16 17  1  0  0  0
 16 19  1  0  0  0
 15 16  1  0  0  0
 19 20  1  0  0  0
 20 21  1  0  0  0
 21 22  1  0  0  0
 22 23  1  0  0  0
 17 24  2  0  0  0
 17 18  1  0  0  0
 10  3  1  0  0  0
 12 15  1  0  0  0
  1 25  1  0  0  0
  1 26  1  0  0  0
  1 27  1  0  0  0
  2 28  1  0  0  0
  5 29  1  0  0  0
  5 30  1  0  0  0
  6 31  1  0  0  0
  6 32  1  0  0  0
  7 33  1  0  0  0
  7 34  1  0  0  0
  8 35  1  0  0  0
  8 36  1  0  0  0
  9 37  1  0  0  0
  9 38  1  0  0  0
  9 39  1  0  0  0
 10 40  1  0  0  0
 11 41  1  0  0  0
 14 42  1  0  0  0
 14 43  1  0  0  0
 14 44  1  0  0  0
 15 45  1  0  0  0
 16 46  1  0  0  0
 18 47  1  0  0  0
 19 48  1  0  0  0
 19 49  1  0  0  0
 20 50  1  0  0  0
 20 51  1  0  0  0
 21 52  1  0  0  0
 21 53  1  0  0  0
 22 54  1  0  0  0
 22 55  1  0  0  0
 23 56  1  0  0  0
 23 57  1  0  0  0
 23 58  1  0  0  0
M  END
$$$$
