5xyx_ligand
  -I-interpret- 

 29 31  0  0  0  0  0  0  0  0999 V2000
   -2.5160  -35.2370  -30.5630 C   0  0  0  0  0
   -3.7870  -34.8320  -30.4890 C   0  0  0  0  0
   -3.8310  -33.5390  -30.1600 C   0  0  0  0  0
   -2.5370  -33.1230  -30.0220 O   0  0  0  0  0
   -1.7280  -34.2070  -30.2740 C   0  0  0  0  0
   -0.3220  -34.1580  -30.2420 C   0  0  0  0  0
    0.4430  -33.0640  -30.3570 N   0  0  0  0  0
    0.5090  -35.1960  -30.1120 N   0  0  0  0  0
    1.6750  -34.7920  -30.1320 N   0  0  0  0  0
    1.7010  -33.4700  -30.2800 C   0  0  0  0  0
    2.8210  -32.7160  -30.3370 N   0  0  0  0  0
    2.8740  -31.2610  -30.6150 C   0  0  0  0  0
    4.3310  -30.6850  -30.5570 C   0  0  0  0  0
    5.3220  -30.9380  -31.5390 C   0  0  0  0  0
    4.9920  -31.9300  -32.9100 Cl  0  0  0  0  0
    6.6140  -30.4070  -31.4560 C   0  0  0  0  0
    6.9670  -29.6060  -30.3800 C   0  0  0  0  0
    6.0160  -29.3440  -29.3990 C   0  0  0  0  0
    4.7250  -29.8720  -29.4850 C   0  0  0  0  0
    3.8450  -29.5930  -28.5100 F   0  0  0  0  0
   -2.1818  -36.2428  -30.8175 H   0  0  0  0  0
   -4.6574  -35.4627  -30.6701 H   0  0  0  0  0
   -4.7266  -32.9321  -30.0271 H   0  0  0  0  0
    3.7091  -33.1904  -30.1742 H   0  0  0  0  0
    2.2834  -30.7534  -29.8523 H   0  0  0  0  0
    2.4906  -31.0991  -31.6224 H   0  0  0  0  0
    7.3431  -30.6229  -32.2370 H   0  0  0  0  0
    7.9714  -29.1893  -30.3044 H   0  0  0  0  0
    6.2824  -28.7161  -28.5488 H   0  0  0  0  0
  1  2  4  0  0  0
  1  5  4  0  0  0
  2  3  4  0  0  0
  3  4  4  0  0  0
  4  5  4  0  0  0
  5  6  1  0  0  0
  6  7  4  0  0  0
  6  8  4  0  0  0
  7 10  4  0  0  0
  8  9  4  0  0  0
  9 10  4  0  0  0
 10 11  1  0  0  0
 11 12  1  0  0  0
 12 13  1  0  0  0
 13 14  4  0  0  0
 13 19  4  0  0  0
 14 15  1  0  0  0
 14 16  4  0  0  0
 16 17  4  0  0  0
 17 18  4  0  0  0
 18 19  4  0  0  0
 19 20  1  0  0  0
  1 21  1  0  0  0
  2 22  1  0  0  0
  3 23  1  0  0  0
 11 24  1  0  0  0
 12 25  1  0  0  0
 12 26  1  0  0  0
 16 27  1  0  0  0
 17 28  1  0  0  0
 18 29  1  0  0  0
M  END
$$$$
