2vk2_ligand
  -I-interpret- 

 20 20  0  0  0  0  0  0  0  0999 V2000
   34.3220   26.9450   14.7440 C   0  0  0  0  0
   33.8010   26.6480   13.5370 C   0  0  0  0  0
   33.0400   27.6390   12.6760 C   0  0  0  0  0
   33.1000   29.1180   12.9430 C   0  0  0  0  0
   33.2940   29.7790   11.8100 C   0  0  0  0  0
   34.9660   26.0270   15.4710 O   0  0  0  0  0
   33.8690   25.3890   13.0900 O   0  0  0  0  0
   33.4680   27.5390   11.3110 O   0  0  0  0  0
   32.8910   29.6460   14.1440 O   0  0  0  0  0
   33.5140   28.8280   10.6890 C   0  0  0  0  0
   33.3350   31.0980   11.6130 O   0  0  0  0  0
   32.4950   28.9300    9.7000 O   0  0  0  0  0
   34.2157   27.9565   15.1359 H   0  0  0  0  0
   32.0266   27.3247   12.9257 H   0  0  0  0  0
   35.2630   26.4227   16.2937 H   0  0  0  0  0
   33.4588   25.3356   12.2237 H   0  0  0  0  0
   32.7818   28.9418   14.7873 H   0  0  0  0  0
   34.4527   29.0258   10.1715 H   0  0  0  0  0
   33.4921   31.2768   10.6830 H   0  0  0  0  0
   32.5346   29.7970    9.2896 H   0  0  0  0  0
  1  2  2  0  0  0
  1  6  1  0  0  0
  2  3  1  0  0  0
  2  7  1  0  0  0
  3  4  1  0  0  0
  3  8  1  0  0  0
  4  5  2  0  0  0
  4  9  1  0  0  0
  5 10  1  0  0  0
  5 11  1  0  0  0
  8 10  1  0  0  0
 10 12  1  0  0  0
  1 13  1  0  0  0
  3 14  1  0  0  0
  6 15  1  0  0  0
  7 16  1  0  0  0
  9 17  1  0  0  0
 10 18  1  0  0  0
 11 19  1  0  0  0
 12 20  1  0  0  0
M  END
$$$$
