4b1j_ligand
  -I-interpret- 

 60 63  0  0  0  0  0  0  0  0999 V2000
   23.1950   -4.3180   -1.2490 N   0  0  0  0  0
   24.0350   -5.2700   -0.8260 C   0  0  0  0  0
   25.3000   -5.1420   -0.4210 N   0  0  0  0  0
   25.6960   -3.8670   -0.4600 C   0  0  0  0  0
   24.9440   -2.7800   -0.8690 C   0  0  0  0  0
   23.6210   -3.0390   -1.2910 C   0  0  0  0  0
   22.7710   -2.1070   -1.7310 N   0  0  0  0  0
   25.6850   -1.6140   -0.7810 N   0  0  0  0  0
   26.8290   -2.0160   -0.3060 C   0  0  0  0  0
   26.9140   -3.3640   -0.0980 N   0  0  0  0  0
   28.0630   -4.1370    0.3870 C   0  0  0  0  0
   29.4320   -3.6500   -0.1100 C   0  0  0  0  0
   30.2510   -4.7900   -0.3840 O   0  0  0  0  0
   29.9360   -2.8660    1.0910 C   0  0  0  0  0
   31.3510   -2.8270    1.1480 O   0  0  0  0  0
   28.0760   -4.0890    1.8020 O   0  0  0  0  0
   29.3830   -3.6870    2.2560 C   0  0  0  0  0
   29.2760   -2.9830    3.5930 C   0  0  0  0  0
   28.6440   -1.7150    3.4130 O   0  0  0  0  0
   28.9310   -0.5290    4.3980 P   0  0  0  0  0
   28.0590    0.6020    4.0480 O   0  0  0  0  0
   30.4070   -0.2020    4.3390 O   0  0  0  0  0
   28.6190   -1.1950    5.8110 O   0  0  0  0  0
   29.4190   -1.2670    7.1970 P   0  0  0  0  0
   28.5270   -1.9880    8.1810 O   0  0  0  0  0
   30.7880   -1.7960    6.9840 O   0  0  0  0  0
   29.5390    0.2530    7.5920 O   0  0  0  0  0
   28.6190    0.8370    8.5190 C   0  0  0  0  0
   28.7780    2.9860    7.3040 N   0  3  0  0  0
   27.5210    3.7570    7.3000 C   0  0  0  0  0
   25.9760    4.4400    8.9890 O   0  0  0  0  0
   26.8120    3.3820    8.5870 C   0  0  0  0  0
   28.5760    4.2600   10.0160 O   0  0  0  0  0
   27.9580    3.1000    9.5250 C   0  0  0  0  0
   28.9130    2.3230    8.6140 C   0  0  0  0  0
   23.6331   -6.2831   -0.8102 H   0  0  0  0  0
   21.8303   -2.3718   -2.0231 H   0  0  0  0  0
   23.0627   -1.1306   -1.7749 H   0  0  0  0  0
   27.6513   -1.3333   -0.0919 H   0  0  0  0  0
   27.9282   -5.1436   -0.0088 H   0  0  0  0  0
   29.4194   -3.0566   -1.0242 H   0  0  0  0  0
   31.1106   -4.4976   -0.6958 H   0  0  0  0  0
   29.6247   -1.8215    1.0785 H   0  0  0  0  0
   31.6254   -2.3242    1.9184 H   0  0  0  0  0
   30.0757   -4.4997    2.4747 H   0  0  0  0  0
   30.2733   -2.8367    4.0079 H   0  0  0  0  0
   28.6841   -3.5905    4.2776 H   0  0  0  0  0
   30.9158   -0.9803    4.5776 H   0  0  0  0  0
   27.6760   -1.5457    8.2234 H   0  0  0  0  0
   28.7302    0.3714    9.4983 H   0  0  0  0  0
   27.5957    0.6803    8.1778 H   0  0  0  0  0
   29.5700    3.6087    7.1447 H   0  0  0  0  0
   28.7621    2.2886    6.5598 H   0  0  0  0  0
   26.9124    3.5243    6.4262 H   0  0  0  0  0
   27.7101    4.8291    7.2458 H   0  0  0  0  0
   25.5282    4.2007    9.8037 H   0  0  0  0  0
   26.1427    2.5240    8.5244 H   0  0  0  0  0
   29.2938    4.0143   10.6043 H   0  0  0  0  0
   27.6423    2.5738   10.4259 H   0  0  0  0  0
   29.9276    2.3476    9.0117 H   0  0  0  0  0
  2  1  4  0  0  0
  6  1  4  0  0  0
  3  2  4  0  0  0
  4  3  4  0  0  0
  4  5  4  0  0  0
 10  4  4  0  0  0
  5  6  4  0  0  0
  8  5  4  0  0  0
  6  7  1  0  0  0
  9  8  4  0  0  0
 10  9  4  0  0  0
 11 10  1  0  0  0
 11 12  1  0  0  0
 16 11  1  0  0  0
 12 13  1  0  0  0
 14 12  1  0  0  0
 14 15  1  0  0  0
 17 14  1  0  0  0
 17 16  1  0  0  0
 18 17  1  0  0  0
 19 18  1  0  0  0
 20 19  1  0  0  0
 20 21  2  0  0  0
 20 22  1  0  0  0
 23 20  1  0  0  0
 24 23  1  0  0  0
 24 25  1  0  0  0
 24 26  2  0  0  0
 27 24  1  0  0  0
 28 27  1  0  0  0
 35 28  1  0  0  0
 29 30  1  0  0  0
 29 35  1  0  0  0
 30 32  1  0  0  0
 32 31  1  0  0  0
 32 34  1  0  0  0
 34 33  1  0  0  0
 34 35  1  0  0  0
  2 36  1  0  0  0
  7 37  1  0  0  0
  7 38  1  0  0  0
  9 39  1  0  0  0
 11 40  1  0  0  0
 12 41  1  0  0  0
 13 42  1  0  0  0
 14 43  1  0  0  0
 15 44  1  0  0  0
 17 45  1  0  0  0
 18 46  1  0  0  0
 18 47  1  0  0  0
 22 48  1  0  0  0
 25 49  1  0  0  0
 28 50  1  0  0  0
 28 51  1  0  0  0
 29 52  1  0  0  0
 29 53  1  0  0  0
 30 54  1  0  0  0
 30 55  1  0  0  0
 31 56  1  0  0  0
 32 57  1  0  0  0
 33 58  1  0  0  0
 34 59  1  0  0  0
 35 60  1  0  0  0
M  END
$$$$
