2yj9_ligand
  -I-interpret- 

 63 67  0  0  0  0  0  0  0  0999 V2000
    8.2040   35.5990   21.2490 C   0  0  0  0  0
    8.3680   36.7110   22.2940 C   0  0  0  0  0
    7.3170   36.8300   23.1700 N   0  0  0  0  0
    7.2820   37.7350   24.2510 C   0  0  0  0  0
    7.7980   37.1190   25.4760 C   0  0  0  0  0
    9.4130   37.3930   22.3460 O   0  0  0  0  0
    7.5190   39.2270   24.0670 C   0  0  0  0  0
    6.1370   38.7300   24.3650 C   0  0  0  0  0
    7.7860   37.6140   26.6750 N   0  0  0  0  0
    8.3440   36.0310   19.8840 N   0  0  0  0  0
    9.3130   35.2150   19.1760 C   0  0  0  0  0
    9.5290   33.9820   20.0840 C   0  0  0  0  0
    9.3170   34.5710   21.4670 C   0  0  0  0  0
    8.4520   32.6580   19.8220 S   0  0  0  0  0
    8.7440   32.2110   18.1970 C   0  0  0  0  0
    9.8890   31.5650   17.7110 C   0  0  0  0  0
   10.0970   31.2110   16.3740 C   0  0  0  0  0
    9.1400   31.5330   15.4310 C   0  0  0  0  0
    7.9870   32.1820   15.8490 C   0  0  0  0  0
    7.7890   32.5130   17.1800 C   0  0  0  0  0
   11.1150   31.1220   18.7620 Cl  0  0  0  0  0
    8.8500   31.6350   20.7200 O   0  0  0  0  0
    7.1300   33.1450   19.9070 O   0  0  0  0  0
    7.4150   36.8810   19.3480 C   0  0  0  0  0
    6.4870   37.2900   20.0930 O   0  0  0  0  0
    6.8690   36.2830   16.9700 C   0  0  0  0  0
    7.5500   37.2560   17.9010 C   0  0  0  0  0
    6.3080   37.6600   17.1600 C   0  0  0  0  0
   11.0270   37.9080   16.4640 C   0  0  0  0  0
   11.3900   39.0330   17.2190 C   0  0  0  0  0
   10.5180   39.5680   18.1510 C   0  0  0  0  0
    9.2780   38.9740   18.3470 C   0  0  0  0  0
    8.8800   37.8540   17.6160 C   0  0  0  0  0
    9.7700   37.3250   16.6590 C   0  0  0  0  0
   12.7310   39.7090   17.0180 C   0  0  0  0  0
   13.1460   40.4710   18.0320 F   0  0  0  0  0
   13.7600   38.8760   16.8400 F   0  0  0  0  0
   12.7260   40.5360   15.9700 F   0  0  0  0  0
    7.1929   35.2154   21.3853 H   0  0  0  0  0
    6.5086   36.2240   23.0295 H   0  0  0  0  0
    8.2436   36.1302   25.3673 H   0  0  0  0  0
    8.0088   39.8912   23.3550 H   0  0  0  0  0
    8.2042   39.9929   24.4305 H   0  0  0  0  0
    5.3219   38.9566   25.0523 H   0  0  0  0  0
    5.1264   38.8549   23.9761 H   0  0  0  0  0
    7.3827   38.5358   26.8422 H   0  0  0  0  0
   10.2430   35.7541   18.9954 H   0  0  0  0  0
    8.9586   34.9321   18.1848 H   0  0  0  0  0
   10.5035   33.5304   19.8983 H   0  0  0  0  0
    9.0503   33.8162   22.2068 H   0  0  0  0  0
   10.2240   35.0167   21.8755 H   0  0  0  0  0
   11.0055   30.6861   16.0788 H   0  0  0  0  0
    9.2876   31.2824   14.3805 H   0  0  0  0  0
    7.2217   32.4366   15.1158 H   0  0  0  0  0
    6.8681   33.0239   17.4613 H   0  0  0  0  0
    6.5220   35.2497   16.9772 H   0  0  0  0  0
    7.1321   35.6122   16.1522 H   0  0  0  0  0
    5.3459   38.1247   17.3757 H   0  0  0  0  0
    5.9606   38.4898   16.5445 H   0  0  0  0  0
   11.7183   37.4914   15.7315 H   0  0  0  0  0
   10.8022   40.4488   18.7268 H   0  0  0  0  0
    8.5992   39.3929   19.0899 H   0  0  0  0  0
    9.4773   36.4572   16.0679 H   0  0  0  0  0
  1  2  1  0  0  0
 10  1  1  0  0  0
  1 13  1  0  0  0
  2  3  1  0  0  0
  2  6  2  0  0  0
  3  4  1  0  0  0
  4  5  1  0  0  0
  4  7  1  0  0  0
  4  8  1  0  0  0
  5  9  2  0  0  0
  8  7  1  0  0  0
 10 11  1  0  0  0
 24 10  1  0  0  0
 11 12  1  0  0  0
 12 13  1  0  0  0
 12 14  1  0  0  0
 14 15  1  0  0  0
 14 22  2  0  0  0
 14 23  2  0  0  0
 15 16  4  0  0  0
 15 20  4  0  0  0
 16 17  4  0  0  0
 16 21  1  0  0  0
 17 18  4  0  0  0
 19 18  4  0  0  0
 20 19  4  0  0  0
 24 25  2  0  0  0
 27 24  1  0  0  0
 27 26  1  0  0  0
 28 26  1  0  0  0
 27 28  1  0  0  0
 33 27  1  0  0  0
 30 29  4  0  0  0
 29 34  4  0  0  0
 31 30  4  0  0  0
 30 35  1  0  0  0
 32 31  4  0  0  0
 32 33  4  0  0  0
 33 34  4  0  0  0
 35 36  1  0  0  0
 35 37  1  0  0  0
 35 38  1  0  0  0
  1 39  1  0  0  0
  3 40  1  0  0  0
  5 41  1  0  0  0
  7 42  1  0  0  0
  7 43  1  0  0  0
  8 44  1  0  0  0
  8 45  1  0  0  0
  9 46  1  0  0  0
 11 47  1  0  0  0
 11 48  1  0  0  0
 12 49  1  0  0  0
 13 50  1  0  0  0
 13 51  1  0  0  0
 17 52  1  0  0  0
 18 53  1  0  0  0
 19 54  1  0  0  0
 20 55  1  0  0  0
 26 56  1  0  0  0
 26 57  1  0  0  0
 28 58  1  0  0  0
 28 59  1  0  0  0
 29 60  1  0  0  0
 31 61  1  0  0  0
 32 62  1  0  0  0
 34 63  1  0  0  0
M  END
$$$$
