### 
### Created by X-TOOL on Mon Sep 10 21:13:05 2018
### 

@<TRIPOS>MOLECULE
2yj9_ligand
   63    67     1     0     0
SMALL
GAST_HUCK


@<TRIPOS>ATOM
      1 C1          8.2040   35.5990   21.2490 C.3       1 YJ9         0.1344
      2 C2          8.3680   36.7110   22.2940 C.2       1 YJ9         0.1971
      3 N3          7.3170   36.8300   23.1700 N.am      1 YJ9        -0.2955
      4 C4          7.2820   37.7350   24.2510 C.3       1 YJ9         0.0783
      5 C5          7.7980   37.1190   25.4760 C.2       1 YJ9         0.0437
      6 O6          9.4130   37.3930   22.3460 O.2       1 YJ9        -0.3951
      7 C7          7.5190   39.2270   24.0670 C.3       1 YJ9        -0.0407
      8 C8          6.1370   38.7300   24.3650 C.3       1 YJ9        -0.0407
      9 N9          7.7860   37.6140   26.6750 N.2       1 YJ9        -0.2686
     10 N10         8.3440   36.0310   19.8840 N.am      1 YJ9        -0.2547
     11 C11         9.3130   35.2150   19.1760 C.3       1 YJ9         0.0589
     12 C12         9.5290   33.9820   20.0840 C.3       1 YJ9         0.1066
     13 C13         9.3170   34.5710   21.4670 C.3       1 YJ9         0.0125
     14 S14         8.4520   32.6580   19.8220 S.o2      1 YJ9         0.0023
     15 C15         8.7440   32.2110   18.1970 C.ar      1 YJ9         0.1025
     16 C16         9.8890   31.5650   17.7110 C.ar      1 YJ9         0.0651
     17 C17        10.0970   31.2110   16.3740 C.ar      1 YJ9        -0.0460
     18 C18         9.1400   31.5330   15.4310 C.ar      1 YJ9        -0.0612
     19 C19         7.9870   32.1820   15.8490 C.ar      1 YJ9        -0.0598
     20 C20         7.7890   32.5130   17.1800 C.ar      1 YJ9        -0.0364
     21 CL         11.1150   31.1220   18.7620 Cl        1 YJ9        -0.0687
     22 O22         8.8500   31.6350   20.7200 O.2       1 YJ9        -0.1690
     23 O23         7.1300   33.1450   19.9070 O.2       1 YJ9        -0.1690
     24 C24         7.4150   36.8810   19.3480 C.2       1 YJ9         0.1813
     25 O25         6.4870   37.2900   20.0930 O.2       1 YJ9        -0.3604
     26 C26         6.8690   36.2830   16.9700 C.3       1 YJ9        -0.0616
     27 C27         7.5500   37.2560   17.9010 C.3       1 YJ9         0.0572
     28 C28         6.3080   37.6600   17.1600 C.3       1 YJ9        -0.0616
     29 C29        11.0270   37.9080   16.4640 C.ar      1 YJ9        -0.0106
     30 C30        11.3900   39.0330   17.2190 C.ar      1 YJ9         0.0717
     31 C31        10.5180   39.5680   18.1510 C.ar      1 YJ9        -0.0106
     32 C32         9.2780   38.9740   18.3470 C.ar      1 YJ9        -0.0184
     33 C33         8.8800   37.8540   17.6160 C.ar      1 YJ9        -0.0156
     34 C34         9.7700   37.3250   16.6590 C.ar      1 YJ9        -0.0184
     35 C35        12.7310   39.7090   17.0180 C.3       1 YJ9         0.3941
     36 F36        13.1460   40.4710   18.0320 F         1 YJ9        -0.2085
     37 F37        13.7600   38.8760   16.8400 F         1 YJ9        -0.2085
     38 F38        12.7260   40.5360   15.9700 F         1 YJ9        -0.2085
     39 H           7.1929   35.2154   21.3853 H         1 YJ9         0.0804
     40 H           6.5086   36.2240   23.0295 H         1 YJ9         0.1774
     41 H           8.2436   36.1302   25.3673 H         1 YJ9         0.1090
     42 H           8.0088   39.8912   23.3550 H         1 YJ9         0.0220
     43 H           8.2042   39.9929   24.4305 H         1 YJ9         0.0220
     44 H           5.3219   38.9566   25.0523 H         1 YJ9         0.0220
     45 H           5.1264   38.8549   23.9761 H         1 YJ9         0.0220
     46 H           7.3827   38.5358   26.8422 H         1 YJ9         0.2165
     47 H          10.2430   35.7541   18.9954 H         1 YJ9         0.0544
     48 H           8.9586   34.9321   18.1848 H         1 YJ9         0.0544
     49 H          10.5035   33.5304   19.8983 H         1 YJ9         0.0563
     50 H           9.0503   33.8162   22.2068 H         1 YJ9         0.0332
     51 H          10.2240   35.0167   21.8755 H         1 YJ9         0.0332
     52 H          11.0055   30.6861   16.0788 H         1 YJ9         0.0624
     53 H           9.2876   31.2824   14.3805 H         1 YJ9         0.0618
     54 H           7.2217   32.4366   15.1158 H         1 YJ9         0.0620
     55 H           6.8681   33.0239   17.4613 H         1 YJ9         0.0636
     56 H           6.5220   35.2497   16.9772 H         1 YJ9         0.0180
     57 H           7.1321   35.6122   16.1522 H         1 YJ9         0.0180
     58 H           5.3459   38.1247   17.3757 H         1 YJ9         0.0180
     59 H           5.9606   38.4898   16.5445 H         1 YJ9         0.0180
     60 H          11.7183   37.4914   15.7315 H         1 YJ9         0.0897
     61 H          10.8022   40.4488   18.7268 H         1 YJ9         0.0897
     62 H           8.5992   39.3929   19.0899 H         1 YJ9         0.0891
     63 H           9.4773   36.4572   16.0679 H         1 YJ9         0.0891
@<TRIPOS>BOND
     1    1    2 1  
     2   10    1 1  
     3    1   13 1  
     4    2    3 am 
     5    2    6 2  
     6    3    4 1  
     7    4    5 1  
     8    4    7 1  
     9    4    8 1  
    10    5    9 2  
    11    8    7 1  
    12   10   11 1  
    13   24   10 am 
    14   11   12 1  
    15   12   13 1  
    16   12   14 1  
    17   14   15 1  
    18   14   22 2  
    19   14   23 2  
    20   15   16 ar 
    21   15   20 ar 
    22   16   17 ar 
    23   16   21 1  
    24   17   18 ar 
    25   19   18 ar 
    26   20   19 ar 
    27   24   25 2  
    28   27   24 1  
    29   27   26 1  
    30   28   26 1  
    31   27   28 1  
    32   33   27 1  
    33   30   29 ar 
    34   29   34 ar 
    35   31   30 ar 
    36   30   35 1  
    37   32   31 ar 
    38   32   33 ar 
    39   33   34 ar 
    40   35   36 1  
    41   35   37 1  
    42   35   38 1  
    43    1   39 1  
    44    3   40 1  
    45    5   41 1  
    46    7   42 1  
    47    7   43 1  
    48    8   44 1  
    49    8   45 1  
    50    9   46 1  
    51   11   47 1  
    52   11   48 1  
    53   12   49 1  
    54   13   50 1  
    55   13   51 1  
    56   17   52 1  
    57   18   53 1  
    58   19   54 1  
    59   20   55 1  
    60   26   56 1  
    61   26   57 1  
    62   28   58 1  
    63   28   59 1  
    64   29   60 1  
    65   31   61 1  
    66   32   62 1  
    67   34   63 1  
@<TRIPOS>SUBSTRUCTURE
     1 YJ9         1

