6b2c_ligand
  -I-interpret- 

 40 43  0  0  0  0  0  0  0  0999 V2000
  -25.1570   48.5380  -19.2640 O   0  0  0  0  0
  -22.9860   49.5790  -16.5120 C   0  0  0  0  0
  -22.7860   49.2810  -15.1580 C   0  0  0  0  0
  -23.5580   48.3280  -14.5190 C   0  0  0  0  0
  -26.3330   45.1680  -13.3480 N   0  0  0  0  0
  -24.5360   47.6710  -15.2610 C   0  0  0  0  0
  -25.3990   46.6450  -14.6420 C   0  0  0  0  0
  -27.0890   45.2620  -14.4710 N   0  0  0  0  0
  -25.2810   46.0160  -13.4270 C   0  0  0  0  0
  -26.7220   44.2740  -12.2920 C   0  0  0  0  0
  -25.7830   43.6650  -11.4570 C   0  0  0  0  0
  -26.2000   42.8100  -10.4430 C   0  0  0  0  0
  -26.5210   46.1560  -15.2490 N   0  0  0  0  0
  -27.5610   42.5470  -10.2370 C   0  0  0  0  0
  -28.4680   43.1810  -11.1010 C   0  0  0  0  0
  -28.0820   44.0290  -12.1050 C   0  0  0  0  0
  -24.7590   47.9370  -16.5640 N   0  0  0  0  0
  -23.4880   50.0840  -19.2310 N   0  0  0  0  0
  -22.9710   49.4360  -21.5660 C   0  0  0  0  0
  -23.7100   50.3860  -20.6490 C   0  0  0  0  0
  -24.0040   48.8680  -17.1880 C   0  0  0  0  0
  -24.2930   49.1140  -18.6230 C   0  0  0  0  0
  -22.5040   50.7620  -18.5500 C   0  0  0  0  0
  -22.2370   50.5500  -17.2600 C   0  0  0  0  0
  -29.7830   42.9370  -10.9020 F   0  0  0  0  0
  -27.9580   41.7110   -9.2470 O   0  0  0  0  0
  -22.0113   49.8074  -14.6004 H   0  0  0  0  0
  -23.4052   48.0978  -13.4646 H   0  0  0  0  0
  -24.5014   46.1682  -12.6806 H   0  0  0  0  0
  -24.7203   43.8604  -11.6005 H   0  0  0  0  0
  -25.4580   42.3377   -9.7993 H   0  0  0  0  0
  -28.8246   44.5038  -12.7463 H   0  0  0  0  0
  -21.9007   49.5039  -21.3712 H   0  0  0  0  0
  -23.3112   48.4170  -21.3819 H   0  0  0  0  0
  -23.1706   49.7052  -22.6032 H   0  0  0  0  0
  -23.3408   51.3936  -20.8402 H   0  0  0  0  0
  -24.7765   50.2872  -20.8510 H   0  0  0  0  0
  -21.9161   51.5056  -19.0881 H   0  0  0  0  0
  -21.4454   51.1173  -16.7706 H   0  0  0  0  0
  -28.9158   41.6462   -9.2493 H   0  0  0  0  0
 22  1  2  0  0  0
  2  3  4  0  0  0
 21  2  4  0  0  0
  2 24  1  0  0  0
  3  4  4  0  0  0
  6  4  4  0  0  0
  8  5  4  0  0  0
  9  5  4  0  0  0
  5 10  1  0  0  0
  6  7  1  0  0  0
 17  6  4  0  0  0
  7  9  4  0  0  0
  7 13  4  0  0  0
 13  8  4  0  0  0
 10 11  4  0  0  0
 10 16  4  0  0  0
 11 12  4  0  0  0
 12 14  4  0  0  0
 15 14  4  0  0  0
 14 26  1  0  0  0
 16 15  4  0  0  0
 15 25  1  0  0  0
 21 17  4  0  0  0
 18 20  1  0  0  0
 22 18  1  0  0  0
 18 23  1  0  0  0
 20 19  1  0  0  0
 21 22  1  0  0  0
 23 24  2  0  0  0
  3 27  1  0  0  0
  4 28  1  0  0  0
  9 29  1  0  0  0
 11 30  1  0  0  0
 12 31  1  0  0  0
 16 32  1  0  0  0
 19 33  1  0  0  0
 19 34  1  0  0  0
 19 35  1  0  0  0
 20 36  1  0  0  0
 20 37  1  0  0  0
 23 38  1  0  0  0
 24 39  1  0  0  0
 26 40  1  0  0  0
M  END
$$$$
