4mw0_ligand
  -I-interpret- 

 44 45  0  0  0  0  0  0  0  0999 V2000
  -42.0050  -14.4790   -6.9860 C   0  0  0  0  0
  -41.3960  -15.7150   -6.9920 C   0  0  0  0  0
  -42.3850  -17.1360   -6.9320 Cl  0  0  0  0  0
  -40.0230  -15.8570   -6.9990 C   0  0  0  0  0
  -39.2570  -14.7090   -6.9740 C   0  0  0  0  0
  -37.5020  -14.8600   -6.8970 Cl  0  0  0  0  0
  -39.8360  -13.4500   -6.9700 C   0  0  0  0  0
  -41.2280  -13.3290   -6.9740 C   0  0  0  0  0
  -41.9130  -11.9830   -6.9090 C   0  0  0  0  0
  -42.3000  -11.4180   -8.2100 N   0  3  0  0  0
  -43.5110  -12.0190   -8.7780 C   0  0  0  0  0
  -44.0190  -11.2580   -9.9920 C   0  0  0  0  0
  -44.9920  -12.0320  -10.8770 C   0  0  0  0  0
  -44.3390  -12.8180  -11.9170 N   0  0  0  0  0
  -45.0050  -13.7440  -12.6380 C   0  0  0  0  0
  -46.2160  -13.9200  -12.5170 O   0  0  0  0  0
  -44.2330  -14.4270  -13.5500 N   0  0  0  0  0
  -44.6270  -15.5000  -14.4010 C   0  0  0  0  0
  -43.7060  -16.5260  -14.6130 C   0  0  0  0  0
  -44.0520  -17.6080  -15.4080 C   0  0  0  0  0
  -45.3070  -17.6830  -15.9820 C   0  0  0  0  0
  -46.2260  -16.6720  -15.7810 C   0  0  0  0  0
  -45.8920  -15.5710  -15.0000 C   0  0  0  0  0
  -46.8360  -14.6420  -14.6880 O   0  0  0  0  0
  -43.0925  -14.4047   -6.9907 H   0  0  0  0  0
  -39.5590  -16.8430   -7.0235 H   0  0  0  0  0
  -39.2087  -12.5586   -6.9638 H   0  0  0  0  0
  -41.2000  -11.2887   -6.4644 H   0  0  0  0  0
  -42.8330  -12.1257   -6.3422 H   0  0  0  0  0
  -41.5357  -11.5998   -8.8606 H   0  0  0  0  0
  -42.4904  -10.4262   -8.0669 H   0  0  0  0  0
  -44.2892  -11.9963   -8.0151 H   0  0  0  0  0
  -43.2687  -13.0341   -9.0926 H   0  0  0  0  0
  -43.1486  -11.0286  -10.6067 H   0  0  0  0  0
  -44.5587  -10.3890   -9.6157 H   0  0  0  0  0
  -45.6325  -11.3028  -11.3730 H   0  0  0  0  0
  -45.5346  -12.7264  -10.2356 H   0  0  0  0  0
  -43.3486  -12.6632  -12.1053 H   0  0  0  0  0
  -43.2605  -14.1289  -13.6260 H   0  0  0  0  0
  -42.7179  -16.4773  -14.1553 H   0  0  0  0  0
  -43.3291  -18.4051  -15.5815 H   0  0  0  0  0
  -45.5725  -18.5437  -16.5959 H   0  0  0  0  0
  -47.2147  -16.7371  -16.2352 H   0  0  0  0  0
  -47.6405  -14.8279  -15.1777 H   0  0  0  0  0
  1  2  4  0  0  0
  1  8  4  0  0  0
  2  3  1  0  0  0
  2  4  4  0  0  0
  4  5  4  0  0  0
  5  6  1  0  0  0
  5  7  4  0  0  0
  7  8  4  0  0  0
  8  9  1  0  0  0
  9 10  1  0  0  0
 10 11  1  0  0  0
 11 12  1  0  0  0
 12 13  1  0  0  0
 13 14  1  0  0  0
 14 15  1  0  0  0
 15 16  2  0  0  0
 15 17  1  0  0  0
 17 18  1  0  0  0
 18 19  4  0  0  0
 18 23  4  0  0  0
 19 20  4  0  0  0
 20 21  4  0  0  0
 21 22  4  0  0  0
 22 23  4  0  0  0
 23 24  1  0  0  0
  1 25  1  0  0  0
  4 26  1  0  0  0
  7 27  1  0  0  0
  9 28  1  0  0  0
  9 29  1  0  0  0
 10 30  1  0  0  0
 10 31  1  0  0  0
 11 32  1  0  0  0
 11 33  1  0  0  0
 12 34  1  0  0  0
 12 35  1  0  0  0
 13 36  1  0  0  0
 13 37  1  0  0  0
 14 38  1  0  0  0
 17 39  1  0  0  0
 19 40  1  0  0  0
 20 41  1  0  0  0
 21 42  1  0  0  0
 22 43  1  0  0  0
 24 44  1  0  0  0
M  END
$$$$
