1qxl_ligand
  -I-interpret- 

 66 69  0  0  0  0  0  0  0  0999 V2000
   51.6200   54.4570   20.8610 C   0  0  0  0  0
   51.7420   55.4290   21.9490 N   0  0  0  0  0
   51.7530   54.7620   23.0990 C   0  0  0  0  0
   51.7180   53.4410   22.8880 N   0  0  0  0  0
   51.5590   53.2580   21.4380 C   0  0  0  0  0
   51.3510   51.9560   20.7490 C   0  0  0  0  0
   51.1170   51.9070   19.5500 O   0  0  0  0  0
   51.4620   50.8560   21.4520 N   0  0  0  0  0
   51.7290   56.8740   21.8040 C   0  0  0  0  0
   53.1720   57.4710   21.7480 C   0  0  0  0  0
   54.0170   56.8090   22.7800 O   0  0  0  0  0
   50.8830   57.2580   20.5730 C   0  0  0  0  0
   49.3530   57.1200   20.8080 C   0  0  0  0  0
   48.6800   57.3870   19.5050 N   0  0  0  0  0
   48.0790   58.5510   19.1000 C   0  0  0  0  0
   47.5980   58.3980   17.8000 C   0  0  0  0  0
   47.9190   57.0630   17.3840 C   0  0  0  0  0
   48.5830   56.4510   18.4910 C   0  0  0  0  0
   47.7070   56.3650   16.2330 C   0  0  0  0  0
   48.1520   55.0500   16.1290 C   0  0  0  0  0
   48.8100   54.4380   17.2310 C   0  0  0  0  0
   49.0050   55.1640   18.3980 C   0  0  0  0  0
   49.3280   53.1940   17.2310 N   0  0  0  0  0
   49.0430   52.2480   16.3380 C   0  0  0  0  0
   48.4270   52.3840   15.3020 O   0  0  0  0  0
   49.5660   50.9080   16.7700 C   0  0  0  0  0
   48.4510   49.8730   16.8750 C   0  0  0  0  0
   46.3970   47.1670   16.2550 C   0  0  0  0  0
   46.8070   47.4600   17.5560 C   0  0  0  0  0
   45.8770   47.5770   18.5710 C   0  0  0  0  0
   44.5550   47.2890   18.2950 C   0  0  0  0  0
   44.1590   46.9370   17.0080 C   0  0  0  0  0
   45.0680   46.8990   15.9670 C   0  0  0  0  0
   48.6290   49.0290   18.1250 C   0  0  0  0  0
   48.2440   47.5900   17.8670 C   0  0  0  0  0
   51.5859   54.6715   19.7929 H   0  0  0  0  0
   51.7861   55.2292   24.0832 H   0  0  0  0  0
   51.3531   49.9484   20.9995 H   0  0  0  0  0
   51.6574   50.9072   22.4518 H   0  0  0  0  0
   51.2666   57.3124   22.6884 H   0  0  0  0  0
   53.1318   58.5430   21.9412 H   0  0  0  0  0
   53.6002   57.3000   20.7603 H   0  0  0  0  0
   54.9043   57.1740   22.7477 H   0  0  0  0  0
   51.1536   56.5796   19.7639 H   0  0  0  0  0
   51.0876   58.3046   20.3473 H   0  0  0  0  0
   49.0161   57.8275   21.5657 H   0  0  0  0  0
   49.1089   56.1205   21.1679 H   0  0  0  0  0
   47.9908   59.4559   19.7012 H   0  0  0  0  0
   47.0759   59.1516   17.2104 H   0  0  0  0  0
   47.1904   56.8350   15.3961 H   0  0  0  0  0
   47.9966   54.4914   15.2060 H   0  0  0  0  0
   49.5018   54.6962   19.2480 H   0  0  0  0  0
   49.9889   52.9590   17.9715 H   0  0  0  0  0
   50.0243   51.0193   17.7527 H   0  0  0  0  0
   50.2843   50.5640   16.0258 H   0  0  0  0  0
   48.4854   49.2238   16.0001 H   0  0  0  0  0
   47.4919   50.3882   16.9278 H   0  0  0  0  0
   47.1339   47.1486   15.4520 H   0  0  0  0  0
   46.1808   47.8904   19.5698 H   0  0  0  0  0
   43.8142   47.3378   19.0931 H   0  0  0  0  0
   43.1152   46.6872   16.8177 H   0  0  0  0  0
   44.7493   46.6655   14.9511 H   0  0  0  0  0
   47.9864   49.4274   18.9102 H   0  0  0  0  0
   49.6769   49.0624   18.4230 H   0  0  0  0  0
   48.8156   47.2283   17.0123 H   0  0  0  0  0
   48.4560   47.0102   18.7653 H   0  0  0  0  0
  2  1  4  0  0  0
  1  5  4  0  0  0
  2  3  4  0  0  0
  9  2  1  0  0  0
  3  4  4  0  0  0
  4  5  4  0  0  0
  5  6  1  0  0  0
  6  7  2  0  0  0
  6  8  1  0  0  0
  9 10  1  0  0  0
 12  9  1  0  0  0
 10 11  1  0  0  0
 13 12  1  0  0  0
 14 13  1  0  0  0
 14 15  4  0  0  0
 18 14  4  0  0  0
 16 15  4  0  0  0
 17 16  4  0  0  0
 18 17  4  0  0  0
 19 17  4  0  0  0
 22 18  4  0  0  0
 20 19  4  0  0  0
 21 20  4  0  0  0
 21 22  4  0  0  0
 23 21  1  0  0  0
 24 23  1  0  0  0
 24 25  2  0  0  0
 26 24  1  0  0  0
 27 26  1  0  0  0
 34 27  1  0  0  0
 29 28  4  0  0  0
 28 33  4  0  0  0
 29 30  4  0  0  0
 35 29  1  0  0  0
 30 31  4  0  0  0
 31 32  4  0  0  0
 33 32  4  0  0  0
 34 35  1  0  0  0
  1 36  1  0  0  0
  3 37  1  0  0  0
  8 38  1  0  0  0
  8 39  1  0  0  0
  9 40  1  0  0  0
 10 41  1  0  0  0
 10 42  1  0  0  0
 11 43  1  0  0  0
 12 44  1  0  0  0
 12 45  1  0  0  0
 13 46  1  0  0  0
 13 47  1  0  0  0
 15 48  1  0  0  0
 16 49  1  0  0  0
 19 50  1  0  0  0
 20 51  1  0  0  0
 22 52  1  0  0  0
 23 53  1  0  0  0
 26 54  1  0  0  0
 26 55  1  0  0  0
 27 56  1  0  0  0
 27 57  1  0  0  0
 28 58  1  0  0  0
 30 59  1  0  0  0
 31 60  1  0  0  0
 32 61  1  0  0  0
 33 62  1  0  0  0
 34 63  1  0  0  0
 34 64  1  0  0  0
 35 65  1  0  0  0
 35 66  1  0  0  0
M  END
$$$$
