### 
### Created by X-TOOL on Wed Jan  1 15:39:34 2020
### 

@<TRIPOS>MOLECULE
6d1m_ligand
   34    35     1     0     0
SMALL
GAST_HUCK


@<TRIPOS>ATOM
      1 C4         -0.5000    3.2160   85.3980 C.ar      1 FQY        -0.0345
      2 C6         -2.6780    4.2440   85.5050 C.ar      1 FQY        -0.0345
      3 C5         -0.0570    4.2400   84.5750 C.ar      1 FQY        -0.0522
      4 C7         -2.2290    5.2530   84.6790 C.ar      1 FQY        -0.0522
      5 C3         -1.8090    3.2210   85.8490 C.ar      1 FQY         0.1079
      6 C8         -0.9280    5.2510   84.2120 C.ar      1 FQY        -0.0178
      7 C13         2.4920   10.0140   84.5900 C.3       1 FQY        -0.0530
      8 C12         2.9030    9.2300   83.3630 C.3       1 FQY        -0.0528
      9 C14         1.8720    9.0690   85.5830 C.3       1 FQY        -0.0528
     10 C11         1.7430    8.4340   82.7790 C.3       1 FQY        -0.0500
     11 C15         0.6940    8.3280   85.0120 C.3       1 FQY        -0.0500
     12 C10         1.0720    7.5220   83.7950 C.3       1 FQY        -0.0382
     13 N16        -1.9130    0.4710   86.1820 N.am      1 FQY        -0.2609
     14 O1         -1.8100    2.0370   88.1850 O.2       1 FQY        -0.1505
     15 O17        -3.8460    1.9770   86.7920 O.2       1 FQY        -0.1505
     16 S2         -2.3910    1.8750   86.8770 S.o2      1 FQY         0.0659
     17 SE9        -0.4680    6.6700   82.9850 Se        1 FQY        -4.0000
     18 H1          0.1737    2.4172   85.6863 H         1 FQY         0.0637
     19 H2         -3.6953    4.2511   85.8794 H         1 FQY         0.0637
     20 H3          0.9665    4.2481   84.2180 H         1 FQY         0.0624
     21 H4         -2.9016    6.0539   84.3938 H         1 FQY         0.0624
     22 H5          1.7609   10.7860   84.3079 H         1 FQY         0.0265
     23 H6          3.3762   10.4921   85.0368 H         1 FQY         0.0265
     24 H7          3.7079    8.5333   83.6399 H         1 FQY         0.0265
     25 H8          3.2717    9.9317   82.6003 H         1 FQY         0.0265
     26 H9          1.5362    9.6458   86.4574 H         1 FQY         0.0265
     27 H10         2.6314    8.3374   85.8960 H         1 FQY         0.0265
     28 H11         2.1237    7.8163   81.9522 H         1 FQY         0.0268
     29 H12         0.9928    9.1403   82.3938 H         1 FQY         0.0268
     30 H13        -0.0809    9.0558   84.7297 H         1 FQY         0.0268
     31 H14         0.2960    7.6477   85.7793 H         1 FQY         0.0268
     32 H15         1.7831    6.7401   84.0999 H         1 FQY         0.0303
     33 H16        -2.1439   -0.4028   86.6100 H         1 FQY         0.1635
     34 H17        -1.3903    0.4876   85.3297 H         1 FQY         0.1635
@<TRIPOS>BOND
     1    3    1 ar 
     2    1    5 ar 
     3    4    2 ar 
     4    2    5 ar 
     5    6    3 ar 
     6    6    4 ar 
     7    5   16 1  
     8   17    6 1  
     9    8    7 1  
    10    9    7 1  
    11   10    8 1  
    12   11    9 1  
    13   12   10 1  
    14   12   11 1  
    15   12   17 1  
    16   16   13 am 
    17   16   14 2  
    18   16   15 2  
    19    1   18 1  
    20    2   19 1  
    21    3   20 1  
    22    4   21 1  
    23    7   22 1  
    24    7   23 1  
    25    8   24 1  
    26    8   25 1  
    27    9   26 1  
    28    9   27 1  
    29   10   28 1  
    30   10   29 1  
    31   11   30 1  
    32   11   31 1  
    33   12   32 1  
    34   13   33 1  
    35   13   34 1  
@<TRIPOS>SUBSTRUCTURE
     1 FQY         1

