6d1m_ligand
  -I-interpret- 

 34 35  0  0  0  0  0  0  0  0999 V2000
   -0.5000    3.2160   85.3980 C   0  0  0  0  0
   -2.6780    4.2440   85.5050 C   0  0  0  0  0
   -0.0570    4.2400   84.5750 C   0  0  0  0  0
   -2.2290    5.2530   84.6790 C   0  0  0  0  0
   -1.8090    3.2210   85.8490 C   0  0  0  0  0
   -0.9280    5.2510   84.2120 C   0  0  0  0  0
    2.4920   10.0140   84.5900 C   0  0  0  0  0
    2.9030    9.2300   83.3630 C   0  0  0  0  0
    1.8720    9.0690   85.5830 C   0  0  0  0  0
    1.7430    8.4340   82.7790 C   0  0  0  0  0
    0.6940    8.3280   85.0120 C   0  0  0  0  0
    1.0720    7.5220   83.7950 C   0  0  0  0  0
   -1.9130    0.4710   86.1820 N   0  0  0  0  0
   -1.8100    2.0370   88.1850 O   0  0  0  0  0
   -3.8460    1.9770   86.7920 O   0  0  0  0  0
   -2.3910    1.8750   86.8770 S   0  0  0  0  0
   -0.4680    6.6700   82.9850 Se  0  0  0  0  0
    0.1774    2.4128   85.6879 H   0  0  0  0  0
   -3.7009    4.2511   85.8815 H   0  0  0  0  0
    0.9722    4.2482   84.2160 H   0  0  0  0  0
   -2.9053    6.0583   84.3922 H   0  0  0  0  0
    1.7717   10.7837   84.3127 H   0  0  0  0  0
    3.3653   10.4938   85.0318 H   0  0  0  0  0
    3.6855    8.5288   83.6530 H   0  0  0  0  0
    3.2466    9.9359   82.6069 H   0  0  0  0  0
    1.5219    9.6550   86.4327 H   0  0  0  0  0
    2.6265    8.3352   85.8664 H   0  0  0  0  0
    2.1411    7.8054   81.9824 H   0  0  0  0  0
    0.9957    9.1464   82.4297 H   0  0  0  0  0
   -0.0590    9.0589   84.7172 H   0  0  0  0  0
    0.3201    7.6428   85.7728 H   0  0  0  0  0
    1.7570    6.7352   84.1110 H   0  0  0  0  0
   -1.2808   -0.1554   86.6804 H   0  0  0  0  0
   -2.2475    0.2231   85.2508 H   0  0  0  0  0
  3  1  4  0  0  0
  1  5  4  0  0  0
  4  2  4  0  0  0
  2  5  4  0  0  0
  6  3  4  0  0  0
  6  4  4  0  0  0
  5 16  1  0  0  0
 17  6  1  0  0  0
  8  7  1  0  0  0
  9  7  1  0  0  0
 10  8  1  0  0  0
 11  9  1  0  0  0
 12 10  1  0  0  0
 12 11  1  0  0  0
 12 17  1  0  0  0
 16 13  1  0  0  0
 16 14  2  0  0  0
 16 15  2  0  0  0
  1 18  1  0  0  0
  2 19  1  0  0  0
  3 20  1  0  0  0
  4 21  1  0  0  0
  7 22  1  0  0  0
  7 23  1  0  0  0
  8 24  1  0  0  0
  8 25  1  0  0  0
  9 26  1  0  0  0
  9 27  1  0  0  0
 10 28  1  0  0  0
 10 29  1  0  0  0
 11 30  1  0  0  0
 11 31  1  0  0  0
 12 32  1  0  0  0
 13 33  1  0  0  0
 13 34  1  0  0  0
M  END
$$$$
