4lrr_ligand
  -I-interpret- 

 34 37  0  0  0  0  0  0  0  0999 V2000
    6.1310   11.6720  -40.2010 O   0  0  0  0  0
    6.4150   12.8770  -40.3100 N   0  0  0  0  0
    7.5230   13.3000  -39.9420 O   0  0  0  0  0
    5.4270   13.7290  -40.8610 C   0  0  0  0  0
    4.1020   13.4080  -40.5970 C   0  0  0  0  0
    3.1030   14.1170  -41.2410 C   0  0  0  0  0
    5.7750   14.7820  -41.7030 C   0  0  0  0  0
    4.7790   15.4950  -42.3450 C   0  0  0  0  0
    3.4540   15.1500  -42.1010 C   0  0  0  0  0
    2.3500   15.8830  -42.7640 C   0  0  0  0  0
    2.5830   16.6240  -43.7040 O   0  0  0  0  0
    1.0100   15.6610  -42.2350 O   0  0  0  0  0
    0.9340   15.2580  -40.9300 C   0  0  0  0  0
    1.1240   16.1900  -39.9240 C   0  0  0  0  0
    1.3670   17.5510  -40.0960 C   0  0  0  0  0
    1.5340   18.3720  -38.9750 C   0  0  0  0  0
    1.4660   17.8500  -37.6820 C   0  0  0  0  0
    1.2230   16.4810  -37.5380 C   0  0  0  0  0
    0.7020   13.9130  -40.6060 C   0  0  0  0  0
    0.6290   13.4560  -39.2890 C   0  0  0  0  0
    0.8250   14.4110  -38.3270 C   0  0  0  0  0
    1.0610   15.7130  -38.6570 C   0  0  0  0  0
    0.8290   14.3170  -36.9120 O   0  0  0  0  0
    1.0720   15.5990  -36.4620 C   0  0  0  0  0
    1.1520   15.9000  -35.2870 O   0  0  0  0  0
    3.8532   12.6120  -39.8952 H   0  0  0  0  0
    2.0547   13.8682  -41.0756 H   0  0  0  0  0
    6.8226   15.0419  -41.8547 H   0  0  0  0  0
    5.0268   16.3087  -43.0266 H   0  0  0  0  0
    1.4268   17.9743  -41.0987 H   0  0  0  0  0
    1.7203   19.4370  -39.1138 H   0  0  0  0  0
    1.5985   18.4910  -36.8104 H   0  0  0  0  0
    0.5734   13.1951  -41.4161 H   0  0  0  0  0
    0.4301   12.4128  -39.0436 H   0  0  0  0  0
  1  2  2  0  0  0
  2  3  2  0  0  0
  2  4  1  0  0  0
  4  5  4  0  0  0
  4  7  4  0  0  0
  5  6  4  0  0  0
  6  9  4  0  0  0
  7  8  4  0  0  0
  8  9  4  0  0  0
  9 10  1  0  0  0
 10 11  2  0  0  0
 10 12  1  0  0  0
 12 13  1  0  0  0
 13 14  4  0  0  0
 13 19  4  0  0  0
 14 15  4  0  0  0
 14 22  4  0  0  0
 15 16  4  0  0  0
 16 17  4  0  0  0
 17 18  4  0  0  0
 18 22  4  0  0  0
 18 24  1  0  0  0
 19 20  4  0  0  0
 20 21  4  0  0  0
 21 22  4  0  0  0
 21 23  1  0  0  0
 23 24  1  0  0  0
 24 25  2  0  0  0
  5 26  1  0  0  0
  6 27  1  0  0  0
  7 28  1  0  0  0
  8 29  1  0  0  0
 15 30  1  0  0  0
 16 31  1  0  0  0
 17 32  1  0  0  0
 19 33  1  0  0  0
 20 34  1  0  0  0
M  END
$$$$
