5ndd_ligand
  -I-interpret- 

 31 32  0  0  0  0  0  0  0  0999 V2000
   14.5090    6.7530   55.8070 C   0  0  0  0  0
   14.1740    5.7880   54.8140 C   0  0  0  0  0
   15.1680    4.9430   54.2870 C   0  0  0  0  0
   16.4850    5.0520   54.7420 C   0  0  0  0  0
   16.8190    6.0070   55.7250 C   0  0  0  0  0
   15.8220    6.8540   56.2570 C   0  0  0  0  0
   16.1890    7.8930   57.3290 C   0  0  0  0  0
   15.7670    9.2960   56.8530 C   0  0  0  0  0
   18.2360    6.1130   56.2070 C   0  0  0  0  0
   18.9400    4.7790   56.0020 C   0  0  0  0  0
   18.9170    7.1110   55.4810 O   0  0  0  0  0
   19.8230    4.4920   55.0170 N   0  0  0  0  0
   20.2210    3.2100   55.1820 C   0  0  0  0  0
   19.5810    2.7070   56.2680 C   0  0  0  0  0
   18.7910    3.6740   56.7740 N   0  0  0  0  0
   12.8890    5.6830   54.3730 F   0  0  0  0  0
   16.2320   10.3790   57.9310 C   0  0  0  0  0
   13.7397    7.4099   56.2129 H   0  0  0  0  0
   14.9117    4.2057   53.5262 H   0  0  0  0  0
   17.2562    4.3973   54.3362 H   0  0  0  0  0
   17.2658    7.8758   57.4971 H   0  0  0  0  0
   15.6710    7.6542   58.2578 H   0  0  0  0  0
   14.6834    9.3335   56.7411 H   0  0  0  0  0
   16.2347    9.5122   55.8924 H   0  0  0  0  0
   18.2346    6.3735   57.2654 H   0  0  0  0  0
   18.4761    7.9543   55.6076 H   0  0  0  0  0
   20.9317    2.6743   54.5527 H   0  0  0  0  0
   19.6876    1.6964   56.6623 H   0  0  0  0  0
   15.7616   10.1607   58.8897 H   0  0  0  0  0
   17.3159   10.3397   58.0394 H   0  0  0  0  0
   15.9348   11.3731   57.5970 H   0  0  0  0  0
  1  2  4  0  0  0
  1  6  4  0  0  0
  2  3  4  0  0  0
  2 16  1  0  0  0
  3  4  4  0  0  0
  4  5  4  0  0  0
  5  6  4  0  0  0
  5  9  1  0  0  0
  6  7  1  0  0  0
  7  8  1  0  0  0
  8 17  1  0  0  0
  9 10  1  0  0  0
  9 11  1  0  0  0
 10 12  4  0  0  0
 10 15  4  0  0  0
 12 13  4  0  0  0
 13 14  4  0  0  0
 14 15  4  0  0  0
  1 18  1  0  0  0
  3 19  1  0  0  0
  4 20  1  0  0  0
  7 21  1  0  0  0
  7 22  1  0  0  0
  8 23  1  0  0  0
  8 24  1  0  0  0
  9 25  1  0  0  0
 11 26  1  0  0  0
 13 27  1  0  0  0
 14 28  1  0  0  0
 17 29  1  0  0  0
 17 30  1  0  0  0
 17 31  1  0  0  0
M  END
$$$$
