### 
### Created by X-TOOL on Mon Sep 10 21:13:06 2018
### 

@<TRIPOS>MOLECULE
3r42_ligand
  122   124     1     0     0
SMALL
GAST_HUCK


@<TRIPOS>ATOM
      1 N           6.2330    3.3060   -5.2450 N.4       1 GLN         0.2380
      2 CA          5.9090    4.5870   -5.8660 C.3       1 GLN         0.0671
      3 C           7.0690    5.0810   -6.7230 C.2       1 GLN         0.2269
      4 O           8.1720    4.5660   -6.6330 O.2       1 GLN        -0.3907
      5 CB          5.5250    5.6330   -4.8030 C.3       1 GLN         0.0247
      6 CG          6.5380    5.7960   -3.6950 C.3       1 GLN         0.0443
      7 CD          6.1220    6.8200   -2.6290 C.2       1 GLN         0.1738
      8 OE1         5.4130    7.7910   -2.9140 O.2       1 GLN        -0.3973
      9 NE2         6.5780    6.6020   -1.3950 N.am      1 GLN        -0.3009
     10 N           6.8060    6.0700   -7.5670 N.am      1 VAL        -0.2608
     11 CA          7.8460    6.6730   -8.3810 C.3       1 VAL         0.1336
     12 C           8.1570    8.0620   -7.8160 C.2       1 VAL         0.2067
     13 O           7.4140    8.5540   -6.9700 O.2       1 VAL        -0.3942
     14 CB          7.4040    6.7840   -9.8520 C.3       1 VAL        -0.0062
     15 CG1         7.0220    5.3970  -10.3960 C.3       1 VAL        -0.0584
     16 CG2         6.2350    7.7580   -9.9980 C.3       1 VAL        -0.0584
     17 N           9.2640    8.6820   -8.2630 N.am      1 PRO        -0.2498
     18 CA          9.5610   10.0390   -7.7860 C.3       1 PRO         0.1338
     19 C           8.3940   10.9990   -8.0360 C.2       1 PRO         0.2042
     20 O           7.7060   10.9150   -9.0640 O.2       1 PRO        -0.3944
     21 CB         10.7640   10.4540   -8.6220 C.3       1 PRO        -0.0104
     22 CG         11.4600    9.1380   -8.9490 C.3       1 PRO        -0.0281
     23 CD         10.3420    8.1320   -9.1120 C.3       1 PRO         0.0369
     24 N           8.1780   11.9070   -7.0950 N.am      1 SER        -0.2616
     25 CA          7.1400   12.9240   -7.2360 C.3       1 SER         0.1539
     26 C           7.5320   14.1990   -6.5030 C.2       1 SER         0.2063
     27 O           8.4580   14.2180   -5.6980 O.2       1 SER        -0.3943
     28 CB          5.7980   12.4230   -6.7160 C.3       1 SER         0.0843
     29 OG          5.8810   12.0720   -5.3540 O.3       1 SER        -0.3903
     30 N           6.7980   15.2640   -6.7610 N.am      1 ASP        -0.2621
     31 CA          7.2470   16.5760   -6.3250 C.3       1 ASP         0.1425
     32 C           6.0250   17.4630   -6.2960 C.2       1 ASP         0.2081
     33 O           5.4830   17.7790   -7.3560 O.2       1 ASP        -0.3941
     34 CB          8.2670   17.0780   -7.3520 C.3       1 ASP         0.0406
     35 CG          8.8430   18.4220   -7.0080 C.2       1 ASP         0.0393
     36 OD1         9.9510   18.7200   -7.5050 O.co2     1 ASP        -0.5688
     37 OD2         8.1960   19.1820   -6.2520 O.co2     1 ASP        -0.5688
     38 N           5.5840   17.8690   -5.0910 N.am      1 PRO        -0.2497
     39 CA          4.3350   18.6280   -5.0050 C.3       1 PRO         0.1338
     40 C           4.4620   20.0220   -5.6330 C.2       1 PRO         0.2042
     41 O           3.4690   20.7330   -5.7370 O.2       1 PRO        -0.3944
     42 CB          4.0980   18.7250   -3.4940 C.3       1 PRO        -0.0104
     43 CG          5.4890   18.7240   -2.9130 C.3       1 PRO        -0.0281
     44 CD          6.2820   17.8080   -3.7930 C.3       1 PRO         0.0369
     45 N           5.6670   20.4100   -6.0440 N.am      1 TYR        -0.2621
     46 CA          5.8780   21.7300   -6.6500 C.3       1 TYR         0.1390
     47 C           6.0830   21.6650   -8.1590 C.2       1 TYR         0.2053
     48 O           6.0380   22.6910   -8.8390 O.2       1 TYR        -0.3942
     49 CB          7.0600   22.4570   -5.9980 C.3       1 TYR         0.0163
     50 CG          6.7290   23.0090   -4.6350 C.ar      1 TYR        -0.0493
     51 CD1         6.1040   24.2450   -4.4960 C.ar      1 TYR        -0.0685
     52 CD2         7.0270   22.2890   -3.4860 C.ar      1 TYR        -0.0685
     53 CE1         5.7810   24.7510   -3.2410 C.ar      1 TYR        -0.0398
     54 CE2         6.7150   22.7760   -2.2370 C.ar      1 TYR        -0.0398
     55 CZ          6.0940   24.0110   -2.1170 C.ar      1 TYR         0.0805
     56 OH          5.7900   24.4830   -0.8650 O.3       1 TYR        -0.3376
     57 N           6.3040   20.4620   -8.6790 N.am      1 ASN        -0.2672
     58 CA          6.6470   20.2930  -10.0880 C.3       1 ASN         0.1110
     59 C           6.0780   19.0050  -10.6800 C.2       1 ASN         0.0624
     60 O           4.9620   18.9920  -11.2030 O.co2     1 ASN        -0.5665
     61 CB          8.1700   20.3340  -10.2680 C.3       1 ASN         0.0718
     62 CG          8.7960   21.5940   -9.6770 C.2       1 ASN         0.1774
     63 OD1         8.3410   22.7060   -9.9390 O.2       1 ASN        -0.3971
     64 ND2         9.8470   21.4220   -8.8790 N.am      1 ASN        -0.3007
     65 H           6.4833    2.6323   -5.9688 H         1 GLN         0.2015
     66 H           7.0188    3.4283   -4.6062 H         1 GLN         0.2015
     67 H           5.4225    2.9656   -4.7277 H         1 GLN         0.2015
     68 H           5.0470    4.4391   -6.5165 H         1 GLN         0.1100
     69 H           4.5973    5.2948   -4.3414 H         1 GLN         0.0370
     70 H           5.4497    6.5940   -5.3119 H         1 GLN         0.0370
     71 H           7.4634    6.1523   -4.1475 H         1 GLN         0.0506
     72 H           6.6391    4.8305   -3.1994 H         1 GLN         0.0506
     73 H           6.3439    7.2500   -0.6429 H         1 GLN         0.1814
     74 H           7.1609    5.7872   -1.2032 H         1 GLN         0.1814
     75 H           5.8495    6.4154   -7.6460 H         1 VAL         0.1885
     76 H           8.7368    6.0455   -8.3525 H         1 VAL         0.0803
     77 H           8.2398    7.1715  -10.4345 H         1 VAL         0.0343
     78 H           7.8835    4.7324  -10.3301 H         1 VAL         0.0234
     79 H           6.2014    4.9898   -9.8053 H         1 VAL         0.0234
     80 H           6.7114    5.4892  -11.4367 H         1 VAL         0.0234
     81 H           5.3924    7.4040   -9.4040 H         1 VAL         0.0234
     82 H           6.5395    8.7442   -9.6475 H         1 VAL         0.0234
     83 H           5.9424    7.8179  -11.0463 H         1 VAL         0.0234
     84 H           9.7414   10.0645   -6.7113 H         1 PRO         0.0802
     85 H          11.4176   11.1451   -8.0896 H         1 PRO         0.0313
     86 H          10.4739   11.0011   -9.5190 H         1 PRO         0.0313
     87 H          12.1561    8.8438   -8.1635 H         1 PRO         0.0287
     88 H          12.0672    9.2160   -9.8509 H         1 PRO         0.0287
     89 H          10.0365    8.0085  -10.1510 H         1 PRO         0.0524
     90 H          10.6368    7.1251   -8.8164 H         1 PRO         0.0524
     91 H           8.7512   11.8950   -6.2514 H         1 SER         0.1884
     92 H           7.0384   13.1410   -8.2993 H         1 SER         0.0823
     93 H           5.5102   11.5402   -7.2869 H         1 SER         0.0606
     94 H           5.0617   13.2190   -6.8269 H         1 SER         0.0606
     95 H           6.5330   11.3762   -5.2432 H         1 SER         0.2097
     96 H           5.9168   15.1672   -7.2656 H         1 ASP         0.1884
     97 H           7.7150   16.5632   -5.3407 H         1 ASP         0.0819
     98 H           7.7522   17.1747   -8.3079 H         1 ASP         0.0478
     99 H           9.0895   16.3632   -7.3764 H         1 ASP         0.0478
    100 H           3.5172   18.1533   -5.5471 H         1 PRO         0.0802
    101 H           3.4887   17.9044   -3.1153 H         1 PRO         0.0313
    102 H           3.5329   19.6153   -3.2182 H         1 PRO         0.0313
    103 H           5.4913   18.3871   -1.8764 H         1 PRO         0.0287
    104 H           5.9152   19.7269   -2.8890 H         1 PRO         0.0287
    105 H           7.3263   18.1105   -3.8704 H         1 PRO         0.0524
    106 H           6.3307   16.7937   -3.3969 H         1 PRO         0.0524
    107 H           6.4597   19.7773   -5.9357 H         1 TYR         0.1885
    108 H           4.9623   22.2924   -6.4674 H         1 TYR         0.0821
    109 H           7.3306   23.2952   -6.6401 H         1 TYR         0.0453
    110 H           7.8690   21.7365   -5.8780 H         1 TYR         0.0453
    111 H           5.8635   24.8265   -5.3860 H         1 TYR         0.0530
    112 H           7.5174   21.3196   -3.5747 H         1 TYR         0.0530
    113 H           5.2876   25.7183   -3.1457 H         1 TYR         0.0525
    114 H           6.9545   22.1945   -1.3467 H         1 TYR         0.0525
    115 H           5.3672   25.3415   -0.9418 H         1 TYR         0.2458
    116 H           6.2324   19.6390   -8.0807 H         1 ASN         0.1877
    117 H           6.1918   21.1209  -10.6317 H         1 ASN         0.0752
    118 O           6.7568   17.9445  -10.6332 O.co2     1 ASN        -0.5665
    119 H           8.3822   20.3233  -11.3371 H         1 ASN         0.0544
    120 H           8.5928   19.4738   -9.7489 H         1 ASN         0.0544
    121 H          10.3063   22.2302   -8.4592 H         1 ASN         0.1814
    122 H          10.1933   20.4819   -8.6872 H         1 ASN         0.1814
@<TRIPOS>BOND
     1    1    2 1  
     2    2    3 1  
     3    2    5 1  
     4    3    4 2  
     5    3   10 am 
     6    5    6 1  
     7    6    7 1  
     8    7    8 2  
     9    7    9 am 
    10   10   11 1  
    11   11   12 1  
    12   11   14 1  
    13   12   13 2  
    14   12   17 am 
    15   14   15 1  
    16   14   16 1  
    17   17   18 1  
    18   17   23 1  
    19   18   19 1  
    20   18   21 1  
    21   19   20 2  
    22   19   24 am 
    23   21   22 1  
    24   22   23 1  
    25   24   25 1  
    26   25   26 1  
    27   25   28 1  
    28   26   27 2  
    29   26   30 am 
    30   28   29 1  
    31   30   31 1  
    32   31   32 1  
    33   31   34 1  
    34   32   33 2  
    35   32   38 am 
    36   34   35 1  
    37   35   36 ar 
    38   35   37 ar 
    39   38   39 1  
    40   38   44 1  
    41   39   40 1  
    42   39   42 1  
    43   40   41 2  
    44   40   45 am 
    45   42   43 1  
    46   43   44 1  
    47   45   46 1  
    48   46   47 1  
    49   46   49 1  
    50   47   48 2  
    51   47   57 am 
    52   49   50 1  
    53   50   51 ar 
    54   50   52 ar 
    55   51   53 ar 
    56   52   54 ar 
    57   53   55 ar 
    58   54   55 ar 
    59   55   56 1  
    60   57   58 1  
    61   58   59 1  
    62   58   61 1  
    63   59   60 ar 
    64   61   62 1  
    65   62   63 2  
    66   62   64 am 
    67    1   65 1  
    68    1   66 1  
    69    1   67 1  
    70    2   68 1  
    71    5   69 1  
    72    5   70 1  
    73    6   71 1  
    74    6   72 1  
    75    9   73 1  
    76    9   74 1  
    77   10   75 1  
    78   11   76 1  
    79   14   77 1  
    80   15   78 1  
    81   15   79 1  
    82   15   80 1  
    83   16   81 1  
    84   16   82 1  
    85   16   83 1  
    86   18   84 1  
    87   21   85 1  
    88   21   86 1  
    89   22   87 1  
    90   22   88 1  
    91   23   89 1  
    92   23   90 1  
    93   24   91 1  
    94   25   92 1  
    95   28   93 1  
    96   28   94 1  
    97   29   95 1  
    98   30   96 1  
    99   31   97 1  
   100   34   98 1  
   101   34   99 1  
   102   39  100 1  
   103   42  101 1  
   104   42  102 1  
   105   43  103 1  
   106   43  104 1  
   107   44  105 1  
   108   44  106 1  
   109   45  107 1  
   110   46  108 1  
   111   49  109 1  
   112   49  110 1  
   113   51  111 1  
   114   52  112 1  
   115   53  113 1  
   116   54  114 1  
   117   56  115 1  
   118   57  116 1  
   119   58  117 1  
   120   59  118 ar 
   121   61  119 1  
   122   61  120 1  
   123   64  121 1  
   124   64  122 1  
@<TRIPOS>SUBSTRUCTURE
     1 GLN         1

