3r42_ligand
  -I-interpret- 

124126  0  0  0  0  0  0  0  0999 V2000
    6.2330    3.3060   -5.2450 N   0  3  0  0  0
    5.9090    4.5870   -5.8660 C   0  0  0  0  0
    7.0690    5.0810   -6.7230 C   0  0  0  0  0
    8.1720    4.5660   -6.6330 O   0  0  0  0  0
    5.5250    5.6330   -4.8030 C   0  0  0  0  0
    6.5380    5.7960   -3.6950 C   0  0  0  0  0
    6.1220    6.8200   -2.6290 C   0  0  0  0  0
    5.4130    7.7910   -2.9140 O   0  0  0  0  0
    6.5780    6.6020   -1.3950 N   0  0  0  0  0
    6.8060    6.0700   -7.5670 N   0  0  0  0  0
    7.8460    6.6730   -8.3810 C   0  0  0  0  0
    8.1570    8.0620   -7.8160 C   0  0  0  0  0
    7.4140    8.5540   -6.9700 O   0  0  0  0  0
    7.4040    6.7840   -9.8520 C   0  0  0  0  0
    7.0220    5.3970  -10.3960 C   0  0  0  0  0
    6.2350    7.7580   -9.9980 C   0  0  0  0  0
    9.2640    8.6820   -8.2630 N   0  0  0  0  0
    9.5610   10.0390   -7.7860 C   0  0  0  0  0
    8.3940   10.9990   -8.0360 C   0  0  0  0  0
    7.7060   10.9150   -9.0640 O   0  0  0  0  0
   10.7640   10.4540   -8.6220 C   0  0  0  0  0
   11.4600    9.1380   -8.9490 C   0  0  0  0  0
   10.3420    8.1320   -9.1120 C   0  0  0  0  0
    8.1780   11.9070   -7.0950 N   0  0  0  0  0
    7.1400   12.9240   -7.2360 C   0  0  0  0  0
    7.5320   14.1990   -6.5030 C   0  0  0  0  0
    8.4580   14.2180   -5.6980 O   0  0  0  0  0
    5.7980   12.4230   -6.7160 C   0  0  0  0  0
    5.8810   12.0720   -5.3540 O   0  0  0  0  0
    6.7980   15.2640   -6.7610 N   0  0  0  0  0
    7.2470   16.5760   -6.3250 C   0  0  0  0  0
    6.0250   17.4630   -6.2960 C   0  0  0  0  0
    5.4830   17.7790   -7.3560 O   0  0  0  0  0
    8.2670   17.0780   -7.3520 C   0  0  0  0  0
    8.8430   18.4220   -7.0080 C   0  0  0  0  0
    9.9510   18.7200   -7.5050 O   0  0  0  0  0
    8.1960   19.1820   -6.2520 O   0  0  0  0  0
    5.5840   17.8690   -5.0910 N   0  0  0  0  0
    4.3350   18.6280   -5.0050 C   0  0  0  0  0
    4.4620   20.0220   -5.6330 C   0  0  0  0  0
    3.4690   20.7330   -5.7370 O   0  0  0  0  0
    4.0980   18.7250   -3.4940 C   0  0  0  0  0
    5.4890   18.7240   -2.9130 C   0  0  0  0  0
    6.2820   17.8080   -3.7930 C   0  0  0  0  0
    5.6670   20.4100   -6.0440 N   0  0  0  0  0
    5.8780   21.7300   -6.6500 C   0  0  0  0  0
    6.0830   21.6650   -8.1590 C   0  0  0  0  0
    6.0380   22.6910   -8.8390 O   0  0  0  0  0
    7.0600   22.4570   -5.9980 C   0  0  0  0  0
    6.7290   23.0090   -4.6350 C   0  0  0  0  0
    6.1040   24.2450   -4.4960 C   0  0  0  0  0
    7.0270   22.2890   -3.4860 C   0  0  0  0  0
    5.7810   24.7510   -3.2410 C   0  0  0  0  0
    6.7150   22.7760   -2.2370 C   0  0  0  0  0
    6.0940   24.0110   -2.1170 C   0  0  0  0  0
    5.7900   24.4830   -0.8650 O   0  0  0  0  0
    6.3040   20.4620   -8.6790 N   0  0  0  0  0
    6.6470   20.2930  -10.0880 C   0  0  0  0  0
    6.0780   19.0050  -10.6800 C   0  0  0  0  0
    4.9620   18.9920  -11.2030 O   0  0  0  0  0
    8.1700   20.3340  -10.2680 C   0  0  0  0  0
    8.7960   21.5940   -9.6770 C   0  0  0  0  0
    8.3410   22.7060   -9.9390 O   0  0  0  0  0
    9.8470   21.4220   -8.8790 N   0  0  0  0  0
    6.7568   17.9445  -10.6332 O   0  0  0  0  0
    6.4833    2.6323   -5.9688 H   0  0  0  0  0
    7.0188    3.4283   -4.6062 H   0  0  0  0  0
    5.4225    2.9656   -4.7277 H   0  0  0  0  0
    5.0470    4.4391   -6.5165 H   0  0  0  0  0
    4.5973    5.2948   -4.3414 H   0  0  0  0  0
    5.4497    6.5940   -5.3119 H   0  0  0  0  0
    7.4634    6.1523   -4.1475 H   0  0  0  0  0
    6.6391    4.8305   -3.1994 H   0  0  0  0  0
    6.3439    7.2500   -0.6429 H   0  0  0  0  0
    7.1609    5.7872   -1.2032 H   0  0  0  0  0
    5.8495    6.4154   -7.6460 H   0  0  0  0  0
    8.7368    6.0455   -8.3525 H   0  0  0  0  0
    8.2398    7.1715  -10.4345 H   0  0  0  0  0
    7.8835    4.7324  -10.3301 H   0  0  0  0  0
    6.2014    4.9898   -9.8053 H   0  0  0  0  0
    6.7114    5.4892  -11.4367 H   0  0  0  0  0
    5.3924    7.4040   -9.4040 H   0  0  0  0  0
    6.5395    8.7442   -9.6475 H   0  0  0  0  0
    5.9424    7.8179  -11.0463 H   0  0  0  0  0
    9.7414   10.0645   -6.7113 H   0  0  0  0  0
   11.4176   11.1451   -8.0896 H   0  0  0  0  0
   10.4739   11.0011   -9.5190 H   0  0  0  0  0
   12.1561    8.8438   -8.1635 H   0  0  0  0  0
   12.0672    9.2160   -9.8509 H   0  0  0  0  0
   10.0365    8.0085  -10.1510 H   0  0  0  0  0
   10.6368    7.1251   -8.8164 H   0  0  0  0  0
    8.7512   11.8950   -6.2514 H   0  0  0  0  0
    7.0384   13.1410   -8.2993 H   0  0  0  0  0
    5.5102   11.5402   -7.2869 H   0  0  0  0  0
    5.0617   13.2190   -6.8269 H   0  0  0  0  0
    5.0246   11.7605   -5.0522 H   0  0  0  0  0
    5.9168   15.1672   -7.2656 H   0  0  0  0  0
    7.7150   16.5632   -5.3407 H   0  0  0  0  0
    7.7522   17.1747   -8.3079 H   0  0  0  0  0
    9.0895   16.3632   -7.3764 H   0  0  0  0  0
    7.3788   18.7515   -5.9905 H   0  0  0  0  0
    3.5172   18.1533   -5.5471 H   0  0  0  0  0
    3.4887   17.9044   -3.1153 H   0  0  0  0  0
    3.5329   19.6153   -3.2182 H   0  0  0  0  0
    5.4913   18.3871   -1.8764 H   0  0  0  0  0
    5.9152   19.7269   -2.8890 H   0  0  0  0  0
    7.3263   18.1105   -3.8704 H   0  0  0  0  0
    6.3307   16.7937   -3.3969 H   0  0  0  0  0
    6.4597   19.7773   -5.9357 H   0  0  0  0  0
    4.9623   22.2924   -6.4674 H   0  0  0  0  0
    7.3306   23.2952   -6.6401 H   0  0  0  0  0
    7.8690   21.7365   -5.8780 H   0  0  0  0  0
    5.8635   24.8265   -5.3860 H   0  0  0  0  0
    7.5174   21.3196   -3.5747 H   0  0  0  0  0
    5.2876   25.7183   -3.1457 H   0  0  0  0  0
    6.9545   22.1945   -1.3467 H   0  0  0  0  0
    6.0758   23.8461   -0.2060 H   0  0  0  0  0
    6.2324   19.6390   -8.0807 H   0  0  0  0  0
    6.1918   21.1209  -10.6317 H   0  0  0  0  0
    8.3822   20.3233  -11.3371 H   0  0  0  0  0
    8.5928   19.4738   -9.7489 H   0  0  0  0  0
   10.3063   22.2302   -8.4592 H   0  0  0  0  0
   10.1933   20.4819   -8.6872 H   0  0  0  0  0
    7.5943   18.1209  -10.1984 H   0  0  0  0  0
  1  2  1  0  0  0
  2  3  1  0  0  0
  2  5  1  0  0  0
  3  4  2  0  0  0
  3 10  1  0  0  0
  5  6  1  0  0  0
  6  7  1  0  0  0
  7  8  2  0  0  0
  7  9  1  0  0  0
 10 11  1  0  0  0
 11 12  1  0  0  0
 11 14  1  0  0  0
 12 13  2  0  0  0
 12 17  1  0  0  0
 14 15  1  0  0  0
 14 16  1  0  0  0
 17 18  1  0  0  0
 17 23  1  0  0  0
 18 19  1  0  0  0
 18 21  1  0  0  0
 19 20  2  0  0  0
 19 24  1  0  0  0
 21 22  1  0  0  0
 22 23  1  0  0  0
 24 25  1  0  0  0
 25 26  1  0  0  0
 25 28  1  0  0  0
 26 27  2  0  0  0
 26 30  1  0  0  0
 28 29  1  0  0  0
 30 31  1  0  0  0
 31 32  1  0  0  0
 31 34  1  0  0  0
 32 33  2  0  0  0
 32 38  1  0  0  0
 34 35  1  0  0  0
 35 36  2  0  0  0
 35 37  1  0  0  0
 38 39  1  0  0  0
 38 44  1  0  0  0
 39 40  1  0  0  0
 39 42  1  0  0  0
 40 41  2  0  0  0
 40 45  1  0  0  0
 42 43  1  0  0  0
 43 44  1  0  0  0
 45 46  1  0  0  0
 46 47  1  0  0  0
 46 49  1  0  0  0
 47 48  2  0  0  0
 47 57  1  0  0  0
 49 50  1  0  0  0
 50 51  4  0  0  0
 50 52  4  0  0  0
 51 53  4  0  0  0
 52 54  4  0  0  0
 53 55  4  0  0  0
 54 55  4  0  0  0
 55 56  1  0  0  0
 57 58  1  0  0  0
 58 59  1  0  0  0
 58 61  1  0  0  0
 59 60  2  0  0  0
 61 62  1  0  0  0
 62 63  2  0  0  0
 62 64  1  0  0  0
 59 65  1  0  0  0
  1 66  1  0  0  0
  1 67  1  0  0  0
  1 68  1  0  0  0
  2 69  1  0  0  0
  5 70  1  0  0  0
  5 71  1  0  0  0
  6 72  1  0  0  0
  6 73  1  0  0  0
  9 74  1  0  0  0
  9 75  1  0  0  0
 10 76  1  0  0  0
 11 77  1  0  0  0
 14 78  1  0  0  0
 15 79  1  0  0  0
 15 80  1  0  0  0
 15 81  1  0  0  0
 16 82  1  0  0  0
 16 83  1  0  0  0
 16 84  1  0  0  0
 18 85  1  0  0  0
 21 86  1  0  0  0
 21 87  1  0  0  0
 22 88  1  0  0  0
 22 89  1  0  0  0
 23 90  1  0  0  0
 23 91  1  0  0  0
 24 92  1  0  0  0
 25 93  1  0  0  0
 28 94  1  0  0  0
 28 95  1  0  0  0
 29 96  1  0  0  0
 30 97  1  0  0  0
 31 98  1  0  0  0
 34 99  1  0  0  0
 34100  1  0  0  0
 37101  1  0  0  0
 39102  1  0  0  0
 42103  1  0  0  0
 42104  1  0  0  0
 43105  1  0  0  0
 43106  1  0  0  0
 44107  1  0  0  0
 44108  1  0  0  0
 45109  1  0  0  0
 46110  1  0  0  0
 49111  1  0  0  0
 49112  1  0  0  0
 51113  1  0  0  0
 52114  1  0  0  0
 53115  1  0  0  0
 54116  1  0  0  0
 56117  1  0  0  0
 57118  1  0  0  0
 58119  1  0  0  0
 61120  1  0  0  0
 61121  1  0  0  0
 64122  1  0  0  0
 64123  1  0  0  0
 65124  1  0  0  0
M  END
$$$$
