4d8e_ligand
  -I-interpret- 

 54 53  0  0  0  0  0  0  0  0999 V2000
  -17.3590   11.6880   -4.7270 C   0  0  0  0  0
  -17.6250   12.8560   -4.2560 O   0  0  0  0  0
  -18.2960   10.9420   -5.1210 O   0  0  0  0  0
  -15.9630   11.1890   -4.8610 C   0  0  0  0  0
  -15.0640   12.2980   -5.2090 C   0  0  0  0  0
  -15.4000   12.4930   -6.5950 O   0  0  0  0  0
  -13.6210   11.9170   -5.1800 C   0  0  0  0  0
  -12.8790   12.0810   -4.1740 O   0  0  0  0  0
  -12.9870   11.3280   -6.2910 N   0  0  0  0  0
  -11.5430   11.0020   -6.2220 C   0  0  0  0  0
  -11.2710    9.5750   -6.6270 C   0  0  0  0  0
  -11.9130    8.5280   -5.7200 C   0  0  0  0  0
  -11.5420    7.1150   -6.0880 C   0  0  0  0  0
  -11.5210    8.7670   -4.2490 C   0  0  0  0  0
  -10.7360   12.0110   -7.0420 C   0  0  0  0  0
  -11.1720   13.1450   -7.2730 O   0  0  0  0  0
   -9.4480   11.6790   -7.5310 N   0  0  0  0  0
   -8.6650   12.6830   -8.3030 C   0  0  0  0  0
   -7.8610   13.7080   -7.5010 C   0  0  0  0  0
   -8.7170   14.7520   -6.7690 C   0  0  0  0  0
   -8.1430   16.0660   -6.2490 C   0  0  0  0  0
   -7.1500   16.0210   -5.1780 N   0  0  0  0  0
   -6.0740   17.0420   -5.1460 C   0  0  0  0  0
   -6.0560   17.9850   -6.0930 N   0  0  0  0  0
   -5.1550   17.0080   -4.2030 N   0  0  0  0  0
  -16.8077   13.2916   -4.0032 H   0  0  0  0  0
  -15.9253   10.4363   -5.6484 H   0  0  0  0  0
  -15.6453   10.7537   -3.9135 H   0  0  0  0  0
  -15.1811   13.1409   -4.5279 H   0  0  0  0  0
  -16.3245   12.7412   -6.6671 H   0  0  0  0  0
  -13.5185   11.1270   -7.1381 H   0  0  0  0  0
  -11.2180   11.0835   -5.1848 H   0  0  0  0  0
  -10.1925    9.4272   -6.5722 H   0  0  0  0  0
  -11.6946    9.4389   -7.6220 H   0  0  0  0  0
  -12.9886    8.6413   -5.8557 H   0  0  0  0  0
  -11.8655    6.9098   -7.1085 H   0  0  0  0  0
  -10.4610    6.9943   -6.0169 H   0  0  0  0  0
  -12.0320    6.4222   -5.4039 H   0  0  0  0  0
  -10.4375    8.7042   -4.1483 H   0  0  0  0  0
  -11.8592    9.7562   -3.9403 H   0  0  0  0  0
  -11.9900    8.0091   -3.6216 H   0  0  0  0  0
   -9.0578   10.7533   -7.3543 H   0  0  0  0  0
   -9.3975   13.2583   -8.8692 H   0  0  0  0  0
   -7.9322   12.1123   -8.8734 H   0  0  0  0  0
   -7.2336   14.2484   -8.2098 H   0  0  0  0  0
   -7.3080   13.1570   -6.7403 H   0  0  0  0  0
   -9.0230   14.2339   -5.8601 H   0  0  0  0  0
   -9.4288   15.0720   -7.5300 H   0  0  0  0  0
   -8.9938   16.5994   -5.8251 H   0  0  0  0  0
   -7.6228   16.5051   -7.1002 H   0  0  0  0  0
   -7.1960   15.2967   -4.4613 H   0  0  0  0  0
   -5.3224   18.6937   -6.0931 H   0  0  0  0  0
   -6.7758   17.9959   -6.8156 H   0  0  0  0  0
   -5.1814   16.2779   -3.4912 H   0  0  0  0  0
  1  2  1  0  0  0
  1  3  2  0  0  0
  1  4  1  0  0  0
  4  5  1  0  0  0
  5  6  1  0  0  0
  5  7  1  0  0  0
  7  8  2  0  0  0
  7  9  1  0  0  0
  9 10  1  0  0  0
 10 11  1  0  0  0
 10 15  1  0  0  0
 11 12  1  0  0  0
 12 13  1  0  0  0
 12 14  1  0  0  0
 15 16  2  0  0  0
 15 17  1  0  0  0
 17 18  1  0  0  0
 18 19  1  0  0  0
 19 20  1  0  0  0
 20 21  1  0  0  0
 21 22  1  0  0  0
 22 23  1  0  0  0
 23 24  1  0  0  0
 23 25  2  0  0  0
  2 26  1  0  0  0
  4 27  1  0  0  0
  4 28  1  0  0  0
  5 29  1  0  0  0
  6 30  1  0  0  0
  9 31  1  0  0  0
 10 32  1  0  0  0
 11 33  1  0  0  0
 11 34  1  0  0  0
 12 35  1  0  0  0
 13 36  1  0  0  0
 13 37  1  0  0  0
 13 38  1  0  0  0
 14 39  1  0  0  0
 14 40  1  0  0  0
 14 41  1  0  0  0
 17 42  1  0  0  0
 18 43  1  0  0  0
 18 44  1  0  0  0
 19 45  1  0  0  0
 19 46  1  0  0  0
 20 47  1  0  0  0
 20 48  1  0  0  0
 21 49  1  0  0  0
 21 50  1  0  0  0
 22 51  1  0  0  0
 24 52  1  0  0  0
 24 53  1  0  0  0
 25 54  1  0  0  0
M  END
$$$$
