3oz1_ligand
  -I-interpret- 

 94 98  0  0  0  0  0  0  0  0999 V2000
  -16.8850  -30.0740   -9.4590 C   0  0  0  0  0
  -14.7320  -29.0990   -9.9240 N   0  3  0  0  0
  -17.0450  -29.8990   -8.2450 O   0  0  0  0  0
  -15.5080  -30.3450  -10.0310 C   0  0  0  0  0
  -14.8390  -31.5230   -9.2880 C   0  0  0  0  0
  -15.7880  -32.7150   -9.1350 C   0  0  0  0  0
  -14.3400  -28.7890   -8.5300 C   0  0  0  0  0
  -22.6810  -31.8650  -11.5930 O   0  0  0  0  0
  -19.5850  -32.1690  -10.5790 O   0  0  0  0  0
  -14.7170  -23.7300   -8.5040 C   0  0  0  0  0
  -22.4880  -38.3340  -13.6650 C   0  0  0  0  0
  -27.7380  -33.1430  -12.3770 C   0  0  0  0  0
  -14.4090  -23.3610   -9.8170 C   0  0  0  0  0
  -15.7670  -24.6210   -8.2620 C   0  0  0  0  0
  -21.5240  -37.3920  -13.3160 C   0  0  0  0  0
  -23.8290  -37.9940  -13.6010 C   0  0  0  0  0
  -26.7730  -32.3650  -13.0240 C   0  0  0  0  0
  -27.3740  -34.3230  -11.7170 C   0  0  0  0  0
  -15.1710  -23.8670  -10.8760 C   0  0  0  0  0
  -16.5200  -25.1320   -9.3260 C   0  0  0  0  0
  -21.9080  -36.1200  -12.9070 C   0  0  0  0  0
  -24.2130  -36.7240  -13.1760 C   0  0  0  0  0
  -25.4500  -32.8020  -13.0230 C   0  0  0  0  0
  -26.0390  -34.7380  -11.6870 C   0  0  0  0  0
  -18.8630  -26.8580  -12.0260 C   0  0  0  0  0
  -19.3140  -28.3260  -11.9950 C   0  0  0  0  0
  -21.4690  -28.8680  -10.6950 C   0  0  0  0  0
  -22.1110  -28.9470   -9.2950 C   0  0  0  0  0
  -23.3620  -30.9290   -8.4770 C   0  0  0  0  0
  -23.0600  -32.4200   -8.3580 C   0  0  0  0  0
  -17.0260  -25.3160  -11.8390 C   0  0  0  0  0
  -17.4410  -26.7240  -11.6580 N   0  3  0  0  0
  -17.8630  -30.0840  -10.3510 N   0  0  0  0  0
  -23.0110  -34.0360  -11.0570 N   0  0  0  0  0
  -22.6040  -32.7950  -10.7910 C   0  0  0  0  0
  -20.0500  -31.1930   -9.9770 C   0  0  0  0  0
  -16.2080  -24.7770  -10.6440 C   0  0  0  0  0
  -23.2540  -35.7850  -12.8170 C   0  0  0  0  0
  -25.0850  -33.9880  -12.3720 C   0  0  0  0  0
  -19.9380  -28.6880  -10.6190 C   0  0  0  0  0
  -21.9790  -30.3160   -8.5970 C   0  0  0  0  0
  -21.9760  -32.6000   -9.4130 C   0  0  0  0  0
  -19.2520  -29.8770   -9.9210 C   0  0  0  0  0
  -23.6090  -34.3670  -12.3590 C   0  0  0  0  0
  -21.2340  -31.3260   -9.3810 N   0  0  0  0  0
  -15.3172  -28.3352  -10.2624 H   0  0  0  0  0
  -13.8790  -29.2128  -10.4716 H   0  0  0  0  0
  -15.5661  -30.6409  -11.0785 H   0  0  0  0  0
  -14.5555  -31.1820   -8.2923 H   0  0  0  0  0
  -13.9750  -31.8465   -9.8685 H   0  0  0  0  0
  -16.6666  -32.4078   -8.5677 H   0  0  0  0  0
  -16.0943  -33.0629  -10.1215 H   0  0  0  0  0
  -15.2763  -33.5198   -8.6072 H   0  0  0  0  0
  -15.2353  -28.6796   -7.9180 H   0  0  0  0  0
  -13.7268  -29.6002   -8.1374 H   0  0  0  0  0
  -13.7704  -27.8599   -8.5122 H   0  0  0  0  0
  -14.1408  -23.3246   -7.6723 H   0  0  0  0  0
  -22.1894  -39.3319  -13.9863 H   0  0  0  0  0
  -28.7816  -32.8285  -12.3865 H   0  0  0  0  0
  -13.5792  -22.6824  -10.0147 H   0  0  0  0  0
  -16.0005  -24.9193   -7.2399 H   0  0  0  0  0
  -20.4666  -37.6522  -13.3635 H   0  0  0  0  0
  -24.5876  -38.7235  -13.8845 H   0  0  0  0  0
  -27.0504  -31.4346  -13.5196 H   0  0  0  0  0
  -28.1377  -34.9232  -11.2224 H   0  0  0  0  0
  -14.9537  -23.5479  -11.8953 H   0  0  0  0  0
  -17.3516  -25.8082   -9.1277 H   0  0  0  0  0
  -21.1482  -35.3802  -12.6551 H   0  0  0  0  0
  -25.2708  -36.4659  -13.1249 H   0  0  0  0  0
  -24.6889  -32.2136  -13.5354 H   0  0  0  0  0
  -25.7494  -35.6333  -11.1369 H   0  0  0  0  0
  -19.4608  -26.2970  -11.3077 H   0  0  0  0  0
  -18.9960  -26.4763  -13.0383 H   0  0  0  0  0
  -18.4451  -28.9623  -12.1631 H   0  0  0  0  0
  -20.0651  -28.4774  -12.7702 H   0  0  0  0  0
  -21.8883  -28.0063  -11.2144 H   0  0  0  0  0
  -21.6771  -29.8010  -11.2188 H   0  0  0  0  0
  -23.1770  -28.7606   -9.4255 H   0  0  0  0  0
  -21.5921  -28.2217   -8.6683 H   0  0  0  0  0
  -23.9266  -30.5409   -7.6292 H   0  0  0  0  0
  -24.0065  -30.6923   -9.3236 H   0  0  0  0  0
  -23.9319  -33.0543   -8.5179 H   0  0  0  0  0
  -22.7480  -32.7220   -7.3582 H   0  0  0  0  0
  -17.9277  -24.7101  -11.9278 H   0  0  0  0  0
  -16.3954  -25.2644  -12.7266 H   0  0  0  0  0
  -16.8739  -27.3284  -12.2526 H   0  0  0  0  0
  -17.3109  -26.9980  -10.6841 H   0  0  0  0  0
  -17.6519  -30.2355  -11.3373 H   0  0  0  0  0
  -22.9066  -34.7638  -10.3500 H   0  0  0  0  0
  -19.7469  -27.8231   -9.9837 H   0  0  0  0  0
  -21.4659  -30.1092   -7.6578 H   0  0  0  0  0
  -21.3459  -33.4686   -9.2216 H   0  0  0  0  0
  -19.2280  -29.5778   -8.8731 H   0  0  0  0  0
  -23.1617  -33.7547  -13.1420 H   0  0  0  0  0
  1  3  2  0  0  0
  1  4  1  0  0  0
 33  1  1  0  0  0
  4  2  1  0  0  0
  2  7  1  0  0  0
  4  5  1  0  0  0
  5  6  1  0  0  0
 35  8  2  0  0  0
 36  9  2  0  0  0
 13 10  4  0  0  0
 14 10  4  0  0  0
 15 11  4  0  0  0
 16 11  4  0  0  0
 17 12  4  0  0  0
 18 12  4  0  0  0
 19 13  4  0  0  0
 20 14  4  0  0  0
 21 15  4  0  0  0
 22 16  4  0  0  0
 23 17  4  0  0  0
 24 18  4  0  0  0
 37 19  4  0  0  0
 37 20  4  0  0  0
 38 21  4  0  0  0
 38 22  4  0  0  0
 39 23  4  0  0  0
 39 24  4  0  0  0
 26 25  1  0  0  0
 25 32  1  0  0  0
 40 26  1  0  0  0
 27 28  1  0  0  0
 40 27  1  0  0  0
 28 41  1  0  0  0
 29 30  1  0  0  0
 41 29  1  0  0  0
 30 42  1  0  0  0
 32 31  1  0  0  0
 31 37  1  0  0  0
 43 33  1  0  0  0
 35 34  1  0  0  0
 34 44  1  0  0  0
 42 35  1  0  0  0
 43 36  1  0  0  0
 36 45  1  0  0  0
 44 38  1  0  0  0
 44 39  1  0  0  0
 40 43  1  0  0  0
 41 45  1  0  0  0
 42 45  1  0  0  0
  2 46  1  0  0  0
  2 47  1  0  0  0
  4 48  1  0  0  0
  5 49  1  0  0  0
  5 50  1  0  0  0
  6 51  1  0  0  0
  6 52  1  0  0  0
  6 53  1  0  0  0
  7 54  1  0  0  0
  7 55  1  0  0  0
  7 56  1  0  0  0
 10 57  1  0  0  0
 11 58  1  0  0  0
 12 59  1  0  0  0
 13 60  1  0  0  0
 14 61  1  0  0  0
 15 62  1  0  0  0
 16 63  1  0  0  0
 17 64  1  0  0  0
 18 65  1  0  0  0
 19 66  1  0  0  0
 20 67  1  0  0  0
 21 68  1  0  0  0
 22 69  1  0  0  0
 23 70  1  0  0  0
 24 71  1  0  0  0
 25 72  1  0  0  0
 25 73  1  0  0  0
 26 74  1  0  0  0
 26 75  1  0  0  0
 27 76  1  0  0  0
 27 77  1  0  0  0
 28 78  1  0  0  0
 28 79  1  0  0  0
 29 80  1  0  0  0
 29 81  1  0  0  0
 30 82  1  0  0  0
 30 83  1  0  0  0
 31 84  1  0  0  0
 31 85  1  0  0  0
 32 86  1  0  0  0
 32 87  1  0  0  0
 33 88  1  0  0  0
 34 89  1  0  0  0
 40 90  1  0  0  0
 41 91  1  0  0  0
 42 92  1  0  0  0
 43 93  1  0  0  0
 44 94  1  0  0  0
M  END
$$$$
