5jzb_ligand
  -I-interpret- 

 17 17  0  0  0  0  0  0  0  0999 V2000
    2.8780   -2.5190   16.1880 N   0  0  0  0  0
    4.5680    1.6570   14.3360 C   0  0  0  0  0
    5.7160    1.2020   13.7030 C   0  0  0  0  0
    5.8680   -0.1470   13.4160 C   0  0  0  0  0
    4.8670   -1.0380   13.7630 C   0  0  0  0  0
    3.7260   -0.5780   14.3980 C   0  0  0  0  0
    3.5660    0.7660   14.6870 C   0  0  0  0  0
    4.3970    3.3410   14.6820 Cl  0  0  0  0  0
    7.2960   -0.7110   12.6260 Cl  0  0  0  0  0
    2.4660   -1.7210   14.8290 S   0  0  0  0  0
    1.1930   -1.0530   14.9660 O   0  0  0  0  0
    2.2220   -2.6120   13.7210 O   0  0  0  0  0
    2.2578   -2.5015   16.9976 H   0  0  0  0  0
    3.7562   -3.0362   16.2294 H   0  0  0  0  0
    6.5013    1.9070   13.4302 H   0  0  0  0  0
    4.9768   -2.0986   13.5369 H   0  0  0  0  0
    2.6629    1.1195   15.1846 H   0  0  0  0  0
 10  1  1  0  0  0
  2  3  4  0  0  0
  7  2  4  0  0  0
  2  8  1  0  0  0
  4  3  4  0  0  0
  5  4  4  0  0  0
  4  9  1  0  0  0
  6  5  4  0  0  0
  6  7  4  0  0  0
  6 10  1  0  0  0
 10 11  2  0  0  0
 10 12  2  0  0  0
  1 13  1  0  0  0
  1 14  1  0  0  0
  3 15  1  0  0  0
  5 16  1  0  0  0
  7 17  1  0  0  0
M  END
$$$$
