1vot_ligand
  -I-interpret- 

 37 39  0  0  0  0  0  0  0  0999 V2000
    1.0960   69.1690   60.6670 C   0  0  0  0  0
    0.5910   69.5470   59.5810 O   0  0  0  0  0
    2.4300   68.8470   60.7360 N   0  0  0  0  0
    0.3550   69.0160   61.8850 C   0  0  0  0  0
    0.9710   68.6140   63.0250 C   0  0  0  0  0
    2.3680   68.3330   63.0880 C   0  0  0  0  0
    3.0880   68.4370   61.8980 C   0  0  0  0  0
    4.5590   68.2360   61.7940 C   0  0  0  0  0
    5.1250   67.5770   63.0860 C   0  0  0  0  0
    4.8110   66.0980   63.1810 C   0  0  0  0  0
    6.4780   69.8190   64.7220 C   0  0  0  0  0
    5.0720   69.3510   64.8500 C   0  0  0  0  0
    4.5400   68.3110   64.2660 C   0  0  0  0  0
    3.0810   67.9710   64.4350 C   0  0  0  0  0
    2.4610   68.7050   65.5570 N   0  3  0  0  0
    2.9410   66.4850   64.7410 C   0  0  0  0  0
    3.8190   65.6040   63.9290 C   0  0  0  0  0
    3.5550   64.1250   64.1060 C   0  0  0  0  0
    2.9784   68.9119   59.8784 H   0  0  0  0  0
   -0.7147   69.2249   61.8951 H   0  0  0  0  0
    0.3739   68.5011   63.9299 H   0  0  0  0  0
    5.0358   69.2068   61.6590 H   0  0  0  0  0
    4.7632   67.5793   60.9483 H   0  0  0  0  0
    6.2123   67.6520   63.0685 H   0  0  0  0  0
    5.4250   65.4011   62.6105 H   0  0  0  0  0
    7.1532   69.0349   65.0646 H   0  0  0  0  0
    6.6887   70.0511   63.6781 H   0  0  0  0  0
    6.6189   70.7127   65.3298 H   0  0  0  0  0
    4.4187   69.9359   65.4975 H   0  0  0  0  0
    2.5353   69.7081   65.3878 H   0  0  0  0  0
    1.4779   68.4433   65.6310 H   0  0  0  0  0
    2.9432   68.4686   66.4242 H   0  0  0  0  0
    1.9118   66.2077   64.5129 H   0  0  0  0  0
    3.2257   66.3457   65.7839 H   0  0  0  0  0
    3.3510   63.6748   63.1345 H   0  0  0  0  0
    4.4304   63.6516   64.5506 H   0  0  0  0  0
    2.6940   63.9866   64.7600 H   0  0  0  0  0
  1  4  1  0  0  0
  1  3  1  0  0  0
  1  2  2  0  0  0
  3  7  1  0  0  0
  7  8  1  0  0  0
  7  6  2  0  0  0
  6 14  1  0  0  0
  6  5  1  0  0  0
  5  4  2  0  0  0
 14 16  1  0  0  0
 14 15  1  0  0  0
 14 13  1  0  0  0
 13 12  2  0  0  0
 13  9  1  0  0  0
  9 10  1  0  0  0
  9  8  1  0  0  0
 10 17  2  0  0  0
 17 18  1  0  0  0
 17 16  1  0  0  0
 12 11  1  0  0  0
  3 19  1  0  0  0
  4 20  1  0  0  0
  5 21  1  0  0  0
  8 22  1  0  0  0
  8 23  1  0  0  0
  9 24  1  0  0  0
 10 25  1  0  0  0
 11 26  1  0  0  0
 11 27  1  0  0  0
 11 28  1  0  0  0
 12 29  1  0  0  0
 15 30  1  0  0  0
 15 31  1  0  0  0
 15 32  1  0  0  0
 16 33  1  0  0  0
 16 34  1  0  0  0
 18 35  1  0  0  0
 18 36  1  0  0  0
 18 37  1  0  0  0
M  END
$$$$
