3ioi_ligand
  -I-interpret- 

 75 78  0  0  0  0  0  0  0  0999 V2000
   16.4000   22.9620    7.8810 N   0  0  0  0  0
   17.5710   23.7460    8.1380 C   0  0  0  0  0
   18.0270   24.3870    7.2420 O   0  0  0  0  0
   18.1510   23.7060    9.4500 N   0  0  0  0  0
   17.6100   22.9530   10.4510 C   0  0  0  0  0
   18.0910   22.9570   11.5530 O   0  0  0  0  0
   16.3280   22.1380   10.1470 C   0  0  0  0  0
   15.7840   22.1280    8.9040 C   0  0  0  0  0
   14.4720   18.2240    7.3940 P   0  0  0  0  0
   12.3840   16.2990    6.6310 P   0  0  0  0  0
   10.0340   17.1030    5.5420 C   0  0  0  0  0
   15.1660   17.9180    5.9600 O   0  0  0  0  0
   11.5180   15.2460    7.5580 O   0  0  0  0  0
   15.8490   23.0590    6.5220 C   0  0  0  0  0
    9.9340   17.7670    4.1920 C   0  0  0  0  0
   10.8790   17.2180    3.3060 O   0  0  0  0  0
   15.2960   17.9000    8.5510 O   0  0  0  0  0
   13.2470   15.6800    5.6150 O   0  0  0  0  0
   16.6380   22.2810    5.4870 C   0  0  0  0  0
   16.6110   22.8520    4.1830 O   0  0  0  0  0
   10.2200   19.2590    4.4130 C   0  0  0  0  0
   10.2440   19.9630    3.1880 O   0  0  0  0  0
   13.1340   17.2940    7.6870 O   0  0  0  0  0
   11.3380   17.4180    5.9890 O   0  0  0  0  0
   15.9680   20.9190    5.5510 C   0  0  0  0  0
   16.2670   20.0750    4.4580 O   0  0  0  0  0
    9.1020   19.8070    5.3450 C   0  0  0  0  0
    7.8580   19.8410    4.6660 O   0  0  0  0  0
   14.4620   21.3440    5.6520 C   0  0  0  0  0
   14.5170   22.5180    6.5470 O   0  0  0  0  0
    9.0770   19.0300    6.7210 C   0  0  0  0  0
    9.0200   17.5970    6.4310 O   0  0  0  0  0
   13.4540   20.2820    6.1990 C   0  0  0  0  0
   13.9850   19.7610    7.4240 O   0  0  0  0  0
    7.9270   19.4510    7.6650 C   0  0  0  0  0
    8.0640   20.6790    8.3040 O   0  0  0  0  0
   15.0420   20.1640   15.8650 O   0  0  0  0  0
   14.2630   19.4870   12.3550 C   0  0  0  0  0
   14.5000   20.2880   11.0330 C   0  0  0  0  0
   16.3330   21.0030   12.7270 S   0  0  0  0  0
   15.4340   19.3150   14.8290 C   0  0  0  0  0
   15.3450   19.8780   13.4170 C   0  0  0  0  0
   15.7230   21.2240   11.2280 C   0  0  0  0  0
   18.9897   24.2549    9.6392 H   0  0  0  0  0
   14.9121   21.5142    8.6778 H   0  0  0  0  0
    9.8737   16.0257    5.4995 H   0  0  0  0  0
   14.5604   18.1581    5.2549 H   0  0  0  0  0
   10.9875   15.7383    8.1887 H   0  0  0  0  0
   15.8832   24.1104    6.2364 H   0  0  0  0  0
    8.9470   17.6161    3.7547 H   0  0  0  0  0
   10.8038   17.6498    2.4519 H   0  0  0  0  0
   17.7077   22.2618    5.6956 H   0  0  0  0  0
   17.1291   22.3076    3.5857 H   0  0  0  0  0
   11.2015   19.3931    4.8678 H   0  0  0  0  0
   10.4244   20.8907    3.3568 H   0  0  0  0  0
   16.3061   20.2925    6.3764 H   0  0  0  0  0
   15.8107   19.2375    4.5677 H   0  0  0  0  0
    9.3222   20.8419    5.6070 H   0  0  0  0  0
    7.1817   20.1814    5.2563 H   0  0  0  0  0
   14.0661   21.5188    4.6516 H   0  0  0  0  0
    9.9865   19.2856    7.2646 H   0  0  0  0  0
   13.3206   19.4793    5.4737 H   0  0  0  0  0
   12.4807   20.7403    6.3741 H   0  0  0  0  0
    7.8972   18.7017    8.4560 H   0  0  0  0  0
    7.0388   19.5349    7.0387 H   0  0  0  0  0
    7.2977   20.8361    8.8605 H   0  0  0  0  0
   15.1387   19.7084   16.7045 H   0  0  0  0  0
   14.3340   18.4196   12.1460 H   0  0  0  0  0
   13.2736   19.7239   12.7462 H   0  0  0  0  0
   13.6159   20.8798   10.7960 H   0  0  0  0  0
   14.6906   19.5973   10.2116 H   0  0  0  0  0
   14.7498   18.4670   14.8590 H   0  0  0  0  0
   16.4881   19.0969   15.0006 H   0  0  0  0  0
   15.5425   19.5049   14.4219 H   0  0  0  0  0
   15.8588   22.1423   10.6567 H   0  0  0  0  0
  1  2  1  0  0  0
  8  1  1  0  0  0
  1 14  1  0  0  0
  2  3  2  0  0  0
  4  2  1  0  0  0
  5  4  1  0  0  0
  5  6  2  0  0  0
  7  5  1  0  0  0
  7  8  2  0  0  0
 43  7  1  0  0  0
  9 12  1  0  0  0
  9 17  2  0  0  0
  9 23  1  0  0  0
 34  9  1  0  0  0
 10 13  1  0  0  0
 10 18  2  0  0  0
 23 10  1  0  0  0
 10 24  1  0  0  0
 11 15  1  0  0  0
 24 11  1  0  0  0
 11 32  1  0  0  0
 14 19  1  0  0  0
 14 30  1  0  0  0
 15 16  1  0  0  0
 15 21  1  0  0  0
 19 20  1  0  0  0
 19 25  1  0  0  0
 21 22  1  0  0  0
 21 27  1  0  0  0
 25 26  1  0  0  0
 29 25  1  0  0  0
 27 28  1  0  0  0
 31 27  1  0  0  0
 30 29  1  0  0  0
 29 33  1  0  0  0
 32 31  1  0  0  0
 31 35  1  0  0  0
 33 34  1  0  0  0
 35 36  1  0  0  0
 41 37  1  0  0  0
 38 39  1  0  0  0
 42 38  1  0  0  0
 43 39  1  0  0  0
 42 40  1  0  0  0
 40 43  1  0  0  0
 41 42  1  0  0  0
  4 44  1  0  0  0
  8 45  1  0  0  0
 11 46  1  0  0  0
 12 47  1  0  0  0
 13 48  1  0  0  0
 14 49  1  0  0  0
 15 50  1  0  0  0
 16 51  1  0  0  0
 19 52  1  0  0  0
 20 53  1  0  0  0
 21 54  1  0  0  0
 22 55  1  0  0  0
 25 56  1  0  0  0
 26 57  1  0  0  0
 27 58  1  0  0  0
 28 59  1  0  0  0
 29 60  1  0  0  0
 31 61  1  0  0  0
 33 62  1  0  0  0
 33 63  1  0  0  0
 35 64  1  0  0  0
 35 65  1  0  0  0
 36 66  1  0  0  0
 37 67  1  0  0  0
 38 68  1  0  0  0
 38 69  1  0  0  0
 39 70  1  0  0  0
 39 71  1  0  0  0
 41 72  1  0  0  0
 41 73  1  0  0  0
 42 74  1  0  0  0
 43 75  1  0  0  0
M  END
$$$$
