### 
### Created by X-TOOL on Mon Sep 10 21:13:02 2018
### 

@<TRIPOS>MOLECULE
3ioi_ligand
   72    75     1     0     0
SMALL
GAST_HUCK


@<TRIPOS>ATOM
      1 N1         16.4000   22.9620    7.8810 N.am      1 1GW        -0.1844
      2 C2         17.5710   23.7460    8.1380 C.2       1 1GW         0.3277
      3 O2         18.0270   24.3870    7.2420 O.2       1 1GW        -0.3818
      4 N3         18.1510   23.7060    9.4500 N.am      1 1GW        -0.1827
      5 C4         17.6100   22.9530   10.4510 C.2       1 1GW         0.2036
      6 O4         18.0910   22.9570   11.5530 O.2       1 1GW        -0.3949
      7 C5         16.3280   22.1380   10.1470 C.2       1 1GW         0.0413
      8 C6         15.7840   22.1280    8.9040 C.2       1 1GW         0.0366
      9 PA         14.4720   18.2240    7.3940 P.3       1 1GW         0.2972
     10 PB         12.3840   16.2990    6.6310 P.3       1 1GW         0.2997
     11 C1'        10.0340   17.1030    5.5420 C.3       1 1GW         0.2226
     12 O1A        15.1660   17.9180    5.9600 O.co2     1 1GW        -0.6127
     13 O1B        11.5180   15.2460    7.5580 O.co2     1 1GW        -0.6127
     14 C1D        15.8490   23.0590    6.5220 C.3       1 1GW         0.2006
     15 C2'         9.9340   17.7670    4.1920 C.3       1 1GW         0.1392
     16 O2'        10.8790   17.2180    3.3060 O.3       1 1GW        -0.3837
     17 O2A        15.2960   17.9000    8.5510 O.co2     1 1GW        -0.6127
     18 O2B        13.2470   15.6800    5.6150 O.co2     1 1GW        -0.6127
     19 C2D        16.6380   22.2810    5.4870 C.3       1 1GW         0.1385
     20 O2D        16.6110   22.8520    4.1830 O.3       1 1GW        -0.3836
     21 C3'        10.2200   19.2590    4.4130 C.3       1 1GW         0.1144
     22 O3'        10.2440   19.9630    3.1880 O.3       1 1GW        -0.3864
     23 O3A        13.1340   17.2940    7.6870 O.3       1 1GW        -0.1318
     24 O3B        11.3380   17.4180    5.9890 O.3       1 1GW        -0.2154
     25 C3D        15.9680   20.9190    5.5510 C.3       1 1GW         0.1149
     26 O3D        16.2670   20.0750    4.4580 O.3       1 1GW        -0.3864
     27 C4'         9.1020   19.8070    5.3450 C.3       1 1GW         0.1119
     28 O4'         7.8580   19.8410    4.6660 O.3       1 1GW        -0.3865
     29 C4D        14.4620   21.3440    5.6520 C.3       1 1GW         0.1189
     30 O4D        14.5170   22.5180    6.5470 O.3       1 1GW        -0.3364
     31 C5'         9.0770   19.0300    6.7210 C.3       1 1GW         0.1133
     32 O5'         9.0200   17.5970    6.4310 O.3       1 1GW        -0.3364
     33 C5D        13.4540   20.2820    6.1990 C.3       1 1GW         0.1128
     34 O5D        13.9850   19.7610    7.4240 O.3       1 1GW        -0.2476
     35 C6'         7.9270   19.4510    7.6650 C.3       1 1GW         0.0730
     36 O6'         8.0640   20.6790    8.3040 O.3       1 1GW        -0.3924
     37 OAB        15.0420   20.1640   15.8650 O.3       1 1GW        -0.3937
     38 CAP        14.2630   19.4870   12.3550 C.3       1 1GW        -0.0281
     39 CAQ        14.5000   20.2880   11.0330 C.3       1 1GW        -0.0207
     40 SAZ        16.3330   21.0030   12.7270 S.3       1 1GW        -0.1117
     41 CBA        15.4340   19.3150   14.8290 C.3       1 1GW         0.0584
     42 CBE        15.3450   19.8780   13.4170 C.3       1 1GW         0.0420
     43 CBF        15.7230   21.2240   11.2280 C.2       1 1GW        -0.0111
     44 H          18.9897   24.2549    9.6392 H         1 1GW         0.2260
     45 H          14.9121   21.5142    8.6778 H         1 1GW         0.0746
     46 H           9.8737   16.0257    5.4995 H         1 1GW         0.0999
     47 H          15.8832   24.1104    6.2364 H         1 1GW         0.0996
     48 H           8.9470   17.6161    3.7547 H         1 1GW         0.0675
     49 H          11.7620   17.3533    3.6576 H         1 1GW         0.2101
     50 H          17.7077   22.2618    5.6956 H         1 1GW         0.0676
     51 H          16.9821   23.7368    4.2146 H         1 1GW         0.2101
     52 H          11.2015   19.3931    4.8678 H         1 1GW         0.0648
     53 H          10.9312   19.5995    2.6247 H         1 1GW         0.2100
     54 H          16.3061   20.2925    6.3764 H         1 1GW         0.0648
     55 H          15.8107   19.2375    4.5676 H         1 1GW         0.2100
     56 H           9.3222   20.8419    5.6070 H         1 1GW         0.0647
     57 H           7.9299   20.4114    3.8971 H         1 1GW         0.2100
     58 H          14.0661   21.5188    4.6516 H         1 1GW         0.0651
     59 H           9.9865   19.2856    7.2646 H         1 1GW         0.0647
     60 H          13.3206   19.4793    5.4737 H         1 1GW         0.0648
     61 H          12.4807   20.7403    6.3741 H         1 1GW         0.0648
     62 H           7.8972   18.7017    8.4560 H         1 1GW         0.0584
     63 H           7.0388   19.5349    7.0387 H         1 1GW         0.0584
     64 H           8.1313   21.3750    7.6462 H         1 1GW         0.2095
     65 H          15.1387   19.7084   16.7045 H         1 1GW         0.2095
     66 H          14.3340   18.4196   12.1460 H         1 1GW         0.0302
     67 H          13.2736   19.7239   12.7462 H         1 1GW         0.0302
     68 H          13.6159   20.8798   10.7960 H         1 1GW         0.0422
     69 H          14.6906   19.5973   10.2116 H         1 1GW         0.0422
     70 H          14.7498   18.4670   14.8590 H         1 1GW         0.0570
     71 H          16.4881   19.0969   15.0006 H         1 1GW         0.0570
     72 H          15.5425   19.5049   14.4219 H         1 1GW         0.0464
@<TRIPOS>BOND
     1    1    2 am 
     2    8    1 1  
     3    1   14 1  
     4    2    3 2  
     5    4    2 am 
     6    5    4 am 
     7    5    6 2  
     8    7    5 1  
     9    7    8 2  
    10   43    7 1  
    11    9   12 ar 
    12    9   17 ar 
    13    9   23 1  
    14   34    9 1  
    15   10   13 ar 
    16   10   18 ar 
    17   23   10 1  
    18   10   24 1  
    19   11   15 1  
    20   24   11 1  
    21   11   32 1  
    22   14   19 1  
    23   14   30 1  
    24   15   16 1  
    25   15   21 1  
    26   19   20 1  
    27   19   25 1  
    28   21   22 1  
    29   21   27 1  
    30   25   26 1  
    31   29   25 1  
    32   27   28 1  
    33   31   27 1  
    34   30   29 1  
    35   29   33 1  
    36   32   31 1  
    37   31   35 1  
    38   33   34 1  
    39   35   36 1  
    40   41   37 1  
    41   38   39 1  
    42   42   38 1  
    43   43   39 1  
    44   42   40 1  
    45   40   43 1  
    46   41   42 1  
    47    4   44 1  
    48    8   45 1  
    49   11   46 1  
    50   14   47 1  
    51   15   48 1  
    52   16   49 1  
    53   19   50 1  
    54   20   51 1  
    55   21   52 1  
    56   22   53 1  
    57   25   54 1  
    58   26   55 1  
    59   27   56 1  
    60   28   57 1  
    61   29   58 1  
    62   31   59 1  
    63   33   60 1  
    64   33   61 1  
    65   35   62 1  
    66   35   63 1  
    67   36   64 1  
    68   37   65 1  
    69   38   66 1  
    70   38   67 1  
    71   39   68 1  
    72   39   69 1  
    73   41   70 1  
    74   41   71 1  
    75   42   72 1  
@<TRIPOS>SUBSTRUCTURE
     1 1GW         1

