1we2_ligand
  -I-interpret- 

 22 22  0  0  0  0  0  0  0  0999 V2000
   26.4290   33.2040   30.5960 C   0  0  0  0  0
   26.8270   34.4880   29.8570 C   0  0  0  0  0
   26.4230   34.3770   28.4570 O   0  0  0  0  0
   26.1820   35.7480   30.3530 C   0  0  0  0  0
   26.2460   36.6930   29.2460 O   0  0  0  0  0
   24.7490   35.4660   30.6760 C   0  0  0  0  0
   25.4110   33.2580   31.5350 C   0  0  0  0  0
   24.7510   34.4860   31.8360 C   0  0  0  0  0
   24.9920   32.0690   32.2090 C   0  0  0  0  0
   25.8670   31.1210   32.4560 O   0  0  0  0  0
   23.7350   32.0920   32.5010 O   0  0  0  0  0
   24.0790   36.7190   31.1310 O   0  0  0  0  0
   26.9389   32.2638   30.3859 H   0  0  0  0  0
   27.9018   34.5691   30.0190 H   0  0  0  0  0
   26.8062   33.5833   28.0765 H   0  0  0  0  0
   26.6754   36.1353   31.2444 H   0  0  0  0  0
   27.1646   36.8763   29.0359 H   0  0  0  0  0
   24.2268   35.0740   29.8032 H   0  0  0  0  0
   23.7128   34.2530   32.0725 H   0  0  0  0  0
   25.2862   34.9541   32.6621 H   0  0  0  0  0
   26.7268   31.3855   32.1209 H   0  0  0  0  0
   24.0670   37.3537   30.4109 H   0  0  0  0  0
  1  2  1  0  0  0
  1  7  2  0  0  0
  2  3  1  0  0  0
  2  4  1  0  0  0
  4  5  1  0  0  0
  4  6  1  0  0  0
  6  8  1  0  0  0
  6 12  1  0  0  0
  7  8  1  0  0  0
  7  9  1  0  0  0
  9 10  1  0  0  0
  9 11  2  0  0  0
  1 13  1  0  0  0
  2 14  1  0  0  0
  3 15  1  0  0  0
  4 16  1  0  0  0
  5 17  1  0  0  0
  6 18  1  0  0  0
  8 19  1  0  0  0
  8 20  1  0  0  0
 10 21  1  0  0  0
 12 22  1  0  0  0
M  END
$$$$
