5jfu_ligand
  -I-interpret- 

 92 98  0  0  0  0  0  0  0  0999 V2000
   21.2020   27.7500   14.8740 C   0  0  0  0  0
   19.1050   26.5640   14.7810 C   0  0  0  0  0
   21.0220   25.5830   15.8940 C   0  0  0  0  0
   21.8070   26.6860   15.5460 C   0  0  0  0  0
   19.5920   22.9920   16.1900 O   0  0  0  0  0
   17.8940   24.4430   17.3900 N   0  0  0  0  0
   16.5910   25.0680   17.2240 C   0  0  0  0  0
   15.5040   24.1500   17.8100 C   0  0  0  0  0
   14.3280   24.9180   18.0670 O   0  0  0  0  0
   14.5520   20.8560   18.0140 C   0  0  0  0  0
   10.4980   18.7660   18.3560 O   0  0  0  0  0
   11.1540   19.4680   17.3090 C   0  0  0  0  0
   12.3330   18.5660   16.9170 C   0  0  0  0  0
   12.7410   17.9530   18.2600 C   0  0  0  0  0
   14.5390   23.4250   15.5730 C   0  0  0  0  0
   21.9210   28.8510   14.5340 O   0  0  0  0  0
   23.2390   28.8220   15.0740 C   0  0  0  0  0
   19.8600   27.6970   14.5060 C   0  0  0  0  0
   19.6690   25.5730   15.5790 C   0  0  0  0  0
   18.6930   24.1700   15.9830 S   0  0  0  0  0
   17.7050   23.9380   14.8810 O   0  0  0  0  0
   18.7420   24.9740   18.4270 C   0  0  0  0  0
   20.4920   23.8880   19.9110 C   0  0  0  0  0
   20.9200   22.8790   20.7670 C   0  0  0  0  0
   20.0570   21.8570   21.1370 C   0  0  0  0  0
   18.7450   21.8810   20.6690 C   0  0  0  0  0
   18.3200   22.8810   19.8020 C   0  0  0  0  0
   19.1930   23.8870   19.4110 C   0  0  0  0  0
   15.1970   22.9660   16.8870 C   0  0  0  0  0
   14.2340   22.0640   17.5210 N   0  0  0  0  0
   15.6790   20.3850   17.9780 O   0  0  0  0  0
   13.5250   20.1920   18.5960 O   0  0  0  0  0
   13.7750   18.8340   18.9830 C   0  0  0  0  0
   13.2640   18.6830   20.4290 C   0  0  0  0  0
   11.8390   18.7880   20.2860 O   0  0  0  0  0
   11.4860   18.0590   19.1090 C   0  0  0  0  0
   14.2790   22.3950   14.4650 C   0  0  0  0  0
   13.0030   21.6350   14.7710 C   0  0  0  0  0
   12.7470   20.6140   13.6590 C   0  0  0  0  0
   13.9460   19.6640   13.5150 C   0  0  0  0  0
   15.2240   20.4440   13.2160 C   0  0  0  0  0
   15.0470   21.2060   11.9000 C   0  0  0  0  0
   13.8460   22.1430   12.0200 C   0  0  0  0  0
   14.1030   23.1560   13.1410 C   0  0  0  0  0
   15.4670   21.4480   14.3510 C   0  0  0  0  0
   12.5580   21.3750   12.3360 C   0  0  0  0  0
   18.0966   26.4539   14.3820 H   0  0  0  0  0
   21.4697   24.7340   16.4105 H   0  0  0  0  0
   22.8681   26.7149   15.7938 H   0  0  0  0  0
   16.3976   25.2293   16.1635 H   0  0  0  0  0
   16.5780   26.0253   17.7450 H   0  0  0  0  0
   15.8736   23.7289   18.7450 H   0  0  0  0  0
   13.6481   24.3474   18.4328 H   0  0  0  0  0
   11.4854   20.4567   17.6265 H   0  0  0  0  0
   10.4888   19.6581   16.4667 H   0  0  0  0  0
   13.1436   19.1092   16.4313 H   0  0  0  0  0
   12.0690   17.8187   16.1687 H   0  0  0  0  0
   13.1452   16.9513   18.1140 H   0  0  0  0  0
   15.2474   24.1299   15.1378 H   0  0  0  0  0
   13.5493   23.7765   15.8647 H   0  0  0  0  0
   23.1837   28.7760   16.1616 H   0  0  0  0  0
   23.7650   27.9444   14.6982 H   0  0  0  0  0
   23.7731   29.7235   14.7739 H   0  0  0  0  0
   19.4009   28.5468   14.0009 H   0  0  0  0  0
   18.1758   25.7226   18.9812 H   0  0  0  0  0
   19.6292   25.3995   17.9581 H   0  0  0  0  0
   21.1792   24.6859   19.6294 H   0  0  0  0  0
   21.9404   22.8909   21.1500 H   0  0  0  0  0
   20.4000   21.0489   21.7831 H   0  0  0  0  0
   18.0448   21.1080   20.9858 H   0  0  0  0  0
   17.2964   22.8752   19.4274 H   0  0  0  0  0
   16.1507   22.4760   16.6909 H   0  0  0  0  0
   13.2640   22.3712   17.5925 H   0  0  0  0  0
   14.8221   18.5882   18.8064 H   0  0  0  0  0
   13.6757   19.4358   21.1013 H   0  0  0  0  0
   13.5725   17.7437   20.8881 H   0  0  0  0  0
   11.0869   17.0823   19.3826 H   0  0  0  0  0
   12.1667   22.3317   14.8279 H   0  0  0  0  0
   13.1044   21.1188   15.7257 H   0  0  0  0  0
   11.8601   20.0296   13.9039 H   0  0  0  0  0
   13.7529   18.9772   12.6909 H   0  0  0  0  0
   14.0773   19.1200   14.4504 H   0  0  0  0  0
   16.0699   19.7613   13.1353 H   0  0  0  0  0
   14.8798   20.4990   11.0874 H   0  0  0  0  0
   15.9449   21.7871   11.6900 H   0  0  0  0  0
   13.7198   22.6483   11.0625 H   0  0  0  0  0
   15.0038   23.7292   12.9217 H   0  0  0  0  0
   13.2602   23.8428   13.2188 H   0  0  0  0  0
   15.5890   20.9081   15.2900 H   0  0  0  0  0
   16.3675   22.0235   14.1366 H   0  0  0  0  0
   11.7249   22.0721   12.4265 H   0  0  0  0  0
   12.3410   20.6710   11.5326 H   0  0  0  0  0
  4  1  4  0  0  0
  1 16  1  0  0  0
 18  1  4  0  0  0
  2 18  4  0  0  0
 19  2  4  0  0  0
  3  4  4  0  0  0
 19  3  4  0  0  0
 20  5  2  0  0  0
  7  6  1  0  0  0
  6 20  1  0  0  0
  6 22  1  0  0  0
  8  7  1  0  0  0
  8  9  1  0  0  0
 29  8  1  0  0  0
 10 30  1  0  0  0
 10 31  2  0  0  0
 32 10  1  0  0  0
 11 12  1  0  0  0
 36 11  1  0  0  0
 13 12  1  0  0  0
 14 13  1  0  0  0
 33 14  1  0  0  0
 14 36  1  0  0  0
 29 15  1  0  0  0
 15 37  1  0  0  0
 16 17  1  0  0  0
 20 19  1  0  0  0
 20 21  2  0  0  0
 22 28  1  0  0  0
 23 24  4  0  0  0
 28 23  4  0  0  0
 24 25  4  0  0  0
 26 25  4  0  0  0
 27 26  4  0  0  0
 28 27  4  0  0  0
 30 29  1  0  0  0
 32 33  1  0  0  0
 33 34  1  0  0  0
 34 35  1  0  0  0
 35 36  1  0  0  0
 37 38  1  0  0  0
 37 44  1  0  0  0
 37 45  1  0  0  0
 38 39  1  0  0  0
 39 40  1  0  0  0
 39 46  1  0  0  0
 40 41  1  0  0  0
 41 42  1  0  0  0
 41 45  1  0  0  0
 42 43  1  0  0  0
 43 44  1  0  0  0
 43 46  1  0  0  0
  2 47  1  0  0  0
  3 48  1  0  0  0
  4 49  1  0  0  0
  7 50  1  0  0  0
  7 51  1  0  0  0
  8 52  1  0  0  0
  9 53  1  0  0  0
 12 54  1  0  0  0
 12 55  1  0  0  0
 13 56  1  0  0  0
 13 57  1  0  0  0
 14 58  1  0  0  0
 15 59  1  0  0  0
 15 60  1  0  0  0
 17 61  1  0  0  0
 17 62  1  0  0  0
 17 63  1  0  0  0
 18 64  1  0  0  0
 22 65  1  0  0  0
 22 66  1  0  0  0
 23 67  1  0  0  0
 24 68  1  0  0  0
 25 69  1  0  0  0
 26 70  1  0  0  0
 27 71  1  0  0  0
 29 72  1  0  0  0
 30 73  1  0  0  0
 33 74  1  0  0  0
 34 75  1  0  0  0
 34 76  1  0  0  0
 36 77  1  0  0  0
 38 78  1  0  0  0
 38 79  1  0  0  0
 39 80  1  0  0  0
 40 81  1  0  0  0
 40 82  1  0  0  0
 41 83  1  0  0  0
 42 84  1  0  0  0
 42 85  1  0  0  0
 43 86  1  0  0  0
 44 87  1  0  0  0
 44 88  1  0  0  0
 45 89  1  0  0  0
 45 90  1  0  0  0
 46 91  1  0  0  0
 46 92  1  0  0  0
M  END
$$$$
