4d4d_ligand
  -I-interpret- 

 45 46  0  0  0  0  0  0  0  0999 V2000
    2.5750  -14.3460    7.8460 O   0  0  0  0  0
    2.2000  -13.2670    8.6720 C   0  0  0  0  0
    1.1920  -13.7120    9.7460 C   0  0  0  0  0
   -0.1710  -13.4810    9.3230 O   0  0  0  0  0
    1.4620  -13.0420   11.1020 C   0  0  0  0  0
    1.8910  -11.6600   11.0060 N   0  3  0  0  0
    3.0440  -11.3860   10.1340 C   0  0  0  0  0
    3.4510  -12.6030    9.2900 C   0  0  0  0  0
    4.4140  -12.1910    8.2280 C   0  0  0  0  0
    3.7290  -11.4330    7.2410 O   0  0  0  0  0
    4.5610  -10.9180    6.1960 C   0  0  0  0  0
    3.5840  -10.2460    5.2290 C   0  0  0  0  0
    2.6710  -11.2890    4.5720 C   0  0  0  0  0
    3.5040  -12.4100    3.9530 C   0  0  0  0  0
    4.5510  -12.9650    4.9460 C   0  0  0  0  0
    5.4960  -13.9560    4.3020 C   0  0  0  0  0
    4.3070   -9.5570    4.2050 O   0  0  0  0  0
    1.7400  -10.7180    3.6670 O   0  0  0  0  0
    2.7180  -13.4670    3.4310 O   0  0  0  0  0
    5.3000  -11.9070    5.5380 O   0  0  0  0  0
    6.2080  -13.3900    3.2490 O   0  0  0  0  0
    1.7885  -14.7479    7.4698 H   0  0  0  0  0
    1.6968  -12.5191    8.0593 H   0  0  0  0  0
    1.3278  -14.7855    9.8770 H   0  0  0  0  0
   -0.3184  -13.9071    8.4755 H   0  0  0  0  0
    2.2688  -13.5971   11.5805 H   0  0  0  0  0
    0.5243  -13.0502   11.6577 H   0  0  0  0  0
    2.1787  -11.3889   11.9463 H   0  0  0  0  0
    1.1057  -11.1491   10.6027 H   0  0  0  0  0
    3.8891  -11.1217   10.7696 H   0  0  0  0  0
    2.7642  -10.5836    9.4513 H   0  0  0  0  0
    3.9416  -13.3336    9.9332 H   0  0  0  0  0
    4.8515  -13.0773    7.7686 H   0  0  0  0  0
    5.2058  -11.5852    8.6687 H   0  0  0  0  0
    5.3108  -10.2376    6.5998 H   0  0  0  0  0
    2.9766   -9.5405    5.7959 H   0  0  0  0  0
    2.0551  -11.7326    5.3543 H   0  0  0  0  0
    4.0266  -11.9512    3.1137 H   0  0  0  0  0
    3.9915  -13.4933    5.7180 H   0  0  0  0  0
    4.9054  -14.7831    3.9080 H   0  0  0  0  0
    6.2095  -14.2861    5.0570 H   0  0  0  0  0
    3.6869   -9.1387    3.6032 H   0  0  0  0  0
    1.1973  -11.4128    3.2872 H   0  0  0  0  0
    3.2938  -14.1381    3.0574 H   0  0  0  0  0
    6.7937  -14.0491    2.8693 H   0  0  0  0  0
  1  2  1  0  0  0
  2  3  1  0  0  0
  2  8  1  0  0  0
  3  4  1  0  0  0
  3  5  1  0  0  0
  5  6  1  0  0  0
  6  7  1  0  0  0
  7  8  1  0  0  0
  8  9  1  0  0  0
  9 10  1  0  0  0
 10 11  1  0  0  0
 11 12  1  0  0  0
 11 20  1  0  0  0
 12 13  1  0  0  0
 12 17  1  0  0  0
 13 14  1  0  0  0
 13 18  1  0  0  0
 14 15  1  0  0  0
 14 19  1  0  0  0
 15 16  1  0  0  0
 15 20  1  0  0  0
 16 21  1  0  0  0
  1 22  1  0  0  0
  2 23  1  0  0  0
  3 24  1  0  0  0
  4 25  1  0  0  0
  5 26  1  0  0  0
  5 27  1  0  0  0
  6 28  1  0  0  0
  6 29  1  0  0  0
  7 30  1  0  0  0
  7 31  1  0  0  0
  8 32  1  0  0  0
  9 33  1  0  0  0
  9 34  1  0  0  0
 11 35  1  0  0  0
 12 36  1  0  0  0
 13 37  1  0  0  0
 14 38  1  0  0  0
 15 39  1  0  0  0
 16 40  1  0  0  0
 16 41  1  0  0  0
 17 42  1  0  0  0
 18 43  1  0  0  0
 19 44  1  0  0  0
 21 45  1  0  0  0
M  END
$$$$
