6hvw_ligand
  -I-interpret- 

103106  0  0  0  0  0  0  0  0999 V2000
   64.8600 -131.2160   40.7140 C   0  0  0  0  0
   64.6830 -132.5690   41.3920 C   0  0  0  0  0
   63.2950 -132.6280   41.9860 C   0  0  0  0  0
   63.0530 -133.9510   42.7100 C   0  0  0  0  0
   63.2060 -135.1940   41.8280 C   0  0  0  0  0
   63.6630 -137.6980   42.0570 C   0  0  0  0  0
   60.8460 -135.5380   38.8680 C   0  0  0  0  0
   60.8880 -134.2930   36.7580 C   0  0  0  0  0
   66.2250 -131.1330   40.0700 C   0  0  0  0  0
   66.3480 -129.8010   39.3600 C   0  0  0  0  0
   66.2300 -128.6840   40.3730 C   0  0  0  0  0
   64.8870 -128.7620   41.0600 C   0  0  0  0  0
   64.7300 -130.1050   41.7390 C   0  0  0  0  0
   63.3590 -130.1720   42.3630 C   0  0  0  0  0
   63.1670 -131.5230   43.0160 C   0  0  0  0  0
   63.2840 -136.3800   42.7880 C   0  0  0  0  0
   61.9990 -136.5020   43.4370 O   0  0  0  0  0
   64.7390 -138.4950   42.8170 C   0  0  0  0  0
   64.2140 -137.3460   40.6800 C   0  0  0  0  0
   62.5200 -138.5520   41.8730 O   0  0  0  0  0
   62.0360 -135.3200   40.9570 N   0  0  0  0  0
   62.1590 -135.4230   39.6330 C   0  0  0  0  0
   63.2350 -135.4280   39.0450 O   0  0  0  0  0
   60.2160 -136.8950   39.1680 C   0  0  0  0  0
   58.8580 -136.8660   38.8870 C   0  0  0  0  0
   57.9370 -136.7620   39.9170 C   0  0  0  0  0
   56.5790 -136.7360   39.6320 C   0  0  0  0  0
   56.1390 -136.8170   38.3180 C   0  0  0  0  0
   54.8120 -136.7920   38.0200 O   0  0  0  0  0
   54.0130 -137.1160   39.1580 C   0  0  0  0  0
   57.0640 -136.9230   37.2900 C   0  0  0  0  0
   58.4210 -136.9490   37.5740 C   0  0  0  0  0
   61.1290 -135.4200   37.4340 N   0  0  0  0  0
   60.4140 -133.2810   37.2630 O   0  0  0  0  0
   61.2480 -134.3330   35.2770 C   0  0  0  0  0
   62.4320 -133.4050   35.0240 C   0  0  0  0  0
   60.1020 -133.8840   34.4780 N   0  0  0  0  0
   59.1730 -134.7370   34.0390 C   0  0  0  0  0
   59.1960 -135.9430   34.2600 O   0  0  0  0  0
   58.0490 -134.1150   33.2160 C   0  0  0  0  0
   56.9660 -133.6840   34.1050 N   0  3  0  0  0
   55.7600 -133.4220   33.3150 C   0  0  0  0  0
   54.6120 -133.0340   34.2190 C   0  0  0  0  0
   54.3370 -134.1050   35.1170 O   0  0  0  0  0
   55.4830 -134.3460   35.9370 C   0  0  0  0  0
   56.6640 -134.7390   35.0720 C   0  0  0  0  0
   64.0896 -131.1053   39.9509 H   0  0  0  0  0
   65.4296 -132.6932   42.1764 H   0  0  0  0  0
   64.8111 -133.3701   40.6641 H   0  0  0  0  0
   62.5742 -132.5232   41.1751 H   0  0  0  0  0
   62.0227 -133.9366   43.0656 H   0  0  0  0  0
   63.8017 -134.0250   43.4987 H   0  0  0  0  0
   64.0902 -135.1410   41.1928 H   0  0  0  0  0
   60.1560 -134.7494   39.1683 H   0  0  0  0  0
   66.3464 -131.9462   39.3544 H   0  0  0  0  0
   66.9994 -131.2187   40.8323 H   0  0  0  0  0
   65.5546 -129.7074   38.6185 H   0  0  0  0  0
   67.3149 -129.7409   38.8605 H   0  0  0  0  0
   66.3217 -127.7238   39.8654 H   0  0  0  0  0
   67.0224 -128.7830   41.1149 H   0  0  0  0  0
   64.0974 -128.6407   40.3184 H   0  0  0  0  0
   64.8206 -127.9721   41.8081 H   0  0  0  0  0
   65.5011 -130.2238   42.5002 H   0  0  0  0  0
   62.6018 -130.0305   41.5919 H   0  0  0  0  0
   63.2635 -129.3885   43.1147 H   0  0  0  0  0
   63.9306 -131.6600   43.7817 H   0  0  0  0  0
   62.1730 -131.5650   43.4614 H   0  0  0  0  0
   64.0707 -136.2035   43.5215 H   0  0  0  0  0
   61.7864 -135.6778   43.8809 H   0  0  0  0  0
   65.6396 -137.8883   42.9117 H   0  0  0  0  0
   64.3664 -138.7518   43.8086 H   0  0  0  0  0
   64.9701 -139.4071   42.2668 H   0  0  0  0  0
   63.4536 -136.8102   40.1119 H   0  0  0  0  0
   65.0961 -136.7158   40.7933 H   0  0  0  0  0
   64.4849 -138.2612   40.1537 H   0  0  0  0  0
   62.7907 -139.3539   41.4199 H   0  0  0  0  0
   61.1046 -135.3292   41.3727 H   0  0  0  0  0
   60.3568 -137.1279   40.2235 H   0  0  0  0  0
   60.6923 -137.6542   38.5477 H   0  0  0  0  0
   58.2788 -136.7007   40.9502 H   0  0  0  0  0
   55.8554 -136.6517   40.4428 H   0  0  0  0  0
   54.2695 -138.1160   39.5076 H   0  0  0  0  0
   54.2024 -136.3927   39.9511 H   0  0  0  0  0
   52.9592 -137.0858   38.8810 H   0  0  0  0  0
   56.7235 -136.9860   36.2565 H   0  0  0  0  0
   59.1451 -137.0348   36.7638 H   0  0  0  0  0
   61.5209 -136.2209   36.9386 H   0  0  0  0  0
   61.5092 -135.3527   34.9940 H   0  0  0  0  0
   62.1621 -132.3880   35.3084 H   0  0  0  0  0
   63.2844 -133.7355   35.6176 H   0  0  0  0  0
   62.6926 -133.4308   33.9659 H   0  0  0  0  0
   60.0126 -132.8934   34.2518 H   0  0  0  0  0
   57.6659 -134.8532   32.5114 H   0  0  0  0  0
   58.4343 -133.2529   32.6716 H   0  0  0  0  0
   57.2598 -132.8387   34.5945 H   0  0  0  0  0
   55.4911 -134.3252   32.7673 H   0  0  0  0  0
   55.9595 -132.6036   32.6232 H   0  0  0  0  0
   53.7274 -132.8266   33.6168 H   0  0  0  0  0
   54.8793 -132.1422   34.7858 H   0  0  0  0  0
   55.2627 -135.1552   36.6332 H   0  0  0  0  0
   55.7278 -133.4379   36.4880 H   0  0  0  0  0
   57.5340 -134.8933   35.7103 H   0  0  0  0  0
   56.4182 -135.6536   34.5323 H   0  0  0  0  0
  2  1  1  0  0  0
  1  9  1  0  0  0
  1 13  1  0  0  0
  3  2  1  0  0  0
  4  3  1  0  0  0
  3 15  1  0  0  0
  5  4  1  0  0  0
  5 16  1  0  0  0
 21  5  1  0  0  0
 16  6  1  0  0  0
  6 18  1  0  0  0
  6 19  1  0  0  0
  6 20  1  0  0  0
 22  7  1  0  0  0
  7 24  1  0  0  0
  7 33  1  0  0  0
 33  8  1  0  0  0
  8 34  2  0  0  0
  8 35  1  0  0  0
  9 10  1  0  0  0
 10 11  1  0  0  0
 12 11  1  0  0  0
 13 12  1  0  0  0
 14 13  1  0  0  0
 15 14  1  0  0  0
 16 17  1  0  0  0
 21 22  1  0  0  0
 22 23  2  0  0  0
 24 25  1  0  0  0
 25 26  4  0  0  0
 25 32  4  0  0  0
 26 27  4  0  0  0
 27 28  4  0  0  0
 28 29  1  0  0  0
 28 31  4  0  0  0
 29 30  1  0  0  0
 31 32  4  0  0  0
 35 36  1  0  0  0
 35 37  1  0  0  0
 37 38  1  0  0  0
 38 39  2  0  0  0
 38 40  1  0  0  0
 40 41  1  0  0  0
 41 42  1  0  0  0
 41 46  1  0  0  0
 42 43  1  0  0  0
 43 44  1  0  0  0
 44 45  1  0  0  0
 45 46  1  0  0  0
  1 47  1  0  0  0
  2 48  1  0  0  0
  2 49  1  0  0  0
  3 50  1  0  0  0
  4 51  1  0  0  0
  4 52  1  0  0  0
  5 53  1  0  0  0
  7 54  1  0  0  0
  9 55  1  0  0  0
  9 56  1  0  0  0
 10 57  1  0  0  0
 10 58  1  0  0  0
 11 59  1  0  0  0
 11 60  1  0  0  0
 12 61  1  0  0  0
 12 62  1  0  0  0
 13 63  1  0  0  0
 14 64  1  0  0  0
 14 65  1  0  0  0
 15 66  1  0  0  0
 15 67  1  0  0  0
 16 68  1  0  0  0
 17 69  1  0  0  0
 18 70  1  0  0  0
 18 71  1  0  0  0
 18 72  1  0  0  0
 19 73  1  0  0  0
 19 74  1  0  0  0
 19 75  1  0  0  0
 20 76  1  0  0  0
 21 77  1  0  0  0
 24 78  1  0  0  0
 24 79  1  0  0  0
 26 80  1  0  0  0
 27 81  1  0  0  0
 30 82  1  0  0  0
 30 83  1  0  0  0
 30 84  1  0  0  0
 31 85  1  0  0  0
 32 86  1  0  0  0
 33 87  1  0  0  0
 35 88  1  0  0  0
 36 89  1  0  0  0
 36 90  1  0  0  0
 36 91  1  0  0  0
 37 92  1  0  0  0
 40 93  1  0  0  0
 40 94  1  0  0  0
 41 95  1  0  0  0
 42 96  1  0  0  0
 42 97  1  0  0  0
 43 98  1  0  0  0
 43 99  1  0  0  0
 45100  1  0  0  0
 45101  1  0  0  0
 46102  1  0  0  0
 46103  1  0  0  0
M  END
$$$$
