2xn5_ligand
  -I-interpret- 

 32 33  0  0  0  0  0  0  0  0999 V2000
  -13.4550  -16.2240    8.7700 N   0  0  0  0  0
  -12.8680  -17.1600    7.7040 S   0  0  0  0  0
  -12.5820  -18.4340    8.3890 O   0  0  0  0  0
  -13.8290  -17.3080    6.6020 O   0  0  0  0  0
  -11.4940  -16.4860    7.1550 C   0  0  0  0  0
  -11.4840  -15.4150    6.2670 C   0  0  0  0  0
  -12.9700  -14.6510    5.6370 Cl  0  0  0  0  0
  -10.2950  -14.8550    5.8130 C   0  0  0  0  0
   -9.0590  -15.3520    6.2260 C   0  0  0  0  0
   -7.8990  -14.7940    5.7840 N   0  0  0  0  0
   -7.8170  -13.6250    4.9220 C   0  0  0  0  0
   -7.9260  -13.9630    3.4530 C   0  0  0  0  0
   -8.3780  -15.1480    2.8900 C   0  0  0  0  0
   -8.3170  -15.0250    1.5160 C   0  0  0  0  0
   -7.8310  -13.7690    1.2320 C   0  0  0  0  0
   -7.5960  -13.1220    2.4260 O   0  0  0  0  0
   -9.0430  -16.4340    7.1210 C   0  0  0  0  0
  -10.2560  -16.9810    7.5650 C   0  0  0  0  0
   -7.7600  -17.0170    7.6540 C   0  0  0  0  0
   -7.7810  -17.8170    8.6330 O   0  0  0  0  0
   -6.6770  -16.6440    7.1500 O   0  0  0  0  0
  -13.5695  -16.5516    9.7291 H   0  0  0  0  0
  -13.7305  -15.2745    8.5191 H   0  0  0  0  0
  -10.3295  -14.0127    5.1221 H   0  0  0  0  0
   -7.0236  -15.2269    6.0785 H   0  0  0  0  0
   -6.8438  -13.1616    5.0840 H   0  0  0  0  0
   -8.6501  -12.9688    5.1736 H   0  0  0  0  0
   -8.7220  -16.0251    3.4381 H   0  0  0  0  0
   -8.6020  -15.7848    0.7883 H   0  0  0  0  0
   -7.6616  -13.3579    0.2368 H   0  0  0  0  0
  -10.2302  -17.8238    8.2558 H   0  0  0  0  0
   -8.6913  -17.9896    8.8843 H   0  0  0  0  0
  1  2  1  0  0  0
  2  3  2  0  0  0
  2  4  2  0  0  0
  2  5  1  0  0  0
  5  6  4  0  0  0
  5 18  4  0  0  0
  6  7  1  0  0  0
  6  8  4  0  0  0
  8  9  4  0  0  0
  9 10  1  0  0  0
  9 17  4  0  0  0
 10 11  1  0  0  0
 11 12  1  0  0  0
 12 13  4  0  0  0
 12 16  4  0  0  0
 13 14  4  0  0  0
 14 15  4  0  0  0
 15 16  4  0  0  0
 17 18  4  0  0  0
 17 19  1  0  0  0
 19 20  1  0  0  0
 19 21  2  0  0  0
  1 22  1  0  0  0
  1 23  1  0  0  0
  8 24  1  0  0  0
 10 25  1  0  0  0
 11 26  1  0  0  0
 11 27  1  0  0  0
 13 28  1  0  0  0
 14 29  1  0  0  0
 15 30  1  0  0  0
 18 31  1  0  0  0
 20 32  1  0  0  0
M  END
$$$$
