3hdm_ligand
  -I-interpret- 

 37 40  0  0  0  0  0  0  0  0999 V2000
   39.0200   29.8990   66.5850 C   0  0  0  0  0
   36.6620   30.0730   66.5510 C   0  0  0  0  0
   34.2760   35.7290   70.3390 C   0  0  0  0  0
   34.0840   34.0980   68.6180 C   0  0  0  0  0
   33.0440   36.2450   70.0060 C   0  0  0  0  0
   36.8460   32.2620   68.4080 C   0  0  0  0  0
   37.8680   30.4540   67.1030 C   0  0  0  0  0
   32.3410   35.6750   68.9710 C   0  0  0  0  0
   36.9310   33.1240   69.4870 C   0  0  0  0  0
   31.0330   36.2380   68.6240 C   0  0  0  0  0
   37.7680   28.6270   65.0120 C   0  0  0  0  0
   38.9780   28.9930   65.5500 C   0  0  0  0  0
   36.6060   29.1700   65.5130 C   0  0  0  0  0
   32.8490   34.6050   68.2700 C   0  0  0  0  0
   36.7560   34.6360   71.1520 C   0  0  0  0  0
   38.9790   31.4450   69.0670 C   0  0  0  0  0
   34.8060   34.6560   69.6540 C   0  0  0  0  0
   37.9060   31.4020   68.2000 C   0  0  0  0  0
   36.0990   34.1360   70.0480 C   0  0  0  0  0
   38.0660   33.0500   70.2730 C   0  0  0  0  0
   37.9410   33.9670   71.2710 N   0  0  0  0  0
   39.1210   32.2490   70.1290 N   0  0  0  0  0
   30.7070   35.8220   67.3760 O   0  0  0  0  0
   30.3780   36.9660   69.3570 O   0  0  0  0  0
   39.9846   30.1844   67.0048 H   0  0  0  0  0
   35.7368   30.4946   66.9439 H   0  0  0  0  0
   34.8414   36.1756   71.1569 H   0  0  0  0  0
   34.4934   33.2493   68.0701 H   0  0  0  0  0
   32.6322   37.0923   70.5543 H   0  0  0  0  0
   35.9777   32.2619   67.7491 H   0  0  0  0  0
   37.7280   27.9099   64.1921 H   0  0  0  0  0
   39.9018   28.5671   65.1583 H   0  0  0  0  0
   35.6432   28.8854   65.0885 H   0  0  0  0  0
   32.2825   34.1636   67.4500 H   0  0  0  0  0
   36.3944   35.4244   71.8121 H   0  0  0  0  0
   39.7964   30.7523   68.8666 H   0  0  0  0  0
   31.4054   35.2584   67.0351 H   0  0  0  0  0
  7  1  4  0  0  0
  1 12  4  0  0  0
  7  2  4  0  0  0
  2 13  4  0  0  0
  3  5  4  0  0  0
 17  3  4  0  0  0
  4 14  4  0  0  0
 17  4  4  0  0  0
  5  8  4  0  0  0
  9  6  4  0  0  0
  6 18  4  0  0  0
 18  7  1  0  0  0
  8 10  1  0  0  0
 14  8  4  0  0  0
 19  9  4  0  0  0
  9 20  4  0  0  0
 10 23  1  0  0  0
 10 24  2  0  0  0
 12 11  4  0  0  0
 13 11  4  0  0  0
 19 15  4  0  0  0
 15 21  4  0  0  0
 18 16  4  0  0  0
 16 22  4  0  0  0
 17 19  1  0  0  0
 20 21  4  0  0  0
 20 22  4  0  0  0
  1 25  1  0  0  0
  2 26  1  0  0  0
  3 27  1  0  0  0
  4 28  1  0  0  0
  5 29  1  0  0  0
  6 30  1  0  0  0
 11 31  1  0  0  0
 12 32  1  0  0  0
 13 33  1  0  0  0
 14 34  1  0  0  0
 15 35  1  0  0  0
 16 36  1  0  0  0
 23 37  1  0  0  0
M  END
$$$$
