### 
### Created by X-TOOL on Wed Jan  1 15:39:35 2020
### 

@<TRIPOS>MOLECULE
6giu_ligand
   26    26     1     0     0
SMALL
GAST_HUCK


@<TRIPOS>ATOM
      1 O5          7.9280   53.1840  312.6580 O.co2     1 L69        -0.5592
      2 P1          7.1480   51.9130  312.6570 P.3       1 L69         0.1144
      3 O4          7.9150   50.8370  313.4750 O.co2     1 L69        -0.5592
      4 O6          6.7310   51.3570  311.3250 O.co2     1 L69        -0.5592
      5 C6          5.6070   52.2590  313.6000 C.3       1 L69         0.2218
      6 C7          4.6850   51.0240  313.6340 C.3       1 L69        -0.0001
      7 P           4.7520   53.7430  312.9300 P.3       1 L69         0.1144
      8 O3          4.4420   53.4950  311.4800 O.co2     1 L69        -0.5592
      9 O2          3.5070   53.9610  313.7880 O.co2     1 L69        -0.5592
     10 O1          5.7530   54.8870  313.0670 O.co2     1 L69        -0.5592
     11 O           6.1230   52.7480  314.8720 O.3       1 L69        -0.2871
     12 C5          5.8040   52.1190  316.0900 C.ar      1 L69         0.0838
     13 C           4.5720   52.3660  316.6670 C.ar      1 L69        -0.0413
     14 C4          6.7030   51.2510  316.6940 C.ar      1 L69        -0.0413
     15 C3          6.3700   50.6460  317.8950 C.ar      1 L69        -0.0417
     16 C2          5.1380   50.8980  318.4800 C.ar      1 L69         0.0763
     17 O7          4.8060   50.3700  319.7030 O.3       1 L69        -0.3404
     18 C1          4.2360   51.7470  317.8580 C.ar      1 L69        -0.0417
     19 H1          5.2382   50.1646  314.0406 H         1 L69         0.0290
     20 H2          4.3452   50.7919  312.6139 H         1 L69         0.0290
     21 H3          3.8138   51.2342  314.2718 H         1 L69         0.0290
     22 H4          3.8724   53.0417  316.1884 H         1 L69         0.0516
     23 H5          7.6606   51.0476  316.2285 H         1 L69         0.0516
     24 H6          7.0722   49.9758  318.3774 H         1 L69         0.0516
     25 H7          4.8352   49.4216  319.6557 H         1 L69         0.2444
     26 H8          3.2652   51.9264  318.3056 H         1 L69         0.0516
@<TRIPOS>BOND
     1    1    2 ar 
     2    2    3 ar 
     3    2    4 ar 
     4    2    5 1  
     5    5    6 1  
     6    5    7 1  
     7    5   11 1  
     8    7    8 ar 
     9    7    9 ar 
    10    7   10 ar 
    11   11   12 1  
    12   12   13 ar 
    13   12   14 ar 
    14   13   18 ar 
    15   14   15 ar 
    16   15   16 ar 
    17   16   17 1  
    18   16   18 ar 
    19    6   19 1  
    20    6   20 1  
    21    6   21 1  
    22   13   22 1  
    23   14   23 1  
    24   15   24 1  
    25   17   25 1  
    26   18   26 1  
@<TRIPOS>SUBSTRUCTURE
     1 L69         1

