6giu_ligand
  -I-interpret- 

 30 30  0  0  0  0  0  0  0  0999 V2000
    7.9280   53.1840  312.6580 O   0  0  0  0  0
    7.1480   51.9130  312.6570 P   0  0  0  0  0
    7.9150   50.8370  313.4750 O   0  0  0  0  0
    6.7310   51.3570  311.3250 O   0  0  0  0  0
    5.6070   52.2590  313.6000 C   0  0  0  0  0
    4.6850   51.0240  313.6340 C   0  0  0  0  0
    4.7520   53.7430  312.9300 P   0  0  0  0  0
    4.4420   53.4950  311.4800 O   0  0  0  0  0
    3.5070   53.9610  313.7880 O   0  0  0  0  0
    5.7530   54.8870  313.0670 O   0  0  0  0  0
    6.1230   52.7480  314.8720 O   0  0  0  0  0
    5.8040   52.1190  316.0900 C   0  0  0  0  0
    4.5720   52.3660  316.6670 C   0  0  0  0  0
    6.7030   51.2510  316.6940 C   0  0  0  0  0
    6.3700   50.6460  317.8950 C   0  0  0  0  0
    5.1380   50.8980  318.4800 C   0  0  0  0  0
    4.8060   50.3700  319.7030 O   0  0  0  0  0
    4.2360   51.7470  317.8580 C   0  0  0  0  0
    7.4133   50.0185  313.4747 H   0  0  0  0  0
    6.2394   50.5434  311.4589 H   0  0  0  0  0
    5.2230   50.1824  314.0704 H   0  0  0  0  0
    3.8045   51.2460  314.2369 H   0  0  0  0  0
    4.3779   50.7734  312.6186 H   0  0  0  0  0
    3.7700   54.1133  314.6986 H   0  0  0  0  0
    5.9425   55.0353  313.9964 H   0  0  0  0  0
    3.8685   53.0454  316.1857 H   0  0  0  0  0
    7.6659   51.0464  316.2259 H   0  0  0  0  0
    7.0761   49.9721  318.3801 H   0  0  0  0  0
    3.9203   50.6525  319.9425 H   0  0  0  0  0
    3.2598   51.9274  318.3081 H   0  0  0  0  0
  1  2  2  0  0  0
  2  3  1  0  0  0
  2  4  1  0  0  0
  2  5  1  0  0  0
  5  6  1  0  0  0
  5  7  1  0  0  0
  5 11  1  0  0  0
  7  8  2  0  0  0
  7  9  1  0  0  0
  7 10  1  0  0  0
 11 12  1  0  0  0
 12 13  4  0  0  0
 12 14  4  0  0  0
 13 18  4  0  0  0
 14 15  4  0  0  0
 15 16  4  0  0  0
 16 17  1  0  0  0
 16 18  4  0  0  0
  3 19  1  0  0  0
  4 20  1  0  0  0
  6 21  1  0  0  0
  6 22  1  0  0  0
  6 23  1  0  0  0
  9 24  1  0  0  0
 10 25  1  0  0  0
 13 26  1  0  0  0
 14 27  1  0  0  0
 15 28  1  0  0  0
 17 29  1  0  0  0
 18 30  1  0  0  0
M  END
$$$$
