6mdb_ligand
  -I-interpret- 

 48 51  0  0  0  0  0  0  0  0999 V2000
   21.8370   40.5840    4.3840 C   0  0  0  0  0
   23.0740   39.9780    4.6220 C   0  0  0  0  0
   24.0540   41.1510    2.8640 C   0  0  0  0  0
   20.5870   42.1230    3.1260 O   0  0  0  0  0
   28.5970   42.0580    0.0760 C   0  0  0  0  0
   20.9500   40.0690    5.2640 C   0  0  0  0  0
   19.5060   40.2700    5.4380 C   0  0  0  0  0
   18.9500   40.6850    6.6540 C   0  0  0  0  0
   17.5600   40.8810    6.7990 C   0  0  0  0  0
   16.6760   40.6820    5.7170 C   0  0  0  0  0
   17.2150   40.2370    4.4880 C   0  0  0  0  0
   18.6150   40.0280    4.3530 C   0  0  0  0  0
   25.4080   42.7470    1.4380 C   0  0  0  0  0
   21.6750   41.5740    3.2890 C   0  0  0  0  0
   22.6000   42.6960    1.3730 C   0  0  0  0  0
   26.2540   40.4280    1.9250 C   0  0  0  0  0
   27.6720   40.9650    2.1970 C   0  0  0  0  0
   28.0110   42.3040    1.4700 C   0  0  0  0  0
   26.8400   43.3080    1.3660 C   0  0  0  0  0
   24.1860   40.2750    3.8380 N   0  0  0  0  0
   22.7830   41.7750    2.5210 N   0  0  0  0  0
   25.2000   41.4420    2.1020 N   0  0  0  0  0
   29.0540   42.9660    2.2330 N   0  3  0  0  0
   23.0330   39.1570    5.6310 N   0  0  0  0  0
   21.7440   39.2400    6.0340 N   0  0  0  0  0
   16.9700   41.4670    8.3030 Cl  0  0  0  0  0
   20.0100   41.0070    7.9640 Cl  0  0  0  0  0
   29.5129   41.4739    0.1662 H   0  0  0  0  0
   27.8740   41.5112   -0.5293 H   0  0  0  0  0
   28.8196   43.0144   -0.3971 H   0  0  0  0  0
   15.6072   40.8663    5.8258 H   0  0  0  0  0
   16.5546   40.0534    3.6405 H   0  0  0  0  0
   19.0139   39.6761    3.4016 H   0  0  0  0  0
   25.1077   42.5928    0.4016 H   0  0  0  0  0
   24.8478   43.4658    2.0360 H   0  0  0  0  0
   23.2509   43.5616    1.4959 H   0  0  0  0  0
   22.8539   42.1772    0.4486 H   0  0  0  0  0
   21.5612   43.0236    1.3337 H   0  0  0  0  0
   26.0632   39.6277    2.6400 H   0  0  0  0  0
   26.2213   40.0981    0.8866 H   0  0  0  0  0
   28.3720   40.2161    1.8266 H   0  0  0  0  0
   27.7386   41.1588    3.2676 H   0  0  0  0  0
   26.9403   43.9637    2.2309 H   0  0  0  0  0
   26.9279   43.7573    0.3768 H   0  0  0  0  0
   25.0835   39.8236    4.0146 H   0  0  0  0  0
   29.2974   43.8472    1.7806 H   0  0  0  0  0
   28.7177   43.1493    3.1784 H   0  0  0  0  0
   29.8770   42.3649    2.2742 H   0  0  0  0  0
  2  1  4  0  0  0
  1  6  4  0  0  0
 14  1  1  0  0  0
 20  2  1  0  0  0
  2 24  4  0  0  0
  3 20  1  0  0  0
  3 21  4  0  0  0
 22  3  1  0  0  0
 14  4  2  0  0  0
 18  5  1  0  0  0
  6  7  1  0  0  0
  6 25  4  0  0  0
  7  8  4  0  0  0
  7 12  4  0  0  0
  8  9  4  0  0  0
  8 27  1  0  0  0
  9 10  4  0  0  0
  9 26  1  0  0  0
 11 10  4  0  0  0
 12 11  4  0  0  0
 13 19  1  0  0  0
 22 13  1  0  0  0
 21 14  1  0  0  0
 21 15  1  0  0  0
 17 16  1  0  0  0
 16 22  1  0  0  0
 17 18  1  0  0  0
 18 19  1  0  0  0
 18 23  1  0  0  0
 24 25  4  0  0  0
  5 28  1  0  0  0
  5 29  1  0  0  0
  5 30  1  0  0  0
 10 31  1  0  0  0
 11 32  1  0  0  0
 12 33  1  0  0  0
 13 34  1  0  0  0
 13 35  1  0  0  0
 15 36  1  0  0  0
 15 37  1  0  0  0
 15 38  1  0  0  0
 16 39  1  0  0  0
 16 40  1  0  0  0
 17 41  1  0  0  0
 17 42  1  0  0  0
 19 43  1  0  0  0
 19 44  1  0  0  0
 20 45  1  0  0  0
 23 46  1  0  0  0
 23 47  1  0  0  0
 23 48  1  0  0  0
M  END
$$$$
