5ukm_ligand
  -I-interpret- 

 58 62  0  0  0  0  0  0  0  0999 V2000
  -29.4160  -46.2830   -1.0160 O   0  0  0  0  0
  -29.0780  -45.4910   -1.8830 C   0  0  0  0  0
  -27.8220  -45.4120   -2.3450 N   0  0  0  0  0
  -26.7480  -46.2950   -1.9220 C   0  0  0  0  0
  -25.9890  -45.6250   -0.8180 C   0  0  0  0  0
  -25.3620  -44.4550   -0.9010 N   0  0  0  0  0
  -24.7590  -44.1420    0.3220 N   0  0  0  0  0
  -25.0480  -45.1570    1.1660 C   0  0  0  0  0
  -25.8060  -46.0850    0.4820 C   0  0  0  0  0
  -30.1570  -44.6350   -2.4970 C   0  0  0  0  0
  -31.0820  -43.9250   -1.7240 C   0  0  0  0  0
  -31.0350  -43.9400   -0.3730 F   0  0  0  0  0
  -30.2430  -44.5980   -3.8960 C   0  0  0  0  0
  -31.2340  -43.8540   -4.5540 C   0  0  0  0  0
  -32.1460  -43.1350   -3.7710 C   0  0  0  0  0
  -32.0710  -43.1730   -2.3730 C   0  0  0  0  0
  -31.3170  -43.7900   -6.0500 C   0  0  0  0  0
  -30.1660  -42.9520   -6.6150 C   0  0  0  0  0
  -30.1150  -42.9470   -8.1390 C   0  0  0  0  0
  -30.0910  -44.3210   -8.6370 N   0  3  0  0  0
  -31.3030  -45.0340   -8.2080 C   0  0  0  0  0
  -31.2950  -45.1710   -6.6900 C   0  0  0  0  0
  -30.1940  -41.5000   -6.1500 C   0  0  0  0  0
  -31.4790  -40.8650   -6.1510 O   0  0  0  0  0
  -31.5830  -39.4890   -6.0300 C   0  0  0  0  0
  -30.5110  -38.6850   -5.5880 C   0  0  0  0  0
  -30.6800  -37.3100   -5.4950 C   0  0  0  0  0
  -29.7780  -36.3710   -5.0880 O   0  0  0  0  0
  -30.3870  -35.0930   -5.2940 C   0  0  0  0  0
  -31.7510  -35.3770   -5.6580 O   0  0  0  0  0
  -31.8610  -36.7200   -5.8370 C   0  0  0  0  0
  -32.9390  -37.4650   -6.2860 C   0  0  0  0  0
  -32.7900  -38.8570   -6.3740 C   0  0  0  0  0
  -27.6077  -44.6904   -3.0333 H   0  0  0  0  0
  -26.0823  -46.4994   -2.7605 H   0  0  0  0  0
  -27.1605  -47.2404   -1.5696 H   0  0  0  0  0
  -24.7360  -45.2300    2.2078 H   0  0  0  0  0
  -26.1946  -47.0181    0.8901 H   0  0  0  0  0
  -29.5215  -45.1616   -4.4875 H   0  0  0  0  0
  -32.9213  -42.5404   -4.2542 H   0  0  0  0  0
  -32.7922  -42.6096   -1.7810 H   0  0  0  0  0
  -32.2712  -43.3220   -6.2920 H   0  0  0  0  0
  -29.2770  -43.4451   -6.2218 H   0  0  0  0  0
  -29.2147  -42.4281   -8.4682 H   0  0  0  0  0
  -30.9967  -42.4376   -8.5278 H   0  0  0  0  0
  -29.2711  -44.7987   -8.2630 H   0  0  0  0  0
  -30.0533  -44.3074   -9.6562 H   0  0  0  0  0
  -31.3251  -46.0238   -8.6639 H   0  0  0  0  0
  -32.1852  -44.4748   -8.5196 H   0  0  0  0  0
  -32.1754  -45.7301   -6.3731 H   0  0  0  0  0
  -30.3932  -45.6987   -6.3796 H   0  0  0  0  0
  -29.5758  -40.9414   -6.8528 H   0  0  0  0  0
  -29.8550  -41.5036   -5.1141 H   0  0  0  0  0
  -29.5571  -39.1401   -5.3215 H   0  0  0  0  0
  -29.8745  -34.5245   -6.0700 H   0  0  0  0  0
  -30.3311  -34.4728   -4.3994 H   0  0  0  0  0
  -33.8766  -36.9832   -6.5631 H   0  0  0  0  0
  -33.6293  -39.4620   -6.7169 H   0  0  0  0  0
  1  2  2  0  0  0
  2  3  1  0  0  0
  2 10  1  0  0  0
  3  4  1  0  0  0
  4  5  1  0  0  0
  5  6  4  0  0  0
  5  9  4  0  0  0
  6  7  4  0  0  0
  7  8  4  0  0  0
  8  9  4  0  0  0
 10 11  4  0  0  0
 10 13  4  0  0  0
 11 12  1  0  0  0
 11 16  4  0  0  0
 13 14  4  0  0  0
 14 15  4  0  0  0
 14 17  1  0  0  0
 15 16  4  0  0  0
 17 18  1  0  0  0
 17 22  1  0  0  0
 18 19  1  0  0  0
 18 23  1  0  0  0
 19 20  1  0  0  0
 20 21  1  0  0  0
 21 22  1  0  0  0
 23 24  1  0  0  0
 24 25  1  0  0  0
 25 26  4  0  0  0
 25 33  4  0  0  0
 26 27  4  0  0  0
 27 28  1  0  0  0
 27 31  4  0  0  0
 28 29  1  0  0  0
 29 30  1  0  0  0
 30 31  1  0  0  0
 31 32  4  0  0  0
 32 33  4  0  0  0
  3 34  1  0  0  0
  4 35  1  0  0  0
  4 36  1  0  0  0
  8 37  1  0  0  0
  9 38  1  0  0  0
 13 39  1  0  0  0
 15 40  1  0  0  0
 16 41  1  0  0  0
 17 42  1  0  0  0
 18 43  1  0  0  0
 19 44  1  0  0  0
 19 45  1  0  0  0
 20 46  1  0  0  0
 20 47  1  0  0  0
 21 48  1  0  0  0
 21 49  1  0  0  0
 22 50  1  0  0  0
 22 51  1  0  0  0
 23 52  1  0  0  0
 23 53  1  0  0  0
 26 54  1  0  0  0
 29 55  1  0  0  0
 29 56  1  0  0  0
 32 57  1  0  0  0
 33 58  1  0  0  0
M  END
$$$$
