3k8d_ligand
  -I-interpret- 

 29 29  0  0  0  0  0  0  0  0999 V2000
  -14.8500   61.3350  105.1950 C   0  0  0  0  0
  -14.1860   61.8610  104.0770 O   0  0  0  0  0
  -15.6540   60.4740  104.9980 O   0  0  0  0  0
  -14.1620   61.4360  106.6070 C   0  0  0  0  0
  -12.7230   62.0220  106.5640 C   0  0  0  0  0
  -11.6390   60.9670  106.1850 C   0  0  0  0  0
  -10.3410   61.4940  106.3790 O   0  0  0  0  0
  -11.8550   59.6140  106.9280 C   0  0  0  0  0
  -11.7000   59.8000  108.3120 O   0  0  0  0  0
  -13.3230   59.1870  106.6950 C   0  0  0  0  0
  -14.2380   60.1510  107.2430 O   0  0  0  0  0
  -13.6180   57.7870  107.3190 C   0  0  0  0  0
  -12.9990   56.8310  106.4760 O   0  0  0  0  0
  -15.1640   57.5730  107.3680 C   0  0  0  0  0
  -15.7480   57.7870  106.0930 O   0  0  0  0  0
  -13.5701   62.5399  104.3622 H   0  0  0  0  0
  -14.7065   62.1634  107.2091 H   0  0  0  0  0
  -12.4879   62.3922  107.5619 H   0  0  0  0  0
  -12.7067   62.8001  105.8009 H   0  0  0  0  0
  -11.7431   60.7426  105.1234 H   0  0  0  0  0
  -10.2593   62.3237  105.9031 H   0  0  0  0  0
  -11.1410   58.8755  106.5634 H   0  0  0  0  0
  -10.7970   60.0671  108.4987 H   0  0  0  0  0
  -13.4664   59.1294  105.6160 H   0  0  0  0  0
  -13.2338   57.6972  108.3351 H   0  0  0  0  0
  -13.1557   55.9501  106.8239 H   0  0  0  0  0
  -15.5932   58.2850  108.0730 H   0  0  0  0  0
  -15.3652   56.5472  107.6769 H   0  0  0  0  0
  -16.6964   57.6497  106.1496 H   0  0  0  0  0
  1  2  1  0  0  0
  1  3  2  0  0  0
  1  4  1  0  0  0
  4  5  1  0  0  0
  4 11  1  0  0  0
  5  6  1  0  0  0
  6  7  1  0  0  0
  6  8  1  0  0  0
  8  9  1  0  0  0
  8 10  1  0  0  0
 10 11  1  0  0  0
 10 12  1  0  0  0
 12 13  1  0  0  0
 12 14  1  0  0  0
 14 15  1  0  0  0
  2 16  1  0  0  0
  4 17  1  0  0  0
  5 18  1  0  0  0
  5 19  1  0  0  0
  6 20  1  0  0  0
  7 21  1  0  0  0
  8 22  1  0  0  0
  9 23  1  0  0  0
 10 24  1  0  0  0
 12 25  1  0  0  0
 13 26  1  0  0  0
 14 27  1  0  0  0
 14 28  1  0  0  0
 15 29  1  0  0  0
M  END
$$$$
