5w38_ligand
  -I-interpret- 

 77 79  0  0  0  0  0  0  0  0999 V2000
   49.2700    8.5820   19.8270 C   0  0  0  0  0
   47.7550    8.6410   19.8530 C   0  0  0  0  0
   47.2650    9.7790   20.6680 C   0  0  0  0  0
   47.8770    9.7960   22.0560 C   0  0  0  0  0
   49.3930    9.7810   21.9590 C   0  0  0  0  0
   50.0930    9.6580   23.2870 C   0  0  0  0  0
   46.8660    7.6170   17.7040 C   0  0  0  0  0
   46.4280    7.7860   16.2520 C   0  0  0  0  0
   47.3170    8.7890   18.4320 N   0  0  0  0  0
   45.8240    9.7060   20.7270 O   0  0  0  0  0
   47.5540   11.0000   22.7550 O   0  0  0  0  0
   49.8240    8.6250   21.1960 O   0  0  0  0  0
   49.6350    8.4730   23.8540 O   0  0  0  0  0
   46.8400    6.5520   18.2330 O   0  0  0  0  0
   46.4100   10.9010   23.6150 C   0  0  0  0  0
   46.4760   11.9510   24.7120 C   0  0  0  0  0
   45.2900   11.9190   25.6010 C   0  0  0  0  0
   43.9940   11.9110   24.8500 C   0  0  0  0  0
   43.9710   10.9150   23.6900 C   0  0  0  0  0
   42.7770   11.1900   22.8380 C   0  0  0  0  0
   48.8420   12.6000   25.4360 C   0  0  0  0  0
   50.0980   12.2720   26.2270 C   0  0  0  0  0
   47.7160   11.6720   25.4880 N   0  0  0  0  0
   45.3500   13.1330   26.3880 O   0  0  0  0  0
   42.9270   11.5700   25.7250 O   0  0  0  0  0
   45.1500   11.0550   22.8370 O   0  0  0  0  0
   42.8360   10.3440   21.7210 O   0  0  0  0  0
   48.7790   13.6000   24.7830 O   0  0  0  0  0
   42.4060   12.7150   26.4200 C   0  0  0  0  0
   40.8990   12.4870   26.5280 C   0  0  0  0  0
   40.2640   13.6000   27.3480 C   0  0  0  0  0
   40.9740   13.7630   28.6920 C   0  0  0  0  0
   42.5060   13.8940   28.4890 C   0  0  0  0  0
   43.3030   13.9050   29.7970 C   0  0  0  0  0
   40.6960   11.2730   27.2020 O   0  0  0  0  0
   38.8450   13.4240   27.5350 O   0  0  0  0  0
   40.4930   14.9320   29.3130 O   0  0  0  0  0
   42.9990   12.7950   27.6750 O   0  0  0  0  0
   42.9260   12.7930   30.5890 O   0  0  0  0  0
   49.6443    9.4413   19.2707 H   0  0  0  0  0
   49.5760    7.6485   19.3547 H   0  0  0  0  0
   47.3458    7.7395   20.3090 H   0  0  0  0  0
   47.5709   10.7134   20.1974 H   0  0  0  0  0
   47.4851    8.9224   22.5769 H   0  0  0  0  0
   49.6521   10.7344   21.4986 H   0  0  0  0  0
   49.8756   10.5122   23.9283 H   0  0  0  0  0
   51.1758    9.6433   23.1625 H   0  0  0  0  0
   47.0565    7.1687   15.6101 H   0  0  0  0  0
   45.3877    7.4773   16.1494 H   0  0  0  0  0
   46.5281    8.8322   15.9631 H   0  0  0  0  0
   47.3347    9.7027   17.9790 H   0  0  0  0  0
   45.4684    9.6970   19.8353 H   0  0  0  0  0
   50.0534    8.3458   24.7086 H   0  0  0  0  0
   46.4163    9.9122   24.0735 H   0  0  0  0  0
   46.4879   12.9474   24.2701 H   0  0  0  0  0
   45.3154   11.0063   26.1964 H   0  0  0  0  0
   43.8811   12.9160   24.4435 H   0  0  0  0  0
   43.9479    9.9120   24.1162 H   0  0  0  0  0
   42.7737   12.2327   22.5203 H   0  0  0  0  0
   41.8623   11.0057   23.4015 H   0  0  0  0  0
   50.9442   12.1895   25.5449 H   0  0  0  0  0
   50.2883   13.0655   26.9497 H   0  0  0  0  0
   49.9590   11.3267   26.7516 H   0  0  0  0  0
   47.7790   10.8288   26.0584 H   0  0  0  0  0
   44.5991   13.1632   26.9854 H   0  0  0  0  0
   42.0750   10.5052   21.1584 H   0  0  0  0  0
   42.6140   13.6520   25.9034 H   0  0  0  0  0
   40.4541   12.4705   25.5331 H   0  0  0  0  0
   40.3894   14.5166   26.7715 H   0  0  0  0  0
   40.7768   12.8866   29.3094 H   0  0  0  0  0
   42.6542   14.8560   27.9984 H   0  0  0  0  0
   43.0949   14.8261   30.3415 H   0  0  0  0  0
   44.3684   13.8476   29.5738 H   0  0  0  0  0
   39.7540   11.1067   27.2827 H   0  0  0  0  0
   38.4994   14.1520   28.0568 H   0  0  0  0  0
   40.9312   15.0468   30.1594 H   0  0  0  0  0
   43.4261   12.8009   31.4084 H   0  0  0  0  0
  2  1  1  0  0  0
 12  1  1  0  0  0
  3  2  1  0  0  0
  2  9  1  0  0  0
  4  3  1  0  0  0
  3 10  1  0  0  0
  4  5  1  0  0  0
 11  4  1  0  0  0
  5  6  1  0  0  0
  5 12  1  0  0  0
  6 13  1  0  0  0
  7  8  1  0  0  0
  9  7  1  0  0  0
  7 14  2  0  0  0
 15 11  1  0  0  0
 16 15  1  0  0  0
 15 26  1  0  0  0
 16 17  1  0  0  0
 23 16  1  0  0  0
 17 18  1  0  0  0
 17 24  1  0  0  0
 18 19  1  0  0  0
 18 25  1  0  0  0
 19 20  1  0  0  0
 26 19  1  0  0  0
 20 27  1  0  0  0
 21 22  1  0  0  0
 21 23  1  0  0  0
 21 28  2  0  0  0
 25 29  1  0  0  0
 29 30  1  0  0  0
 29 38  1  0  0  0
 30 31  1  0  0  0
 30 35  1  0  0  0
 31 32  1  0  0  0
 31 36  1  0  0  0
 32 33  1  0  0  0
 32 37  1  0  0  0
 33 34  1  0  0  0
 33 38  1  0  0  0
 34 39  1  0  0  0
  1 40  1  0  0  0
  1 41  1  0  0  0
  2 42  1  0  0  0
  3 43  1  0  0  0
  4 44  1  0  0  0
  5 45  1  0  0  0
  6 46  1  0  0  0
  6 47  1  0  0  0
  8 48  1  0  0  0
  8 49  1  0  0  0
  8 50  1  0  0  0
  9 51  1  0  0  0
 10 52  1  0  0  0
 13 53  1  0  0  0
 15 54  1  0  0  0
 16 55  1  0  0  0
 17 56  1  0  0  0
 18 57  1  0  0  0
 19 58  1  0  0  0
 20 59  1  0  0  0
 20 60  1  0  0  0
 22 61  1  0  0  0
 22 62  1  0  0  0
 22 63  1  0  0  0
 23 64  1  0  0  0
 24 65  1  0  0  0
 27 66  1  0  0  0
 29 67  1  0  0  0
 30 68  1  0  0  0
 31 69  1  0  0  0
 32 70  1  0  0  0
 33 71  1  0  0  0
 34 72  1  0  0  0
 34 73  1  0  0  0
 35 74  1  0  0  0
 36 75  1  0  0  0
 37 76  1  0  0  0
 39 77  1  0  0  0
M  END
$$$$
