4nvq_ligand
  -I-interpret- 

 52 55  0  0  0  0  0  0  0  0999 V2000
   -7.4980    7.0850   12.4230 N   0  3  0  0  0
   -6.8760   16.8430   10.3700 N   0  0  0  0  0
   -9.0400   14.4110   11.9520 C   0  0  0  0  0
   -7.7030   13.8650   11.9600 C   0  0  0  0  0
   -7.4000   12.6060   12.4960 C   0  0  0  0  0
   -8.5060   11.8430   13.0090 C   0  0  0  0  0
   -6.8790   10.0730   13.4050 C   0  0  0  0  0
   -7.7130    7.6260   13.8050 C   0  0  0  0  0
   -6.4540    5.6920   10.8050 C   0  0  0  0  0
   -7.4690   15.8060   10.9930 C   0  0  0  0  0
   -9.5070   16.9780   12.2580 C   0  0  0  0  0
   -8.9770   15.8010   11.3570 C   0  0  0  0  0
   -9.9780   16.2470   10.2350 C   0  0  0  0  0
  -10.6400   17.2470   11.2330 C   0  0  0  0  0
  -10.1150   13.6950   12.4590 C   0  0  0  0  0
   -6.7780   14.7230   11.3460 N   0  0  0  0  0
   -9.8650   12.3930   13.0010 C   0  0  0  0  0
  -10.8360   11.5820   13.5470 O   0  0  0  0  0
  -12.1900   12.0150   13.6560 C   0  0  0  0  0
   -8.2690   10.5500   13.4690 O   0  0  0  0  0
   -6.7510    8.7760   14.2400 C   0  0  0  0  0
   -6.2590    6.2380   12.2230 C   0  0  0  0  0
   -7.9650    5.3670   10.7580 C   0  0  0  0  0
   -8.6220    6.2600   11.8600 C   0  0  0  0  0
   -7.4117    7.9735   11.9295 H   0  0  0  0  0
   -7.4221   17.6671   10.1189 H   0  0  0  0  0
   -6.3792   12.2249   12.5227 H   0  0  0  0  0
   -6.2105   10.8350   13.8057 H   0  0  0  0  0
   -6.6076    9.8708   12.3689 H   0  0  0  0  0
   -7.5344    6.7983   14.4914 H   0  0  0  0  0
   -8.7196    8.0440   13.8194 H   0  0  0  0  0
   -5.8297    4.8226   10.5990 H   0  0  0  0  0
   -6.1519    6.4021   10.0352 H   0  0  0  0  0
   -8.8358   17.7840   12.5546 H   0  0  0  0  0
   -9.7491   16.7980   13.3054 H   0  0  0  0  0
  -10.5871   15.5053    9.7183 H   0  0  0  0  0
   -9.6021   16.6000    9.2747 H   0  0  0  0  0
  -10.8571   18.2674   10.9172 H   0  0  0  0  0
  -11.6815   17.1142   11.5258 H   0  0  0  0  0
  -11.1220   14.1119   12.4452 H   0  0  0  0  0
   -5.7829   14.5529   11.2002 H   0  0  0  0  0
  -12.2349   12.9109   14.2752 H   0  0  0  0  0
  -12.5798   12.2383   12.6629 H   0  0  0  0  0
  -12.7869   11.2257   14.1129 H   0  0  0  0  0
   -7.0064    9.0328   15.2681 H   0  0  0  0  0
   -5.7338    8.4088   14.1037 H   0  0  0  0  0
   -6.1538    5.4528   12.9716 H   0  0  0  0  0
   -5.3335    6.8020   12.3393 H   0  0  0  0  0
   -8.1506    4.3085   10.9402 H   0  0  0  0  0
   -8.3864    5.5737    9.7743 H   0  0  0  0  0
   -9.4137    6.8868   11.4496 H   0  0  0  0  0
   -9.1032    5.6578   12.6307 H   0  0  0  0  0
  8  1  1  0  0  0
  1 22  1  0  0  0
  1 24  1  0  0  0
 10  2  2  0  0  0
  3  4  4  0  0  0
 12  3  1  0  0  0
  3 15  4  0  0  0
  4  5  4  0  0  0
  4 16  1  0  0  0
  5  6  4  0  0  0
  6 17  4  0  0  0
  6 20  1  0  0  0
 20  7  1  0  0  0
  7 21  1  0  0  0
 21  8  1  0  0  0
 22  9  1  0  0  0
  9 23  1  0  0  0
 10 12  1  0  0  0
 10 16  1  0  0  0
 12 11  1  0  0  0
 11 14  1  0  0  0
 12 13  1  0  0  0
 13 14  1  0  0  0
 15 17  4  0  0  0
 17 18  1  0  0  0
 18 19  1  0  0  0
 23 24  1  0  0  0
  1 25  1  0  0  0
  2 26  1  0  0  0
  5 27  1  0  0  0
  7 28  1  0  0  0
  7 29  1  0  0  0
  8 30  1  0  0  0
  8 31  1  0  0  0
  9 32  1  0  0  0
  9 33  1  0  0  0
 11 34  1  0  0  0
 11 35  1  0  0  0
 13 36  1  0  0  0
 13 37  1  0  0  0
 14 38  1  0  0  0
 14 39  1  0  0  0
 15 40  1  0  0  0
 16 41  1  0  0  0
 19 42  1  0  0  0
 19 43  1  0  0  0
 19 44  1  0  0  0
 21 45  1  0  0  0
 21 46  1  0  0  0
 22 47  1  0  0  0
 22 48  1  0  0  0
 23 49  1  0  0  0
 23 50  1  0  0  0
 24 51  1  0  0  0
 24 52  1  0  0  0
M  END
$$$$
