3n5h_ligand
  -I-interpret- 

 24 25  0  0  0  0  0  0  0  0999 V2000
    0.6950   77.2340   29.2470 Cl  0  0  0  0  0
    2.4080   77.4900   29.1490 C   0  0  0  0  0
    3.2510   76.3740   29.1460 C   0  0  0  0  0
    2.8880   75.0780   29.2560 N   0  0  0  0  0
    3.9500   74.2950   29.2080 C   0  0  0  0  0
    5.0620   75.0790   29.0360 C   0  0  0  0  0
    4.5940   76.5070   29.0260 C   0  0  0  0  0
    5.1860   77.7680   28.9250 C   0  0  0  0  0
    4.3700   78.9290   28.9580 C   0  0  0  0  0
    2.9710   78.7910   29.0710 C   0  0  0  0  0
    6.8750   77.9220   28.7440 Cl  0  0  0  0  0
    6.5040   74.6500   28.8830 C   0  0  0  0  0
    6.8980   74.6690   27.4030 C   0  0  0  0  0
    6.1170   74.9080   26.4870 O   0  0  0  0  0
    8.1770   74.4010   27.1450 O   0  0  0  0  0
    3.8110   72.9550   29.3200 C   0  0  0  0  0
    4.7780   72.2020   29.2930 O   0  0  0  0  0
    2.5820   72.4290   29.4500 O   0  0  0  0  0
    4.8211   79.9194   28.8965 H   0  0  0  0  0
    2.3300   79.6722   29.0981 H   0  0  0  0  0
    6.6223   73.6395   29.2740 H   0  0  0  0  0
    7.1447   75.3378   29.4349 H   0  0  0  0  0
    8.6415   74.2392   27.9694 H   0  0  0  0  0
    1.9318   73.1353   29.4553 H   0  0  0  0  0
  1  2  1  0  0  0
  2  3  4  0  0  0
  2 10  4  0  0  0
  3  4  4  0  0  0
  3  7  4  0  0  0
  4  5  4  0  0  0
  5  6  4  0  0  0
  5 16  1  0  0  0
  6  7  4  0  0  0
  6 12  1  0  0  0
  7  8  4  0  0  0
  8  9  4  0  0  0
  8 11  1  0  0  0
  9 10  4  0  0  0
 12 13  1  0  0  0
 13 14  2  0  0  0
 13 15  1  0  0  0
 16 17  2  0  0  0
 16 18  1  0  0  0
  9 19  1  0  0  0
 10 20  1  0  0  0
 12 21  1  0  0  0
 12 22  1  0  0  0
 15 23  1  0  0  0
 18 24  1  0  0  0
M  END
$$$$
