5dex_ligand
  -I-interpret- 

 39 40  0  0  0  0  0  0  0  0999 V2000
  -17.3660   20.7340  -13.0230 C   0  0  0  0  0
  -18.0480   19.1720  -15.5100 C   0  0  0  0  0
  -19.0500   19.2940  -14.4280 C   0  0  0  0  0
  -20.5260   21.6920   -8.9320 C   0  0  0  0  0
  -20.9680   15.9530  -12.1100 N   0  3  0  0  0
  -20.5690   16.7220  -10.9900 C   0  0  0  0  0
  -19.7590   17.9100  -11.4290 C   0  0  0  0  0
  -20.5900   19.0620  -11.6250 C   0  0  0  0  0
  -21.1260   19.6420  -10.2870 C   0  0  0  0  0
  -20.2660   20.6690  -10.0470 C   0  0  0  0  0
  -19.8730   21.2050  -11.3300 N   0  3  0  0  0
  -19.6710   20.1720  -12.1110 N   0  0  0  0  0
  -18.6970   20.0700  -13.1920 C   0  0  0  0  0
  -16.3570   20.6030  -14.1260 C   0  0  0  0  0
  -16.6800   19.8020  -15.3430 C   0  0  0  0  0
  -19.8010   22.7220   -8.8470 O   0  0  0  0  0
  -21.4750   21.5070   -8.1170 O   0  0  0  0  0
  -19.5410   15.9470  -10.1700 C   0  0  0  0  0
  -19.2380   14.7490  -10.4240 O   0  0  0  0  0
  -18.9850   16.5740   -9.2400 O   0  0  0  0  0
  -17.1352   21.2993  -12.1201 H   0  0  0  0  0
  -18.2931   18.6309  -16.4239 H   0  0  0  0  0
  -20.0301   18.8273  -14.5268 H   0  0  0  0  0
  -21.5155   15.1526  -11.7937 H   0  0  0  0  0
  -21.5344   16.5294  -12.7323 H   0  0  0  0  0
  -20.1404   15.6249  -12.6079 H   0  0  0  0  0
  -21.4829   16.9780  -10.4540 H   0  0  0  0  0
  -19.2717   17.6684  -12.3736 H   0  0  0  0  0
  -19.0273   18.1373  -10.6537 H   0  0  0  0  0
  -21.4066   18.7702  -12.2853 H   0  0  0  0  0
  -21.1502   18.9076   -9.4819 H   0  0  0  0  0
  -22.1667   19.9607  -10.3456 H   0  0  0  0  0
  -19.4283   20.2218   -9.5119 H   0  0  0  0  0
  -19.0309   21.7747  -11.2484 H   0  0  0  0  0
  -20.5949   21.8176  -11.7095 H   0  0  0  0  0
  -15.3874   21.0933  -14.0382 H   0  0  0  0  0
  -15.9255   19.6690  -16.1183 H   0  0  0  0  0
  -21.9179   20.6812   -8.3254 H   0  0  0  0  0
  -19.7636   14.4372  -11.1644 H   0  0  0  0  0
 13  1  4  0  0  0
  1 14  4  0  0  0
  3  2  4  0  0  0
  2 15  4  0  0  0
 13  3  4  0  0  0
 10  4  1  0  0  0
  4 16  2  0  0  0
  4 17  1  0  0  0
  6  5  1  0  0  0
  7  6  1  0  0  0
  6 18  1  0  0  0
  8  7  1  0  0  0
  8  9  1  0  0  0
 12  8  1  0  0  0
 10  9  1  0  0  0
 11 10  1  0  0  0
 12 11  1  0  0  0
 12 13  1  0  0  0
 14 15  4  0  0  0
 18 19  1  0  0  0
 18 20  2  0  0  0
  1 21  1  0  0  0
  2 22  1  0  0  0
  3 23  1  0  0  0
  5 24  1  0  0  0
  5 25  1  0  0  0
  5 26  1  0  0  0
  6 27  1  0  0  0
  7 28  1  0  0  0
  7 29  1  0  0  0
  8 30  1  0  0  0
  9 31  1  0  0  0
  9 32  1  0  0  0
 10 33  1  0  0  0
 11 34  1  0  0  0
 11 35  1  0  0  0
 14 36  1  0  0  0
 15 37  1  0  0  0
 17 38  1  0  0  0
 19 39  1  0  0  0
M  END
$$$$
