5l6h_ligand
  -I-interpret- 

 48 51  0  0  0  0  0  0  0  0999 V2000
   -4.4280   28.0770  -10.0740 C   0  0  0  0  0
   -8.1700   25.5100  -11.8910 C   0  0  0  0  0
   -6.5050   27.0130  -10.8820 C   0  0  0  0  0
  -10.5270   24.7650  -13.1050 N   0  0  0  0  0
  -11.4140   26.6410  -15.2970 C   0  0  0  0  0
   -7.0650   25.7920  -11.1600 N   0  0  0  0  0
   -9.9760   24.0670  -12.1290 C   0  0  0  0  0
   -2.1600   27.5710   -8.9950 C   0  0  0  0  0
   -3.2820   27.8260   -9.5430 C   0  0  0  0  0
   -5.2150   26.9660  -10.3540 C   0  0  0  0  0
   -4.9350   29.3160  -10.3070 C   0  0  0  0  0
   -6.2200   29.3920  -10.8310 C   0  0  0  0  0
   -7.0070   28.2810  -11.1040 C   0  0  0  0  0
   -8.8210   24.4100  -11.5450 N   0  0  0  0  0
   -9.8860   25.8470  -13.5400 C   0  0  0  0  0
   -8.6990   26.2510  -12.9550 C   0  0  0  0  0
   -8.3290   27.3790  -13.5870 N   0  0  0  0  0
   -9.2910   27.6770  -14.4740 C   0  0  0  0  0
  -10.2260   26.7370  -14.4470 N   0  0  0  0  0
  -10.9840   26.3270  -16.6350 O   0  0  0  0  0
  -12.2290   27.9050  -15.4060 C   0  0  0  0  0
  -13.1710   27.9420  -14.3500 O   0  0  0  0  0
  -12.8850   27.7590  -16.7920 C   0  0  0  0  0
  -14.1840   27.1690  -16.7950 O   0  0  0  0  0
  -11.9720   26.7820  -17.5410 C   0  0  0  0  0
  -11.3520   27.4320  -18.8030 C   0  0  0  0  0
  -12.3690   27.5280  -19.8340 O   0  0  0  0  0
  -12.5150   28.8310  -20.6420 S   0  0  0  0  0
  -13.6790   28.7410  -21.4810 O   0  0  0  0  0
  -12.4440   30.0440  -19.9140 O   0  0  0  0  0
  -11.1970   28.8460  -21.5430 N   0  0  0  0  0
  -12.0438   25.8828  -14.8317 H   0  0  0  0  0
   -6.5833   24.9860  -10.7617 H   0  0  0  0  0
  -10.4859   23.1683  -11.7820 H   0  0  0  0  0
   -4.7918   25.9835  -10.1451 H   0  0  0  0  0
   -4.3569   30.2146  -10.0915 H   0  0  0  0  0
   -6.6332   30.3789  -11.0393 H   0  0  0  0  0
   -8.0175   28.4088  -11.4922 H   0  0  0  0  0
   -9.3021   28.5565  -15.1177 H   0  0  0  0  0
  -11.6648   28.8339  -15.3225 H   0  0  0  0  0
  -12.7089   28.0335  -13.5135 H   0  0  0  0  0
  -13.0008   28.7555  -17.2182 H   0  0  0  0  0
  -14.5098   27.1199  -17.6967 H   0  0  0  0  0
  -12.5518   25.9331  -17.9033 H   0  0  0  0  0
  -10.5227   26.8218  -19.1608 H   0  0  0  0  0
  -10.9812   28.4275  -18.5590 H   0  0  0  0  0
  -11.2731   28.7950  -22.5589 H   0  0  0  0  0
  -10.2789   28.9066  -21.1027 H   0  0  0  0  0
  1  9  1  0  0  0
 10  1  4  0  0  0
  1 11  4  0  0  0
  2  6  1  0  0  0
  2 14  4  0  0  0
 16  2  4  0  0  0
  6  3  1  0  0  0
  3 10  4  0  0  0
  3 13  4  0  0  0
  4  7  4  0  0  0
 15  4  4  0  0  0
 19  5  1  0  0  0
  5 20  1  0  0  0
  5 21  1  0  0  0
  7 14  4  0  0  0
  9  8  3  0  0  0
 12 11  4  0  0  0
 13 12  4  0  0  0
 15 16  4  0  0  0
 15 19  4  0  0  0
 16 17  4  0  0  0
 17 18  4  0  0  0
 18 19  4  0  0  0
 20 25  1  0  0  0
 21 22  1  0  0  0
 21 23  1  0  0  0
 23 24  1  0  0  0
 23 25  1  0  0  0
 25 26  1  0  0  0
 26 27  1  0  0  0
 27 28  1  0  0  0
 28 29  2  0  0  0
 28 30  2  0  0  0
 28 31  1  0  0  0
  5 32  1  0  0  0
  6 33  1  0  0  0
  7 34  1  0  0  0
 10 35  1  0  0  0
 11 36  1  0  0  0
 12 37  1  0  0  0
 13 38  1  0  0  0
 18 39  1  0  0  0
 21 40  1  0  0  0
 22 41  1  0  0  0
 23 42  1  0  0  0
 24 43  1  0  0  0
 25 44  1  0  0  0
 26 45  1  0  0  0
 26 46  1  0  0  0
 31 47  1  0  0  0
 31 48  1  0  0  0
M  END
$$$$
