### 
### Created by X-TOOL on Mon Sep 10 21:13:15 2018
### 

@<TRIPOS>MOLECULE
4jfe_ligand
  139   138     1     0     0
SMALL
GAST_HUCK


@<TRIPOS>ATOM
      1 N          50.1260  -14.4560   31.4840 N.4       1 GLU         0.2380
      2 CA         49.1950  -13.4090   31.9220 C.3       1 GLU         0.0665
      3 C          49.8310  -12.0770   31.5390 C.2       1 GLU         0.2268
      4 O          50.8590  -11.6610   32.1360 O.2       1 GLU        -0.3907
      5 CB         49.0070  -13.4980   33.4270 C.3       1 GLU         0.0194
      6 CG         47.5650  -13.2080   33.9320 C.3       1 GLU         0.0075
      7 CD         47.1050  -11.8220   33.7220 C.2       1 GLU         0.0351
      8 OE1        46.0500  -11.4610   34.3020 O.co2     1 GLU        -0.5690
      9 OE2        47.7780  -11.0740   32.9990 O.co2     1 GLU        -0.5690
     10 N          49.2520  -11.4150   30.5320 N.am      1 LEU        -0.2610
     11 CA         49.7620  -10.1280   30.0660 C.3       1 LEU         0.1313
     12 C          49.7070   -9.1080   31.1290 C.2       1 LEU         0.2039
     13 O          48.8750   -9.1720   32.0080 O.2       1 LEU        -0.3944
     14 CB         48.9520   -9.6390   28.8550 C.3       1 LEU        -0.0101
     15 CG         49.2500  -10.2990   27.5110 C.3       1 LEU        -0.0425
     16 CD1        48.1830  -10.0060   26.5300 C.3       1 LEU        -0.0625
     17 CD2        50.5550   -9.8430   27.0180 C.3       1 LEU        -0.0625
     18 N          50.6140   -8.1540   31.0710 N.am      1 ALA        -0.2640
     19 CA         50.6120   -7.0770   32.0270 C.3       1 ALA         0.1282
     20 C          49.4090   -6.1950   31.6860 C.2       1 ALA         0.2034
     21 O          49.1330   -5.9480   30.5140 O.2       1 ALA        -0.3944
     22 CB         51.8900   -6.2900   31.9460 C.3       1 ALA        -0.0244
     23 N          48.6770   -5.7580   32.7150 N.am      1 GLY        -0.2664
     24 CA         47.4930   -4.9040   32.5250 C.3       1 GLY         0.1201
     25 C          47.7720   -3.4980   32.9490 C.2       1 GLY         0.2008
     26 O          46.8960   -2.7250   33.0910 O.2       1 GLY        -0.3947
     27 N          49.0300   -3.1960   33.1750 N.am      1 ILE        -0.2637
     28 CA         49.4370   -1.8740   33.5590 C.3       1 ILE         0.1335
     29 C          50.8160   -1.6400   33.0780 C.2       1 ILE         0.2040
     30 O          51.4920   -2.5630   32.6650 O.2       1 ILE        -0.3944
     31 CB         49.4240   -1.6890   35.0900 C.3       1 ILE        -0.0037
     32 CG1        50.4290   -2.6310   35.7570 C.3       1 ILE        -0.0491
     33 CG2        48.0210   -1.8970   35.6470 C.3       1 ILE        -0.0582
     34 CD1        50.4780   -2.5110   37.2940 C.3       1 ILE        -0.0648
     35 N          51.2400   -0.3880   33.1080 N.am      1 GLY        -0.2664
     36 CA         52.6260   -0.0140   32.7200 C.3       1 GLY         0.1201
     37 C          52.9360   -0.0150   31.2500 C.2       1 GLY         0.2007
     38 O          54.0800    0.1900   30.8630 O.2       1 GLY        -0.3947
     39 N          51.9250   -0.2300   30.4200 N.am      1 ALA        -0.2642
     40 CA         52.1180   -0.2390   28.9800 C.3       1 ALA         0.1282
     41 C          51.6190    1.0540   28.3940 C.2       1 ALA         0.2036
     42 O          50.4200    1.2430   28.2240 O.2       1 ALA        -0.3944
     43 CB         51.3990   -1.3890   28.3780 C.3       1 ALA        -0.0244
     44 N          52.5350    1.9590   28.0990 N.am      1 LEU        -0.2637
     45 CA         52.1760    3.2200   27.5280 C.3       1 LEU         0.1312
     46 C          52.8450    3.4440   26.2020 C.2       1 LEU         0.2040
     47 O          53.7770    2.7000   25.8250 O.2       1 LEU        -0.3944
     48 CB         52.5550    4.3600   28.4530 C.3       1 LEU        -0.0101
     49 CG         51.9630    4.3890   29.8290 C.3       1 LEU        -0.0425
     50 CD1        52.0560    5.8350   30.3430 C.3       1 LEU        -0.0625
     51 CD2        50.5580    3.9540   29.7820 C.3       1 LEU        -0.0625
     52 N          52.3730    4.4760   25.4710 N.am      1 THR        -0.2613
     53 CA         52.9670    4.8260   24.2020 C.3       1 THR         0.1564
     54 C          54.2030    5.5730   24.5050 C.2       1 THR         0.2059
     55 O          54.2770    6.2730   25.5170 O.2       1 THR        -0.3943
     56 CB         52.0320    5.7270   23.2920 C.3       1 THR         0.0924
     57 OG1        51.6710    6.9160   23.9870 O.3       1 THR        -0.3874
     58 CG2        50.8230    5.0160   22.9300 C.3       1 THR        -0.0346
     59 N          55.1910    5.4230   23.6320 N.am      1 VAL        -0.2692
     60 CA         56.4580    6.0730   23.7690 C.3       1 VAL         0.0967
     61 C          56.3250    7.6290   23.6240 C.2       1 VAL         0.0603
     62 O          57.2880    8.4210   23.8990 O.co2     1 VAL        -0.5666
     63 CB         57.4600    5.5260   22.7070 C.3       1 VAL        -0.0118
     64 CG1        57.7410    4.0430   22.9510 C.3       1 VAL        -0.0590
     65 CG2        56.9280    5.7360   21.3390 C.3       1 VAL        -0.0590
     66 OXT        55.2630    8.1350   23.2430 O.co2     1 VAL        -0.5666
     67 H1         49.7475  -15.3609   31.7165 H         1 GLU         0.2015
     68 H2         51.0123  -14.3332   31.9481 H         1 GLU         0.2015
     69 H3         50.2574  -14.3930   30.4866 H         1 GLU         0.2015
     70 H4         48.2228  -13.5244   31.4205 H         1 GLU         0.1099
     71 H5         49.6852  -12.7715   33.8983 H         1 GLU         0.0363
     72 H6         49.2808  -14.5149   33.7447 H         1 GLU         0.0363
     73 H7         47.5305  -13.4206   35.0107 H         1 GLU         0.0434
     74 H8         46.8748  -13.8818   33.4032 H         1 GLU         0.0434
     75 H9         48.4492  -11.8111   30.0864 H         1 LEU         0.1884
     76 H10        50.8106  -10.2607   29.7613 H         1 LEU         0.0800
     77 H11        49.1389   -8.5607   28.7440 H         1 LEU         0.0315
     78 H12        47.8878   -9.8057   29.0780 H         1 LEU         0.0315
     79 H13        49.2931  -11.3882   27.6583 H         1 LEU         0.0298
     80 H14        48.4217  -10.4921   25.5725 H         1 LEU         0.0232
     81 H15        48.1104   -8.9186   26.3810 H         1 LEU         0.0232
     82 H16        47.2233  -10.3894   26.9066 H         1 LEU         0.0232
     83 H17        51.3295  -10.0723   27.7647 H         1 LEU         0.0232
     84 H18        50.5226   -8.7572   26.8449 H         1 LEU         0.0232
     85 H19        50.7910  -10.3578   26.0750 H         1 LEU         0.0232
     86 H20        51.3117   -8.1781   30.3550 H         1 ALA         0.1883
     87 H21        50.5033   -7.4805   33.0445 H         1 ALA         0.0797
     88 H22        51.8657   -5.4745   32.6838 H         1 ALA         0.0277
     89 H23        51.9972   -5.8676   30.9360 H         1 ALA         0.0277
     90 H24        52.7424   -6.9519   32.1590 H         1 ALA         0.0277
     91 H25        48.9418   -6.0193   33.6432 H         1 GLY         0.1881
     92 H26        46.6621   -5.3025   33.1257 H         1 GLY         0.0763
     93 H27        47.2124   -4.9098   31.4614 H         1 GLY         0.0763
     94 H28        49.7251   -3.9082   33.0767 H         1 ILE         0.1883
     95 H29        48.7546   -1.1423   33.1018 H         1 ILE         0.0803
     96 H30        49.7278   -0.6553   35.3118 H         1 ILE         0.0345
     97 H31        51.4300   -2.4055   35.3606 H         1 ILE         0.0267
     98 H32        50.1570   -3.6653   35.4995 H         1 ILE         0.0267
     99 H33        47.3230   -1.2076   35.1494 H         1 ILE         0.0235
    100 H34        48.0230   -1.6990   36.7290 H         1 ILE         0.0235
    101 H35        47.7041   -2.9344   35.4646 H         1 ILE         0.0235
    102 H36        51.2206   -3.2174   37.6934 H         1 ILE         0.0230
    103 H37        49.4877   -2.7449   37.7118 H         1 ILE         0.0230
    104 H38        50.7607   -1.4852   37.5729 H         1 ILE         0.0230
    105 H39        50.6087    0.3301   33.4009 H         1 GLY         0.1881
    106 H40        53.3117   -0.7235   33.2062 H         1 GLY         0.0763
    107 H41        52.8171    1.0002   33.1007 H         1 GLY         0.0763
    108 H42        51.0108   -0.3893   30.7926 H         1 ALA         0.1883
    109 H43        53.1919   -0.3382   28.7633 H         1 ALA         0.0797
    110 H44        51.5512   -1.3869   27.2886 H         1 ALA         0.0277
    111 H45        50.3245   -1.3057   28.5982 H         1 ALA         0.0277
    112 H46        51.7883   -2.3269   28.8008 H         1 ALA         0.0277
    113 H47        53.4981    1.7584   28.2785 H         1 LEU         0.1883
    114 H48        51.0863    3.2309   27.3786 H         1 LEU         0.0800
    115 H49        52.2620    5.2952   27.9534 H         1 LEU         0.0315
    116 H50        53.6484    4.3338   28.5701 H         1 LEU         0.0315
    117 H51        52.5291    3.7199   30.4937 H         1 LEU         0.0298
    118 H52        51.6286    5.8926   31.3549 H         1 LEU         0.0232
    119 H53        51.4954    6.5002   29.6698 H         1 LEU         0.0232
    120 H54        53.1105    6.1467   30.3721 H         1 LEU         0.0232
    121 H55        50.5068    2.9190   29.4129 H         1 LEU         0.0232
    122 H56        49.9926    4.6126   29.1063 H         1 LEU         0.0232
    123 H57        50.1243    4.0051   30.7916 H         1 LEU         0.0232
    124 H58        51.5985    5.0074   25.8142 H         1 THR         0.1884
    125 H59        53.2094    3.9045   23.6525 H         1 THR         0.0826
    126 H60        52.5797    5.9945   22.3763 H         1 THR         0.0639
    127 H61        52.4561    7.4036   24.2071 H         1 THR         0.2101
    128 H62        50.1929    5.6612   22.3002 H         1 THR         0.0257
    129 H63        50.2716    4.7423   23.8416 H         1 THR         0.0257
    130 H64        51.0863    4.1046   22.3732 H         1 THR         0.0257
    131 H65        55.0431    4.8282   22.8419 H         1 VAL         0.1875
    132 H66        56.8530    5.8512   24.7714 H         1 VAL         0.0729
    133 H67        58.4057    6.0798   22.8020 H         1 VAL         0.0336
    134 H68        58.4486    3.6745   22.1937 H         1 VAL         0.0234
    135 H69        56.8013    3.4755   22.8816 H         1 VAL         0.0234
    136 H70        58.1753    3.9121   23.9531 H         1 VAL         0.0234
    137 H71        56.7322    6.8070   21.1822 H         1 VAL         0.0234
    138 H72        55.9920    5.1708   21.2188 H         1 VAL         0.0234
    139 H73        57.6650    5.3861   20.6012 H         1 VAL         0.0234
@<TRIPOS>BOND
     1    1    2 1  
     2    2    3 1  
     3    2    5 1  
     4    3    4 2  
     5    3   10 am 
     6    5    6 1  
     7    6    7 1  
     8    7    8 ar 
     9    7    9 ar 
    10   10   11 1  
    11   11   12 1  
    12   11   14 1  
    13   12   13 2  
    14   12   18 am 
    15   14   15 1  
    16   15   16 1  
    17   15   17 1  
    18   18   19 1  
    19   19   20 1  
    20   19   22 1  
    21   20   21 2  
    22   20   23 am 
    23   23   24 1  
    24   24   25 1  
    25   25   26 2  
    26   25   27 am 
    27   27   28 1  
    28   28   29 1  
    29   28   31 1  
    30   29   30 2  
    31   29   35 am 
    32   31   32 1  
    33   31   33 1  
    34   32   34 1  
    35   35   36 1  
    36   36   37 1  
    37   37   38 2  
    38   37   39 am 
    39   39   40 1  
    40   40   41 1  
    41   40   43 1  
    42   41   42 2  
    43   41   44 am 
    44   44   45 1  
    45   45   46 1  
    46   45   48 1  
    47   46   47 2  
    48   46   52 am 
    49   48   49 1  
    50   49   50 1  
    51   49   51 1  
    52   52   53 1  
    53   53   54 1  
    54   53   56 1  
    55   54   55 2  
    56   54   59 am 
    57   56   57 1  
    58   56   58 1  
    59   59   60 1  
    60   60   61 1  
    61   60   63 1  
    62   61   62 ar 
    63   61   66 ar 
    64   63   64 1  
    65   63   65 1  
    66    1   67 1  
    67    1   68 1  
    68    1   69 1  
    69    2   70 1  
    70    5   71 1  
    71    5   72 1  
    72    6   73 1  
    73    6   74 1  
    74   10   75 1  
    75   11   76 1  
    76   14   77 1  
    77   14   78 1  
    78   15   79 1  
    79   16   80 1  
    80   16   81 1  
    81   16   82 1  
    82   17   83 1  
    83   17   84 1  
    84   17   85 1  
    85   18   86 1  
    86   19   87 1  
    87   22   88 1  
    88   22   89 1  
    89   22   90 1  
    90   23   91 1  
    91   24   92 1  
    92   24   93 1  
    93   27   94 1  
    94   28   95 1  
    95   31   96 1  
    96   32   97 1  
    97   32   98 1  
    98   33   99 1  
    99   33  100 1  
   100   33  101 1  
   101   34  102 1  
   102   34  103 1  
   103   34  104 1  
   104   35  105 1  
   105   36  106 1  
   106   36  107 1  
   107   39  108 1  
   108   40  109 1  
   109   43  110 1  
   110   43  111 1  
   111   43  112 1  
   112   44  113 1  
   113   45  114 1  
   114   48  115 1  
   115   48  116 1  
   116   49  117 1  
   117   50  118 1  
   118   50  119 1  
   119   50  120 1  
   120   51  121 1  
   121   51  122 1  
   122   51  123 1  
   123   52  124 1  
   124   53  125 1  
   125   56  126 1  
   126   57  127 1  
   127   58  128 1  
   128   58  129 1  
   129   58  130 1  
   130   59  131 1  
   131   60  132 1  
   132   63  133 1  
   133   64  134 1  
   134   64  135 1  
   135   64  136 1  
   136   65  137 1  
   137   65  138 1  
   138   65  139 1  
@<TRIPOS>SUBSTRUCTURE
     1 GLU         1

