4jfe_ligand
  -I-interpret- 

141140  0  0  0  0  0  0  0  0999 V2000
   50.1260  -14.4560   31.4840 N   0  3  0  0  0
   49.1950  -13.4090   31.9220 C   0  0  0  0  0
   49.8310  -12.0770   31.5390 C   0  0  0  0  0
   50.8590  -11.6610   32.1360 O   0  0  0  0  0
   49.0070  -13.4980   33.4270 C   0  0  0  0  0
   47.5650  -13.2080   33.9320 C   0  0  0  0  0
   47.1050  -11.8220   33.7220 C   0  0  0  0  0
   46.0500  -11.4610   34.3020 O   0  0  0  0  0
   47.7780  -11.0740   32.9990 O   0  0  0  0  0
   49.2520  -11.4150   30.5320 N   0  0  0  0  0
   49.7620  -10.1280   30.0660 C   0  0  0  0  0
   49.7070   -9.1080   31.1290 C   0  0  0  0  0
   48.8750   -9.1720   32.0080 O   0  0  0  0  0
   48.9520   -9.6390   28.8550 C   0  0  0  0  0
   49.2500  -10.2990   27.5110 C   0  0  0  0  0
   48.1830  -10.0060   26.5300 C   0  0  0  0  0
   50.5550   -9.8430   27.0180 C   0  0  0  0  0
   50.6140   -8.1540   31.0710 N   0  0  0  0  0
   50.6120   -7.0770   32.0270 C   0  0  0  0  0
   49.4090   -6.1950   31.6860 C   0  0  0  0  0
   49.1330   -5.9480   30.5140 O   0  0  0  0  0
   51.8900   -6.2900   31.9460 C   0  0  0  0  0
   48.6770   -5.7580   32.7150 N   0  0  0  0  0
   47.4930   -4.9040   32.5250 C   0  0  0  0  0
   47.7720   -3.4980   32.9490 C   0  0  0  0  0
   46.8960   -2.7250   33.0910 O   0  0  0  0  0
   49.0300   -3.1960   33.1750 N   0  0  0  0  0
   49.4370   -1.8740   33.5590 C   0  0  0  0  0
   50.8160   -1.6400   33.0780 C   0  0  0  0  0
   51.4920   -2.5630   32.6650 O   0  0  0  0  0
   49.4240   -1.6890   35.0900 C   0  0  0  0  0
   50.4290   -2.6310   35.7570 C   0  0  0  0  0
   48.0210   -1.8970   35.6470 C   0  0  0  0  0
   50.4780   -2.5110   37.2940 C   0  0  0  0  0
   51.2400   -0.3880   33.1080 N   0  0  0  0  0
   52.6260   -0.0140   32.7200 C   0  0  0  0  0
   52.9360   -0.0150   31.2500 C   0  0  0  0  0
   54.0800    0.1900   30.8630 O   0  0  0  0  0
   51.9250   -0.2300   30.4200 N   0  0  0  0  0
   52.1180   -0.2390   28.9800 C   0  0  0  0  0
   51.6190    1.0540   28.3940 C   0  0  0  0  0
   50.4200    1.2430   28.2240 O   0  0  0  0  0
   51.3990   -1.3890   28.3780 C   0  0  0  0  0
   52.5350    1.9590   28.0990 N   0  0  0  0  0
   52.1760    3.2200   27.5280 C   0  0  0  0  0
   52.8450    3.4440   26.2020 C   0  0  0  0  0
   53.7770    2.7000   25.8250 O   0  0  0  0  0
   52.5550    4.3600   28.4530 C   0  0  0  0  0
   51.9630    4.3890   29.8290 C   0  0  0  0  0
   52.0560    5.8350   30.3430 C   0  0  0  0  0
   50.5580    3.9540   29.7820 C   0  0  0  0  0
   52.3730    4.4760   25.4710 N   0  0  0  0  0
   52.9670    4.8260   24.2020 C   0  0  0  0  0
   54.2030    5.5730   24.5050 C   0  0  0  0  0
   54.2770    6.2730   25.5170 O   0  0  0  0  0
   52.0320    5.7270   23.2920 C   0  0  0  0  0
   51.6710    6.9160   23.9870 O   0  0  0  0  0
   50.8230    5.0160   22.9300 C   0  0  0  0  0
   55.1910    5.4230   23.6320 N   0  0  0  0  0
   56.4580    6.0730   23.7690 C   0  0  0  0  0
   56.3250    7.6290   23.6240 C   0  0  0  0  0
   57.2880    8.4210   23.8990 O   0  0  0  0  0
   57.4600    5.5260   22.7070 C   0  0  0  0  0
   57.7410    4.0430   22.9510 C   0  0  0  0  0
   56.9280    5.7360   21.3390 C   0  0  0  0  0
   55.2630    8.1350   23.2430 O   0  0  0  0  0
   50.2521  -14.3962   30.4736 H   0  0  0  0  0
   51.0248  -14.3260   31.9483 H   0  0  0  0  0
   49.7457  -15.3708   31.7268 H   0  0  0  0  0
   48.2154  -13.5164   31.4562 H   0  0  0  0  0
   49.6521  -12.7384   33.8686 H   0  0  0  0  0
   49.2377  -14.5247   33.7112 H   0  0  0  0  0
   47.5646  -13.3827   35.0079 H   0  0  0  0  0
   46.8945  -13.8540   33.3652 H   0  0  0  0  0
   45.6955  -12.1970   34.8062 H   0  0  0  0  0
   48.4331  -11.8190   30.0775 H   0  0  0  0  0
   50.8031  -10.2750   29.7787 H   0  0  0  0  0
   49.2055   -8.5860   28.7326 H   0  0  0  0  0
   47.9113   -9.8740   29.0781 H   0  0  0  0  0
   49.2817  -11.3799   27.6476 H   0  0  0  0  0
   47.2326  -10.3864   26.9044 H   0  0  0  0  0
   48.1120   -8.9282   26.3833 H   0  0  0  0  0
   48.4206  -10.4882   25.5818 H   0  0  0  0  0
   50.5372   -8.7601   26.8947 H   0  0  0  0  0
   51.3286  -10.1156   27.7358 H   0  0  0  0  0
   50.7649  -10.3158   26.0586 H   0  0  0  0  0
   51.3256   -8.1786   30.3407 H   0  0  0  0  0
   50.5411   -7.4584   33.0456 H   0  0  0  0  0
   52.7338   -6.9469   32.1572 H   0  0  0  0  0
   51.9950   -5.8721   30.9448 H   0  0  0  0  0
   51.8648   -5.4823   32.6775 H   0  0  0  0  0
   48.9471   -6.0245   33.6618 H   0  0  0  0  0
   46.6777   -5.2969   33.1325 H   0  0  0  0  0
   47.2282   -4.9041   31.4677 H   0  0  0  0  0
   49.7390   -3.9224   33.0747 H   0  0  0  0  0
   48.7331   -1.1675   33.1192 H   0  0  0  0  0
   49.7241   -0.6655   35.3147 H   0  0  0  0  0
   51.4175   -2.3676   35.3807 H   0  0  0  0  0
   50.1216   -3.6501   35.5222 H   0  0  0  0  0
   47.3422   -1.1716   35.1986 H   0  0  0  0  0
   47.6837   -2.9063   35.4111 H   0  0  0  0  0
   48.0370   -1.7614   36.7284 H   0  0  0  0  0
   50.7582   -1.4942   37.5690 H   0  0  0  0  0
   49.4962   -2.7430   37.7068 H   0  0  0  0  0
   51.2141   -3.2114   37.6886 H   0  0  0  0  0
   50.5961    0.3445   33.4067 H   0  0  0  0  0
   53.2768   -0.7663   33.1655 H   0  0  0  0  0
   52.7662    1.0132   33.0566 H   0  0  0  0  0
   50.9925   -0.3924   30.8001 H   0  0  0  0  0
   53.1809   -0.3403   28.7605 H   0  0  0  0  0
   51.7856   -2.3176   28.7978 H   0  0  0  0  0
   50.3345   -1.3053   28.5970 H   0  0  0  0  0
   51.5506   -1.3859   27.2986 H   0  0  0  0  0
   53.5174    1.7544   28.2820 H   0  0  0  0  0
   51.0958    3.1981   27.3836 H   0  0  0  0  0
   52.1838    5.2604   27.9634 H   0  0  0  0  0
   53.6293    4.2581   28.6065 H   0  0  0  0  0
   52.5017    3.7139   30.4939 H   0  0  0  0  0
   53.1013    6.1427   30.3713 H   0  0  0  0  0
   51.5002    6.4931   29.6751 H   0  0  0  0  0
   51.6322    5.8908   31.3457 H   0  0  0  0  0
   49.9931    4.6239   29.1338 H   0  0  0  0  0
   50.5064    2.9382   29.3902 H   0  0  0  0  0
   50.1375    3.9788   30.7873 H   0  0  0  0  0
   51.5830    5.0181   25.8210 H   0  0  0  0  0
   53.1470    3.9095   23.6401 H   0  0  0  0  0
   52.5871    5.9764   22.3877 H   0  0  0  0  0
   51.1056    7.4533   23.4273 H   0  0  0  0  0
   51.0853    4.1132   22.3784 H   0  0  0  0  0
   50.2777    4.7454   23.8341 H   0  0  0  0  0
   50.1995    5.6563   22.3060 H   0  0  0  0  0
   55.0401    4.8163   22.8261 H   0  0  0  0  0
   56.8350    5.8580   24.7689 H   0  0  0  0  0
   58.0504    7.9102   24.1808 H   0  0  0  0  0
   58.3978    6.0736   22.8009 H   0  0  0  0  0
   58.1712    3.9147   23.9442 H   0  0  0  0  0
   56.8091    3.4818   22.8820 H   0  0  0  0  0
   58.4422    3.6790   22.2001 H   0  0  0  0  0
   55.9782    5.2114   21.2354 H   0  0  0  0  0
   56.7762    6.8019   21.1692 H   0  0  0  0  0
   57.6399    5.3484   20.6102 H   0  0  0  0  0
  1  2  1  0  0  0
  2  3  1  0  0  0
  2  5  1  0  0  0
  3  4  2  0  0  0
  3 10  1  0  0  0
  5  6  1  0  0  0
  6  7  1  0  0  0
  7  8  1  0  0  0
  7  9  2  0  0  0
 10 11  1  0  0  0
 11 12  1  0  0  0
 11 14  1  0  0  0
 12 13  2  0  0  0
 12 18  1  0  0  0
 14 15  1  0  0  0
 15 16  1  0  0  0
 15 17  1  0  0  0
 18 19  1  0  0  0
 19 20  1  0  0  0
 19 22  1  0  0  0
 20 21  2  0  0  0
 20 23  1  0  0  0
 23 24  1  0  0  0
 24 25  1  0  0  0
 25 26  2  0  0  0
 25 27  1  0  0  0
 27 28  1  0  0  0
 28 29  1  0  0  0
 28 31  1  0  0  0
 29 30  2  0  0  0
 29 35  1  0  0  0
 31 32  1  0  0  0
 31 33  1  0  0  0
 32 34  1  0  0  0
 35 36  1  0  0  0
 36 37  1  0  0  0
 37 38  2  0  0  0
 37 39  1  0  0  0
 39 40  1  0  0  0
 40 41  1  0  0  0
 40 43  1  0  0  0
 41 42  2  0  0  0
 41 44  1  0  0  0
 44 45  1  0  0  0
 45 46  1  0  0  0
 45 48  1  0  0  0
 46 47  2  0  0  0
 46 52  1  0  0  0
 48 49  1  0  0  0
 49 50  1  0  0  0
 49 51  1  0  0  0
 52 53  1  0  0  0
 53 54  1  0  0  0
 53 56  1  0  0  0
 54 55  2  0  0  0
 54 59  1  0  0  0
 56 57  1  0  0  0
 56 58  1  0  0  0
 59 60  1  0  0  0
 60 61  1  0  0  0
 60 63  1  0  0  0
 61 62  1  0  0  0
 61 66  2  0  0  0
 63 64  1  0  0  0
 63 65  1  0  0  0
  1 67  1  0  0  0
  1 68  1  0  0  0
  1 69  1  0  0  0
  2 70  1  0  0  0
  5 71  1  0  0  0
  5 72  1  0  0  0
  6 73  1  0  0  0
  6 74  1  0  0  0
  8 75  1  0  0  0
 10 76  1  0  0  0
 11 77  1  0  0  0
 14 78  1  0  0  0
 14 79  1  0  0  0
 15 80  1  0  0  0
 16 81  1  0  0  0
 16 82  1  0  0  0
 16 83  1  0  0  0
 17 84  1  0  0  0
 17 85  1  0  0  0
 17 86  1  0  0  0
 18 87  1  0  0  0
 19 88  1  0  0  0
 22 89  1  0  0  0
 22 90  1  0  0  0
 22 91  1  0  0  0
 23 92  1  0  0  0
 24 93  1  0  0  0
 24 94  1  0  0  0
 27 95  1  0  0  0
 28 96  1  0  0  0
 31 97  1  0  0  0
 32 98  1  0  0  0
 32 99  1  0  0  0
 33100  1  0  0  0
 33101  1  0  0  0
 33102  1  0  0  0
 34103  1  0  0  0
 34104  1  0  0  0
 34105  1  0  0  0
 35106  1  0  0  0
 36107  1  0  0  0
 36108  1  0  0  0
 39109  1  0  0  0
 40110  1  0  0  0
 43111  1  0  0  0
 43112  1  0  0  0
 43113  1  0  0  0
 44114  1  0  0  0
 45115  1  0  0  0
 48116  1  0  0  0
 48117  1  0  0  0
 49118  1  0  0  0
 50119  1  0  0  0
 50120  1  0  0  0
 50121  1  0  0  0
 51122  1  0  0  0
 51123  1  0  0  0
 51124  1  0  0  0
 52125  1  0  0  0
 53126  1  0  0  0
 56127  1  0  0  0
 57128  1  0  0  0
 58129  1  0  0  0
 58130  1  0  0  0
 58131  1  0  0  0
 59132  1  0  0  0
 60133  1  0  0  0
 62134  1  0  0  0
 63135  1  0  0  0
 64136  1  0  0  0
 64137  1  0  0  0
 64138  1  0  0  0
 65139  1  0  0  0
 65140  1  0  0  0
 65141  1  0  0  0
M  END
$$$$
