2i4w_ligand
  -I-interpret- 

 98101  0  0  0  0  0  0  0  0999 V2000
   13.5400   22.0940   17.9760 N   0  0  0  0  0
   11.9370   17.9440   18.4890 C   0  0  0  0  0
   12.1090   19.1130   12.6550 O   0  0  0  0  0
   14.5510   22.9180   17.3510 C   0  0  0  0  0
   13.8900   23.4620   16.0180 C   0  0  0  0  0
   13.4240   22.3280   15.1360 C   0  0  0  0  0
   14.3200   21.6190   14.3290 C   0  0  0  0  0
   13.8990   20.5570   13.5070 C   0  0  0  0  0
   12.5280   20.1630   13.4670 C   0  0  0  0  0
   11.9180   17.8280   13.2720 C   0  0  0  0  0
   11.4020   16.6160   12.0950 P   0  0  0  0  0
   12.5330   15.5270   11.9960 O   0  0  0  0  0
   13.8020   16.1400   11.7590 C   0  0  0  0  0
   14.9000   15.0580   11.6560 C   0  0  0  0  0
   10.2080   15.8110   12.7000 O   0  0  0  0  0
   10.8120   17.1080   10.8230 O   0  0  0  0  0
   10.2550   16.0390   10.0480 C   0  0  0  0  0
    9.5640   16.6250    8.7980 C   0  0  0  0  0
   11.6130   20.8840   14.2860 C   0  0  0  0  0
   12.0690   21.9440   15.0970 C   0  0  0  0  0
   14.9970   24.0710   18.2830 C   0  0  0  0  0
   13.9040   24.9200   18.6040 O   0  0  0  0  0
   16.1220   24.9090   17.6430 C   0  0  0  0  0
   17.3970   24.1830   17.6460 N   0  0  0  0  0
   18.3040   25.0060   18.4720 C   0  0  0  0  0
   18.4310   24.6260   19.9720 C   0  0  0  0  0
   19.8470   24.7710   20.5550 C   0  0  0  0  0
   17.8490   23.2470   20.3040 C   0  0  0  0  0
   17.9450   24.1860   16.0680 S   0  0  0  0  0
   18.8290   22.9500   15.8410 O   0  0  0  0  0
   16.7720   24.0010   15.0850 O   0  0  0  0  0
   18.8580   25.6100   15.6160 C   0  0  0  0  0
   20.2020   25.7460   15.8180 C   0  0  0  0  0
   20.9390   26.8780   15.4660 C   0  0  0  0  0
   20.3340   27.9020   14.9010 C   0  0  0  0  0
   21.1560   29.1910   14.5000 O   0  0  0  0  0
   22.2700   29.2850   15.1070 C   0  0  0  0  0
   19.0440   27.8590   14.6660 C   0  0  0  0  0
   18.3110   26.7130   15.0240 C   0  0  0  0  0
   13.9150   20.7900   18.3160 C   0  0  0  0  0
   15.0200   20.2890   18.1250 O   0  0  0  0  0
   12.8520   20.1890   18.8680 O   0  0  0  0  0
   12.9480   18.8260   19.2860 C   0  0  0  0  0
   12.3310   18.6890   20.6890 C   0  0  0  0  0
   10.9350   18.8900   20.5200 O   0  0  0  0  0
   10.6630   18.0690   19.3880 C   0  0  0  0  0
    9.5670   18.6060   18.6220 O   0  0  0  0  0
   10.1970   19.3400   17.5770 C   0  0  0  0  0
   11.3800   18.4670   17.1290 C   0  0  0  0  0
   12.6005   22.4461   18.1597 H   0  0  0  0  0
   12.4413   16.9998   18.2833 H   0  0  0  0  0
   15.4575   22.3506   17.1401 H   0  0  0  0  0
   14.6341   24.0430   15.4731 H   0  0  0  0  0
   13.0275   24.0738   16.2823 H   0  0  0  0  0
   15.3740   21.8969   14.3370 H   0  0  0  0  0
   14.6290   20.0290   12.8935 H   0  0  0  0  0
   11.1437   17.9219   14.0334 H   0  0  0  0  0
   12.8660   17.5080   13.7045 H   0  0  0  0  0
   14.0361   16.8112   12.5853 H   0  0  0  0  0
   13.7611   16.6997   10.8246 H   0  0  0  0  0
   14.9416   14.4945   12.5881 H   0  0  0  0  0
   14.6673   14.3833   10.8321 H   0  0  0  0  0
   15.8630   15.5355   11.4754 H   0  0  0  0  0
    9.5258   15.4939   10.6474 H   0  0  0  0  0
   11.0484   15.3572    9.7417 H   0  0  0  0  0
    8.7705   17.3049    9.1082 H   0  0  0  0  0
   10.2964   17.1679    8.2005 H   0  0  0  0  0
    9.1390   15.8146    8.2059 H   0  0  0  0  0
   10.5565   20.6158   14.2861 H   0  0  0  0  0
   11.3499   22.4835   15.7134 H   0  0  0  0  0
   15.3756   23.6132   19.1969 H   0  0  0  0  0
   13.2025   24.3998   19.0026 H   0  0  0  0  0
   16.2435   25.8250   18.2212 H   0  0  0  0  0
   15.8486   25.1248   16.6101 H   0  0  0  0  0
   17.8898   26.0141   18.4545 H   0  0  0  0  0
   19.2983   24.8720   18.0459 H   0  0  0  0  0
   17.8160   25.3767   20.4683 H   0  0  0  0  0
   20.5322   24.1245   20.0067 H   0  0  0  0  0
   20.1718   25.8075   20.4636 H   0  0  0  0  0
   19.8369   24.4834   21.6063 H   0  0  0  0  0
   16.7889   23.2309   20.0509 H   0  0  0  0  0
   18.3731   22.4845   19.7277 H   0  0  0  0  0
   17.9727   23.0486   21.3686 H   0  0  0  0  0
   20.7336   24.9166   16.2844 H   0  0  0  0  0
   22.0113   26.9141   15.6581 H   0  0  0  0  0
   22.0942   29.3276   16.1819 H   0  0  0  0  0
   22.8847   28.4160   14.8722 H   0  0  0  0  0
   22.7823   30.1917   14.7852 H   0  0  0  0  0
   18.5435   28.7058   14.1964 H   0  0  0  0  0
   17.2410   26.7045   14.8163 H   0  0  0  0  0
   13.9961   18.5446   19.1841 H   0  0  0  0  0
   12.7551   19.4164   21.3811 H   0  0  0  0  0
   12.5410   17.7103   21.1204 H   0  0  0  0  0
   10.3837   17.0773   19.7437 H   0  0  0  0  0
   10.5273   20.3215   17.9172 H   0  0  0  0  0
    9.5100   19.5395   16.7546 H   0  0  0  0  0
   11.0903   17.6675   16.4471 H   0  0  0  0  0
   12.1194   19.0128   16.5429 H   0  0  0  0  0
  1  4  1  0  0  0
 40  1  1  0  0  0
 43  2  1  0  0  0
  2 46  1  0  0  0
  2 49  1  0  0  0
  9  3  1  0  0  0
  3 10  1  0  0  0
  4  5  1  0  0  0
  4 21  1  0  0  0
  5  6  1  0  0  0
  6  7  4  0  0  0
  6 20  4  0  0  0
  7  8  4  0  0  0
  8  9  4  0  0  0
 19  9  4  0  0  0
 10 11  1  0  0  0
 11 12  1  0  0  0
 11 15  2  0  0  0
 11 16  1  0  0  0
 12 13  1  0  0  0
 13 14  1  0  0  0
 16 17  1  0  0  0
 17 18  1  0  0  0
 20 19  4  0  0  0
 21 22  1  0  0  0
 21 23  1  0  0  0
 23 24  1  0  0  0
 24 25  1  0  0  0
 24 29  1  0  0  0
 25 26  1  0  0  0
 26 27  1  0  0  0
 26 28  1  0  0  0
 29 30  2  0  0  0
 29 31  2  0  0  0
 29 32  1  0  0  0
 32 33  4  0  0  0
 32 39  4  0  0  0
 33 34  4  0  0  0
 34 35  4  0  0  0
 35 36  1  0  0  0
 38 35  4  0  0  0
 36 37  1  0  0  0
 39 38  4  0  0  0
 40 41  2  0  0  0
 42 40  1  0  0  0
 42 43  1  0  0  0
 43 44  1  0  0  0
 44 45  1  0  0  0
 45 46  1  0  0  0
 46 47  1  0  0  0
 47 48  1  0  0  0
 48 49  1  0  0  0
  1 50  1  0  0  0
  2 51  1  0  0  0
  4 52  1  0  0  0
  5 53  1  0  0  0
  5 54  1  0  0  0
  7 55  1  0  0  0
  8 56  1  0  0  0
 10 57  1  0  0  0
 10 58  1  0  0  0
 13 59  1  0  0  0
 13 60  1  0  0  0
 14 61  1  0  0  0
 14 62  1  0  0  0
 14 63  1  0  0  0
 17 64  1  0  0  0
 17 65  1  0  0  0
 18 66  1  0  0  0
 18 67  1  0  0  0
 18 68  1  0  0  0
 19 69  1  0  0  0
 20 70  1  0  0  0
 21 71  1  0  0  0
 22 72  1  0  0  0
 23 73  1  0  0  0
 23 74  1  0  0  0
 25 75  1  0  0  0
 25 76  1  0  0  0
 26 77  1  0  0  0
 27 78  1  0  0  0
 27 79  1  0  0  0
 27 80  1  0  0  0
 28 81  1  0  0  0
 28 82  1  0  0  0
 28 83  1  0  0  0
 33 84  1  0  0  0
 34 85  1  0  0  0
 37 86  1  0  0  0
 37 87  1  0  0  0
 37 88  1  0  0  0
 38 89  1  0  0  0
 39 90  1  0  0  0
 43 91  1  0  0  0
 44 92  1  0  0  0
 44 93  1  0  0  0
 46 94  1  0  0  0
 48 95  1  0  0  0
 48 96  1  0  0  0
 49 97  1  0  0  0
 49 98  1  0  0  0
M  END
$$$$
