2pt9_ligand
  -I-interpret- 

 48 50  0  0  0  0  0  0  0  0999 V2000
   14.5650  -20.5660    7.6640 C   0  0  0  0  0
   15.5110  -21.5300    8.2540 N   0  3  0  0  0
   15.1390  -20.0240    6.3560 C   0  0  0  0  0
   15.9150  -18.7360    6.6160 C   0  0  0  0  0
   17.7130  -18.9580    6.8690 S   0  0  0  0  0
   17.8990  -17.5910    7.9950 C   0  0  0  0  0
   18.5900  -18.3980    5.3250 C   0  0  0  0  0
   20.1510  -18.3200    5.3820 C   0  0  0  0  0
   20.9340  -18.5730    4.1560 O   0  0  0  0  0
   22.1810  -17.9400    4.4370 C   0  0  0  0  0
   21.6550  -16.5510    4.7320 C   0  0  0  0  0
   22.6830  -15.7740    5.3580 O   0  0  0  0  0
   20.5110  -16.8720    5.6960 C   0  0  0  0  0
   20.9900  -16.8470    7.0170 O   0  0  0  0  0
   23.0520  -17.9240    3.2460 N   0  0  0  0  0
   22.7700  -17.2920    2.1120 C   0  0  0  0  0
   23.7680  -17.4960    1.2420 N   0  0  0  0  0
   24.6960  -18.2720    1.8150 C   0  0  0  0  0
   25.9250  -18.8010    1.3930 C   0  0  0  0  0
   26.3980  -18.5690    0.1580 N   0  0  0  0  0
   24.2420  -18.5360    3.1100 C   0  0  0  0  0
   25.0040  -19.3210    3.9110 N   0  0  0  0  0
   26.1740  -19.8130    3.4790 C   0  0  0  0  0
   26.6370  -19.5640    2.2460 N   0  0  0  0  0
   14.4051  -19.7421    8.3594 H   0  0  0  0  0
   13.6158  -21.0637    7.4654 H   0  0  0  0  0
   15.1265  -21.8910    9.1271 H   0  0  0  0  0
   15.6600  -22.3005    7.6025 H   0  0  0  0  0
   16.3988  -21.0633    8.4393 H   0  0  0  0  0
   14.3211  -19.8152    5.6664 H   0  0  0  0  0
   15.8121  -20.7661    5.9267 H   0  0  0  0  0
   15.5173  -18.3083    7.5363 H   0  0  0  0  0
   15.7956  -18.1115    5.7307 H   0  0  0  0  0
   18.9592  -17.4072    8.1694 H   0  0  0  0  0
   17.4409  -16.7012    7.5631 H   0  0  0  0  0
   17.4104  -17.8308    8.9394 H   0  0  0  0  0
   18.2481  -17.3793    5.1421 H   0  0  0  0  0
   18.3574  -19.1432    4.5643 H   0  0  0  0  0
   20.4009  -19.1058    6.0949 H   0  0  0  0  0
   22.7873  -18.4052    5.2143 H   0  0  0  0  0
   21.3398  -15.9700    3.8653 H   0  0  0  0  0
   22.3484  -14.8937    5.5445 H   0  0  0  0  0
   19.6829  -16.1705    5.5950 H   0  0  0  0  0
   21.2283  -15.9474    7.2528 H   0  0  0  0  0
   21.8728  -16.7034    1.9207 H   0  0  0  0  0
   25.8612  -17.9980   -0.4948 H   0  0  0  0  0
   27.2942  -18.9638   -0.1274 H   0  0  0  0  0
   26.7665  -20.4342    4.1507 H   0  0  0  0  0
  1  2  1  0  0  0
  1  3  1  0  0  0
  3  4  1  0  0  0
  4  5  1  0  0  0
  5  6  1  0  0  0
  5  7  1  0  0  0
  7  8  1  0  0  0
  8  9  1  0  0  0
  8 13  1  0  0  0
  9 10  1  0  0  0
 10 11  1  0  0  0
 10 15  1  0  0  0
 11 12  1  0  0  0
 11 13  1  0  0  0
 13 14  1  0  0  0
 15 16  4  0  0  0
 15 21  4  0  0  0
 16 17  4  0  0  0
 17 18  4  0  0  0
 18 19  4  0  0  0
 18 21  4  0  0  0
 19 20  1  0  0  0
 19 24  4  0  0  0
 21 22  4  0  0  0
 22 23  4  0  0  0
 23 24  4  0  0  0
  1 25  1  0  0  0
  1 26  1  0  0  0
  2 27  1  0  0  0
  2 28  1  0  0  0
  2 29  1  0  0  0
  3 30  1  0  0  0
  3 31  1  0  0  0
  4 32  1  0  0  0
  4 33  1  0  0  0
  6 34  1  0  0  0
  6 35  1  0  0  0
  6 36  1  0  0  0
  7 37  1  0  0  0
  7 38  1  0  0  0
  8 39  1  0  0  0
 10 40  1  0  0  0
 11 41  1  0  0  0
 12 42  1  0  0  0
 13 43  1  0  0  0
 14 44  1  0  0  0
 16 45  1  0  0  0
 20 46  1  0  0  0
 20 47  1  0  0  0
 23 48  1  0  0  0
M  END
$$$$
