3uib_ligand
  -I-interpret- 

 43 46  0  0  0  0  0  0  0  0999 V2000
    1.3670   34.6210   43.5590 O   0  0  0  0  0
   -0.6580   32.6530   42.6730 C   0  0  0  0  0
    0.4750   33.9690   42.1390 S   0  0  0  0  0
    3.1340   31.0370   41.3110 C   0  0  0  0  0
    2.1080   31.7740   41.9020 C   0  0  0  0  0
    1.7720   33.0310   41.3960 C   0  0  0  0  0
    2.4680   33.5480   40.2970 C   0  0  0  0  0
    3.4960   32.8100   39.7050 C   0  0  0  0  0
    3.8340   31.5520   40.2160 C   0  0  0  0  0
    8.8020   30.9710   34.7200 N   0  0  0  0  0
    8.3880   29.7240   35.0050 C   0  0  0  0  0
    7.6170   29.4700   36.1420 C   0  0  0  0  0
    7.2760   30.5230   36.9910 C   0  0  0  0  0
    7.7180   31.8100   36.6740 C   0  0  0  0  0
    8.4870   32.0070   35.5210 C   0  0  0  0  0
    5.5350   31.1900   38.5230 N   0  0  0  0  0
    4.9200   30.7160   39.6250 C   0  0  0  0  0
    5.3860   29.5130   40.0310 N   0  0  0  0  0
    6.3680   29.1490   39.1880 C   0  0  0  0  0
    6.4470   30.2600   38.2060 C   0  0  0  0  0
    8.5170   27.8320   39.0090 C   0  0  0  0  0
    9.1870   26.6050   39.0850 C   0  0  0  0  0
    8.4830   25.4370   39.4090 C   0  0  0  0  0
    7.1140   25.4900   39.6680 C   0  0  0  0  0
    6.4470   26.7110   39.5900 C   0  0  0  0  0
    7.1420   27.8780   39.2600 C   0  0  0  0  0
    9.1160   24.2560   39.4810 F   0  0  0  0  0
    0.7778   35.1708   44.0807 H   0  0  0  0  0
   -0.9817   32.0795   41.8045 H   0  0  0  0  0
   -0.1440   31.9949   43.3736 H   0  0  0  0  0
   -1.5257   33.0979   43.1602 H   0  0  0  0  0
    3.3915   30.0539   41.7051 H   0  0  0  0  0
    1.5689   31.3689   42.7583 H   0  0  0  0  0
    2.2070   34.5297   39.9018 H   0  0  0  0  0
    4.0336   33.2133   38.8469 H   0  0  0  0  0
    8.6569   28.9020   34.3415 H   0  0  0  0  0
    7.2842   28.4561   36.3642 H   0  0  0  0  0
    7.4665   32.6525   37.3183 H   0  0  0  0  0
    8.8344   33.0089   35.2689 H   0  0  0  0  0
    9.0614   28.7420   38.7568 H   0  0  0  0  0
   10.2587   26.5579   38.8917 H   0  0  0  0  0
    6.5694   24.5828   39.9296 H   0  0  0  0  0
    5.3760   26.7564   39.7877 H   0  0  0  0  0
  3  1  1  0  0  0
  3  2  1  0  0  0
  6  3  1  0  0  0
  4  5  4  0  0  0
  9  4  4  0  0  0
  5  6  4  0  0  0
  7  6  4  0  0  0
  8  7  4  0  0  0
  9  8  4  0  0  0
 17  9  1  0  0  0
 11 10  4  0  0  0
 15 10  4  0  0  0
 12 11  4  0  0  0
 13 12  4  0  0  0
 13 14  4  0  0  0
 20 13  1  0  0  0
 14 15  4  0  0  0
 16 17  4  0  0  0
 20 16  4  0  0  0
 18 17  4  0  0  0
 19 18  4  0  0  0
 19 20  4  0  0  0
 26 19  1  0  0  0
 21 22  4  0  0  0
 21 26  4  0  0  0
 22 23  4  0  0  0
 23 24  4  0  0  0
 23 27  1  0  0  0
 24 25  4  0  0  0
 25 26  4  0  0  0
  1 28  1  0  0  0
  2 29  1  0  0  0
  2 30  1  0  0  0
  2 31  1  0  0  0
  4 32  1  0  0  0
  5 33  1  0  0  0
  7 34  1  0  0  0
  8 35  1  0  0  0
 11 36  1  0  0  0
 12 37  1  0  0  0
 14 38  1  0  0  0
 15 39  1  0  0  0
 21 40  1  0  0  0
 22 41  1  0  0  0
 24 42  1  0  0  0
 25 43  1  0  0  0
M  END
$$$$
