6cq0_ligand
  -I-interpret- 

 45 47  0  0  0  0  0  0  0  0999 V2000
  105.4840   -8.6630   10.2530 C   0  0  0  0  0
  104.0930   -7.3030    8.8330 C   0  0  0  0  0
  105.9530   -8.6280    7.7860 C   0  0  0  0  0
  106.7610   -9.9400    8.1320 C   0  0  0  0  0
  108.0690  -10.2280    7.2950 C   0  0  0  0  0
  107.9120  -10.3700    5.7460 C   0  0  0  0  0
  107.5700   -9.2830    4.9200 C   0  0  0  0  0
  107.4190   -9.3790    3.5390 C   0  0  0  0  0
  107.5990  -10.5990    2.8460 C   0  0  0  0  0
  107.5760  -11.8540    0.7680 C   0  0  0  0  0
  107.4860  -12.9530   -1.3240 C   0  0  0  0  0
  107.8310  -14.2060   -0.7360 C   0  0  0  0  0
  107.9590  -15.4690   -1.6360 C   0  0  0  0  0
  108.0400  -14.2070    0.6220 C   0  0  0  0  0
  107.9210  -13.0300    1.4380 C   0  0  0  0  0
  108.1270  -12.9910    2.8830 C   0  0  0  0  0
  107.9410  -11.7080    3.6280 C   0  0  0  0  0
  108.0870  -11.5750    5.0390 C   0  0  0  0  0
  105.4800   -7.8360    9.0080 N   0  3  0  0  0
  107.3530  -11.7660   -0.5920 N   0  0  0  0  0
  107.2700  -12.9190   -2.6940 N   0  0  0  0  0
  107.4360  -10.6450    1.4740 O   0  0  0  0  0
  107.6710  -15.3310   -2.8380 O   0  0  0  0  0
  108.3460  -16.5160   -1.0940 O   0  0  0  0  0
  108.4460  -13.9980    3.5200 O   0  0  0  0  0
  104.8180   -9.5161   10.1231 H   0  0  0  0  0
  106.4960   -9.0171   10.4492 H   0  0  0  0  0
  105.1408   -8.0569   11.0914 H   0  0  0  0  0
  104.0662   -6.6404    7.9679 H   0  0  0  0  0
  103.4031   -8.1326    8.6784 H   0  0  0  0  0
  103.8027   -6.7490    9.7257 H   0  0  0  0  0
  105.0615   -8.9360    7.2397 H   0  0  0  0  0
  106.6235   -7.9783    7.2236 H   0  0  0  0  0
  106.0852  -10.7677    7.9169 H   0  0  0  0  0
  107.0918   -9.8191    9.1635 H   0  0  0  0  0
  108.4363  -11.1931    7.6441 H   0  0  0  0  0
  108.7139   -9.3627    7.4482 H   0  0  0  0  0
  107.4145   -8.3108    5.3878 H   0  0  0  0  0
  107.1536   -8.4855    2.9739 H   0  0  0  0  0
  108.3093  -15.1467    1.1041 H   0  0  0  0  0
  108.3518  -12.4654    5.6092 H   0  0  0  0  0
  106.1433   -7.0662    9.0965 H   0  0  0  0  0
  107.3596  -13.7722   -3.2458 H   0  0  0  0  0
  107.0216  -12.0408   -3.1495 H   0  0  0  0  0
  107.4004  -14.4241   -2.9990 H   0  0  0  0  0
 19  1  1  0  0  0
 19  2  1  0  0  0
  4  3  1  0  0  0
  3 19  1  0  0  0
  5  4  1  0  0  0
  6  5  1  0  0  0
  7  6  4  0  0  0
  6 18  4  0  0  0
  8  7  4  0  0  0
  9  8  4  0  0  0
  9 17  4  0  0  0
 22  9  1  0  0  0
 10 15  4  0  0  0
 20 10  4  0  0  0
 10 22  1  0  0  0
 11 12  4  0  0  0
 11 20  4  0  0  0
 11 21  1  0  0  0
 12 13  1  0  0  0
 12 14  4  0  0  0
 13 23  1  0  0  0
 13 24  2  0  0  0
 14 15  4  0  0  0
 15 16  1  0  0  0
 16 17  1  0  0  0
 16 25  2  0  0  0
 17 18  4  0  0  0
  1 26  1  0  0  0
  1 27  1  0  0  0
  1 28  1  0  0  0
  2 29  1  0  0  0
  2 30  1  0  0  0
  2 31  1  0  0  0
  3 32  1  0  0  0
  3 33  1  0  0  0
  4 34  1  0  0  0
  4 35  1  0  0  0
  5 36  1  0  0  0
  5 37  1  0  0  0
  7 38  1  0  0  0
  8 39  1  0  0  0
 14 40  1  0  0  0
 18 41  1  0  0  0
 19 42  1  0  0  0
 21 43  1  0  0  0
 21 44  1  0  0  0
 23 45  1  0  0  0
M  END
$$$$
