3o9f_ligand
  -I-interpret- 

 83 86  0  0  0  0  0  0  0  0999 V2000
   15.1490   36.9220   18.8820 C   0  0  0  0  0
   14.7710   35.5590   18.6410 O   0  0  0  0  0
   15.4970   34.8340   17.7240 C   0  0  0  0  0
   16.4500   35.4730   16.9080 C   0  0  0  0  0
   17.1840   34.7020   15.9980 C   0  0  0  0  0
   16.9690   33.3300   15.8340 C   0  0  0  0  0
   16.0100   32.7130   16.6490 C   0  0  0  0  0
   15.2760   33.4620   17.5790 C   0  0  0  0  0
   17.9050   32.4670   14.7990 S   0  0  0  0  0
   18.4970   33.3130   13.7890 O   0  0  0  0  0
   17.1750   31.3810   14.2430 O   0  0  0  0  0
   19.1630   31.8510   15.6290 N   0  0  0  0  0
   19.8450   32.8350   16.5200 C   0  0  0  0  0
   21.3720   32.6880   16.4850 C   0  0  0  0  0
   21.9310   32.8190   15.0660 C   0  0  0  0  0
   22.0230   33.6720   17.4660 C   0  0  0  0  0
   18.8620   30.5570   16.2850 C   0  0  0  0  0
   19.8240   29.5010   15.7260 C   0  0  0  0  0
   21.8880   35.1200   17.0730 C   0  0  0  0  0
   19.8240   28.3360   16.5680 O   0  0  0  0  0
   19.5010   29.0910   14.2980 C   0  0  0  0  0
   23.3300   32.2530   14.9340 C   0  0  0  0  0
   20.6070   28.2910   13.8380 N   0  0  0  0  0
   21.4980   28.6560   12.9190 C   0  0  0  0  0
   21.5780   29.7020   12.2980 O   0  0  0  0  0
   22.4490   27.6110   12.6550 O   0  0  0  0  0
   23.2980   27.7780   11.5230 C   0  0  0  0  0
   24.6300   27.2310   11.9960 C   0  0  0  0  0
   24.4260   25.8270   11.8710 O   0  0  0  0  0
   23.5310   25.5490   10.7880 C   0  0  0  0  0
   22.5340   24.6020   11.1750 O   0  0  0  0  0
   21.2440   25.2290   11.1580 C   0  0  0  0  0
   21.3720   26.4980   10.3230 C   0  0  0  0  0
   22.8500   26.8490   10.4090 C   0  0  0  0  0
   18.2070   28.2840   14.1910 C   0  0  0  0  0
   18.0840   26.5880   12.3280 C   0  0  0  0  0
   17.8740   26.2360   11.0060 C   0  0  0  0  0
   17.5310   27.2060   10.0850 C   0  0  0  0  0
   17.4090   28.5350   10.4790 C   0  0  0  0  0
   17.6150   28.8930   11.8130 C   0  0  0  0  0
   17.9620   27.9150   12.7400 C   0  0  0  0  0
   16.1755   36.9539   19.2472 H   0  0  0  0  0
   15.0746   37.4879   17.9534 H   0  0  0  0  0
   14.4830   37.3560   19.6278 H   0  0  0  0  0
   16.6135   36.5480   16.9832 H   0  0  0  0  0
   17.9508   35.1891   15.3956 H   0  0  0  0  0
   15.8334   31.6412   16.5588 H   0  0  0  0  0
   14.5247   32.9688   18.1958 H   0  0  0  0  0
   19.5105   32.6558   17.5418 H   0  0  0  0  0
   19.5929   33.8373   16.1738 H   0  0  0  0  0
   21.6244   31.6786   16.8100 H   0  0  0  0  0
   21.9747   33.8800   14.8202 H   0  0  0  0  0
   21.2787   32.2585   14.3963 H   0  0  0  0  0
   23.0886   33.4440   17.4891 H   0  0  0  0  0
   21.5175   33.5513   18.4241 H   0  0  0  0  0
   17.8304   30.2669   16.0858 H   0  0  0  0  0
   18.9886   30.6455   17.3640 H   0  0  0  0  0
   20.8117   29.9618   15.7131 H   0  0  0  0  0
   22.3593   35.2773   16.1028 H   0  0  0  0  0
   20.8316   35.3816   17.0119 H   0  0  0  0  0
   22.3758   35.7451   17.8209 H   0  0  0  0  0
   20.4289   27.6829   16.2087 H   0  0  0  0  0
   19.3538   29.9858   13.6932 H   0  0  0  0  0
   24.0010   32.7852   15.6082 H   0  0  0  0  0
   23.3180   31.1941   15.1923 H   0  0  0  0  0
   23.6740   32.3739   13.9068 H   0  0  0  0  0
   20.7168   27.3653   14.2521 H   0  0  0  0  0
   23.3095   28.8093   11.1703 H   0  0  0  0  0
   24.8942   27.5436   13.0063 H   0  0  0  0  0
   25.4799   27.5996   11.4216 H   0  0  0  0  0
   24.0926   25.1309    9.9526 H   0  0  0  0  0
   20.9188   25.4666   12.1709 H   0  0  0  0  0
   20.4974   24.5605   10.7292 H   0  0  0  0  0
   20.7348   27.3014   10.6927 H   0  0  0  0  0
   21.0419   26.3505    9.2947 H   0  0  0  0  0
   23.0819   27.3357    9.4617 H   0  0  0  0  0
   17.3736   28.8817   14.5604 H   0  0  0  0  0
   18.2938   27.3761   14.7879 H   0  0  0  0  0
   18.3476   25.8199   13.0550 H   0  0  0  0  0
   17.9790   25.1972   10.6931 H   0  0  0  0  0
   17.3551   26.9296    9.0454 H   0  0  0  0  0
   17.1520   29.2984    9.7446 H   0  0  0  0  0
   17.5047   29.9313   12.1259 H   0  0  0  0  0
  2  1  1  0  0  0
  3  2  1  0  0  0
  4  3  4  0  0  0
  8  3  4  0  0  0
  5  4  4  0  0  0
  6  5  4  0  0  0
  6  7  4  0  0  0
  9  6  1  0  0  0
  7  8  4  0  0  0
  9 10  2  0  0  0
  9 11  2  0  0  0
 12  9  1  0  0  0
 12 13  1  0  0  0
 17 12  1  0  0  0
 13 14  1  0  0  0
 14 15  1  0  0  0
 14 16  1  0  0  0
 15 22  1  0  0  0
 16 19  1  0  0  0
 18 17  1  0  0  0
 18 20  1  0  0  0
 21 18  1  0  0  0
 21 23  1  0  0  0
 35 21  1  0  0  0
 23 24  1  0  0  0
 24 25  2  0  0  0
 24 26  1  0  0  0
 26 27  1  0  0  0
 27 28  1  0  0  0
 27 34  1  0  0  0
 28 29  1  0  0  0
 30 29  1  0  0  0
 30 31  1  0  0  0
 34 30  1  0  0  0
 32 31  1  0  0  0
 33 32  1  0  0  0
 34 33  1  0  0  0
 41 35  1  0  0  0
 36 37  4  0  0  0
 36 41  4  0  0  0
 37 38  4  0  0  0
 38 39  4  0  0  0
 39 40  4  0  0  0
 40 41  4  0  0  0
  1 42  1  0  0  0
  1 43  1  0  0  0
  1 44  1  0  0  0
  4 45  1  0  0  0
  5 46  1  0  0  0
  7 47  1  0  0  0
  8 48  1  0  0  0
 13 49  1  0  0  0
 13 50  1  0  0  0
 14 51  1  0  0  0
 15 52  1  0  0  0
 15 53  1  0  0  0
 16 54  1  0  0  0
 16 55  1  0  0  0
 17 56  1  0  0  0
 17 57  1  0  0  0
 18 58  1  0  0  0
 19 59  1  0  0  0
 19 60  1  0  0  0
 19 61  1  0  0  0
 20 62  1  0  0  0
 21 63  1  0  0  0
 22 64  1  0  0  0
 22 65  1  0  0  0
 22 66  1  0  0  0
 23 67  1  0  0  0
 27 68  1  0  0  0
 28 69  1  0  0  0
 28 70  1  0  0  0
 30 71  1  0  0  0
 32 72  1  0  0  0
 32 73  1  0  0  0
 33 74  1  0  0  0
 33 75  1  0  0  0
 34 76  1  0  0  0
 35 77  1  0  0  0
 35 78  1  0  0  0
 36 79  1  0  0  0
 37 80  1  0  0  0
 38 81  1  0  0  0
 39 82  1  0  0  0
 40 83  1  0  0  0
M  END
$$$$
