### 
### Created by X-TOOL on Mon Sep 10 21:12:54 2018
### 

@<TRIPOS>MOLECULE
2co0_ligand
   92    91     1     0     0
SMALL
GAST_HUCK


@<TRIPOS>ATOM
      1 N           6.2170    3.1830   -0.6780 N.4       1 ALA         0.2377
      2 CA          4.9690    3.0850    0.1460 C.3       1 ALA         0.0621
      3 C           5.2790    2.7360    1.5950 C.2       1 ALA         0.2264
      4 O           4.3830    2.7240    2.4370 O.2       1 ALA        -0.3907
      5 CB          4.0280    2.0700   -0.4280 C.3       1 ALA        -0.0040
      6 N           6.5480    2.4360    1.8700 N.am      1 ARG        -0.2610
      7 CA          6.9990    2.1430    3.2300 C.3       1 ARG         0.1312
      8 C           6.6620    3.4020    4.0370 C.2       1 ARG         0.2040
      9 O           6.3890    3.3400    5.2310 O.2       1 ARG        -0.3944
     10 CB          8.5220    1.8990    3.2420 C.3       1 ARG        -0.0092
     11 CG          9.1530    1.7400    4.6340 C.3       1 ARG        -0.0156
     12 CD         10.6910    1.6470    4.5550 C.3       1 ARG         0.0627
     13 NE         11.1370    0.4900    3.7760 N.pl3     1 ARG        -0.2723
     14 CZ         11.3150   -0.7360    4.2710 C.cat     1 ARG         0.2882
     15 NH1        11.0960   -0.9770    5.5580 N.pl3     1 ARG        -0.2849
     16 NH2        11.6870   -1.7290    3.4720 N.pl3     1 ARG        -0.2849
     17 N           6.6700    4.5400    3.3540 N.am      1 THR        -0.2613
     18 CA          6.3800    5.8260    3.9740 C.3       1 THR         0.1565
     19 C           4.9390    6.0010    4.4370 C.2       1 THR         0.2065
     20 O           4.6180    6.9730    5.1170 O.2       1 THR        -0.3943
     21 CB          6.7110    6.9770    3.0220 C.3       1 THR         0.0924
     22 OG1         5.8940    6.8730    1.8530 O.3       1 THR        -0.3874
     23 CG2         8.1710    6.9260    2.6290 C.3       1 THR        -0.0346
     24 N           4.0670    5.0840    4.0430 N.am      1 LYS        -0.2637
     25 CA          2.6760    5.1450    4.4610 C.3       1 LYS         0.1310
     26 C           2.4600    3.9810    5.3950 C.2       1 LYS         0.2039
     27 O           3.2030    3.0020    5.3440 O.2       1 LYS        -0.3944
     28 CB          1.7240    5.0210    3.2790 C.3       1 LYS        -0.0122
     29 CG          1.3550    6.3440    2.6560 C.3       1 LYS        -0.0440
     30 CD          0.3000    6.1760    1.5760 C.3       1 LYS        -0.0124
     31 CE          0.2320    7.4250    0.7230 C.3       1 LYS        -0.0354
     32 NZ         -0.6630    7.2600   -0.4380 N.4       1 LYS         0.2185
     33 N           1.4520    4.0760    6.2510 N.am      1 GLN        -0.2636
     34 CA          1.1900    2.9960    7.1930 C.3       1 GLN         0.1327
     35 C           0.2020    1.9750    6.6190 C.2       1 GLN         0.1993
     36 O          -0.8490    2.4090    6.0840 O.2       1 GLN        -0.3947
     37 CB          0.6330    3.5800    8.4800 C.3       1 GLN         0.0045
     38 CG          0.3790    2.5530    9.5520 C.3       1 GLN         0.0412
     39 CD         -0.5300    3.0930   10.6310 C.2       1 GLN         0.1737
     40 OE1        -0.4550    4.2740   10.9830 O.2       1 GLN        -0.3973
     41 NE2        -1.3860    2.2310   11.1750 N.am      1 GLN        -0.3009
     42 N           0.4930    0.7570    6.7210 N.am      1 THR        -0.2990
     43 H1          5.9746    3.4147   -1.6286 H         1 ALA         0.2015
     44 H2          6.7014    2.2992   -0.6607 H         1 ALA         0.2015
     45 H3          6.8144    3.9010   -0.2990 H         1 ALA         0.2015
     46 H4          4.4726    4.0664    0.1278 H         1 ALA         0.1095
     47 H5          3.1220    2.0172    0.1936 H         1 ALA         0.0310
     48 H6          4.5177    1.0852   -0.4466 H         1 ALA         0.0310
     49 H7          3.7534    2.3624   -1.4522 H         1 ALA         0.0310
     50 H8          7.2125    2.4104    1.1232 H         1 ARG         0.1884
     51 H9          6.4762    1.2646    3.6363 H         1 ARG         0.0800
     52 H10         9.0064    2.7526    2.7453 H         1 ARG         0.0313
     53 H11         8.7231    0.9803    2.6714 H         1 ARG         0.0313
     54 H12         8.7637    0.8225    5.0994 H         1 ARG         0.0301
     55 H13         8.8795    2.6086    5.2509 H         1 ARG         0.0301
     56 H14        11.0935    1.5632    5.5753 H         1 ARG         0.0689
     57 H15        11.0772    2.5621    4.0824 H         1 ARG         0.0689
     58 H16        11.3269    0.6330    2.7738 H         1 ARG         0.2642
     59 H17        11.2349   -1.9253    5.9353 H         1 ARG         0.2615
     60 H18        10.7872   -0.2157    6.1793 H         1 ARG         0.2615
     61 H19        11.8586   -1.5491    2.4725 H         1 ARG         0.2615
     62 H20        11.8040   -2.6793    3.8517 H         1 ARG         0.2615
     63 H21         6.8831    4.5137    2.3773 H         1 THR         0.1884
     64 H22         7.0270    5.9105    4.8595 H         1 THR         0.0826
     65 H23         6.5062    7.9334    3.5253 H         1 THR         0.0639
     66 H24         4.9786    6.9192    2.1027 H         1 THR         0.2101
     67 H25         8.3959    7.7578    1.9452 H         1 THR         0.0257
     68 H26         8.3823    5.9707    2.1262 H         1 THR         0.0257
     69 H27         8.7964    7.0125    3.5297 H         1 THR         0.0257
     70 H28         4.3705    4.3388    3.4492 H         1 LYS         0.1883
     71 H29         2.4850    6.0944    4.9827 H         1 LYS         0.0800
     72 H30         0.8020    4.5313    3.6256 H         1 LYS         0.0312
     73 H31         2.2039    4.3972    2.5105 H         1 LYS         0.0312
     74 H32         2.2549    6.7923    2.2098 H         1 LYS         0.0269
     75 H33         0.9626    7.0104    3.4383 H         1 LYS         0.0269
     76 H34        -0.6790    6.0020    2.0464 H         1 LYS         0.0317
     77 H35         0.5606    5.3154    0.9424 H         1 LYS         0.0317
     78 H36         1.2431    7.6612    0.3598 H         1 LYS         0.0813
     79 H37        -0.1392    8.2560    1.3408 H         1 LYS         0.0813
     80 H38        -0.6772    8.1129   -0.9751 H         1 LYS         0.1994
     81 H39        -1.5950    7.0497   -0.1166 H         1 LYS         0.1994
     82 H40        -0.3283    6.5047   -1.0156 H         1 LYS         0.1994
     83 H41         0.8709    4.8899    6.2500 H         1 GLN         0.1883
     84 H42         2.1375    2.4820    7.4123 H         1 GLN         0.0801
     85 H43        -0.3174    4.0837    8.2498 H         1 GLN         0.0337
     86 H44         1.3533    4.3154    8.8677 H         1 GLN         0.0337
     87 H45         1.3389    2.2639   10.0048 H         1 GLN         0.0504
     88 H46        -0.0924    1.6697    9.0964 H         1 GLN         0.0504
     89 H47        -2.0116    2.5339   11.8939 H         1 GLN         0.1814
     90 H48        -1.4035    1.2805   10.8648 H         1 GLN         0.1814
     91 H49        -0.1281    0.0624    6.3579 H         1 THR         0.1815
     92 H50         1.3457    0.4821    7.1653 H         1 THR         0.1815
@<TRIPOS>BOND
     1    1    2 1  
     2    2    3 1  
     3    2    5 1  
     4    3    4 2  
     5    3    6 am 
     6    6    7 1  
     7    7    8 1  
     8    7   10 1  
     9    8    9 2  
    10    8   17 am 
    11   10   11 1  
    12   11   12 1  
    13   12   13 1  
    14   13   14 ar 
    15   14   15 ar 
    16   14   16 ar 
    17   17   18 1  
    18   18   19 1  
    19   18   21 1  
    20   19   20 2  
    21   19   24 am 
    22   21   22 1  
    23   21   23 1  
    24   24   25 1  
    25   25   26 1  
    26   25   28 1  
    27   26   27 2  
    28   26   33 am 
    29   28   29 1  
    30   29   30 1  
    31   30   31 1  
    32   31   32 1  
    33   33   34 1  
    34   34   35 1  
    35   34   37 1  
    36   35   36 2  
    37   35   42 am 
    38   37   38 1  
    39   38   39 1  
    40   39   40 2  
    41   39   41 am 
    42    1   43 1  
    43    1   44 1  
    44    1   45 1  
    45    2   46 1  
    46    5   47 1  
    47    5   48 1  
    48    5   49 1  
    49    6   50 1  
    50    7   51 1  
    51   10   52 1  
    52   10   53 1  
    53   11   54 1  
    54   11   55 1  
    55   12   56 1  
    56   12   57 1  
    57   13   58 1  
    58   15   59 1  
    59   15   60 1  
    60   16   61 1  
    61   16   62 1  
    62   17   63 1  
    63   18   64 1  
    64   21   65 1  
    65   22   66 1  
    66   23   67 1  
    67   23   68 1  
    68   23   69 1  
    69   24   70 1  
    70   25   71 1  
    71   28   72 1  
    72   28   73 1  
    73   29   74 1  
    74   29   75 1  
    75   30   76 1  
    76   30   77 1  
    77   31   78 1  
    78   31   79 1  
    79   32   80 1  
    80   32   81 1  
    81   32   82 1  
    82   33   83 1  
    83   34   84 1  
    84   37   85 1  
    85   37   86 1  
    86   38   87 1  
    87   38   88 1  
    88   41   89 1  
    89   41   90 1  
    90   42   91 1  
    91   42   92 1  
@<TRIPOS>SUBSTRUCTURE
     1 ALA         1

