2co0_ligand
  -I-interpret- 

 91 90  0  0  0  0  0  0  0  0999 V2000
    6.2170    3.1830   -0.6780 N   0  3  0  0  0
    4.9690    3.0850    0.1460 C   0  0  0  0  0
    5.2790    2.7360    1.5950 C   0  0  0  0  0
    4.3830    2.7240    2.4370 O   0  0  0  0  0
    4.0280    2.0700   -0.4280 C   0  0  0  0  0
    6.5480    2.4360    1.8700 N   0  0  0  0  0
    6.9990    2.1430    3.2300 C   0  0  0  0  0
    6.6620    3.4020    4.0370 C   0  0  0  0  0
    6.3890    3.3400    5.2310 O   0  0  0  0  0
    8.5220    1.8990    3.2420 C   0  0  0  0  0
    9.1530    1.7400    4.6340 C   0  0  0  0  0
   10.6910    1.6470    4.5550 C   0  0  0  0  0
   11.1370    0.4900    3.7760 N   0  0  0  0  0
   11.3150   -0.7360    4.2710 C   0  0  0  0  0
   11.0960   -0.9770    5.5580 N   0  0  0  0  0
   11.6870   -1.7290    3.4720 N   0  0  0  0  0
    6.6700    4.5400    3.3540 N   0  0  0  0  0
    6.3800    5.8260    3.9740 C   0  0  0  0  0
    4.9390    6.0010    4.4370 C   0  0  0  0  0
    4.6180    6.9730    5.1170 O   0  0  0  0  0
    6.7110    6.9770    3.0220 C   0  0  0  0  0
    5.8940    6.8730    1.8530 O   0  0  0  0  0
    8.1710    6.9260    2.6290 C   0  0  0  0  0
    4.0670    5.0840    4.0430 N   0  0  0  0  0
    2.6760    5.1450    4.4610 C   0  0  0  0  0
    2.4600    3.9810    5.3950 C   0  0  0  0  0
    3.2030    3.0020    5.3440 O   0  0  0  0  0
    1.7240    5.0210    3.2790 C   0  0  0  0  0
    1.3550    6.3440    2.6560 C   0  0  0  0  0
    0.3000    6.1760    1.5760 C   0  0  0  0  0
    0.2320    7.4250    0.7230 C   0  0  0  0  0
   -0.6630    7.2600   -0.4380 N   0  3  0  0  0
    1.4520    4.0760    6.2510 N   0  0  0  0  0
    1.1900    2.9960    7.1930 C   0  0  0  0  0
    0.2020    1.9750    6.6190 C   0  0  0  0  0
   -0.8490    2.4090    6.0840 O   0  0  0  0  0
    0.6330    3.5800    8.4800 C   0  0  0  0  0
    0.3790    2.5530    9.5520 C   0  0  0  0  0
   -0.5300    3.0930   10.6310 C   0  0  0  0  0
   -0.4550    4.2740   10.9830 O   0  0  0  0  0
   -1.3860    2.2310   11.1750 N   0  0  0  0  0
    0.4930    0.7570    6.7210 N   0  0  0  0  0
    6.8400    3.8787   -0.2679 H   0  0  0  0  0
    6.6832    2.2759   -0.6960 H   0  0  0  0  0
    5.9742    3.4608   -1.6289 H   0  0  0  0  0
    4.4931    4.0654    0.1239 H   0  0  0  0  0
    4.4890    1.0833   -0.3841 H   0  0  0  0  0
    3.1033    2.0664    0.1491 H   0  0  0  0  0
    3.8095    2.3246   -1.4651 H   0  0  0  0  0
    7.2258    2.4099    1.1082 H   0  0  0  0  0
    6.5246    1.2509    3.6388 H   0  0  0  0  0
    8.9816    2.7782    2.7905 H   0  0  0  0  0
    8.6910    0.9602    2.7146 H   0  0  0  0  0
    8.7754    0.8197    5.0795 H   0  0  0  0  0
    8.8916    2.6132    5.2317 H   0  0  0  0  0
   11.0765    1.5416    5.5691 H   0  0  0  0  0
   11.0601    2.5480    4.0649 H   0  0  0  0  0
   11.3251    0.6317    2.7836 H   0  0  0  0  0
   10.7902   -0.2231    6.1732 H   0  0  0  0  0
   11.8029   -2.6701    3.8480 H   0  0  0  0  0
   11.8569   -1.5508    2.4822 H   0  0  0  0  0
    6.8873    4.5132    2.3578 H   0  0  0  0  0
    7.0126    5.8446    4.8614 H   0  0  0  0  0
    6.5153    7.9245    3.5240 H   0  0  0  0  0
    6.1004    7.5946    1.2545 H   0  0  0  0  0
    8.7896    7.0117    3.5223 H   0  0  0  0  0
    8.3790    5.9790    2.1310 H   0  0  0  0  0
    8.3926    7.7506    1.9515 H   0  0  0  0  0
    4.3766    4.3239    3.4373 H   0  0  0  0  0
    2.4741    6.1045    4.9372 H   0  0  0  0  0
    0.8043    4.5667    3.6476 H   0  0  0  0  0
    2.2289    4.4304    2.5145 H   0  0  0  0  0
    2.2484    6.7730    2.2022 H   0  0  0  0  0
    0.9520    6.9917    3.4345 H   0  0  0  0  0
   -0.6698    6.0072    2.0441 H   0  0  0  0  0
    0.5618    5.3251    0.9471 H   0  0  0  0  0
    1.2345    7.6360    0.3507 H   0  0  0  0  0
   -0.1581    8.2352    1.3391 H   0  0  0  0  0
   -0.6766    8.1235   -0.9807 H   0  0  0  0  0
   -0.3234    6.4955   -1.0217 H   0  0  0  0  0
   -1.6056    7.0473   -0.1116 H   0  0  0  0  0
    0.8593    4.9061    6.2500 H   0  0  0  0  0
    2.1285    2.4775    7.3893 H   0  0  0  0  0
   -0.3239    4.0434    8.2398 H   0  0  0  0  0
    1.3741    4.2789    8.8678 H   0  0  0  0  0
    1.3328    2.2846   10.0062 H   0  0  0  0  0
   -0.1028    1.6886    9.0951 H   0  0  0  0  0
   -2.0165    2.5372   11.9160 H   0  0  0  0  0
   -1.4114    1.2642   10.8509 H   0  0  0  0  0
   -0.1434    0.0483    6.3562 H   0  0  0  0  0
    1.3657    0.4769    7.1686 H   0  0  0  0  0
  1  2  1  0  0  0
  2  3  1  0  0  0
  2  5  1  0  0  0
  3  4  2  0  0  0
  3  6  1  0  0  0
  6  7  1  0  0  0
  7  8  1  0  0  0
  7 10  1  0  0  0
  8  9  2  0  0  0
  8 17  1  0  0  0
 10 11  1  0  0  0
 11 12  1  0  0  0
 12 13  1  0  0  0
 13 14  1  0  0  0
 14 15  2  0  0  0
 14 16  1  0  0  0
 17 18  1  0  0  0
 18 19  1  0  0  0
 18 21  1  0  0  0
 19 20  2  0  0  0
 19 24  1  0  0  0
 21 22  1  0  0  0
 21 23  1  0  0  0
 24 25  1  0  0  0
 25 26  1  0  0  0
 25 28  1  0  0  0
 26 27  2  0  0  0
 26 33  1  0  0  0
 28 29  1  0  0  0
 29 30  1  0  0  0
 30 31  1  0  0  0
 31 32  1  0  0  0
 33 34  1  0  0  0
 34 35  1  0  0  0
 34 37  1  0  0  0
 35 36  2  0  0  0
 35 42  1  0  0  0
 37 38  1  0  0  0
 38 39  1  0  0  0
 39 40  2  0  0  0
 39 41  1  0  0  0
  1 43  1  0  0  0
  1 44  1  0  0  0
  1 45  1  0  0  0
  2 46  1  0  0  0
  5 47  1  0  0  0
  5 48  1  0  0  0
  5 49  1  0  0  0
  6 50  1  0  0  0
  7 51  1  0  0  0
 10 52  1  0  0  0
 10 53  1  0  0  0
 11 54  1  0  0  0
 11 55  1  0  0  0
 12 56  1  0  0  0
 12 57  1  0  0  0
 13 58  1  0  0  0
 15 59  1  0  0  0
 16 60  1  0  0  0
 16 61  1  0  0  0
 17 62  1  0  0  0
 18 63  1  0  0  0
 21 64  1  0  0  0
 22 65  1  0  0  0
 23 66  1  0  0  0
 23 67  1  0  0  0
 23 68  1  0  0  0
 24 69  1  0  0  0
 25 70  1  0  0  0
 28 71  1  0  0  0
 28 72  1  0  0  0
 29 73  1  0  0  0
 29 74  1  0  0  0
 30 75  1  0  0  0
 30 76  1  0  0  0
 31 77  1  0  0  0
 31 78  1  0  0  0
 32 79  1  0  0  0
 32 80  1  0  0  0
 32 81  1  0  0  0
 33 82  1  0  0  0
 34 83  1  0  0  0
 37 84  1  0  0  0
 37 85  1  0  0  0
 38 86  1  0  0  0
 38 87  1  0  0  0
 41 88  1  0  0  0
 41 89  1  0  0  0
 42 90  1  0  0  0
 42 91  1  0  0  0
M  END
$$$$
