4ufy_ligand
  -I-interpret- 

 33 35  0  0  0  0  0  0  0  0999 V2000
  -39.8470  -12.2390   10.0320 C   0  0  0  0  0
  -39.9010  -11.9470    8.6630 C   0  0  0  0  0
  -39.2080  -10.8610    8.1260 C   0  0  0  0  0
  -39.2960  -10.5840    6.7480 C   0  0  0  0  0
  -38.4420  -10.0670    8.9850 C   0  0  0  0  0
  -38.3720  -10.3720   10.3450 C   0  0  0  0  0
  -39.0670  -11.4720   10.9050 C   0  0  0  0  0
  -39.0510  -11.7760   12.3010 C   0  0  0  0  0
  -39.8590  -12.7490   12.8160 N   0  0  0  0  0
  -39.8890  -13.0190   14.1510 C   0  0  0  0  0
  -40.7520  -14.0340   14.6100 C   0  0  0  0  0
  -41.5670  -14.7710   13.7070 C   0  0  0  0  0
  -40.8160  -14.3270   15.9790 C   0  0  0  0  0
  -40.0180  -13.6120   16.8730 C   0  0  0  0  0
  -39.1490  -12.6000   16.4180 C   0  0  0  0  0
  -39.0930  -12.2880   15.0690 C   0  0  0  0  0
  -38.2440  -11.3050   14.5880 C   0  0  0  0  0
  -37.4930  -10.6580   15.3160 O   0  0  0  0  0
  -38.2510  -11.0350   13.2050 N   0  0  0  0  0
  -40.4222  -13.0778   10.4240 H   0  0  0  0  0
  -40.4957  -12.5801    8.0045 H   0  0  0  0  0
  -38.9273  -11.4397    6.1824 H   0  0  0  0  0
  -40.3358  -10.3924    6.4829 H   0  0  0  0  0
  -38.6928   -9.7063    6.5159 H   0  0  0  0  0
  -37.8984   -9.2080    8.5916 H   0  0  0  0  0
  -37.7638   -9.7445   10.9964 H   0  0  0  0  0
  -42.2361  -14.0882   13.1834 H   0  0  0  0  0
  -40.9332  -15.2858   12.9849 H   0  0  0  0  0
  -42.1541  -15.5019   14.2631 H   0  0  0  0  0
  -41.4842  -15.1076   16.3427 H   0  0  0  0  0
  -40.0674  -13.8393   17.9379 H   0  0  0  0  0
  -38.5204  -12.0623   17.1278 H   0  0  0  0  0
  -37.6627  -10.2839   12.8443 H   0  0  0  0  0
  1  2  4  0  0  0
  1  7  4  0  0  0
  2  3  4  0  0  0
  3  4  1  0  0  0
  3  5  4  0  0  0
  5  6  4  0  0  0
  6  7  4  0  0  0
  7  8  1  0  0  0
  8  9  2  0  0  0
  8 19  1  0  0  0
  9 10  1  0  0  0
 10 11  4  0  0  0
 10 16  4  0  0  0
 11 12  1  0  0  0
 11 13  4  0  0  0
 13 14  4  0  0  0
 14 15  4  0  0  0
 15 16  4  0  0  0
 16 17  1  0  0  0
 17 18  2  0  0  0
 17 19  1  0  0  0
  1 20  1  0  0  0
  2 21  1  0  0  0
  4 22  1  0  0  0
  4 23  1  0  0  0
  4 24  1  0  0  0
  5 25  1  0  0  0
  6 26  1  0  0  0
 12 27  1  0  0  0
 12 28  1  0  0  0
 12 29  1  0  0  0
 13 30  1  0  0  0
 14 31  1  0  0  0
 15 32  1  0  0  0
 19 33  1  0  0  0
M  END
$$$$
