4urw_ligand
  -I-interpret- 

 44 46  0  0  0  0  0  0  0  0999 V2000
   45.6810   42.3410   77.6380 C   0  0  0  0  0
   45.3120   41.5370   76.4160 C   0  0  0  0  0
   45.5720   42.0500   75.1410 C   0  0  0  0  0
   45.2320   41.3450   74.0000 C   0  0  0  0  0
   44.6120   40.1120   74.1130 C   0  0  0  0  0
   44.2980   39.5720   75.3650 C   0  0  0  0  0
   43.6100   38.2350   75.4490 C   0  0  0  0  0
   44.6590   40.2890   76.5270 C   0  0  0  0  0
   44.4250   39.7170   77.8810 C   0  0  0  0  0
   43.1850   39.7210   78.3880 N   0  0  0  0  0
   43.1060   39.1930   79.6190 C   0  0  0  0  0
   41.5410   39.0640   80.4000 S   0  0  0  0  0
   40.4640   39.9160   79.2570 C   0  0  0  0  0
   45.5210   39.2460   78.4950 N   0  0  0  0  0
   45.3030   38.7290   79.7220 C   0  0  0  0  0
   44.1080   38.6760   80.3420 N   0  0  0  0  0
   46.3880   38.2950   80.4150 N   0  0  0  0  0
   47.6950   38.9320   80.2170 C   0  0  0  0  0
   48.8140   37.9640   80.5060 C   0  0  0  0  0
   48.6940   37.4610   81.8860 N   0  3  0  0  0
   47.3960   36.8030   82.0950 C   0  0  0  0  0
   46.2560   37.7430   81.7680 C   0  0  0  0  0
   46.7554   42.5250   77.6395 H   0  0  0  0  0
   45.1483   43.2918   77.6203 H   0  0  0  0  0
   45.4051   41.7851   78.5341 H   0  0  0  0  0
   46.0517   43.0240   75.0444 H   0  0  0  0  0
   45.4514   41.7587   73.0157 H   0  0  0  0  0
   44.3643   39.5524   73.2110 H   0  0  0  0  0
   42.6515   38.2880   74.9326 H   0  0  0  0  0
   44.2356   37.4758   74.9796 H   0  0  0  0  0
   43.4467   37.9770   76.4953 H   0  0  0  0  0
   40.7974   40.9478   79.1460 H   0  0  0  0  0
   40.4958   39.4164   78.2887 H   0  0  0  0  0
   39.4441   39.9017   79.6414 H   0  0  0  0  0
   47.7792   39.7788   80.8981 H   0  0  0  0  0
   47.7726   39.2582   79.1799 H   0  0  0  0  0
   49.7706   38.4734   80.3897 H   0  0  0  0  0
   48.7552   37.1267   79.8106 H   0  0  0  0  0
   48.7692   38.2488   82.5295 H   0  0  0  0  0
   49.4363   36.7815   82.0527 H   0  0  0  0  0
   47.3173   36.5067   83.1410 H   0  0  0  0  0
   47.3335   35.9344   81.4395 H   0  0  0  0  0
   45.3210   37.1857   81.8246 H   0  0  0  0  0
   46.2719   38.5673   82.4810 H   0  0  0  0  0
  1  2  1  0  0  0
  2  3  4  0  0  0
  2  8  4  0  0  0
  3  4  4  0  0  0
  4  5  4  0  0  0
  5  6  4  0  0  0
  6  7  1  0  0  0
  6  8  4  0  0  0
  8  9  1  0  0  0
  9 10  4  0  0  0
  9 14  4  0  0  0
 10 11  4  0  0  0
 11 12  1  0  0  0
 11 16  4  0  0  0
 12 13  1  0  0  0
 14 15  4  0  0  0
 15 16  4  0  0  0
 15 17  1  0  0  0
 17 18  1  0  0  0
 17 22  1  0  0  0
 18 19  1  0  0  0
 19 20  1  0  0  0
 20 21  1  0  0  0
 21 22  1  0  0  0
  1 23  1  0  0  0
  1 24  1  0  0  0
  1 25  1  0  0  0
  3 26  1  0  0  0
  4 27  1  0  0  0
  5 28  1  0  0  0
  7 29  1  0  0  0
  7 30  1  0  0  0
  7 31  1  0  0  0
 13 32  1  0  0  0
 13 33  1  0  0  0
 13 34  1  0  0  0
 18 35  1  0  0  0
 18 36  1  0  0  0
 19 37  1  0  0  0
 19 38  1  0  0  0
 20 39  1  0  0  0
 20 40  1  0  0  0
 21 41  1  0  0  0
 21 42  1  0  0  0
 22 43  1  0  0  0
 22 44  1  0  0  0
M  END
$$$$
