4y46_ligand
  -I-interpret- 

 62 65  0  0  0  0  0  0  0  0999 V2000
    2.2840  -30.3820  -29.6930 C   0  0  0  0  0
    2.2940  -30.5100  -31.2000 C   0  0  0  0  0
    1.3970  -31.7200  -31.5790 C   0  0  0  0  0
    0.0050  -31.7100  -30.9610 C   0  0  0  0  0
    6.0390  -27.3170  -32.8170 C   0  0  0  0  0
    6.7780  -26.1730  -33.1650 C   0  0  0  0  0
    6.3200  -24.9070  -32.9820 C   0  0  0  0  0
    4.9950  -24.6180  -32.4060 C   0  0  0  0  0
    2.9280  -25.5440  -31.4100 C   0  0  0  0  0
    2.9720  -25.8750  -29.8730 C   0  0  0  0  0
    1.7760  -26.7240  -29.4800 C   0  0  0  0  0
    1.6920  -26.2760  -31.8470 C   0  0  0  0  0
    4.7490  -27.1240  -32.2550 C   0  0  0  0  0
    4.4860  -29.4840  -32.0470 C   0  0  0  0  0
   -2.5420  -35.7890  -29.7390 C   0  0  0  0  0
   -3.0700  -34.5950  -28.8930 C   0  0  0  0  0
   -4.5570  -34.3300  -29.3120 C   0  0  0  0  0
   -2.1230  -33.4610  -29.0410 N   0  0  0  0  0
   -2.3670  -32.0660  -28.6550 C   0  0  0  0  0
   -3.4340  -31.7070  -28.1580 O   0  0  0  0  0
   -1.3600  -31.0960  -28.8750 N   0  0  0  0  0
   -0.0170  -31.3910  -29.4480 C   0  0  0  0  0
    0.9210  -30.2110  -29.1210 C   0  0  0  0  0
    3.6830  -30.5750  -31.7100 N   0  0  0  0  0
    5.7430  -29.6920  -32.5880 N   0  0  0  0  0
    6.4410  -28.6170  -32.9460 C   0  0  0  0  0
    4.5940  -23.4740  -32.2520 O   0  0  0  0  0
    4.2620  -25.8070  -32.0760 N   0  0  0  0  0
    0.8150  -26.3700  -30.5980 C   0  0  0  0  0
    4.0130  -28.2080  -31.8930 N   0  0  0  0  0
    2.8611  -29.4938  -29.4358 H   0  0  0  0  0
    2.6981  -31.3032  -29.2832 H   0  0  0  0  0
    1.8725  -29.6302  -31.6862 H   0  0  0  0  0
    1.8997  -32.6125  -31.2064 H   0  0  0  0  0
    1.2610  -31.6838  -32.6599 H   0  0  0  0  0
   -0.4077  -32.7113  -31.0838 H   0  0  0  0  0
   -0.5630  -30.9263  -31.4624 H   0  0  0  0  0
    7.7669  -26.3082  -33.6031 H   0  0  0  0  0
    6.9579  -24.0723  -33.2727 H   0  0  0  0  0
    2.8251  -24.4997  -31.7050 H   0  0  0  0  0
    2.9468  -24.9431  -29.3083 H   0  0  0  0  0
    3.8863  -26.4269  -29.6547 H   0  0  0  0  0
    1.3931  -26.5228  -28.4795 H   0  0  0  0  0
    1.9913  -27.7891  -29.3946 H   0  0  0  0  0
    1.9299  -27.2625  -32.2450 H   0  0  0  0  0
    1.1820  -25.7539  -32.6566 H   0  0  0  0  0
   -3.1532  -36.6700  -29.5429 H   0  0  0  0  0
   -2.5974  -35.5352  -30.7976 H   0  0  0  0  0
   -1.5068  -35.9955  -29.4672 H   0  0  0  0  0
   -3.1036  -34.7895  -27.8210 H   0  0  0  0  0
   -4.5962  -34.0879  -30.3740 H   0  0  0  0  0
   -5.1520  -35.2227  -29.1193 H   0  0  0  0  0
   -4.9531  -33.4958  -28.7330 H   0  0  0  0  0
   -1.2133  -33.6722  -29.4513 H   0  0  0  0  0
   -1.5680  -30.1294  -28.6242 H   0  0  0  0  0
    0.3240  -32.3153  -28.9817 H   0  0  0  0  0
    0.4876  -29.3099  -29.5550 H   0  0  0  0  0
    1.0189  -30.1529  -28.0370 H   0  0  0  0  0
    4.0906  -31.5028  -31.8257 H   0  0  0  0  0
    7.4247  -28.7892  -33.3827 H   0  0  0  0  0
    0.2866  -25.4373  -30.4005 H   0  0  0  0  0
    0.0273  -27.1152  -30.7089 H   0  0  0  0  0
  2  1  1  0  0  0
  1 23  1  0  0  0
  3  2  1  0  0  0
  2 24  1  0  0  0
  4  3  1  0  0  0
 22  4  1  0  0  0
  5  6  1  0  0  0
 13  5  4  0  0  0
  5 26  4  0  0  0
  6  7  2  0  0  0
  8  7  1  0  0  0
  8 27  2  0  0  0
 28  8  1  0  0  0
  9 10  1  0  0  0
  9 12  1  0  0  0
 28  9  1  0  0  0
 10 11  1  0  0  0
 29 11  1  0  0  0
 12 29  1  0  0  0
 13 28  1  0  0  0
 30 13  4  0  0  0
 24 14  1  0  0  0
 14 25  4  0  0  0
 14 30  4  0  0  0
 16 15  1  0  0  0
 16 17  1  0  0  0
 18 16  1  0  0  0
 19 18  1  0  0  0
 19 20  2  0  0  0
 21 19  1  0  0  0
 21 22  1  0  0  0
 22 23  1  0  0  0
 25 26  4  0  0  0
  1 31  1  0  0  0
  1 32  1  0  0  0
  2 33  1  0  0  0
  3 34  1  0  0  0
  3 35  1  0  0  0
  4 36  1  0  0  0
  4 37  1  0  0  0
  6 38  1  0  0  0
  7 39  1  0  0  0
  9 40  1  0  0  0
 10 41  1  0  0  0
 10 42  1  0  0  0
 11 43  1  0  0  0
 11 44  1  0  0  0
 12 45  1  0  0  0
 12 46  1  0  0  0
 15 47  1  0  0  0
 15 48  1  0  0  0
 15 49  1  0  0  0
 16 50  1  0  0  0
 17 51  1  0  0  0
 17 52  1  0  0  0
 17 53  1  0  0  0
 18 54  1  0  0  0
 21 55  1  0  0  0
 22 56  1  0  0  0
 23 57  1  0  0  0
 23 58  1  0  0  0
 24 59  1  0  0  0
 26 60  1  0  0  0
 29 61  1  0  0  0
 29 62  1  0  0  0
M  END
$$$$
