4re4_ligand
  -I-interpret- 

 24 24  0  0  0  0  0  0  0  0999 V2000
    9.9280   10.6650   10.2120 O   0  0  0  0  0
    9.0830   11.2620   11.2100 C   0  0  0  0  0
    8.9230   10.3070   12.4080 C   0  0  0  0  0
    8.2590    9.1180   11.9730 O   0  0  0  0  0
    8.1520   10.9210   13.5850 C   0  0  0  0  0
    8.5280   12.3100   13.8330 N   0  3  0  0  0
    8.7070   13.2560   12.7250 C   0  0  0  0  0
    9.6150   12.6440   11.6430 C   0  0  0  0  0
    9.8330   13.6330   10.4870 C   0  0  0  0  0
    8.7760   13.5570    9.5110 O   0  0  0  0  0
    9.5721    9.8087    9.9636 H   0  0  0  0  0
    8.0967   11.4281   10.7767 H   0  0  0  0  0
    9.9259   10.0882   12.7745 H   0  0  0  0  0
    8.7415    8.7344   11.2370 H   0  0  0  0  0
    8.3860   10.3435   14.4793 H   0  0  0  0  0
    7.0899   10.8976   13.3412 H   0  0  0  0  0
    9.4552   12.2434   14.2528 H   0  0  0  0  0
    7.7390   12.6895   14.3564 H   0  0  0  0  0
    9.1699   14.1666   13.1053 H   0  0  0  0  0
    7.7341   13.4812   12.2881 H   0  0  0  0  0
   10.6072   12.4621   12.0559 H   0  0  0  0  0
   10.7726   13.3825    9.9945 H   0  0  0  0  0
    9.8477   14.6424   10.8980 H   0  0  0  0  0
    8.9463   14.1869    8.8069 H   0  0  0  0  0
  1  2  1  0  0  0
  2  3  1  0  0  0
  2  8  1  0  0  0
  3  4  1  0  0  0
  3  5  1  0  0  0
  5  6  1  0  0  0
  6  7  1  0  0  0
  7  8  1  0  0  0
  8  9  1  0  0  0
  9 10  1  0  0  0
  1 11  1  0  0  0
  2 12  1  0  0  0
  3 13  1  0  0  0
  4 14  1  0  0  0
  5 15  1  0  0  0
  5 16  1  0  0  0
  6 17  1  0  0  0
  6 18  1  0  0  0
  7 19  1  0  0  0
  7 20  1  0  0  0
  8 21  1  0  0  0
  9 22  1  0  0  0
  9 23  1  0  0  0
 10 24  1  0  0  0
M  END
$$$$
