6h37_ligand
  -I-interpret- 

 45 47  0  0  0  0  0  0  0  0999 V2000
   16.6110   26.5880    4.5930 C   0  0  0  0  0
   16.3370   27.2210    5.7930 C   0  0  0  0  0
   15.9580   26.4680    6.8920 C   0  0  0  0  0
   15.6560   27.2710    8.4390 S   0  0  0  0  0
   16.9070   27.8030    8.8900 O   0  0  0  0  0
   14.5620   28.1750    8.2420 O   0  0  0  0  0
   15.8440   25.0900    6.7960 C   0  0  0  0  0
   16.1190   24.4680    5.5900 C   0  0  0  0  0
   16.5070   25.2070    4.4780 C   0  0  0  0  0
   16.7790   24.5320    3.1670 C   0  0  0  0  0
   16.4150   25.0600    2.1310 O   0  0  0  0  0
   17.3750   23.3280    3.1780 N   0  0  0  0  0
   18.3640   22.9820    4.2090 C   0  0  0  0  0
   19.7760   23.3360    3.7710 C   0  0  0  0  0
   17.6840   22.6580    1.9050 C   0  0  0  0  0
   19.0800   23.0100    1.4160 C   0  0  0  0  0
   20.1400   22.6460    2.4560 C   0  0  0  0  0
   20.0550   21.2390    2.6750 O   0  0  0  0  0
   21.5400   23.0350    1.9890 C   0  0  0  0  0
   21.8740   24.3620    1.7490 C   0  0  0  0  0
   23.1470   24.7120    1.3290 C   0  0  0  0  0
   24.1070   23.7390    1.1430 C   0  0  0  0  0
   23.7940   22.4170    1.3760 C   0  0  0  0  0
   22.5210   22.0670    1.7960 C   0  0  0  0  0
   15.1850   26.1740    9.5040 N   0  0  0  0  0
   16.9118   27.1795    3.7283 H   0  0  0  0  0
   16.4189   28.3050    5.8726 H   0  0  0  0  0
   15.5407   24.5015    7.6619 H   0  0  0  0  0
   16.0301   23.3845    5.5113 H   0  0  0  0  0
   18.3171   21.9072    4.3844 H   0  0  0  0  0
   18.1319   23.5464    5.1122 H   0  0  0  0  0
   20.4717   23.0032    4.5413 H   0  0  0  0  0
   19.8333   24.4145    3.6241 H   0  0  0  0  0
   16.9625   22.9870    1.1571 H   0  0  0  0  0
   17.6336   21.5803    2.0604 H   0  0  0  0  0
   19.1244   24.0841    1.2360 H   0  0  0  0  0
   19.2807   22.4477    0.5040 H   0  0  0  0  0
   20.2788   20.7760    1.8643 H   0  0  0  0  0
   21.1235   25.1392    1.8933 H   0  0  0  0  0
   23.3905   25.7584    1.1451 H   0  0  0  0  0
   25.1087   24.0144    0.8132 H   0  0  0  0  0
   24.5497   21.6453    1.2295 H   0  0  0  0  0
   22.2845   21.0186    1.9778 H   0  0  0  0  0
   15.7618   25.9765   10.3217 H   0  0  0  0  0
   14.3079   25.6721    9.3653 H   0  0  0  0  0
  1  2  4  0  0  0
  1  9  4  0  0  0
  2  3  4  0  0  0
  3  4  1  0  0  0
  3  7  4  0  0  0
  4  5  2  0  0  0
  4  6  2  0  0  0
  4 25  1  0  0  0
  7  8  4  0  0  0
  8  9  4  0  0  0
  9 10  1  0  0  0
 10 11  2  0  0  0
 10 12  1  0  0  0
 12 13  1  0  0  0
 12 15  1  0  0  0
 13 14  1  0  0  0
 14 17  1  0  0  0
 15 16  1  0  0  0
 16 17  1  0  0  0
 17 18  1  0  0  0
 17 19  1  0  0  0
 19 20  4  0  0  0
 19 24  4  0  0  0
 20 21  4  0  0  0
 21 22  4  0  0  0
 22 23  4  0  0  0
 23 24  4  0  0  0
  1 26  1  0  0  0
  2 27  1  0  0  0
  7 28  1  0  0  0
  8 29  1  0  0  0
 13 30  1  0  0  0
 13 31  1  0  0  0
 14 32  1  0  0  0
 14 33  1  0  0  0
 15 34  1  0  0  0
 15 35  1  0  0  0
 16 36  1  0  0  0
 16 37  1  0  0  0
 18 38  1  0  0  0
 20 39  1  0  0  0
 21 40  1  0  0  0
 22 41  1  0  0  0
 23 42  1  0  0  0
 24 43  1  0  0  0
 25 44  1  0  0  0
 25 45  1  0  0  0
M  END
$$$$
