6hly_ligand
  -I-interpret- 

 39 39  0  0  0  0  0  0  0  0999 V2000
   54.5440   10.3550   79.5830 O   0  0  0  0  0
   53.2980   10.5030   79.7020 C   0  0  0  0  0
   52.3290    9.8820   78.8530 C   0  0  0  0  0
   50.9710   10.5280   79.2570 C   0  0  0  0  0
   51.2590   11.3990   80.5010 C   0  0  0  0  0
   50.4500   10.9350   81.6310 C   0  0  0  0  0
   49.2080   11.1450   81.6110 O   0  0  0  0  0
   52.7300   11.2950   80.6320 N   0  0  0  0  0
   53.4790   12.0330   81.6760 C   0  0  0  0  0
   53.8570   13.4370   81.1900 C   0  0  0  0  0
   52.6580   14.1660   80.8470 O   0  0  0  0  0
   54.5850   14.2160   82.2950 C   0  0  0  0  0
   53.9160   14.0500   83.5730 O   0  0  0  0  0
   56.0960   13.9010   82.3810 C   0  0  0  0  0
   56.2920   12.5290   82.7590 O   0  0  0  0  0
   56.7270   14.7710   83.4730 C   0  0  0  0  0
   56.5630   16.1680   83.1190 O   0  0  0  0  0
   58.2210   14.4550   83.6510 C   0  0  0  0  0
   58.9480   14.5880   82.4150 O   0  0  0  0  0
   51.0160   10.3270   82.5570 O   0  0  0  0  0
   52.3156    8.7993   78.9779 H   0  0  0  0  0
   52.5545   10.0392   77.7982 H   0  0  0  0  0
   50.2237    9.7655   79.4764 H   0  0  0  0  0
   50.5646   11.1285   78.4431 H   0  0  0  0  0
   50.9769   12.4501   80.4403 H   0  0  0  0  0
   48.9790   11.6274   80.8132 H   0  0  0  0  0
   54.3923   11.4842   81.9057 H   0  0  0  0  0
   52.8479   12.1264   82.5598 H   0  0  0  0  0
   54.5101   13.3327   80.3236 H   0  0  0  0  0
   52.8953   15.0450   80.5428 H   0  0  0  0  0
   54.5306   15.2691   82.0192 H   0  0  0  0  0
   54.3881   14.5449   84.2467 H   0  0  0  0  0
   56.5494   14.0948   81.4089 H   0  0  0  0  0
   57.2325   12.3434   82.8096 H   0  0  0  0  0
   56.2254   14.5580   84.4170 H   0  0  0  0  0
   56.9568   16.7179   83.8002 H   0  0  0  0  0
   58.3143   13.4245   83.9936 H   0  0  0  0  0
   58.6367   15.1608   84.3701 H   0  0  0  0  0
   59.8737   14.3834   82.5659 H   0  0  0  0  0
  1  2  2  0  0  0
  2  3  1  0  0  0
  2  8  1  0  0  0
  3  4  1  0  0  0
  4  5  1  0  0  0
  5  6  1  0  0  0
  5  8  1  0  0  0
  6  7  1  0  0  0
  6 20  2  0  0  0
  8  9  1  0  0  0
  9 10  1  0  0  0
 10 11  1  0  0  0
 10 12  1  0  0  0
 12 13  1  0  0  0
 12 14  1  0  0  0
 14 15  1  0  0  0
 14 16  1  0  0  0
 16 17  1  0  0  0
 16 18  1  0  0  0
 18 19  1  0  0  0
  3 21  1  0  0  0
  3 22  1  0  0  0
  4 23  1  0  0  0
  4 24  1  0  0  0
  5 25  1  0  0  0
  7 26  1  0  0  0
  9 27  1  0  0  0
  9 28  1  0  0  0
 10 29  1  0  0  0
 11 30  1  0  0  0
 12 31  1  0  0  0
 13 32  1  0  0  0
 14 33  1  0  0  0
 15 34  1  0  0  0
 16 35  1  0  0  0
 17 36  1  0  0  0
 18 37  1  0  0  0
 18 38  1  0  0  0
 19 39  1  0  0  0
M  END
$$$$
