5moc_ligand
  -I-interpret- 

197198  0  0  0  0  0  0  0  0999 V2000
  -15.8050   -2.8750   17.2550 N   0  3  0  0  0
  -15.5610   -4.1960   17.8190 C   0  0  0  0  0
  -14.5710   -4.9830   16.9790 C   0  0  0  0  0
  -14.5980   -4.9200   15.7490 O   0  0  0  0  0
  -16.8660   -4.9880   17.9310 C   0  0  0  0  0
  -16.6650   -6.4360   18.3620 C   0  0  0  0  0
  -17.9690   -7.2010   18.4080 C   0  0  0  0  0
  -17.7290   -8.6770   18.7160 C   0  0  0  0  0
  -16.9870   -9.4010   17.6370 N   0  3  0  0  0
  -13.7070   -5.7340   17.6560 N   0  0  0  0  0
  -12.8450   -6.7050   16.9890 C   0  0  0  0  0
  -13.7040   -7.8560   16.4810 C   0  0  0  0  0
  -14.2910   -8.5950   17.2800 O   0  0  0  0  0
  -11.7740   -7.2030   17.9570 C   0  0  0  0  0
  -10.7800   -8.2540   17.4490 C   0  0  0  0  0
   -9.9730   -7.7330   16.2680 C   0  0  0  0  0
   -9.8550   -8.6840   18.5810 C   0  0  0  0  0
  -13.7980   -7.9960   15.1570 N   0  0  0  0  0
  -14.5540   -9.0710   14.5250 C   0  0  0  0  0
  -13.5950  -10.1790   14.1130 C   0  0  0  0  0
  -12.5930   -9.9190   13.4410 O   0  0  0  0  0
  -15.3160   -8.5750   13.2920 C   0  0  0  0  0
  -16.3120   -7.4630   13.5510 C   0  0  0  0  0
  -17.5390   -7.8570   14.8180 S   0  0  0  0  0
  -18.5450   -9.0850   13.9940 C   0  0  0  0  0
  -13.9050  -11.4070   14.5080 N   0  0  0  0  0
  -13.0740  -12.5270   14.1120 C   0  0  0  0  0
  -13.4470  -12.9760   12.7020 C   0  0  0  0  0
  -14.4610  -12.5640   12.1360 O   0  0  0  0  0
  -13.2060  -13.6620   15.1270 C   0  0  0  0  0
  -12.8410  -13.2440   16.5180 C   0  0  0  0  0
  -11.5350  -12.9000   16.8190 C   0  0  0  0  0
  -13.7990  -13.1640   17.5100 C   0  0  0  0  0
  -11.1850  -12.4890   18.0810 C   0  0  0  0  0
  -13.4560  -12.7610   18.7880 C   0  0  0  0  0
  -12.1460  -12.4220   19.0730 C   0  0  0  0  0
  -12.5860  -13.7970   12.1160 N   0  0  0  0  0
  -12.7990  -14.2630   10.7550 C   0  0  0  0  0
  -13.9300  -15.2800   10.6930 C   0  0  0  0  0
  -13.9270  -16.2640   11.4300 O   0  0  0  0  0
  -11.5190  -14.8810   10.1900 C   0  0  0  0  0
  -10.2910  -13.9760   10.2660 C   0  0  0  0  0
  -10.4900  -12.7000    9.4580 C   0  0  0  0  0
   -9.1850  -11.9200    9.2990 C   0  0  0  0  0
   -8.2850  -12.5090    8.2650 N   0  3  0  0  0
  -14.9020  -15.0220    9.8180 N   0  0  0  0  0
  -15.9250  -16.0060    9.4940 C   0  0  0  0  0
  -17.2950  -15.6090   10.0680 C   0  0  0  0  0
  -17.2060  -15.7830   11.5890 C   0  0  0  0  0
  -17.5750  -14.2560    9.7040 O   0  0  0  0  0
  -19.0890  -13.7720    9.9720 P   0  0  0  0  0
  -19.3290  -12.5080    9.0280 O   0  0  0  0  0
  -19.2370  -13.3810   11.5220 O   0  0  0  0  0
  -20.0490  -14.8510    9.6220 O   0  0  0  0  0
  -16.0010  -16.1580    7.9860 C   0  0  0  0  0
  -15.4370  -15.3630    7.2360 O   0  0  0  0  0
  -16.7090  -17.1890    7.5560 N   0  0  0  0  0
  -16.7270  -17.5980    6.1590 C   0  0  0  0  0
  -17.3430  -16.5500    5.2390 C   0  0  0  0  0
  -18.3630  -15.9390    5.5630 O   0  0  0  0  0
  -17.4970  -18.9210    6.0330 C   0  0  0  0  0
  -17.5650  -19.5040    4.6300 C   0  0  0  0  0
  -18.7680  -19.0120    3.8250 C   0  0  0  0  0
  -19.8490  -18.7560    4.4120 O   0  0  0  0  0
  -18.6220  -18.8920    2.5950 O   0  0  0  0  0
  -16.7100  -16.3420    4.0880 N   0  0  0  0  0
  -17.3380  -15.6270    3.0060 C   0  0  0  0  0
  -17.1400  -14.1300    3.0850 C   0  0  0  0  0
  -16.2480  -13.6320    3.7840 O   0  0  0  0  0
  -17.9830  -13.3750    2.3560 N   0  0  0  0  0
  -17.7820  -11.9240    2.2550 C   0  0  0  0  0
  -17.6040  -11.2440    3.5980 C   0  0  0  0  0
  -18.5020  -11.2670    4.4460 O   0  0  0  0  0
  -19.0610  -11.4420    1.5560 C   0  0  0  0  0
  -19.5160  -12.6090    0.7640 C   0  0  0  0  0
  -19.1240  -13.8320    1.5390 C   0  0  0  0  0
  -16.4310  -10.6400    3.7960 N   0  0  0  0  0
  -16.1680   -9.7890    4.9560 C   0  0  0  0  0
  -16.8720   -8.4500    4.7250 C   0  0  0  0  0
  -16.2590   -7.4040    4.5000 O   0  0  0  0  0
  -14.6680   -9.6260    5.1590 C   0  0  0  0  0
  -14.3160   -9.1000    6.5340 C   0  0  0  0  0
  -13.1160   -8.8450    6.7790 O   0  0  0  0  0
  -15.2320   -8.9460    7.3690 O   0  0  0  0  0
  -18.2010   -8.5110    4.7770 N   0  0  0  0  0
  -19.0710   -7.4220    4.3500 C   0  0  0  0  0
  -19.4510   -6.4740    5.4770 C   0  0  0  0  0
  -20.1680   -5.4970    5.2270 O   0  0  0  0  0
  -20.3440   -7.9990    3.7350 C   0  0  0  0  0
  -20.9240   -8.9510    4.6140 O   0  0  0  0  0
  -19.0100   -6.7450    6.7020 N   0  0  0  0  0
  -19.2900   -5.8730    7.8330 C   0  0  0  0  0
  -17.9880   -5.2550    8.3380 C   0  0  0  0  0
  -17.1740   -4.7800    7.5460 O   0  0  0  0  0
  -19.9980   -6.6480    8.9450 C   0  0  0  0  0
  -19.1230   -7.7110    9.5630 C   0  0  0  0  0
  -19.2590   -7.9530   10.7820 O   0  0  0  0  0
  -18.2940   -8.3010    8.8330 O   0  0  0  0  0
  -17.7150   -5.2020    9.5360 O   0  0  0  0  0
  -14.9233   -2.3663   17.1898 H   0  0  0  0  0
  -16.2116   -2.9736   16.3247 H   0  0  0  0  0
  -16.4503   -2.3635   17.8569 H   0  0  0  0  0
  -15.1392   -4.0480   18.8131 H   0  0  0  0  0
  -17.3261   -5.0017   16.9430 H   0  0  0  0  0
  -17.4790   -4.5027   18.6905 H   0  0  0  0  0
  -16.2346   -6.4365   19.3634 H   0  0  0  0  0
  -16.0120   -6.9198   17.6357 H   0  0  0  0  0
  -18.4546   -7.1219   17.4353 H   0  0  0  0  0
  -18.5945   -6.7777   19.1939 H   0  0  0  0  0
  -18.7045   -9.1525   18.8175 H   0  0  0  0  0
  -17.1226   -8.7278   19.6204 H   0  0  0  0  0
  -16.8623  -10.3766   17.9075 H   0  0  0  0  0
  -17.5199   -9.3531   16.7686 H   0  0  0  0  0
  -16.0748   -8.9651   17.5020 H   0  0  0  0  0
  -13.6450   -5.6286   18.6686 H   0  0  0  0  0
  -12.3389   -6.2398   16.1431 H   0  0  0  0  0
  -12.3186   -7.6871   18.7677 H   0  0  0  0  0
  -11.1717   -6.3272   18.1984 H   0  0  0  0  0
  -11.3468   -9.1184   17.1030 H   0  0  0  0  0
  -10.6493   -7.4744   15.4533 H   0  0  0  0  0
   -9.4147   -6.8480   16.5732 H   0  0  0  0  0
   -9.2792   -8.5049   15.9349 H   0  0  0  0  0
   -9.3057   -7.8173   18.9488 H   0  0  0  0  0
  -10.4474   -9.1106   19.3904 H   0  0  0  0  0
   -9.1525   -9.4306   18.2107 H   0  0  0  0  0
  -13.3196   -7.3209   14.5605 H   0  0  0  0  0
  -15.2832   -9.4440   15.2442 H   0  0  0  0  0
  -15.8866   -9.4238   12.9152 H   0  0  0  0  0
  -14.5710   -8.1733   12.6052 H   0  0  0  0  0
  -16.8521   -7.2891   12.6204 H   0  0  0  0  0
  -15.7483   -6.5993   13.9038 H   0  0  0  0  0
  -18.9831   -8.6505   13.0955 H   0  0  0  0  0
  -17.9238   -9.9380   13.7209 H   0  0  0  0  0
  -19.3390   -9.4122   14.6652 H   0  0  0  0  0
  -14.7279  -11.5631   15.0902 H   0  0  0  0  0
  -12.0279  -12.2211   14.0966 H   0  0  0  0  0
  -12.5233  -14.4574   14.8281 H   0  0  0  0  0
  -14.2485  -13.9802   15.1374 H   0  0  0  0  0
  -10.7725  -12.9562   16.0421 H   0  0  0  0  0
  -14.8339  -13.4206   17.2838 H   0  0  0  0  0
  -10.1528  -12.2163   18.3005 H   0  0  0  0  0
  -14.2158  -12.7108   19.5679 H   0  0  0  0  0
  -11.8713  -12.1024   20.0782 H   0  0  0  0  0
  -11.7604  -14.1069   12.6286 H   0  0  0  0  0
  -13.0753  -13.3990   10.1507 H   0  0  0  0  0
  -11.7014  -15.0829    9.1345 H   0  0  0  0  0
  -11.3008  -15.7654   10.7886 H   0  0  0  0  0
   -9.4374  -14.5157    9.8560 H   0  0  0  0  0
  -10.1259  -13.7034   11.3084 H   0  0  0  0  0
  -11.2048  -12.0683    9.9854 H   0  0  0  0  0
  -10.8481  -12.9749    8.4659 H   0  0  0  0  0
   -8.6604  -11.9468   10.2541 H   0  0  0  0  0
   -9.4366  -10.9067    8.9860 H   0  0  0  0  0
   -7.4330  -11.9519    8.2004 H   0  0  0  0  0
   -8.0480  -13.4658    8.5274 H   0  0  0  0  0
   -8.7609  -12.5105    7.3628 H   0  0  0  0  0
  -14.9298  -14.1097    9.3627 H   0  0  0  0  0
  -15.6526  -16.9586    9.9485 H   0  0  0  0  0
  -18.1037  -16.2267    9.6774 H   0  0  0  0  0
  -16.9751  -16.8226   11.8216 H   0  0  0  0  0
  -16.4199  -15.1382   11.9818 H   0  0  0  0  0
  -18.1600  -15.5115   12.0409 H   0  0  0  0  0
  -18.7063  -11.8148    9.2588 H   0  0  0  0  0
  -18.6126  -12.6839   11.7360 H   0  0  0  0  0
  -17.2637  -17.7179    8.2290 H   0  0  0  0  0
  -15.6918  -17.7221    5.8412 H   0  0  0  0  0
  -18.5238  -18.7138    6.3344 H   0  0  0  0  0
  -16.9679  -19.6492    6.6477 H   0  0  0  0  0
  -17.6558  -20.5858    4.7280 H   0  0  0  0  0
  -16.6653  -19.1908    4.1004 H   0  0  0  0  0
  -19.7460  -18.9143    5.3532 H   0  0  0  0  0
  -15.7608  -16.6958    3.9687 H   0  0  0  0  0
  -18.4092  -15.8213    3.0602 H   0  0  0  0  0
  -16.8846  -15.9710    2.0764 H   0  0  0  0  0
  -16.8651  -11.6814    1.7179 H   0  0  0  0  0
  -18.8787  -10.5695    0.9286 H   0  0  0  0  0
  -19.8168  -11.1139    2.2696 H   0  0  0  0  0
  -19.0574  -12.6111   -0.2248 H   0  0  0  0  0
  -20.5942  -12.5765    0.6071 H   0  0  0  0  0
  -19.9418  -14.2205    2.1459 H   0  0  0  0  0
  -18.8640  -14.6697    0.8919 H   0  0  0  0  0
  -15.6879  -10.7772    3.1109 H   0  0  0  0  0
  -16.5570  -10.2397    5.8691 H   0  0  0  0  0
  -14.3079   -8.9062    4.4239 H   0  0  0  0  0
  -14.2076  -10.6079    5.0493 H   0  0  0  0  0
  -12.5848   -9.0341    6.0021 H   0  0  0  0  0
  -18.6326   -9.3635    5.1339 H   0  0  0  0  0
  -18.5076   -6.8414    3.6195 H   0  0  0  0  0
  -20.0958   -8.4876    2.7928 H   0  0  0  0  0
  -21.0556   -7.1914    3.5633 H   0  0  0  0  0
  -21.7226   -9.3064    4.2171 H   0  0  0  0  0
  -18.4587   -7.5897    6.8535 H   0  0  0  0  0
  -19.9552   -5.0714    7.5121 H   0  0  0  0  0
  -17.5030   -4.8836    6.6501 H   0  0  0  0  0
  -20.8661   -7.1417    8.5082 H   0  0  0  0  0
  -20.2666   -5.9390    9.7281 H   0  0  0  0  0
  -18.3590   -7.9611    7.9375 H   0  0  0  0  0
  1  2  1  0  0  0
  2  3  1  0  0  0
  2  5  1  0  0  0
  3  4  2  0  0  0
  3 10  1  0  0  0
  5  6  1  0  0  0
  6  7  1  0  0  0
  7  8  1  0  0  0
  8  9  1  0  0  0
 10 11  1  0  0  0
 11 12  1  0  0  0
 11 14  1  0  0  0
 12 13  2  0  0  0
 12 18  1  0  0  0
 14 15  1  0  0  0
 15 16  1  0  0  0
 15 17  1  0  0  0
 18 19  1  0  0  0
 19 20  1  0  0  0
 19 22  1  0  0  0
 20 21  2  0  0  0
 20 26  1  0  0  0
 22 23  1  0  0  0
 23 24  1  0  0  0
 24 25  1  0  0  0
 26 27  1  0  0  0
 27 28  1  0  0  0
 27 30  1  0  0  0
 28 29  2  0  0  0
 28 37  1  0  0  0
 30 31  1  0  0  0
 31 32  4  0  0  0
 31 33  4  0  0  0
 32 34  4  0  0  0
 33 35  4  0  0  0
 34 36  4  0  0  0
 35 36  4  0  0  0
 37 38  1  0  0  0
 38 39  1  0  0  0
 38 41  1  0  0  0
 39 40  2  0  0  0
 39 46  1  0  0  0
 41 42  1  0  0  0
 42 43  1  0  0  0
 43 44  1  0  0  0
 44 45  1  0  0  0
 46 47  1  0  0  0
 47 48  1  0  0  0
 47 55  1  0  0  0
 48 49  1  0  0  0
 48 50  1  0  0  0
 50 51  1  0  0  0
 51 52  1  0  0  0
 51 53  1  0  0  0
 51 54  2  0  0  0
 55 56  2  0  0  0
 55 57  1  0  0  0
 57 58  1  0  0  0
 58 59  1  0  0  0
 58 61  1  0  0  0
 59 60  2  0  0  0
 59 66  1  0  0  0
 61 62  1  0  0  0
 62 63  1  0  0  0
 63 64  1  0  0  0
 63 65  2  0  0  0
 66 67  1  0  0  0
 67 68  1  0  0  0
 68 69  2  0  0  0
 68 70  1  0  0  0
 70 71  1  0  0  0
 70 76  1  0  0  0
 71 72  1  0  0  0
 71 74  1  0  0  0
 72 73  2  0  0  0
 72 77  1  0  0  0
 74 75  1  0  0  0
 75 76  1  0  0  0
 77 78  1  0  0  0
 78 79  1  0  0  0
 78 81  1  0  0  0
 79 80  2  0  0  0
 79 85  1  0  0  0
 81 82  1  0  0  0
 82 83  1  0  0  0
 82 84  2  0  0  0
 85 86  1  0  0  0
 86 87  1  0  0  0
 86 89  1  0  0  0
 87 88  2  0  0  0
 87 91  1  0  0  0
 89 90  1  0  0  0
 91 92  1  0  0  0
 92 93  1  0  0  0
 92 95  1  0  0  0
 93 94  1  0  0  0
 93 99  2  0  0  0
 95 96  1  0  0  0
 96 97  2  0  0  0
 96 98  1  0  0  0
  1100  1  0  0  0
  1101  1  0  0  0
  1102  1  0  0  0
  2103  1  0  0  0
  5104  1  0  0  0
  5105  1  0  0  0
  6106  1  0  0  0
  6107  1  0  0  0
  7108  1  0  0  0
  7109  1  0  0  0
  8110  1  0  0  0
  8111  1  0  0  0
  9112  1  0  0  0
  9113  1  0  0  0
  9114  1  0  0  0
 10115  1  0  0  0
 11116  1  0  0  0
 14117  1  0  0  0
 14118  1  0  0  0
 15119  1  0  0  0
 16120  1  0  0  0
 16121  1  0  0  0
 16122  1  0  0  0
 17123  1  0  0  0
 17124  1  0  0  0
 17125  1  0  0  0
 18126  1  0  0  0
 19127  1  0  0  0
 22128  1  0  0  0
 22129  1  0  0  0
 23130  1  0  0  0
 23131  1  0  0  0
 25132  1  0  0  0
 25133  1  0  0  0
 25134  1  0  0  0
 26135  1  0  0  0
 27136  1  0  0  0
 30137  1  0  0  0
 30138  1  0  0  0
 32139  1  0  0  0
 33140  1  0  0  0
 34141  1  0  0  0
 35142  1  0  0  0
 36143  1  0  0  0
 37144  1  0  0  0
 38145  1  0  0  0
 41146  1  0  0  0
 41147  1  0  0  0
 42148  1  0  0  0
 42149  1  0  0  0
 43150  1  0  0  0
 43151  1  0  0  0
 44152  1  0  0  0
 44153  1  0  0  0
 45154  1  0  0  0
 45155  1  0  0  0
 45156  1  0  0  0
 46157  1  0  0  0
 47158  1  0  0  0
 48159  1  0  0  0
 49160  1  0  0  0
 49161  1  0  0  0
 49162  1  0  0  0
 52163  1  0  0  0
 53164  1  0  0  0
 57165  1  0  0  0
 58166  1  0  0  0
 61167  1  0  0  0
 61168  1  0  0  0
 62169  1  0  0  0
 62170  1  0  0  0
 64171  1  0  0  0
 66172  1  0  0  0
 67173  1  0  0  0
 67174  1  0  0  0
 71175  1  0  0  0
 74176  1  0  0  0
 74177  1  0  0  0
 75178  1  0  0  0
 75179  1  0  0  0
 76180  1  0  0  0
 76181  1  0  0  0
 77182  1  0  0  0
 78183  1  0  0  0
 81184  1  0  0  0
 81185  1  0  0  0
 83186  1  0  0  0
 85187  1  0  0  0
 86188  1  0  0  0
 89189  1  0  0  0
 89190  1  0  0  0
 90191  1  0  0  0
 91192  1  0  0  0
 92193  1  0  0  0
 94194  1  0  0  0
 95195  1  0  0  0
 95196  1  0  0  0
 98197  1  0  0  0
M  END
$$$$
