### 
### Created by X-TOOL on Mon Sep 10 21:13:31 2018
### 

@<TRIPOS>MOLECULE
5moc_ligand
  191   192     1     0     0
SMALL
GAST_HUCK


@<TRIPOS>ATOM
      1 N         -15.8050   -2.8750   17.2550 N.4       1 LYS         0.2379
      2 CA        -15.5610   -4.1960   17.8190 C.3       1 LYS         0.0650
      3 C         -14.5710   -4.9830   16.9790 C.2       1 LYS         0.2267
      4 O         -14.5980   -4.9200   15.7490 O.2       1 LYS        -0.3907
      5 CB        -16.8660   -4.9880   17.9310 C.3       1 LYS         0.0080
      6 CG        -16.6650   -6.4360   18.3620 C.3       1 LYS        -0.0410
      7 CD        -17.9690   -7.2010   18.4080 C.3       1 LYS        -0.0123
      8 CE        -17.7290   -8.6770   18.7160 C.3       1 LYS        -0.0354
      9 NZ        -16.9870   -9.4010   17.6370 N.4       1 LYS         0.2185
     10 N         -13.7070   -5.7340   17.6560 N.am      1 LEU        -0.2610
     11 CA        -12.8450   -6.7050   16.9890 C.3       1 LEU         0.1313
     12 C         -13.7040   -7.8560   16.4810 C.2       1 LEU         0.2039
     13 O         -14.2910   -8.5950   17.2800 O.2       1 LEU        -0.3944
     14 CB        -11.7740   -7.2030   17.9570 C.3       1 LEU        -0.0101
     15 CG        -10.7800   -8.2540   17.4490 C.3       1 LEU        -0.0425
     16 CD1        -9.9730   -7.7330   16.2680 C.3       1 LEU        -0.0625
     17 CD2        -9.8550   -8.6840   18.5810 C.3       1 LEU        -0.0625
     18 N         -13.7980   -7.9960   15.1570 N.am      1 MET        -0.2637
     19 CA        -14.5540   -9.0710   14.5250 C.3       1 MET         0.1317
     20 C         -13.5950  -10.1790   14.1130 C.2       1 MET         0.2040
     21 O         -12.5930   -9.9190   13.4410 O.2       1 MET        -0.3944
     22 CB        -15.3160   -8.5750   13.2920 C.3       1 MET        -0.0034
     23 CG        -16.3120   -7.4630   13.5510 C.3       1 MET        -0.0024
     24 SD        -17.5390   -7.8570   14.8180 S.3       1 MET        -0.1639
     25 CE        -18.5450   -9.0850   13.9940 C.3       1 MET        -0.0181
     26 N         -13.9050  -11.4070   14.5080 N.am      1 PHE        -0.2619
     27 CA        -13.0740  -12.5270   14.1120 C.3       1 PHE         0.1404
     28 C         -13.4470  -12.9760   12.7020 C.2       1 PHE         0.2060
     29 O         -14.4610  -12.5640   12.1360 O.2       1 PHE        -0.3942
     30 CB        -13.2060  -13.6620   15.1270 C.3       1 PHE         0.0214
     31 CG        -12.8410  -13.2440   16.5180 C.ar      1 PHE        -0.0386
     32 CD1       -11.5350  -12.9000   16.8190 C.ar      1 PHE        -0.0601
     33 CD2       -13.7990  -13.1640   17.5100 C.ar      1 PHE        -0.0601
     34 CE1       -11.1850  -12.4890   18.0810 C.ar      1 PHE        -0.0686
     35 CE2       -13.4560  -12.7610   18.7880 C.ar      1 PHE        -0.0686
     36 CZ        -12.1460  -12.4220   19.0730 C.ar      1 PHE        -0.0687
     37 N         -12.5860  -13.7970   12.1160 N.am      1 LYS        -0.2636
     38 CA        -12.7990  -14.2630   10.7550 C.3       1 LYS         0.1310
     39 C         -13.9300  -15.2800   10.6930 C.2       1 LYS         0.2040
     40 O         -13.9270  -16.2640   11.4300 O.2       1 LYS        -0.3944
     41 CB        -11.5190  -14.8810   10.1900 C.3       1 LYS        -0.0122
     42 CG        -10.2910  -13.9760   10.2660 C.3       1 LYS        -0.0440
     43 CD        -10.4900  -12.7000    9.4580 C.3       1 LYS        -0.0124
     44 CE         -9.1850  -11.9200    9.2990 C.3       1 LYS        -0.0354
     45 NZ         -8.2850  -12.5090    8.2650 N.4       1 LYS         0.2185
     46 N         -14.9020  -15.0220    9.8180 N.am      1 TPO        -0.2611
     47 CA        -15.9250  -16.0060    9.4940 C.3       1 TPO         0.1612
     48 CB        -17.2950  -15.6090   10.0680 C.3       1 TPO         0.1262
     49 CG2       -17.2060  -15.7830   11.5890 C.3       1 TPO        -0.0298
     50 OG1       -17.5750  -14.2560    9.7040 O.3       1 TPO        -0.2685
     51 P         -19.0890  -13.7720    9.9720 P.3       1 TPO         0.2014
     52 O1P       -19.3290  -12.5080    9.0280 O.co2     1 TPO        -0.5537
     53 O2P       -19.2370  -13.3810   11.5220 O.co2     1 TPO        -0.5537
     54 O3P       -20.0490  -14.8510    9.6220 O.co2     1 TPO        -0.5537
     55 C         -16.0010  -16.1580    7.9860 C.2       1 TPO         0.2068
     56 O         -15.4370  -15.3630    7.2360 O.2       1 TPO        -0.3943
     57 N         -16.7090  -17.1890    7.5560 N.am      1 GLU        -0.2635
     58 CA        -16.7270  -17.5980    6.1590 C.3       1 GLU         0.1325
     59 C         -17.3430  -16.5500    5.2390 C.2       1 GLU         0.2038
     60 O         -18.3630  -15.9390    5.5630 O.2       1 GLU        -0.3944
     61 CB        -17.4970  -18.9210    6.0330 C.3       1 GLU        -0.0008
     62 CG        -17.5650  -19.5040    4.6300 C.3       1 GLU         0.0044
     63 CD        -18.7680  -19.0120    3.8250 C.2       1 GLU         0.0350
     64 OE1       -19.8490  -18.7560    4.4120 O.co2     1 GLU        -0.5690
     65 OE2       -18.6220  -18.8920    2.5950 O.co2     1 GLU        -0.5690
     66 N         -16.7100  -16.3420    4.0880 N.am      1 GLY        -0.2664
     67 CA        -17.3380  -15.6270    3.0060 C.3       1 GLY         0.1203
     68 C         -17.1400  -14.1300    3.0850 C.2       1 GLY         0.2032
     69 O         -16.2480  -13.6320    3.7840 O.2       1 GLY        -0.3945
     70 N         -17.9830  -13.3750    2.3560 N.am      1 PRO        -0.2501
     71 CA        -17.7820  -11.9240    2.2550 C.3       1 PRO         0.1338
     72 C         -17.6040  -11.2440    3.5980 C.2       1 PRO         0.2042
     73 O         -18.5020  -11.2670    4.4460 O.2       1 PRO        -0.3944
     74 CB        -19.0610  -11.4420    1.5560 C.3       1 PRO        -0.0104
     75 CG        -19.5160  -12.6090    0.7640 C.3       1 PRO        -0.0281
     76 CD        -19.1240  -13.8320    1.5390 C.3       1 PRO         0.0369
     77 N         -16.4310  -10.6400    3.7960 N.am      1 ASP        -0.2622
     78 CA        -16.1680   -9.7890    4.9560 C.3       1 ASP         0.1423
     79 C         -16.8720   -8.4500    4.7250 C.2       1 ASP         0.2057
     80 O         -16.2590   -7.4040    4.5000 O.2       1 ASP        -0.3943
     81 CB        -14.6680   -9.6260    5.1590 C.3       1 ASP         0.0406
     82 CG        -14.3160   -9.1000    6.5340 C.2       1 ASP         0.0393
     83 OD1       -13.1160   -8.8450    6.7790 O.co2     1 ASP        -0.5688
     84 OD2       -15.2320   -8.9460    7.3690 O.co2     1 ASP        -0.5688
     85 N         -18.2010   -8.5110    4.7770 N.am      1 SER        -0.2615
     86 CA        -19.0710   -7.4220    4.3500 C.3       1 SER         0.1539
     87 C         -19.4510   -6.4740    5.4770 C.2       1 SER         0.2057
     88 O         -20.1680   -5.4970    5.2270 O.2       1 SER        -0.3943
     89 CB        -20.3440   -7.9990    3.7350 C.3       1 SER         0.0843
     90 OG        -20.9240   -8.9510    4.6140 O.3       1 SER        -0.3903
     91 N         -19.0100   -6.7450    6.7020 N.am      1 ASP        -0.2679
     92 CA        -19.2900   -5.8730    7.8330 C.3       1 ASP         0.1057
     93 C         -17.9880   -5.2550    8.3380 C.2       1 ASP         0.0618
     94 O         -17.1740   -4.7800    7.5460 O.co2     1 ASP        -0.5665
     95 CB        -19.9980   -6.6480    8.9450 C.3       1 ASP         0.0351
     96 CG        -19.1230   -7.7110    9.5630 C.2       1 ASP         0.0387
     97 OD1       -19.2590   -7.9530   10.7820 O.co2     1 ASP        -0.5688
     98 OD2       -18.2940   -8.3010    8.8330 O.co2     1 ASP        -0.5688
     99 OXT       -17.7150   -5.2020    9.5360 O.co2     1 ASP        -0.5665
    100 H1        -16.4645   -2.3791   17.8340 H         1 LYS         0.2015
    101 H2        -16.1806   -2.9710   16.3245 H         1 LYS         0.2015
    102 H3        -14.9388   -2.3609   17.2164 H         1 LYS         0.2015
    103 H4        -15.1398   -4.0672   18.8270 H         1 LYS         0.1098
    104 H5        -17.3614   -4.9830   16.9489 H         1 LYS         0.0346
    105 H6        -17.5119   -4.4915   18.6701 H         1 LYS         0.0346
    106 H7        -16.2108   -6.4484   19.3638 H         1 LYS         0.0270
    107 H8        -15.9896   -6.9286   17.6471 H         1 LYS         0.0270
    108 H9        -18.4711   -7.1144   17.4331 H         1 LYS         0.0317
    109 H10       -18.6109   -6.7704   19.1906 H         1 LYS         0.0317
    110 H11       -18.7043   -9.1662   18.8558 H         1 LYS         0.0813
    111 H12       -17.1465   -8.7479   19.6464 H         1 LYS         0.0813
    112 H13       -16.8632  -10.3653   17.9032 H         1 LYS         0.1994
    113 H14       -16.0852   -8.9711   17.5027 H         1 LYS         0.1994
    114 H15       -17.5127   -9.3544   16.7782 H         1 LYS         0.1994
    115 H16       -13.6462   -5.6307   18.6488 H         1 LEU         0.1884
    116 H17       -12.3508   -6.2225   16.1329 H         1 LEU         0.0800
    117 H18       -12.2928   -7.6356   18.8251 H         1 LEU         0.0315
    118 H19       -11.1898   -6.3278   18.2776 H         1 LEU         0.0315
    119 H20       -11.3498   -9.1328   17.1129 H         1 LEU         0.0298
    120 H21        -9.2724   -8.5111   15.9309 H         1 LEU         0.0232
    121 H22        -9.4090   -6.8398   16.5748 H         1 LEU         0.0232
    122 H23       -10.6544   -7.4717   15.4450 H         1 LEU         0.0232
    123 H24       -10.4557   -9.0568   19.4237 H         1 LEU         0.0232
    124 H25        -9.2547   -7.8233   18.9110 H         1 LEU         0.0232
    125 H26        -9.1869   -9.4823   18.2255 H         1 LEU         0.0232
    126 H27       -13.3290   -7.3341   14.5722 H         1 MET         0.1883
    127 H28       -15.2778   -9.4695   15.2511 H         1 MET         0.0800
    128 H29       -15.8628   -9.4283   12.8643 H         1 MET         0.0320
    129 H30       -14.5794   -8.2083   12.5619 H         1 MET         0.0320
    130 H31       -16.8418   -7.2472   12.6115 H         1 MET         0.0378
    131 H32       -15.7571   -6.5694   13.8727 H         1 MET         0.0378
    132 H33       -19.3468   -9.4161   14.6704 H         1 MET         0.0340
    133 H34       -17.9192   -9.9465   13.7179 H         1 MET         0.0340
    134 H35       -18.9878   -8.6477   13.0870 H         1 MET         0.0340
    135 H36       -14.7117  -11.5600   15.0788 H         1 PHE         0.1885
    136 H37       -12.0245  -12.1977   14.1010 H         1 PHE         0.0823
    137 H38       -12.5425  -14.4847   14.8221 H         1 PHE         0.0474
    138 H39       -14.2486  -14.0128   15.1280 H         1 PHE         0.0474
    139 H40       -10.7767  -12.9559   16.0464 H         1 PHE         0.0557
    140 H41       -14.8282  -13.4192   17.2850 H         1 PHE         0.0557
    141 H42       -10.1584  -12.2178   18.2993 H         1 PHE         0.0599
    142 H43       -14.2117  -12.7111   19.5636 H         1 PHE         0.0599
    143 H44       -11.8728  -12.1042   20.0727 H         1 PHE         0.0559
    144 H45       -11.7766  -14.1008   12.6185 H         1 LYS         0.1883
    145 H46       -13.0740  -13.3981   10.1335 H         1 LYS         0.0800
    146 H47       -11.6959  -15.1318    9.1337 H         1 LYS         0.0312
    147 H48       -11.3035  -15.8004   10.7541 H         1 LYS         0.0312
    148 H49        -9.4209  -14.5192    9.8686 H         1 LYS         0.0269
    149 H50       -10.1077  -13.7090   11.3172 H         1 LYS         0.0269
    150 H51       -11.2248  -12.0635    9.9726 H         1 LYS         0.0317
    151 H52       -10.8698  -12.9657    8.4605 H         1 LYS         0.0317
    152 H53        -8.6573  -11.9164   10.2641 H         1 LYS         0.0813
    153 H54        -9.4257  -10.8867    9.0087 H         1 LYS         0.0813
    154 H55        -7.4426  -11.9592    8.2003 H         1 LYS         0.1994
    155 H56        -8.7542  -12.5110    7.3729 H         1 LYS         0.1994
    156 H57        -8.0501  -13.4546    8.5233 H         1 LYS         0.1994
    157 H58       -14.9293  -14.1276    9.3716 H         1 TPO         0.1884
    158 H59       -15.6342  -16.9717    9.9331 H         1 TPO         0.0830
    159 H60       -18.0817  -16.2639    9.6652 H         1 TPO         0.0695
    160 H61       -18.1683  -15.5093   12.0463 H         1 TPO         0.0260
    161 H62       -16.4130  -15.1327   11.9867 H         1 TPO         0.0260
    162 H63       -16.9730  -16.8318   11.8251 H         1 TPO         0.0260
    163 H64       -17.2528  -17.7075    8.2158 H         1 GLU         0.1883
    164 H65       -15.6879  -17.7623    5.8376 H         1 GLU         0.0801
    165 H66       -18.5267  -18.7489    6.3794 H         1 GLU         0.0330
    166 H67       -17.0097  -19.6610    6.6849 H         1 GLU         0.0330
    167 H68       -17.6238  -20.5995    4.7102 H         1 GLU         0.0433
    168 H69       -16.6475  -19.2245    4.0915 H         1 GLU         0.0433
    169 H70       -15.7794  -16.6888    3.9711 H         1 GLY         0.1881
    170 H71       -18.4173  -15.8382    3.0277 H         1 GLY         0.0763
    171 H72       -16.9131  -15.9859    2.0570 H         1 GLY         0.0763
    172 H73       -16.8992  -11.7082    1.6352 H         1 PRO         0.0802
    173 H74       -18.8457  -10.5867    0.8987 H         1 PRO         0.0313
    174 H75       -19.8227  -11.1536    2.2954 H         1 PRO         0.0313
    175 H76       -19.0283  -12.6120   -0.2220 H         1 PRO         0.0287
    176 H77       -20.6077  -12.5765    0.6330 H         1 PRO         0.0287
    177 H78       -19.9518  -14.1743    2.1773 H         1 PRO         0.0524
    178 H79       -18.8219  -14.6452    0.8627 H         1 PRO         0.0524
    179 H80       -15.7024  -10.7745    3.1244 H         1 ASP         0.1884
    180 H81       -16.5900  -10.2613    5.8554 H         1 ASP         0.0819
    181 H82       -14.2857   -8.9222    4.4050 H         1 ASP         0.0478
    182 H83       -14.1865  -10.6057    5.0236 H         1 ASP         0.0478
    183 H84       -18.6241   -9.3468    5.1269 H         1 SER         0.1884
    184 H85       -18.5370   -6.8423    3.5826 H         1 SER         0.0823
    185 H86       -20.0976   -8.4880    2.7810 H         1 SER         0.0606
    186 H87       -21.0621   -7.1854    3.5553 H         1 SER         0.0606
    187 H88       -21.7143   -9.3027    4.2212 H         1 SER         0.2097
    188 H89       -18.4695   -7.5732    6.8505 H         1 ASP         0.1876
    189 H90       -19.9547   -5.0634    7.4973 H         1 ASP         0.0745
    190 H91       -20.8924   -7.1299    8.5234 H         1 ASP         0.0471
    191 H92       -20.2991   -5.9396    9.7308 H         1 ASP         0.0471
@<TRIPOS>BOND
     1    1    2 1  
     2    2    3 1  
     3    2    5 1  
     4    3    4 2  
     5    3   10 am 
     6    5    6 1  
     7    6    7 1  
     8    7    8 1  
     9    8    9 1  
    10   10   11 1  
    11   11   12 1  
    12   11   14 1  
    13   12   13 2  
    14   12   18 am 
    15   14   15 1  
    16   15   16 1  
    17   15   17 1  
    18   18   19 1  
    19   19   20 1  
    20   19   22 1  
    21   20   21 2  
    22   20   26 am 
    23   22   23 1  
    24   23   24 1  
    25   24   25 1  
    26   26   27 1  
    27   27   28 1  
    28   27   30 1  
    29   28   29 2  
    30   28   37 am 
    31   30   31 1  
    32   31   32 ar 
    33   31   33 ar 
    34   32   34 ar 
    35   33   35 ar 
    36   34   36 ar 
    37   35   36 ar 
    38   37   38 1  
    39   38   39 1  
    40   38   41 1  
    41   39   40 2  
    42   39   46 am 
    43   41   42 1  
    44   42   43 1  
    45   43   44 1  
    46   44   45 1  
    47   46   47 1  
    48   47   48 1  
    49   47   55 1  
    50   48   49 1  
    51   48   50 1  
    52   50   51 1  
    53   51   52 ar 
    54   51   53 ar 
    55   51   54 ar 
    56   55   56 2  
    57   55   57 am 
    58   57   58 1  
    59   58   59 1  
    60   58   61 1  
    61   59   60 2  
    62   59   66 am 
    63   61   62 1  
    64   62   63 1  
    65   63   64 ar 
    66   63   65 ar 
    67   66   67 1  
    68   67   68 1  
    69   68   69 2  
    70   68   70 am 
    71   70   71 1  
    72   70   76 1  
    73   71   72 1  
    74   71   74 1  
    75   72   73 2  
    76   72   77 am 
    77   74   75 1  
    78   75   76 1  
    79   77   78 1  
    80   78   79 1  
    81   78   81 1  
    82   79   80 2  
    83   79   85 am 
    84   81   82 1  
    85   82   83 ar 
    86   82   84 ar 
    87   85   86 1  
    88   86   87 1  
    89   86   89 1  
    90   87   88 2  
    91   87   91 am 
    92   89   90 1  
    93   91   92 1  
    94   92   93 1  
    95   92   95 1  
    96   93   94 ar 
    97   93   99 ar 
    98   95   96 1  
    99   96   97 ar 
   100   96   98 ar 
   101    1  100 1  
   102    1  101 1  
   103    1  102 1  
   104    2  103 1  
   105    5  104 1  
   106    5  105 1  
   107    6  106 1  
   108    6  107 1  
   109    7  108 1  
   110    7  109 1  
   111    8  110 1  
   112    8  111 1  
   113    9  112 1  
   114    9  113 1  
   115    9  114 1  
   116   10  115 1  
   117   11  116 1  
   118   14  117 1  
   119   14  118 1  
   120   15  119 1  
   121   16  120 1  
   122   16  121 1  
   123   16  122 1  
   124   17  123 1  
   125   17  124 1  
   126   17  125 1  
   127   18  126 1  
   128   19  127 1  
   129   22  128 1  
   130   22  129 1  
   131   23  130 1  
   132   23  131 1  
   133   25  132 1  
   134   25  133 1  
   135   25  134 1  
   136   26  135 1  
   137   27  136 1  
   138   30  137 1  
   139   30  138 1  
   140   32  139 1  
   141   33  140 1  
   142   34  141 1  
   143   35  142 1  
   144   36  143 1  
   145   37  144 1  
   146   38  145 1  
   147   41  146 1  
   148   41  147 1  
   149   42  148 1  
   150   42  149 1  
   151   43  150 1  
   152   43  151 1  
   153   44  152 1  
   154   44  153 1  
   155   45  154 1  
   156   45  155 1  
   157   45  156 1  
   158   46  157 1  
   159   47  158 1  
   160   48  159 1  
   161   49  160 1  
   162   49  161 1  
   163   49  162 1  
   164   57  163 1  
   165   58  164 1  
   166   61  165 1  
   167   61  166 1  
   168   62  167 1  
   169   62  168 1  
   170   66  169 1  
   171   67  170 1  
   172   67  171 1  
   173   71  172 1  
   174   74  173 1  
   175   74  174 1  
   176   75  175 1  
   177   75  176 1  
   178   76  177 1  
   179   76  178 1  
   180   77  179 1  
   181   78  180 1  
   182   81  181 1  
   183   81  182 1  
   184   85  183 1  
   185   86  184 1  
   186   89  185 1  
   187   89  186 1  
   188   90  187 1  
   189   91  188 1  
   190   92  189 1  
   191   95  190 1  
   192   95  191 1  
@<TRIPOS>SUBSTRUCTURE
     1 LYS         1

