6dgz_ligand
  -I-interpret- 

 87 90  0  0  0  0  0  0  0  0999 V2000
   65.4310   51.9700   12.5080 N   0  0  0  0  0
   66.3770   52.6150   13.3670 C   0  0  0  0  0
   67.5810   51.8080   13.9100 C   0  0  0  0  0
   68.5850   52.4870   14.8230 C   0  0  0  0  0
   68.3640   53.9600   15.1990 C   0  0  0  0  0
   67.1750   54.7660   14.6660 C   0  0  0  0  0
   66.1620   54.0790   13.7480 C   0  0  0  0  0
   69.5600   54.8050   16.2850 S   0  0  0  0  0
   68.9100   55.8490   17.0500 O   0  0  0  0  0
   70.1270   53.9200   17.2810 O   0  0  0  0  0
   70.7940   55.3890   15.2620 N   0  0  0  0  0
   71.4440   54.3510   14.4570 C   0  0  0  0  0
   73.0250   54.5440   14.4640 C   0  0  0  0  0
   73.6950   53.5380   13.4670 C   0  0  0  0  0
   73.5260   54.4290   15.9150 C   0  0  0  0  0
   70.5000   56.7070   14.6170 C   0  0  0  0  0
   71.4460   57.7970   15.2080 C   0  0  0  0  0
   75.0640   54.6430   16.0110 C   0  0  0  0  0
   71.3240   58.9420   14.4470 O   0  0  0  0  0
   71.0620   58.1260   16.6430 C   0  0  0  0  0
   73.4980   52.0590   13.8620 C   0  0  0  0  0
   72.0440   59.0990   17.1390 N   0  0  0  0  0
   73.1150   58.7220   18.0890 C   0  0  0  0  0
   73.1590   57.6580   18.6160 O   0  0  0  0  0
   74.0660   59.7570   18.3020 O   0  0  0  0  0
   74.9970   59.5950   19.4700 C   0  0  0  0  0
   76.1410   60.0260   19.1250 C   0  0  0  0  0
   75.9040   61.6470   19.0620 O   0  0  0  0  0
   75.1700   61.9260   20.0940 C   0  0  0  0  0
   73.9430   62.8430   19.7120 O   0  0  0  0  0
   72.8920   62.0550   19.6450 C   0  0  0  0  0
   73.2250   60.7950   20.6240 C   0  0  0  0  0
   74.5620   60.5950   20.5770 C   0  0  0  0  0
   69.7140   58.7990   16.7240 C   0  0  0  0  0
   69.5600   60.7960   18.4750 C   0  0  0  0  0
   69.3640   61.2940   19.9160 C   0  0  0  0  0
   69.1140   60.2900   21.0680 C   0  0  0  0  0
   69.0710   58.7820   20.7720 C   0  0  0  0  0
   69.2610   58.2800   19.3290 C   0  0  0  0  0
   69.5090   59.2960   18.1800 C   0  0  0  0  0
   65.5541   50.9884   12.2596 H   0  0  0  0  0
   64.6337   52.4920   12.1442 H   0  0  0  0  0
   67.7067   50.7598   13.6386 H   0  0  0  0  0
   69.4469   51.9398   15.2049 H   0  0  0  0  0
   67.0525   55.8146   14.9371 H   0  0  0  0  0
   65.2984   54.6267   13.3708 H   0  0  0  0  0
   71.0840   54.4229   13.4307 H   0  0  0  0  0
   71.2055   53.3751   14.8798 H   0  0  0  0  0
   73.3081   55.5343   14.1072 H   0  0  0  0  0
   74.7664   53.7383   13.4691 H   0  0  0  0  0
   73.2288   53.6823   12.4924 H   0  0  0  0  0
   73.2949   53.4282   16.2799 H   0  0  0  0  0
   73.0343   55.1984   16.5102 H   0  0  0  0  0
   69.4631   56.9826   14.8093 H   0  0  0  0  0
   70.6616   56.6296   13.5418 H   0  0  0  0  0
   72.4695   57.4222   15.1941 H   0  0  0  0  0
   75.5727   53.8886   15.4108 H   0  0  0  0  0
   75.3154   55.6359   15.6381 H   0  0  0  0  0
   75.3777   54.5539   17.0511 H   0  0  0  0  0
   71.9018   59.6226   14.8000 H   0  0  0  0  0
   71.0333   57.1992   17.2161 H   0  0  0  0  0
   73.9349   51.8856   14.8454 H   0  0  0  0  0
   72.4325   51.8308   13.8910 H   0  0  0  0  0
   73.9879   51.4198   13.1275 H   0  0  0  0  0
   71.9862   60.0656   16.8186 H   0  0  0  0  0
   74.9960   58.5535   19.7915 H   0  0  0  0  0
   76.4882   59.6078   18.1802 H   0  0  0  0  0
   76.9330   59.7363   19.8156 H   0  0  0  0  0
   75.7885   62.4345   20.8336 H   0  0  0  0  0
   72.7051   61.7264   18.6226 H   0  0  0  0  0
   71.9852   62.5731   19.9572 H   0  0  0  0  0
   72.6915   59.9027   20.2965 H   0  0  0  0  0
   72.9039   61.0059   21.6440 H   0  0  0  0  0
   74.8722   60.2312   21.5565 H   0  0  0  0  0
   68.9265   58.0958   16.4530 H   0  0  0  0  0
   69.6717   59.6393   16.0310 H   0  0  0  0  0
   70.5763   61.0934   18.2164 H   0  0  0  0  0
   68.7191   61.2144   17.9220 H   0  0  0  0  0
   68.4498   61.8860   19.8731 H   0  0  0  0  0
   70.3152   61.7619   20.1697 H   0  0  0  0  0
   68.1123   60.5276   21.4260 H   0  0  0  0  0
   69.9703   60.4148   21.7308 H   0  0  0  0  0
   68.0578   58.4794   21.0364 H   0  0  0  0  0
   69.9192   58.3708   21.3193 H   0  0  0  0  0
   68.3107   57.8095   19.0766 H   0  0  0  0  0
   70.1718   57.6823   19.3659 H   0  0  0  0  0
   68.9022   58.6144   18.7761 H   0  0  0  0  0
  2  1  1  0  0  0
  3  2  4  0  0  0
  7  2  4  0  0  0
  4  3  4  0  0  0
  5  4  4  0  0  0
  5  6  4  0  0  0
  8  5  1  0  0  0
  6  7  4  0  0  0
  8  9  2  0  0  0
  8 10  2  0  0  0
 11  8  1  0  0  0
 11 12  1  0  0  0
 16 11  1  0  0  0
 12 13  1  0  0  0
 13 14  1  0  0  0
 13 15  1  0  0  0
 14 21  1  0  0  0
 15 18  1  0  0  0
 17 16  1  0  0  0
 17 19  1  0  0  0
 20 17  1  0  0  0
 20 22  1  0  0  0
 34 20  1  0  0  0
 22 23  1  0  0  0
 23 24  2  0  0  0
 23 25  1  0  0  0
 25 26  1  0  0  0
 26 27  1  0  0  0
 26 33  1  0  0  0
 27 28  1  0  0  0
 29 28  1  0  0  0
 29 30  1  0  0  0
 33 29  1  0  0  0
 31 30  1  0  0  0
 32 31  1  0  0  0
 33 32  1  0  0  0
 40 34  1  0  0  0
 35 36  1  0  0  0
 35 40  1  0  0  0
 36 37  1  0  0  0
 37 38  1  0  0  0
 38 39  1  0  0  0
 39 40  1  0  0  0
  1 41  1  0  0  0
  1 42  1  0  0  0
  3 43  1  0  0  0
  4 44  1  0  0  0
  6 45  1  0  0  0
  7 46  1  0  0  0
 12 47  1  0  0  0
 12 48  1  0  0  0
 13 49  1  0  0  0
 14 50  1  0  0  0
 14 51  1  0  0  0
 15 52  1  0  0  0
 15 53  1  0  0  0
 16 54  1  0  0  0
 16 55  1  0  0  0
 17 56  1  0  0  0
 18 57  1  0  0  0
 18 58  1  0  0  0
 18 59  1  0  0  0
 19 60  1  0  0  0
 20 61  1  0  0  0
 21 62  1  0  0  0
 21 63  1  0  0  0
 21 64  1  0  0  0
 22 65  1  0  0  0
 26 66  1  0  0  0
 27 67  1  0  0  0
 27 68  1  0  0  0
 29 69  1  0  0  0
 31 70  1  0  0  0
 31 71  1  0  0  0
 32 72  1  0  0  0
 32 73  1  0  0  0
 33 74  1  0  0  0
 34 75  1  0  0  0
 34 76  1  0  0  0
 35 77  1  0  0  0
 35 78  1  0  0  0
 36 79  1  0  0  0
 36 80  1  0  0  0
 37 81  1  0  0  0
 37 82  1  0  0  0
 38 83  1  0  0  0
 38 84  1  0  0  0
 39 85  1  0  0  0
 39 86  1  0  0  0
 40 87  1  0  0  0
M  END
$$$$
