2i4t_ligand
  -I-interpret- 

 34 36  0  0  0  0  0  0  0  0999 V2000
  -87.0970   15.7050   15.9950 C   0  0  0  0  0
  -86.8710   16.8870   17.9840 C   0  0  0  0  0
  -88.2600   16.8790   18.1480 C   0  0  0  0  0
  -89.0450   16.2330   17.1330 C   0  0  0  0  0
  -86.3150   17.5720   19.0790 C   0  0  0  0  0
  -86.2890   16.3060   16.9020 N   0  0  0  0  0
  -88.4390   15.6370   16.0890 N   0  0  0  0  0
  -87.3340   17.9950   19.9190 C   0  0  0  0  0
  -88.5000   17.5650   19.3340 N   0  0  0  0  0
  -90.3910   16.1660   17.1270 N   0  0  0  0  0
  -86.2040   20.2500   17.3380 O   0  0  0  0  0
  -84.8880   20.7080   17.2840 C   0  0  0  0  0
  -84.0560   20.0220   18.3450 C   0  0  0  0  0
  -84.8150   19.3540   19.4160 N   0  3  0  0  0
  -83.2180   18.9540   17.7100 C   0  0  0  0  0
  -81.9030   19.3070   18.1680 O   0  0  0  0  0
  -83.7520   17.6420   18.3250 C   0  0  0  0  0
  -82.6480   17.0980   19.0560 O   0  0  0  0  0
  -84.8680   17.9050   19.3730 C   0  0  0  0  0
  -86.6269   15.2433   15.1267 H   0  0  0  0  0
  -87.2311   18.5527   20.8499 H   0  0  0  0  0
  -90.9263   16.5940   17.8824 H   0  0  0  0  0
  -90.8744   15.6872   16.3671 H   0  0  0  0  0
  -86.7231   20.6910   16.6615 H   0  0  0  0  0
  -84.8757   21.7837   17.4593 H   0  0  0  0  0
  -84.4711   20.4845   16.3020 H   0  0  0  0  0
  -83.4816   20.8308   18.7966 H   0  0  0  0  0
  -85.7789   19.6728   19.3173 H   0  0  0  0  0
  -84.3395   19.5914   20.2866 H   0  0  0  0  0
  -83.2279   18.8506   16.6250 H   0  0  0  0  0
  -81.2648   18.6807   17.8185 H   0  0  0  0  0
  -84.1509   17.0027   17.5374 H   0  0  0  0  0
  -82.9140   16.2727   19.4680 H   0  0  0  0  0
  -84.6607   17.2761   20.2388 H   0  0  0  0  0
  6  1  4  0  0  0
  1  7  4  0  0  0
  2  3  4  0  0  0
  5  2  4  0  0  0
  2  6  4  0  0  0
  3  4  4  0  0  0
  9  3  4  0  0  0
  4  7  4  0  0  0
  4 10  1  0  0  0
  5  8  4  0  0  0
 19  5  1  0  0  0
  8  9  4  0  0  0
 12 11  1  0  0  0
 13 12  1  0  0  0
 14 13  1  0  0  0
 13 15  1  0  0  0
 14 19  1  0  0  0
 15 16  1  0  0  0
 15 17  1  0  0  0
 17 18  1  0  0  0
 17 19  1  0  0  0
  1 20  1  0  0  0
  8 21  1  0  0  0
 10 22  1  0  0  0
 10 23  1  0  0  0
 11 24  1  0  0  0
 12 25  1  0  0  0
 12 26  1  0  0  0
 13 27  1  0  0  0
 14 28  1  0  0  0
 14 29  1  0  0  0
 15 30  1  0  0  0
 16 31  1  0  0  0
 17 32  1  0  0  0
 18 33  1  0  0  0
 19 34  1  0  0  0
M  END
$$$$
