5alg_ligand
  -I-interpret- 

 54 58  0  0  0  0  0  0  0  0999 V2000
   -9.9200  -10.8650   20.0280 C   0  0  0  0  0
  -10.5900   -9.7640   19.5240 C   0  0  0  0  0
  -20.7760  -10.1680   13.0120 C   0  0  0  0  0
  -14.1920  -11.0450   14.6490 C   0  0  0  0  0
  -19.4580   -9.7890   12.9090 C   0  0  0  0  0
  -10.6150  -12.0040   20.3900 C   0  0  0  0  0
  -11.9630   -9.7790   19.3740 C   0  0  0  0  0
  -13.8870  -10.8690   13.3150 C   0  0  0  0  0
  -21.7450   -9.1940   13.0850 C   0  0  0  0  0
  -16.2940   -9.9550   14.2820 C   0  0  0  0  0
  -20.0690   -7.4780   12.9380 C   0  0  0  0  0
  -15.4060  -10.5920   15.1270 C   0  0  0  0  0
  -19.1010   -8.4540   12.8690 C   0  0  0  0  0
  -15.9740   -9.7700   12.9440 C   0  0  0  0  0
  -11.9880  -12.0250   20.2390 C   0  0  0  0  0
  -12.6560  -10.9180   19.7320 C   0  0  0  0  0
  -14.7610  -10.2250   12.4570 C   0  0  0  0  0
  -21.3900   -7.8630   13.0470 C   0  0  0  0  0
  -16.9880   -9.2980   10.7010 C   0  0  0  0  0
  -15.7550  -10.7520   16.5470 C   0  0  0  0  0
  -15.9530  -10.1380   10.0170 C   0  0  0  0  0
  -13.6020  -13.3640   19.5150 C   0  0  0  0  0
  -14.5990  -12.2240   19.5420 C   0  0  0  0  0
  -17.6710   -8.0600   12.7410 C   0  0  0  0  0
  -15.6100  -12.3230   18.4330 C   0  0  0  0  0
  -16.8680   -9.0800   12.0850 N   0  0  0  0  0
  -15.1310  -11.7980   17.1840 N   0  0  0  0  0
  -17.8970   -8.8790   10.0010 O   0  0  0  0  0
  -16.4940   -9.9310   17.0630 O   0  0  0  0  0
  -12.6940  -13.1650   20.5940 O   0  0  0  0  0
  -14.0330  -10.9060   19.5620 O   0  0  0  0  0
  -14.3120   -9.9780   10.7550 S   0  0  0  0  0
  -22.6480   -6.6970   13.1300 Cl  0  0  0  0  0
   -8.8363  -10.8340   20.1404 H   0  0  0  0  0
  -10.0273   -8.8741   19.2419 H   0  0  0  0  0
  -21.0486  -11.2231   13.0354 H   0  0  0  0  0
  -13.4839  -11.5353   15.3171 H   0  0  0  0  0
  -18.6825  -10.5533   12.8581 H   0  0  0  0  0
  -10.0882  -12.8713   20.7880 H   0  0  0  0  0
  -12.4888   -8.9089   18.9808 H   0  0  0  0  0
  -12.9391  -11.2445   12.9295 H   0  0  0  0  0
  -22.7944   -9.4754   13.1730 H   0  0  0  0  0
  -17.2487   -9.5966   14.6670 H   0  0  0  0  0
  -19.7980   -6.4227   12.9072 H   0  0  0  0  0
  -15.8853   -9.8033    8.9819 H   0  0  0  0  0
  -16.2579  -11.1804   10.1092 H   0  0  0  0  0
  -13.0674  -13.3801   18.5652 H   0  0  0  0  0
  -14.1141  -14.3205   19.6195 H   0  0  0  0  0
  -15.0932  -12.3543   20.5047 H   0  0  0  0  0
  -17.2721   -7.9122   13.7445 H   0  0  0  0  0
  -17.6248   -7.1549   12.1353 H   0  0  0  0  0
  -16.4811  -11.7370   18.7260 H   0  0  0  0  0
  -15.8350  -13.3790   18.2836 H   0  0  0  0  0
  -14.3032  -12.2140   16.7574 H   0  0  0  0  0
  2  1  4  0  0  0
  6  1  4  0  0  0
  7  2  4  0  0  0
  5  3  4  0  0  0
  3  9  4  0  0  0
  4  8  4  0  0  0
 12  4  4  0  0  0
 13  5  4  0  0  0
 15  6  4  0  0  0
 16  7  4  0  0  0
  8 17  4  0  0  0
 18  9  4  0  0  0
 12 10  4  0  0  0
 10 14  4  0  0  0
 13 11  4  0  0  0
 11 18  4  0  0  0
 20 12  1  0  0  0
 24 13  1  0  0  0
 14 17  4  0  0  0
 14 26  1  0  0  0
 16 15  4  0  0  0
 30 15  1  0  0  0
 31 16  1  0  0  0
 17 32  1  0  0  0
 18 33  1  0  0  0
 19 21  1  0  0  0
 26 19  1  0  0  0
 19 28  2  0  0  0
 27 20  1  0  0  0
 20 29  2  0  0  0
 32 21  1  0  0  0
 23 22  1  0  0  0
 22 30  1  0  0  0
 25 23  1  0  0  0
 23 31  1  0  0  0
 26 24  1  0  0  0
 25 27  1  0  0  0
  1 34  1  0  0  0
  2 35  1  0  0  0
  3 36  1  0  0  0
  4 37  1  0  0  0
  5 38  1  0  0  0
  6 39  1  0  0  0
  7 40  1  0  0  0
  8 41  1  0  0  0
  9 42  1  0  0  0
 10 43  1  0  0  0
 11 44  1  0  0  0
 21 45  1  0  0  0
 21 46  1  0  0  0
 22 47  1  0  0  0
 22 48  1  0  0  0
 23 49  1  0  0  0
 24 50  1  0  0  0
 24 51  1  0  0  0
 25 52  1  0  0  0
 25 53  1  0  0  0
 27 54  1  0  0  0
M  END
$$$$
