1o3e_ligand
  -I-interpret- 

 41 44  0  0  0  0  0  0  0  0999 V2000
   44.3120   -3.0750   26.4970 C   0  0  0  0  0
   44.6700   -1.6920   26.4710 C   0  0  0  0  0
   44.6720   -0.8720   27.6030 C   0  0  0  0  0
   44.3020   -1.4620   28.7630 C   0  0  0  0  0
   43.9530   -2.7800   28.8630 C   0  0  0  0  0
   43.9430   -3.6280   27.7490 C   0  0  0  0  0
   44.3430   -3.8310   25.3190 C   0  0  0  0  0
   44.0400   -5.1120   25.3400 N   0  0  0  0  0
   44.6870   -3.2250   24.1970 N   0  0  0  0  0
   44.2120   -1.0010   29.9660 N   0  0  0  0  0
   43.6470   -3.1350   30.1200 C   0  0  0  0  0
   43.8430   -1.9850   30.7110 C   0  0  0  0  0
   43.5710   -1.8430   32.0690 C   0  0  0  0  0
   43.3280   -2.9750   32.8530 C   0  0  0  0  0
   43.0450   -2.8810   34.2010 C   0  0  0  0  0
   42.9980   -1.6440   34.8050 C   0  0  0  0  0
   43.2290   -0.4620   34.0680 C   0  0  0  0  0
   43.5180   -0.5850   32.6990 C   0  0  0  0  0
   43.7790    0.5550   31.9530 O   0  0  0  0  0
   43.1620    0.7840   34.7020 C   0  0  0  0  0
   44.1870    1.7290   34.5880 C   0  0  0  0  0
   44.1240    2.9570   35.2250 C   0  0  0  0  0
   43.0300    3.2880   36.0040 C   0  0  0  0  0
   41.9850    2.3730   36.1400 C   0  0  0  0  0
   42.0560    1.1370   35.4920 C   0  0  0  0  0
   44.9573   -1.2522   25.5159 H   0  0  0  0  0
   44.9547    0.1796   27.5542 H   0  0  0  0  0
   43.6613   -4.6769   27.8412 H   0  0  0  0  0
   44.0682   -5.6569   24.4782 H   0  0  0  0  0
   44.7219   -3.7505   23.3235 H   0  0  0  0  0
   44.9178   -2.2315   24.2040 H   0  0  0  0  0
   43.3298   -4.0951   30.5271 H   0  0  0  0  0
   43.3630   -3.9596   32.3867 H   0  0  0  0  0
   42.8594   -3.7824   34.7851 H   0  0  0  0  0
   42.7786   -1.5764   35.8706 H   0  0  0  0  0
   43.7051    1.3287   32.5165 H   0  0  0  0  0
   45.0603    1.4920   33.9804 H   0  0  0  0  0
   44.9425    3.6679   35.1117 H   0  0  0  0  0
   42.9845    4.2541   36.5068 H   0  0  0  0  0
   41.1163    2.6217   36.7497 H   0  0  0  0  0
   41.2335    0.4302   35.6023 H   0  0  0  0  0
  1  2  4  0  0  0
  1  6  4  0  0  0
  1  7  1  0  0  0
  2  3  4  0  0  0
  3  4  4  0  0  0
  4  5  4  0  0  0
  4 10  4  0  0  0
  5  6  4  0  0  0
  5 11  4  0  0  0
  7  8  2  0  0  0
  7  9  1  0  0  0
 10 12  4  0  0  0
 11 12  4  0  0  0
 12 13  1  0  0  0
 13 14  4  0  0  0
 13 18  4  0  0  0
 14 15  4  0  0  0
 15 16  4  0  0  0
 16 17  4  0  0  0
 17 18  4  0  0  0
 17 20  1  0  0  0
 18 19  1  0  0  0
 20 21  4  0  0  0
 20 25  4  0  0  0
 21 22  4  0  0  0
 22 23  4  0  0  0
 23 24  4  0  0  0
 24 25  4  0  0  0
  2 26  1  0  0  0
  3 27  1  0  0  0
  6 28  1  0  0  0
  8 29  1  0  0  0
  9 30  1  0  0  0
  9 31  1  0  0  0
 11 32  1  0  0  0
 14 33  1  0  0  0
 15 34  1  0  0  0
 16 35  1  0  0  0
 19 36  1  0  0  0
 21 37  1  0  0  0
 22 38  1  0  0  0
 23 39  1  0  0  0
 24 40  1  0  0  0
 25 41  1  0  0  0
M  END
$$$$
