### 
### Created by X-TOOL on Mon Sep 10 21:12:44 2018
### 

@<TRIPOS>MOLECULE
6cha_ligand
   22    22     1     0     0
SMALL
GAST_HUCK


@<TRIPOS>ATOM
      1 B          28.3530   20.6960   25.3240 B         1 PBA         0.6909
      2 O1         29.5780   20.1100   25.5650 O.3       1 PBA        -0.4977
      3 O2         28.4030   21.7210   26.2570 O.3       1 PBA        -0.4977
      4 CA         27.0290   19.6870   25.4750 C.3       1 PBA        -0.0331
      5 CB         26.3870   19.4190   24.1190 C.3       1 PBA        -0.0277
      6 CG         25.4170   18.1830   24.2050 C.ar      1 PBA        -0.0442
      7 CD1        25.0600   17.6100   25.4270 C.ar      1 PBA        -0.0604
      8 CD2        24.8600   17.7190   22.9690 C.ar      1 PBA        -0.0604
      9 CE1        24.1820   16.5390   25.4530 C.ar      1 PBA        -0.0686
     10 CE2        23.9200   16.6590   23.0230 C.ar      1 PBA        -0.0686
     11 CZ         23.6190   16.0660   24.2720 C.ar      1 PBA        -0.0687
     12 H1         30.2675   20.7450   25.4103 H         1 PBA         0.1666
     13 H2         29.1470   22.2815   26.0704 H         1 PBA         0.1666
     14 H3         26.2887   20.1619   26.1356 H         1 PBA         0.0165
     15 H4         27.3531   18.7320   25.9142 H         1 PBA         0.0165
     16 H5         27.1747   19.2106   23.3801 H         1 PBA         0.0414
     17 H6         25.8166   20.3061   23.8065 H         1 PBA         0.0414
     18 H7         25.4682   18.0016   26.3517 H         1 PBA         0.0557
     19 H8         25.1480   18.1640   22.0234 H         1 PBA         0.0557
     20 H9         23.9327   16.0678   26.3968 H         1 PBA         0.0599
     21 H10        23.4377   16.3070   22.1183 H         1 PBA         0.0599
     22 H11        22.9354   15.2255   24.3094 H         1 PBA         0.0559
@<TRIPOS>BOND
     1    1    2 1  
     2    1    3 1  
     3    1    4 1  
     4    4    5 1  
     5    5    6 1  
     6    6    7 ar 
     7    6    8 ar 
     8    7    9 ar 
     9    8   10 ar 
    10    9   11 ar 
    11   10   11 ar 
    12    2   12 1  
    13    3   13 1  
    14    4   14 1  
    15    4   15 1  
    16    5   16 1  
    17    5   17 1  
    18    7   18 1  
    19    8   19 1  
    20    9   20 1  
    21   10   21 1  
    22   11   22 1  
@<TRIPOS>SUBSTRUCTURE
     1 PBA         1

