6cha_ligand
  -I-interpret- 

 22 22  0  0  0  0  0  0  0  0999 V2000
   28.3530   20.6960   25.3240 B   0  0  0  0  0
   29.5780   20.1100   25.5650 O   0  0  0  0  0
   28.4030   21.7210   26.2570 O   0  0  0  0  0
   27.0290   19.6870   25.4750 C   0  0  0  0  0
   26.3870   19.4190   24.1190 C   0  0  0  0  0
   25.4170   18.1830   24.2050 C   0  0  0  0  0
   25.0600   17.6100   25.4270 C   0  0  0  0  0
   24.8600   17.7190   22.9690 C   0  0  0  0  0
   24.1820   16.5390   25.4530 C   0  0  0  0  0
   23.9200   16.6590   23.0230 C   0  0  0  0  0
   23.6190   16.0660   24.2720 C   0  0  0  0  0
   30.2717   20.7643   25.4544 H   0  0  0  0  0
   29.1876   22.2528   26.1047 H   0  0  0  0  0
   26.2944   20.1692   26.1199 H   0  0  0  0  0
   27.3594   18.7385   25.8984 H   0  0  0  0  0
   27.1703   19.2053   23.3917 H   0  0  0  0  0
   25.8165   20.2973   23.8169 H   0  0  0  0  0
   25.4705   18.0038   26.3568 H   0  0  0  0  0
   25.1496   18.1664   22.0182 H   0  0  0  0  0
   23.9313   16.0651   26.4021 H   0  0  0  0  0
   23.4350   16.3051   22.1133 H   0  0  0  0  0
   22.9316   15.2209   24.3096 H   0  0  0  0  0
  1  2  1  0  0  0
  1  3  1  0  0  0
  1  4  1  0  0  0
  4  5  1  0  0  0
  5  6  1  0  0  0
  6  7  4  0  0  0
  6  8  4  0  0  0
  7  9  4  0  0  0
  8 10  4  0  0  0
  9 11  4  0  0  0
 10 11  4  0  0  0
  2 12  1  0  0  0
  3 13  1  0  0  0
  4 14  1  0  0  0
  4 15  1  0  0  0
  5 16  1  0  0  0
  5 17  1  0  0  0
  7 18  1  0  0  0
  8 19  1  0  0  0
  9 20  1  0  0  0
 10 21  1  0  0  0
 11 22  1  0  0  0
M  END
$$$$
