2yaz_ligand
  -I-interpret- 

 33 34  0  0  0  0  0  0  0  0999 V2000
  -17.1980   34.9490   -7.8570 N   0  0  0  0  0
  -17.8520   34.1650   -6.9120 C   0  0  0  0  0
  -17.2960   33.9080   -5.6840 N   0  0  0  0  0
  -16.0580   34.4270   -5.3950 C   0  0  0  0  0
  -15.3830   35.2190   -6.3310 C   0  0  0  0  0
  -15.9650   35.4730   -7.5740 C   0  0  0  0  0
  -18.9510   33.6860   -7.1350 O   0  0  0  0  0
  -15.5740   34.1870   -4.2940 O   0  0  0  0  0
  -17.8810   35.2020   -9.1420 C   0  0  0  0  0
  -19.0690   36.1280   -8.9240 C   0  0  0  0  0
  -19.2780   36.7570  -10.2850 C   0  0  0  0  0
  -17.9830   36.5180  -11.0260 C   0  0  0  0  0
  -20.2710   36.0870  -11.0120 O   0  0  0  0  0
  -17.1190   35.7850  -10.1720 O   0  0  0  0  0
  -17.3920   37.8700  -11.4070 C   0  0  0  0  0
  -16.0860   37.6710  -11.9130 O   0  0  0  0  0
  -15.4530   38.8010  -12.8680 P   0  0  0  0  0
  -16.4410   38.8460  -14.0460 O   0  0  0  0  0
  -14.0090   38.4560  -13.1930 O   0  0  0  0  0
  -15.4410   40.1040  -12.1320 O   0  0  0  0  0
  -17.7939   33.3411   -4.9976 H   0  0  0  0  0
  -14.4054   35.6364   -6.0899 H   0  0  0  0  0
  -15.4432   36.0823   -8.3120 H   0  0  0  0  0
  -18.1443   34.1977   -9.4741 H   0  0  0  0  0
  -18.8858   36.8677   -8.1446 H   0  0  0  0  0
  -19.9525   35.5986   -8.5673 H   0  0  0  0  0
  -19.5629   37.8034  -10.1754 H   0  0  0  0  0
  -18.1347   35.9441  -11.9402 H   0  0  0  0  0
  -20.3792   36.5088  -11.8675 H   0  0  0  0  0
  -17.3537   38.5164  -10.5302 H   0  0  0  0  0
  -18.0139   38.3439  -12.1664 H   0  0  0  0  0
  -16.4318   38.0015  -14.5024 H   0  0  0  0  0
  -13.9794   37.6220  -13.6675 H   0  0  0  0  0
  1  2  1  0  0  0
  1  6  1  0  0  0
  1  9  1  0  0  0
  2  3  1  0  0  0
  2  7  2  0  0  0
  3  4  1  0  0  0
  4  5  1  0  0  0
  4  8  2  0  0  0
  5  6  2  0  0  0
  9 10  1  0  0  0
  9 14  1  0  0  0
 10 11  1  0  0  0
 11 12  1  0  0  0
 11 13  1  0  0  0
 12 14  1  0  0  0
 12 15  1  0  0  0
 15 16  1  0  0  0
 16 17  1  0  0  0
 17 18  1  0  0  0
 17 19  1  0  0  0
 17 20  2  0  0  0
  3 21  1  0  0  0
  5 22  1  0  0  0
  6 23  1  0  0  0
  9 24  1  0  0  0
 10 25  1  0  0  0
 10 26  1  0  0  0
 11 27  1  0  0  0
 12 28  1  0  0  0
 13 29  1  0  0  0
 15 30  1  0  0  0
 15 31  1  0  0  0
 18 32  1  0  0  0
 19 33  1  0  0  0
M  END
$$$$
