5fjx_ligand
  -I-interpret- 

 95 97  0  0  0  0  0  0  0  0999 V2000
   20.4230   -9.2580  -23.5930 N   0  3  0  0  0
   21.9210   -9.2610  -23.6940 C   0  0  0  0  0
   22.4020  -10.2930  -24.7400 C   0  0  0  0  0
   21.6070  -10.7300  -25.5790 O   0  0  0  0  0
   22.5510   -9.4820  -22.3060 C   0  0  0  0  0
   22.0250   -8.5240  -21.2390 C   0  0  0  0  0
   22.9010   -8.4640  -19.9940 C   0  0  0  0  0
   24.1260   -7.5860  -20.2070 C   0  0  0  0  0
   24.9270   -7.4230  -18.9600 N   0  3  0  0  0
   23.6850  -10.6640  -24.7080 N   0  0  0  0  0
   24.3080  -11.4520  -25.7760 C   0  0  0  0  0
   24.7990  -12.8660  -25.3440 C   0  0  0  0  0
   25.3700  -13.0320  -24.2620 O   0  0  0  0  0
   25.5000  -10.6630  -26.3400 C   0  0  0  0  0
   25.2190   -9.2370  -26.8920 C   0  0  0  0  0
   25.4650   -8.0480  -26.2530 C   0  0  0  0  0
   24.7100   -8.8830  -28.1980 C   0  0  0  0  0
   25.1250   -6.9940  -27.0640 N   0  0  0  0  0
   24.6590   -7.4750  -28.2580 C   0  0  0  0  0
   24.2840   -9.6210  -29.3150 C   0  0  0  0  0
   24.1990   -6.7900  -29.3860 C   0  0  0  0  0
   23.8270   -8.9370  -30.4410 C   0  0  0  0  0
   23.7910   -7.5360  -30.4650 C   0  0  0  0  0
   24.5990  -13.8640  -26.2120 N   0  0  0  0  0
   25.0690  -15.2380  -25.9790 C   0  0  0  0  0
   26.5730  -15.3270  -26.1950 C   0  0  0  0  0
   27.0410  -15.0870  -27.3050 O   0  0  0  0  0
   24.4110  -16.2280  -26.9560 C   0  0  0  0  0
   22.8950  -16.3370  -26.7870 C   0  0  0  0  0
   22.3480  -15.9030  -25.7440 O   0  0  0  0  0
   22.2510  -16.8770  -27.7170 O   0  0  0  0  0
   27.3210  -15.6970  -25.1540 N   0  0  0  0  0
   28.7840  -15.8270  -25.2560 C   0  0  0  0  0
   29.2210  -17.0130  -26.1260 C   0  0  0  0  0
   28.6180  -18.0940  -26.0980 O   0  0  0  0  0
   29.4400  -15.9330  -23.8670 C   0  0  0  0  0
   29.4700  -14.5990  -23.1230 C   0  0  0  0  0
   29.8660  -13.5840  -23.7410 O   0  0  0  0  0
   29.1190  -14.5680  -21.9190 O   0  0  0  0  0
   30.2640  -16.7740  -26.9150 N   0  0  0  0  0
   30.9180  -17.8110  -27.7220 C   0  0  0  0  0
   32.3740  -17.4030  -28.0560 C   0  0  0  0  0
   33.0320  -17.9570  -28.9430 O   0  0  0  0  0
   30.0870  -18.1480  -28.9910 C   0  0  0  0  0
   30.0750  -17.0580  -30.0400 C   0  0  0  0  0
   29.1440  -16.0310  -29.9820 C   0  0  0  0  0
   30.9930  -17.0690  -31.1000 C   0  0  0  0  0
   29.1380  -15.0260  -30.9410 C   0  0  0  0  0
   30.9890  -16.0680  -32.0630 C   0  0  0  0  0
   30.0590  -15.0450  -31.9860 C   0  0  0  0  0
   32.9490  -16.4980  -27.4330 O   0  0  0  0  0
   20.0213   -9.1108  -24.5189 H   0  0  0  0  0
   20.1066  -10.1541  -23.2223 H   0  0  0  0  0
   20.1270   -8.5071  -22.9693 H   0  0  0  0  0
   22.2558   -8.2853  -24.0461 H   0  0  0  0  0
   23.6230   -9.3096  -22.4015 H   0  0  0  0  0
   22.3002  -10.4945  -21.9897 H   0  0  0  0  0
   21.0423   -8.8820  -20.9321 H   0  0  0  0  0
   22.0056   -7.5253  -21.6752 H   0  0  0  0  0
   23.2393   -9.4743  -19.7639 H   0  0  0  0  0
   22.3123   -8.0395  -19.1808 H   0  0  0  0  0
   23.7853   -6.5997  -20.5221 H   0  0  0  0  0
   24.7584   -8.0627  -20.9560 H   0  0  0  0  0
   25.7342   -6.8294  -19.1510 H   0  0  0  0  0
   24.3484   -6.9907  -18.2397 H   0  0  0  0  0
   25.2444   -8.3377  -18.6392 H   0  0  0  0  0
   24.2543  -10.3878  -23.9080 H   0  0  0  0  0
   23.5306  -11.6192  -26.5216 H   0  0  0  0  0
   25.8592  -11.2418  -27.1909 H   0  0  0  0  0
   26.1833  -10.5243  -25.5022 H   0  0  0  0  0
   25.8719   -7.9539  -25.2462 H   0  0  0  0  0
   24.3103  -10.7106  -29.3017 H   0  0  0  0  0
   24.1651   -5.7008  -29.4089 H   0  0  0  0  0
   23.4936   -9.4989  -31.3135 H   0  0  0  0  0
   23.4314   -7.0273  -31.3594 H   0  0  0  0  0
   24.0967  -13.6625  -27.0765 H   0  0  0  0  0
   24.8046  -15.4929  -24.9527 H   0  0  0  0  0
   24.8339  -17.2129  -26.7582 H   0  0  0  0  0
   24.6025  -15.8667  -27.9664 H   0  0  0  0  0
   23.0167  -15.5304  -25.1646 H   0  0  0  0  0
   26.8666  -15.8953  -24.2626 H   0  0  0  0  0
   29.1263  -14.9152  -25.7454 H   0  0  0  0  0
   30.4703  -16.2595  -24.0085 H   0  0  0  0  0
   28.8527  -16.6333  -23.2731 H   0  0  0  0  0
   28.8525  -15.4476  -21.6418 H   0  0  0  0  0
   30.6280  -15.8223  -26.9619 H   0  0  0  0  0
   30.9669  -18.7278  -27.1345 H   0  0  0  0  0
   29.0558  -18.2919  -28.6684 H   0  0  0  0  0
   30.5439  -19.0258  -29.4480 H   0  0  0  0  0
   28.4102  -16.0125  -29.1762 H   0  0  0  0  0
   31.7218  -17.8765  -31.1694 H   0  0  0  0  0
   28.4089  -14.2184  -30.8755 H   0  0  0  0  0
   31.7149  -16.0877  -32.8759 H   0  0  0  0  0
   30.0476  -14.2579  -32.7399 H   0  0  0  0  0
   32.3533  -16.1376  -26.7720 H   0  0  0  0  0
  1  2  1  0  0  0
  2  3  1  0  0  0
  2  5  1  0  0  0
  3  4  2  0  0  0
  3 10  1  0  0  0
  5  6  1  0  0  0
  6  7  1  0  0  0
  7  8  1  0  0  0
  8  9  1  0  0  0
 10 11  1  0  0  0
 11 12  1  0  0  0
 11 14  1  0  0  0
 12 13  2  0  0  0
 12 24  1  0  0  0
 14 15  1  0  0  0
 15 16  4  0  0  0
 15 17  4  0  0  0
 16 18  4  0  0  0
 17 19  4  0  0  0
 17 20  4  0  0  0
 18 19  4  0  0  0
 19 21  4  0  0  0
 20 22  4  0  0  0
 21 23  4  0  0  0
 22 23  4  0  0  0
 24 25  1  0  0  0
 25 26  1  0  0  0
 25 28  1  0  0  0
 26 27  2  0  0  0
 26 32  1  0  0  0
 28 29  1  0  0  0
 29 30  1  0  0  0
 29 31  2  0  0  0
 32 33  1  0  0  0
 33 34  1  0  0  0
 33 36  1  0  0  0
 34 35  2  0  0  0
 34 40  1  0  0  0
 36 37  1  0  0  0
 37 38  2  0  0  0
 37 39  1  0  0  0
 40 41  1  0  0  0
 41 42  1  0  0  0
 41 44  1  0  0  0
 42 43  2  0  0  0
 42 51  1  0  0  0
 44 45  1  0  0  0
 45 46  4  0  0  0
 45 47  4  0  0  0
 46 48  4  0  0  0
 47 49  4  0  0  0
 48 50  4  0  0  0
 49 50  4  0  0  0
  1 52  1  0  0  0
  1 53  1  0  0  0
  1 54  1  0  0  0
  2 55  1  0  0  0
  5 56  1  0  0  0
  5 57  1  0  0  0
  6 58  1  0  0  0
  6 59  1  0  0  0
  7 60  1  0  0  0
  7 61  1  0  0  0
  8 62  1  0  0  0
  8 63  1  0  0  0
  9 64  1  0  0  0
  9 65  1  0  0  0
  9 66  1  0  0  0
 10 67  1  0  0  0
 11 68  1  0  0  0
 14 69  1  0  0  0
 14 70  1  0  0  0
 16 71  1  0  0  0
 20 72  1  0  0  0
 21 73  1  0  0  0
 22 74  1  0  0  0
 23 75  1  0  0  0
 24 76  1  0  0  0
 25 77  1  0  0  0
 28 78  1  0  0  0
 28 79  1  0  0  0
 30 80  1  0  0  0
 32 81  1  0  0  0
 33 82  1  0  0  0
 36 83  1  0  0  0
 36 84  1  0  0  0
 39 85  1  0  0  0
 40 86  1  0  0  0
 41 87  1  0  0  0
 44 88  1  0  0  0
 44 89  1  0  0  0
 46 90  1  0  0  0
 47 91  1  0  0  0
 48 92  1  0  0  0
 49 93  1  0  0  0
 50 94  1  0  0  0
 51 95  1  0  0  0
M  END
$$$$
