### 
### Created by X-TOOL on Mon Sep 10 21:13:24 2018
### 

@<TRIPOS>MOLECULE
5fjx_ligand
   93    95     1     0     0
SMALL
GAST_HUCK


@<TRIPOS>ATOM
      1 N          20.4230   -9.2580  -23.5930 N.4       1 LYS         0.2379
      2 CA         21.9210   -9.2610  -23.6940 C.3       1 LYS         0.0650
      3 C          22.4020  -10.2930  -24.7400 C.2       1 LYS         0.2268
      4 O          21.6070  -10.7300  -25.5790 O.2       1 LYS        -0.3907
      5 CB         22.5510   -9.4820  -22.3060 C.3       1 LYS         0.0080
      6 CG         22.0250   -8.5240  -21.2390 C.3       1 LYS        -0.0410
      7 CD         22.9010   -8.4640  -19.9940 C.3       1 LYS        -0.0123
      8 CE         24.1260   -7.5860  -20.2070 C.3       1 LYS        -0.0354
      9 NZ         24.9270   -7.4230  -18.9600 N.4       1 LYS         0.2185
     10 N          23.6850  -10.6640  -24.7080 N.am      1 TRP        -0.2600
     11 CA         24.3080  -11.4520  -25.7760 C.3       1 TRP         0.1353
     12 C          24.7990  -12.8660  -25.3440 C.2       1 TRP         0.2052
     13 O          25.3700  -13.0320  -24.2620 O.2       1 TRP        -0.3942
     14 CB         25.5000  -10.6630  -26.3400 C.3       1 TRP         0.0042
     15 CG         25.2190   -9.2370  -26.8920 C.2       1 TRP        -0.0418
     16 CD1        25.4650   -8.0480  -26.2530 C.2       1 TRP         0.0167
     17 CD2        24.7100   -8.8830  -28.1980 C.ar      1 TRP        -0.0214
     18 NE1        25.1250   -6.9940  -27.0640 N.pl3     1 TRP        -0.2890
     19 CE2        24.6590   -7.4750  -28.2580 C.ar      1 TRP         0.0603
     20 CE3        24.2840   -9.6210  -29.3150 C.ar      1 TRP        -0.0747
     21 CZ2        24.1990   -6.7900  -29.3860 C.ar      1 TRP        -0.0443
     22 CZ3        23.8270   -8.9370  -30.4410 C.ar      1 TRP        -0.0792
     23 CH2        23.7910   -7.5360  -30.4650 C.ar      1 TRP        -0.0768
     24 N          24.5990  -13.8640  -26.2120 N.am      1 ASP        -0.2621
     25 CA         25.0690  -15.2380  -25.9790 C.3       1 ASP         0.1423
     26 C          26.5730  -15.3270  -26.1950 C.2       1 ASP         0.2057
     27 O          27.0410  -15.0870  -27.3050 O.2       1 ASP        -0.3943
     28 CB         24.4110  -16.2280  -26.9560 C.3       1 ASP         0.0406
     29 CG         22.8950  -16.3370  -26.7870 C.2       1 ASP         0.0393
     30 OD1        22.3480  -15.9030  -25.7440 O.co2     1 ASP        -0.5688
     31 OD2        22.2510  -16.8770  -27.7170 O.co2     1 ASP        -0.5688
     32 N          27.3210  -15.6970  -25.1540 N.am      1 ASP        -0.2621
     33 CA         28.7840  -15.8270  -25.2560 C.3       1 ASP         0.1423
     34 C          29.2210  -17.0130  -26.1260 C.2       1 ASP         0.2052
     35 O          28.6180  -18.0940  -26.0980 O.2       1 ASP        -0.3943
     36 CB         29.4400  -15.9330  -23.8670 C.3       1 ASP         0.0406
     37 CG         29.4700  -14.5990  -23.1230 C.2       1 ASP         0.0393
     38 OD1        29.8660  -13.5840  -23.7410 O.co2     1 ASP        -0.5688
     39 OD2        29.1190  -14.5680  -21.9190 O.co2     1 ASP        -0.5688
     40 N          30.2640  -16.7740  -26.9150 N.am      1 PHE        -0.2676
     41 CA         30.9180  -17.8110  -27.7220 C.3       1 PHE         0.1039
     42 C          32.3740  -17.4030  -28.0560 C.2       1 PHE         0.0621
     43 O          33.0320  -17.9570  -28.9430 O.co2     1 PHE        -0.5664
     44 CB         30.0870  -18.1480  -28.9910 C.3       1 PHE         0.0159
     45 CG         30.0750  -17.0580  -30.0400 C.ar      1 PHE        -0.0392
     46 CD1        29.1440  -16.0310  -29.9820 C.ar      1 PHE        -0.0602
     47 CD2        30.9930  -17.0690  -31.1000 C.ar      1 PHE        -0.0602
     48 CE1        29.1380  -15.0260  -30.9410 C.ar      1 PHE        -0.0686
     49 CE2        30.9890  -16.0680  -32.0630 C.ar      1 PHE        -0.0686
     50 CZ         30.0590  -15.0450  -31.9860 C.ar      1 PHE        -0.0687
     51 OXT        32.9490  -16.4980  -27.4330 O.co2     1 PHE        -0.5664
     52 H1         20.1339   -8.5789  -22.9065 H         1 LYS         0.2015
     53 H2         20.1031  -10.1729  -23.3160 H         1 LYS         0.2015
     54 H3         20.0263   -9.0202  -24.4886 H         1 LYS         0.2015
     55 H4         22.2365   -8.2674  -24.0449 H         1 LYS         0.1098
     56 H5         23.6390   -9.3445  -22.3915 H         1 LYS         0.0346
     57 H6         22.3356  -10.5121  -21.9858 H         1 LYS         0.0346
     58 H7         21.0183   -8.8525  -20.9413 H         1 LYS         0.0270
     59 H8         21.9679   -7.5152  -21.6739 H         1 LYS         0.0270
     60 H9         23.2322   -9.4823  -19.7421 H         1 LYS         0.0317
     61 H10        22.3097   -8.0544  -19.1618 H         1 LYS         0.0317
     62 H11        23.7955   -6.5937  -20.5477 H         1 LYS         0.0813
     63 H12        24.7614   -8.0457  -20.9783 H         1 LYS         0.0813
     64 H13        25.7251   -6.8365  -19.1476 H         1 LYS         0.1994
     65 H14        25.2413   -8.3264  -18.6420 H         1 LYS         0.1994
     66 H15        24.3562   -6.9958  -18.2474 H         1 LYS         0.1994
     67 H16        24.2432  -10.3932  -23.9237 H         1 TRP         0.1886
     68 H17        23.5609  -11.5865  -26.5721 H         1 TRP         0.0815
     69 H18        25.9288  -11.2558  -27.1614 H         1 TRP         0.0397
     70 H19        26.2412  -10.5641  -25.5333 H         1 TRP         0.0397
     71 H20        25.8715   -7.9540  -25.2471 H         1 TRP         0.0795
     72 H21        25.2075   -5.9983  -26.8137 H         1 TRP         0.2216
     73 H22        24.3101  -10.7046  -29.3018 H         1 TRP         0.0540
     74 H23        24.1653   -5.7068  -29.4087 H         1 TRP         0.0541
     75 H24        23.4954   -9.4958  -31.3087 H         1 TRP         0.0510
     76 H25        23.4334   -7.0301  -31.3545 H         1 TRP         0.0530
     77 H26        24.1065  -13.6664  -27.0596 H         1 ASP         0.1884
     78 H27        24.8257  -15.5262  -24.9457 H         1 ASP         0.0819
     79 H28        24.8516  -17.2226  -26.7930 H         1 ASP         0.0478
     80 H29        24.6236  -15.8966  -27.9831 H         1 ASP         0.0478
     81 H30        26.8755  -15.8915  -24.2801 H         1 ASP         0.1884
     82 H31        29.1581  -14.9102  -25.7350 H         1 ASP         0.0819
     83 H32        30.4733  -16.2886  -23.9925 H         1 ASP         0.0478
     84 H33        28.8731  -16.6584  -23.2650 H         1 ASP         0.0478
     85 H34        30.6208  -15.8410  -26.9610 H         1 PHE         0.1877
     86 H35        30.9655  -18.7255  -27.1125 H         1 PHE         0.0749
     87 H36        29.0488  -18.3384  -28.6814 H         1 PHE         0.0467
     88 H37        30.5069  -19.0575  -29.4453 H         1 PHE         0.0467
     89 H38        28.4142  -16.0126  -29.1806 H         1 PHE         0.0557
     90 H39        31.7178  -17.8721  -31.1690 H         1 PHE         0.0557
     91 H40        28.4129  -14.2228  -30.8758 H         1 PHE         0.0599
     92 H41        31.7109  -16.0876  -32.8714 H         1 PHE         0.0599
     93 H42        30.0477  -14.2622  -32.7358 H         1 PHE         0.0559
@<TRIPOS>BOND
     1    1    2 1  
     2    2    3 1  
     3    2    5 1  
     4    3    4 2  
     5    3   10 am 
     6    5    6 1  
     7    6    7 1  
     8    7    8 1  
     9    8    9 1  
    10   10   11 1  
    11   11   12 1  
    12   11   14 1  
    13   12   13 2  
    14   12   24 am 
    15   14   15 1  
    16   15   16 2  
    17   15   17 1  
    18   16   18 1  
    19   17   19 ar 
    20   17   20 ar 
    21   18   19 1  
    22   19   21 ar 
    23   20   22 ar 
    24   21   23 ar 
    25   22   23 ar 
    26   24   25 1  
    27   25   26 1  
    28   25   28 1  
    29   26   27 2  
    30   26   32 am 
    31   28   29 1  
    32   29   30 ar 
    33   29   31 ar 
    34   32   33 1  
    35   33   34 1  
    36   33   36 1  
    37   34   35 2  
    38   34   40 am 
    39   36   37 1  
    40   37   38 ar 
    41   37   39 ar 
    42   40   41 1  
    43   41   42 1  
    44   41   44 1  
    45   42   43 ar 
    46   42   51 ar 
    47   44   45 1  
    48   45   46 ar 
    49   45   47 ar 
    50   46   48 ar 
    51   47   49 ar 
    52   48   50 ar 
    53   49   50 ar 
    54    1   52 1  
    55    1   53 1  
    56    1   54 1  
    57    2   55 1  
    58    5   56 1  
    59    5   57 1  
    60    6   58 1  
    61    6   59 1  
    62    7   60 1  
    63    7   61 1  
    64    8   62 1  
    65    8   63 1  
    66    9   64 1  
    67    9   65 1  
    68    9   66 1  
    69   10   67 1  
    70   11   68 1  
    71   14   69 1  
    72   14   70 1  
    73   16   71 1  
    74   18   72 1  
    75   20   73 1  
    76   21   74 1  
    77   22   75 1  
    78   23   76 1  
    79   24   77 1  
    80   25   78 1  
    81   28   79 1  
    82   28   80 1  
    83   32   81 1  
    84   33   82 1  
    85   36   83 1  
    86   36   84 1  
    87   40   85 1  
    88   41   86 1  
    89   44   87 1  
    90   44   88 1  
    91   46   89 1  
    92   47   90 1  
    93   48   91 1  
    94   49   92 1  
    95   50   93 1  
@<TRIPOS>SUBSTRUCTURE
     1 LYS         1

