2oa0_ligand
  -I-interpret- 

 44 48  0  0  0  0  0  0  0  0999 V2000
   26.0510  -15.6970   15.5980 O   0  0  0  0  0
   25.9830  -15.2990   14.3690 C   0  0  0  0  0
   27.2210  -15.1870   13.5350 C   0  0  0  0  0
   28.6450  -15.5200   13.8350 C   0  0  0  0  0
   29.1390  -15.1890   14.9050 O   0  0  0  0  0
   29.4160  -16.2470   12.7670 C   0  0  0  0  0
   24.6980  -14.8340   13.7790 C   0  0  0  0  0
   23.6280  -15.7310   13.1760 C   0  0  0  0  0
   22.5440  -16.0370   14.1380 C   0  0  0  0  0
   22.5630  -16.9440   15.1770 C   0  0  0  0  0
   21.3140  -16.8270   15.7260 N   0  0  0  0  0
   20.5720  -15.9020   15.0600 C   0  0  0  0  0
   21.3550  -15.3910   14.0340 C   0  0  0  0  0
   19.2740  -15.4100   15.2000 C   0  0  0  0  0
   18.8160  -14.4280   14.3120 C   0  0  0  0  0
   19.6330  -13.9330   13.2860 C   0  0  0  0  0
   20.9260  -14.4330   13.1510 C   0  0  0  0  0
   21.9050  -13.9840   12.0900 C   0  0  0  0  0
   23.1420  -14.9010   11.9490 C   0  0  0  0  0
   24.3380  -14.0470   11.5030 C   0  0  0  0  0
   24.7620  -14.4110   10.0920 C   0  0  0  0  0
   24.0610  -12.5540   11.5980 C   0  0  0  0  0
   25.3400  -14.4770   12.4980 N   0  0  0  0  0
   26.6480  -14.6620   12.2700 C   0  0  0  0  0
   27.4240  -14.3620   11.0450 O   0  0  0  0  0
   30.2643  -15.6379   12.4548 H   0  0  0  0  0
   29.7752  -17.1969   13.1629 H   0  0  0  0  0
   28.7651  -16.4310   11.9123 H   0  0  0  0  0
   24.1762  -14.2544   14.5405 H   0  0  0  0  0
   23.9948  -16.7187   12.8967 H   0  0  0  0  0
   23.3780  -17.5980   15.4871 H   0  0  0  0  0
   18.6242  -15.7851   15.9907 H   0  0  0  0  0
   17.8030  -14.0407   14.4212 H   0  0  0  0  0
   19.2619  -13.1681   12.6039 H   0  0  0  0  0
   22.2652  -12.9966   12.3788 H   0  0  0  0  0
   21.3787  -14.0013   11.1357 H   0  0  0  0  0
   22.7902  -15.6478   11.2372 H   0  0  0  0  0
   25.0480  -15.4623   10.0597 H   0  0  0  0  0
   23.9309  -14.2381    9.4082 H   0  0  0  0  0
   25.6105  -13.7931    9.7982 H   0  0  0  0  0
   23.2135  -12.3017   10.9606 H   0  0  0  0  0
   23.8306  -12.2935   12.6310 H   0  0  0  0  0
   24.9412  -12.0009   11.2701 H   0  0  0  0  0
   26.8314  -14.0350   10.3642 H   0  0  0  0  0
  1  2  2  0  0  0
  2  3  1  0  0  0
  2  7  1  0  0  0
  3  4  1  0  0  0
  3 24  2  0  0  0
  4  5  2  0  0  0
  4  6  1  0  0  0
  7  8  1  0  0  0
  7 23  1  0  0  0
  8  9  1  0  0  0
  8 19  1  0  0  0
  9 10  4  0  0  0
  9 13  4  0  0  0
 10 11  4  0  0  0
 11 12  4  0  0  0
 12 13  4  0  0  0
 12 14  4  0  0  0
 13 17  4  0  0  0
 14 15  4  0  0  0
 15 16  4  0  0  0
 16 17  4  0  0  0
 17 18  1  0  0  0
 18 19  1  0  0  0
 19 20  1  0  0  0
 20 21  1  0  0  0
 20 22  1  0  0  0
 20 23  1  0  0  0
 23 24  1  0  0  0
 24 25  1  0  0  0
  6 26  1  0  0  0
  6 27  1  0  0  0
  6 28  1  0  0  0
  7 29  1  0  0  0
  8 30  1  0  0  0
 10 31  1  0  0  0
 14 32  1  0  0  0
 15 33  1  0  0  0
 16 34  1  0  0  0
 18 35  1  0  0  0
 18 36  1  0  0  0
 19 37  1  0  0  0
 21 38  1  0  0  0
 21 39  1  0  0  0
 21 40  1  0  0  0
 22 41  1  0  0  0
 22 42  1  0  0  0
 22 43  1  0  0  0
 25 44  1  0  0  0
M  END
$$$$
