5flq_ligand
  -I-interpret- 

 32 33  0  0  0  0  0  0  0  0999 V2000
   -0.4400    9.2610   14.4440 C   0  0  0  0  0
   -0.1850    8.5990   13.2600 C   0  0  0  0  0
   -1.0970    7.6930   12.7660 C   0  0  0  0  0
   -2.2740    7.4270   13.4370 C   0  0  0  0  0
   -2.5150    8.0950   14.6170 C   0  0  0  0  0
   -1.6060    9.0020   15.1230 C   0  0  0  0  0
   -3.2210    6.4380   12.8260 C   0  0  0  0  0
   -4.5040    6.3250   13.4750 O   0  0  0  0  0
   -4.7120    5.2610   14.3430 C   0  0  0  0  0
   -3.7880    4.2860   14.6580 C   0  0  0  0  0
   -4.1360    3.2870   15.5430 C   0  0  0  0  0
   -5.3750    3.2230   16.1380 C   0  0  0  0  0
   -6.2970    4.2000   15.8190 C   0  0  0  0  0
   -5.9600    5.2010   14.9220 C   0  0  0  0  0
   -5.6520    2.1060   17.1250 C   0  0  0  0  0
   -6.3420    0.9770   16.4380 C   0  0  0  0  0
   -5.6280    0.0120   15.9630 O   0  0  0  0  0
   -7.5800    1.1730   16.4480 O   0  0  0  0  0
    0.2768    9.9823   14.8365 H   0  0  0  0  0
    0.7390    8.7935   12.7155 H   0  0  0  0  0
   -0.8860    7.1771   11.8293 H   0  0  0  0  0
   -3.4400    7.9040   15.1610 H   0  0  0  0  0
   -1.8135    9.5136   16.0628 H   0  0  0  0  0
   -2.7447    5.4609   12.9072 H   0  0  0  0  0
   -3.4160    6.7815   11.8101 H   0  0  0  0  0
   -2.7935    4.3050   14.2122 H   0  0  0  0  0
   -3.4007    2.5181   15.7803 H   0  0  0  0  0
   -7.2883    4.1839   16.2720 H   0  0  0  0  0
   -6.7008    5.9594   14.6685 H   0  0  0  0  0
   -6.2906    2.4836   17.9235 H   0  0  0  0  0
   -4.7080    1.7508   17.5383 H   0  0  0  0  0
   -4.6998    0.1882   16.1335 H   0  0  0  0  0
  1  2  4  0  0  0
  1  6  4  0  0  0
  2  3  4  0  0  0
  3  4  4  0  0  0
  4  5  4  0  0  0
  4  7  1  0  0  0
  5  6  4  0  0  0
  7  8  1  0  0  0
  8  9  1  0  0  0
  9 10  4  0  0  0
  9 14  4  0  0  0
 10 11  4  0  0  0
 11 12  4  0  0  0
 12 13  4  0  0  0
 12 15  1  0  0  0
 13 14  4  0  0  0
 15 16  1  0  0  0
 16 17  1  0  0  0
 16 18  2  0  0  0
  1 19  1  0  0  0
  2 20  1  0  0  0
  3 21  1  0  0  0
  5 22  1  0  0  0
  6 23  1  0  0  0
  7 24  1  0  0  0
  7 25  1  0  0  0
 10 26  1  0  0  0
 11 27  1  0  0  0
 13 28  1  0  0  0
 14 29  1  0  0  0
 15 30  1  0  0  0
 15 31  1  0  0  0
 17 32  1  0  0  0
M  END
$$$$
