3f5p_ligand
  -I-interpret- 

 68 71  0  0  0  0  0  0  0  0999 V2000
   84.2180   51.7900  148.1120 C   0  0  0  0  0
   84.5920   52.5290  146.9690 C   0  0  0  0  0
   83.7380   52.6000  145.8500 C   0  0  0  0  0
   82.4970   51.9500  145.8910 C   0  0  0  0  0
   82.0920   51.2120  147.0640 C   0  0  0  0  0
   82.9670   51.1500  148.1660 C   0  0  0  0  0
   81.6680   52.0260  144.8010 N   0  0  0  0  0
   80.4900   51.4190  144.8160 C   0  0  0  0  0
   80.0320   50.6840  145.9210 C   0  0  0  0  0
   80.8170   50.5670  147.0880 C   0  0  0  0  0
   85.0180   51.6900  149.2500 O   0  0  0  0  0
   85.8610   53.1040  146.9640 O   0  0  0  0  0
   86.6000   53.4220  145.7800 C   0  0  0  0  0
   87.0770   54.8470  146.1100 C   0  0  0  0  0
   87.4430   55.3100  147.5310 C   0  0  0  0  0
   85.6960   52.8910  149.6060 C   0  0  0  0  0
   80.4420   49.8530  148.2280 N   0  0  0  0  0
   79.7320   48.6650  148.1990 C   0  0  0  0  0
   78.7720   48.4130  149.1990 C   0  0  0  0  0
   78.0160   47.2270  149.2160 C   0  0  0  0  0
   78.2130   46.2710  148.2180 C   0  0  0  0  0
   79.1650   46.5150  147.2190 C   0  0  0  0  0
   79.9240   47.6960  147.1960 C   0  0  0  0  0
   79.3910   45.3060  145.9930 Cl  0  0  0  0  0
   77.2430   44.7580  148.2400 S   0  0  0  0  0
   75.9520   45.0590  149.4420 C   0  0  0  0  0
   76.1290   44.8910  150.7640 N   0  0  0  0  0
   74.9200   45.2840  151.2500 C   0  0  0  0  0
   74.0810   45.6690  150.1800 C   0  0  0  0  0
   74.7740   45.5320  149.0180 N   0  0  0  0  0
   74.3500   45.7830  147.6400 C   0  0  0  0  0
   78.7080   50.1590  145.8030 C   0  0  0  0  0
   77.5920   49.8520  145.7560 N   0  0  0  0  0
   88.6150   56.2000  147.3570 N   0  3  0  0  0
   88.5500   57.5800  147.8840 C   0  0  0  0  0
   89.9380   55.5500  147.4100 C   0  0  0  0  0
   89.9330   58.2670  147.8840 C   0  0  0  0  0
   90.8250   57.6850  148.8560 O   0  0  0  0  0
   84.0397   53.1549  144.9616 H   0  0  0  0  0
   82.6737   50.6045  149.0630 H   0  0  0  0  0
   79.8515   51.4933  143.9357 H   0  0  0  0  0
   86.0162   53.3524  144.8622 H   0  0  0  0  0
   87.4086   52.7242  145.5625 H   0  0  0  0  0
   86.2072   55.4583  145.8696 H   0  0  0  0  0
   88.0255   54.9173  145.5776 H   0  0  0  0  0
   87.6704   54.4670  148.1836 H   0  0  0  0  0
   86.6128   55.8263  148.0131 H   0  0  0  0  0
   86.3475   53.1954  148.7869 H   0  0  0  0  0
   84.9647   53.6754  149.8011 H   0  0  0  0  0
   86.2928   52.7180  150.5015 H   0  0  0  0  0
   80.7075   50.2299  149.1378 H   0  0  0  0  0
   78.6110   49.1564  149.9797 H   0  0  0  0  0
   77.2815   47.0556  150.0029 H   0  0  0  0  0
   80.6572   47.8615  146.4066 H   0  0  0  0  0
   74.6414   45.2994  152.3037 H   0  0  0  0  0
   73.0521   46.0170  150.2708 H   0  0  0  0  0
   75.0166   46.5148  147.1837 H   0  0  0  0  0
   74.3884   44.8522  147.0741 H   0  0  0  0  0
   73.3304   46.1683  147.6394 H   0  0  0  0  0
   88.4943   56.4099  146.3661 H   0  0  0  0  0
   88.1926   57.5348  148.9128 H   0  0  0  0  0
   87.8833   58.1576  147.2437 H   0  0  0  0  0
   90.0660   55.0680  148.3792 H   0  0  0  0  0
   90.0062   54.8028  146.6194 H   0  0  0  0  0
   90.7160   56.3006  147.2704 H   0  0  0  0  0
   89.7917   59.3178  148.1371 H   0  0  0  0  0
   90.3762   58.1411  146.8962 H   0  0  0  0  0
   91.6706   58.1383  148.8245 H   0  0  0  0  0
  1  2  4  0  0  0
  1  6  4  0  0  0
  1 11  1  0  0  0
  2  3  4  0  0  0
  2 12  1  0  0  0
  3  4  4  0  0  0
  4  5  4  0  0  0
  4  7  4  0  0  0
  5  6  4  0  0  0
  5 10  4  0  0  0
  7  8  4  0  0  0
  8  9  4  0  0  0
  9 10  4  0  0  0
  9 32  1  0  0  0
 10 17  1  0  0  0
 11 16  1  0  0  0
 12 13  1  0  0  0
 13 14  1  0  0  0
 14 15  1  0  0  0
 15 34  1  0  0  0
 17 18  1  0  0  0
 18 19  4  0  0  0
 18 23  4  0  0  0
 19 20  4  0  0  0
 20 21  4  0  0  0
 21 22  4  0  0  0
 21 25  1  0  0  0
 22 23  4  0  0  0
 22 24  1  0  0  0
 25 26  1  0  0  0
 26 27  4  0  0  0
 26 30  4  0  0  0
 27 28  4  0  0  0
 28 29  4  0  0  0
 29 30  4  0  0  0
 30 31  1  0  0  0
 32 33  3  0  0  0
 34 35  1  0  0  0
 34 36  1  0  0  0
 35 37  1  0  0  0
 37 38  1  0  0  0
  3 39  1  0  0  0
  6 40  1  0  0  0
  8 41  1  0  0  0
 13 42  1  0  0  0
 13 43  1  0  0  0
 14 44  1  0  0  0
 14 45  1  0  0  0
 15 46  1  0  0  0
 15 47  1  0  0  0
 16 48  1  0  0  0
 16 49  1  0  0  0
 16 50  1  0  0  0
 17 51  1  0  0  0
 19 52  1  0  0  0
 20 53  1  0  0  0
 23 54  1  0  0  0
 28 55  1  0  0  0
 29 56  1  0  0  0
 31 57  1  0  0  0
 31 58  1  0  0  0
 31 59  1  0  0  0
 34 60  1  0  0  0
 35 61  1  0  0  0
 35 62  1  0  0  0
 36 63  1  0  0  0
 36 64  1  0  0  0
 36 65  1  0  0  0
 37 66  1  0  0  0
 37 67  1  0  0  0
 38 68  1  0  0  0
M  END
$$$$
