5hdu_ligand
  -I-interpret- 

 54 58  0  0  0  0  0  0  0  0999 V2000
   25.3180   10.9940   19.9840 C   0  0  0  0  0
   24.3830   10.5210   21.0050 C   0  0  0  0  0
   23.0900   10.7310   20.6410 C   0  0  0  0  0
   21.8610   10.3830   21.4480 C   0  0  0  0  0
   22.5180   10.0450   23.8010 C   0  0  0  0  0
   23.0270   11.9810   25.2520 C   0  0  0  0  0
   21.1020   11.6450   21.9660 C   0  0  0  0  0
   18.3670    9.5800   20.8250 C   0  0  0  0  0
   17.2890    8.3340   19.2600 C   0  0  0  0  0
   18.5470    7.4290   17.4640 C   0  0  0  0  0
   16.0730    8.6070   19.8660 C   0  0  0  0  0
   16.1110    9.4260   20.9940 C   0  0  0  0  0
   26.7970   11.0140   20.1660 C   0  0  0  0  0
   27.3620   10.4030   21.2830 C   0  0  0  0  0
   28.9820   11.8480   19.5400 C   0  0  0  0  0
   27.6220   11.7310   19.2890 C   0  0  0  0  0
   29.2810    9.9540   22.7330 C   0  0  0  0  0
   29.6930    9.4720   23.6800 N   0  0  0  0  0
   28.7250   10.5350   21.5400 C   0  0  0  0  0
   29.5390   11.2590   20.6640 C   0  0  0  0  0
   24.6440   11.5190   18.8990 C   0  0  0  0  0
   22.9510   11.4890   19.0950 S   0  0  0  0  0
   20.7630    9.7730   20.5600 C   0  0  0  0  0
   19.5510    9.9960   21.3460 N   0  0  0  0  0
   19.6900   11.1180   22.2770 C   0  0  0  0  0
   21.7460   12.2530   23.1970 C   0  0  0  0  0
   21.5780   13.4280   23.4730 O   0  0  0  0  0
   22.4680   11.4080   24.0180 N   0  0  0  0  0
   22.8990    9.2960   24.7780 N   0  0  0  0  0
   22.1490    9.5290   22.6210 N   0  0  0  0  0
   17.2560    9.9210   21.4880 N   0  0  0  0  0
   14.9320    8.1050   19.3510 F   0  0  0  0  0
   18.4300    8.8080   19.7260 N   0  0  0  0  0
   17.2970    7.5760   18.1500 O   0  0  0  0  0
   24.6862   10.0567   21.9434 H   0  0  0  0  0
   22.5100   11.5589   26.1138 H   0  0  0  0  0
   24.0893   11.7444   25.3122 H   0  0  0  0  0
   22.8944   13.0629   25.2413 H   0  0  0  0  0
   21.1092   12.4514   21.2326 H   0  0  0  0  0
   18.9049    8.4094   17.1495 H   0  0  0  0  0
   19.2759    6.9723   18.1335 H   0  0  0  0  0
   18.4074    6.7939   16.5892 H   0  0  0  0  0
   15.1744    9.6736   21.4936 H   0  0  0  0  0
   26.7358    9.8198   21.9582 H   0  0  0  0  0
   29.6150   12.4058   18.8498 H   0  0  0  0  0
   27.1927   12.2000   18.4037 H   0  0  0  0  0
   30.6058   11.3597   20.8639 H   0  0  0  0  0
   25.1416   11.9108   18.0119 H   0  0  0  0  0
   20.9352    8.7206   20.3345 H   0  0  0  0  0
   20.7166   10.2269   19.5701 H   0  0  0  0  0
   18.9164   11.8750   22.1481 H   0  0  0  0  0
   19.5670   10.8228   23.3190 H   0  0  0  0  0
   23.1509    9.7146   25.6734 H   0  0  0  0  0
   22.0641    8.5167   22.5286 H   0  0  0  0  0
  2  1  4  0  0  0
  1 13  1  0  0  0
 21  1  4  0  0  0
  3  2  4  0  0  0
  4  3  1  0  0  0
  3 22  4  0  0  0
  4  7  1  0  0  0
 23  4  1  0  0  0
  4 30  1  0  0  0
  5 28  4  0  0  0
  5 29  2  0  0  0
 30  5  1  0  0  0
 28  6  1  0  0  0
  7 25  1  0  0  0
  7 26  1  0  0  0
 24  8  1  0  0  0
  8 31  4  0  0  0
  8 33  4  0  0  0
  9 11  4  0  0  0
 33  9  4  0  0  0
  9 34  1  0  0  0
 34 10  1  0  0  0
 12 11  4  0  0  0
 11 32  1  0  0  0
 31 12  4  0  0  0
 13 14  4  0  0  0
 13 16  4  0  0  0
 14 19  4  0  0  0
 16 15  4  0  0  0
 15 20  4  0  0  0
 17 18  3  0  0  0
 19 17  1  0  0  0
 19 20  4  0  0  0
 22 21  4  0  0  0
 23 24  1  0  0  0
 24 25  1  0  0  0
 26 27  2  0  0  0
 26 28  1  0  0  0
  2 35  1  0  0  0
  6 36  1  0  0  0
  6 37  1  0  0  0
  6 38  1  0  0  0
  7 39  1  0  0  0
 10 40  1  0  0  0
 10 41  1  0  0  0
 10 42  1  0  0  0
 12 43  1  0  0  0
 14 44  1  0  0  0
 15 45  1  0  0  0
 16 46  1  0  0  0
 20 47  1  0  0  0
 21 48  1  0  0  0
 23 49  1  0  0  0
 23 50  1  0  0  0
 25 51  1  0  0  0
 25 52  1  0  0  0
 29 53  1  0  0  0
 30 54  1  0  0  0
M  END
$$$$
