1leg_ligand
  -I-interpret- 

148150  0  0  0  0  0  0  0  0999 V2000
   49.7140   56.6420    4.6090 N   0  3  0  0  0
   48.4610   57.3230    4.1650 C   0  0  0  0  0
   48.0650   56.9230    2.7550 C   0  0  0  0  0
   48.9150   56.6810    1.8880 O   0  0  0  0  0
   48.6210   58.8390    4.2150 C   0  0  0  0  0
   48.5630   59.3670    5.6080 C   0  0  0  0  0
   47.9900   60.7570    5.6700 C   0  0  0  0  0
   48.2150   61.5460    4.7240 O   0  0  0  0  0
   47.3100   61.0520    6.6730 O   0  0  0  0  0
   46.7570   56.8930    2.5380 N   0  0  0  0  0
   46.1770   56.5150    1.2640 C   0  0  0  0  0
   46.1680   57.6660    0.2610 C   0  0  0  0  0
   46.2880   58.8390    0.6140 O   0  0  0  0  0
   44.7490   56.0090    1.5230 C   0  0  0  0  0
   43.8990   55.7190    0.2910 C   0  0  0  0  0
   44.3600   54.5000   -0.4410 C   0  0  0  0  0
   43.7520   53.4280   -0.3470 O   0  0  0  0  0
   45.4530   54.6450   -1.1830 N   0  0  0  0  0
   46.0170   57.3060   -1.0050 N   0  0  0  0  0
   45.9430   58.2700   -2.0930 C   0  0  0  0  0
   44.4870   58.7440   -2.2620 C   0  0  0  0  0
   43.5590   58.0100   -1.9400 O   0  0  0  0  0
   46.4060   57.5770   -3.3710 C   0  0  0  0  0
   46.4970   58.4690   -4.5850 C   0  0  0  0  0
   47.3050   59.6090   -4.5860 C   0  0  0  0  0
   45.8080   58.1450   -5.7550 C   0  0  0  0  0
   47.4230   60.4020   -5.7280 C   0  0  0  0  0
   45.9180   58.9280   -6.8980 C   0  0  0  0  0
   46.7300   60.0540   -6.8880 C   0  0  0  0  0
   46.8590   60.8070   -8.0430 O   0  0  0  0  0
   44.2860   59.9740   -2.7340 N   0  0  0  0  0
   42.9340   60.4820   -3.0010 C   0  0  0  0  0
   42.6290   60.0740   -4.4410 C   0  0  0  0  0
   43.2050   60.6050   -5.3800 O   0  0  0  0  0
   42.8480   61.9740   -2.6720 C   0  0  0  0  0
   42.8440   62.2820   -1.1840 C   0  0  0  0  0
   42.9370   63.7780   -0.9290 C   0  0  0  0  0
   42.1330   64.5630   -1.9530 C   0  0  0  0  0
   40.8150   64.9940   -1.4110 N   0  3  0  0  0
   41.7460   59.1080   -4.6330 N   0  0  0  0  0
   41.4290   58.6720   -5.9950 C   0  0  0  0  0
   40.3660   59.5550   -6.6260 C   0  0  0  0  0
   39.4450   60.0310   -5.9500 O   0  0  0  0  0
   40.9200   57.2170   -5.9990 C   0  0  0  0  0
   41.9530   56.2180   -5.6030 C   0  0  0  0  0
   42.1690   55.9120   -4.2590 C   0  0  0  0  0
   42.7450   55.6070   -6.5690 C   0  0  0  0  0
   43.1820   55.0090   -3.8880 C   0  0  0  0  0
   43.7470   54.7160   -6.2110 C   0  0  0  0  0
   43.9670   54.4180   -4.8700 C   0  0  0  0  0
   40.4970   59.7890   -7.9230 N   0  0  0  0  0
   39.4880   60.5650   -8.6420 C   0  0  0  0  0
   38.7480   59.6150   -9.5460 C   0  0  0  0  0
   38.2780   58.5860   -9.0350 O   0  0  0  0  0
   40.1110   61.7730   -9.3230 C   0  0  0  0  0
   40.5540   62.8400   -8.3220 C   0  0  0  0  0
   40.1760   62.7600   -6.9790 C   0  0  0  0  0
   41.3540   63.9150   -8.7100 C   0  0  0  0  0
   40.5790   63.7150   -6.0520 C   0  0  0  0  0
   41.7670   64.8870   -7.7800 C   0  0  0  0  0
   41.3720   64.7800   -6.4550 C   0  0  0  0  0
   41.7740   65.7160   -5.5380 O   0  0  0  0  0
   38.5800   59.8680  -10.7910 N   0  0  0  0  0
   37.7690   58.8880  -11.3650 C   0  0  0  0  0
   38.2370   58.4930  -12.7050 C   0  0  0  0  0
   39.0100   59.1760  -13.3690 O   0  0  0  0  0
   36.3330   59.3880  -11.5050 C   0  0  0  0  0
   36.2470   60.4880  -12.3930 O   0  0  0  0  0
   37.7460   57.3510  -13.1460 N   0  0  0  0  0
   38.0590   56.8120  -14.4550 C   0  0  0  0  0
   37.0590   57.3160  -15.4840 C   0  0  0  0  0
   36.5410   58.0890  -15.6750 O   0  0  0  0  0
   38.0530   55.2840  -14.4640 C   0  0  0  0  0
   38.4760   54.7460  -13.1000 C   0  0  0  0  0
   36.6700   54.7540  -14.8410 C   0  0  0  0  0
   38.3540   57.3020  -16.6310 O   0  0  0  0  0
   49.5833   55.6313    4.5672 H   0  0  0  0  0
   50.4824   56.9124    3.9951 H   0  0  0  0  0
   49.9290   56.9189    5.5669 H   0  0  0  0  0
   47.6764   57.0076    4.8528 H   0  0  0  0  0
   47.8027   59.2848    3.6495 H   0  0  0  0  0
   49.5960   59.0906    3.7978 H   0  0  0  0  0
   49.5802   59.4034    5.9979 H   0  0  0  0  0
   47.9184   58.7097    6.1916 H   0  0  0  0  0
   48.7575   61.1070    4.0648 H   0  0  0  0  0
   46.1307   57.1473    3.3019 H   0  0  0  0  0
   46.7889   55.7311    0.8177 H   0  0  0  0  0
   44.2383   56.8067    2.0623 H   0  0  0  0  0
   44.8547   55.0597    2.0482 H   0  0  0  0  0
   43.9805   56.5705   -0.3845 H   0  0  0  0  0
   42.8737   55.5490    0.6195 H   0  0  0  0  0
   45.8236   53.8513   -1.7056 H   0  0  0  0  0
   45.9212   55.5500   -1.2299 H   0  0  0  0  0
   45.9498   56.3126   -1.2263 H   0  0  0  0  0
   46.5735   59.1332   -1.8798 H   0  0  0  0  0
   45.6650   56.8108   -3.5990 H   0  0  0  0  0
   47.4120   57.2039   -3.1792 H   0  0  0  0  0
   47.8503   59.8824   -3.6827 H   0  0  0  0  0
   45.1712   57.2605   -5.7725 H   0  0  0  0  0
   48.0544   61.2904   -5.7140 H   0  0  0  0  0
   45.3682   58.6587   -7.7998 H   0  0  0  0  0
   46.3151   60.4245   -8.7354 H   0  0  0  0  0
   45.0893   60.5763   -2.9139 H   0  0  0  0  0
   42.1577   60.0592   -2.3633 H   0  0  0  0  0
   41.9058   62.3403   -3.0797 H   0  0  0  0  0
   43.7318   62.4495   -3.0974 H   0  0  0  0  0
   43.7072   61.7979   -0.7272 H   0  0  0  0  0
   41.9112   61.9145   -0.7562 H   0  0  0  0  0
   43.9821   64.0787   -1.0034 H   0  0  0  0  0
   42.5351   63.9870    0.0624 H   0  0  0  0  0
   41.9546   63.9192   -2.8143 H   0  0  0  0  0
   42.6998   65.4541   -2.2227 H   0  0  0  0  0
   40.3086   65.5156   -2.1265 H   0  0  0  0  0
   40.2745   64.1721   -1.1412 H   0  0  0  0  0
   40.9621   65.5885   -0.5953 H   0  0  0  0  0
   41.2873   58.6681   -3.8352 H   0  0  0  0  0
   42.3495   58.7456   -6.5742 H   0  0  0  0  0
   40.6142   56.9821   -7.0185 H   0  0  0  0  0
   40.1105   57.1535   -5.2719 H   0  0  0  0  0
   41.5490   56.3755   -3.4916 H   0  0  0  0  0
   42.5764   55.8311   -7.6223 H   0  0  0  0  0
   43.3498   54.7746   -2.8368 H   0  0  0  0  0
   44.3618   54.2495   -6.9807 H   0  0  0  0  0
   44.7560   53.7202   -4.5896 H   0  0  0  0  0
   41.3077   59.4252   -8.4238 H   0  0  0  0  0
   38.7532   61.0083   -7.9700 H   0  0  0  0  0
   39.3610   62.2154   -9.9786 H   0  0  0  0  0
   40.9918   61.4359   -9.8694 H   0  0  0  0  0
   39.5508   61.9298   -6.6505 H   0  0  0  0  0
   41.6644   64.0035   -9.7511 H   0  0  0  0  0
   40.2722   63.6271   -5.0098 H   0  0  0  0  0
   42.3940   65.7195   -8.0994 H   0  0  0  0  0
   42.3118   66.3803   -5.9752 H   0  0  0  0  0
   38.9787   60.6650  -11.2873 H   0  0  0  0  0
   37.8161   58.0271  -10.6981 H   0  0  0  0  0
   35.9837   59.7098  -10.5239 H   0  0  0  0  0
   35.7235   58.5765  -11.9026 H   0  0  0  0  0
   35.3333   60.7755  -12.4569 H   0  0  0  0  0
   37.1182   56.8237  -12.5392 H   0  0  0  0  0
   39.0635   57.1518  -14.7073 H   0  0  0  0  0
   38.7674   54.9397  -15.2118 H   0  0  0  0  0
   39.4813   55.0976  -12.8680 H   0  0  0  0  0
   37.7809   55.1012  -12.3393 H   0  0  0  0  0
   38.4669   53.6563  -13.1219 H   0  0  0  0  0
   35.9370   55.1064  -14.1153 H   0  0  0  0  0
   36.4024   55.1147  -15.8342 H   0  0  0  0  0
   36.6877   53.6641  -14.8415 H   0  0  0  0  0
   38.9085   56.5337  -16.4766 H   0  0  0  0  0
  1  2  1  0  0  0
  2  3  1  0  0  0
  2  5  1  0  0  0
  3  4  2  0  0  0
  3 10  1  0  0  0
  5  6  1  0  0  0
  6  7  1  0  0  0
  7  8  1  0  0  0
  7  9  2  0  0  0
 10 11  1  0  0  0
 11 12  1  0  0  0
 11 14  1  0  0  0
 12 13  2  0  0  0
 12 19  1  0  0  0
 14 15  1  0  0  0
 15 16  1  0  0  0
 16 17  2  0  0  0
 16 18  1  0  0  0
 19 20  1  0  0  0
 20 21  1  0  0  0
 20 23  1  0  0  0
 21 22  2  0  0  0
 21 31  1  0  0  0
 23 24  1  0  0  0
 24 25  4  0  0  0
 24 26  4  0  0  0
 25 27  4  0  0  0
 26 28  4  0  0  0
 27 29  4  0  0  0
 28 29  4  0  0  0
 29 30  1  0  0  0
 31 32  1  0  0  0
 32 33  1  0  0  0
 32 35  1  0  0  0
 33 34  2  0  0  0
 33 40  1  0  0  0
 35 36  1  0  0  0
 36 37  1  0  0  0
 37 38  1  0  0  0
 38 39  1  0  0  0
 40 41  1  0  0  0
 41 42  1  0  0  0
 41 44  1  0  0  0
 42 43  2  0  0  0
 42 51  1  0  0  0
 44 45  1  0  0  0
 45 46  4  0  0  0
 45 47  4  0  0  0
 46 48  4  0  0  0
 47 49  4  0  0  0
 48 50  4  0  0  0
 49 50  4  0  0  0
 51 52  1  0  0  0
 52 53  1  0  0  0
 52 55  1  0  0  0
 53 54  2  0  0  0
 53 63  1  0  0  0
 55 56  1  0  0  0
 56 57  4  0  0  0
 56 58  4  0  0  0
 57 59  4  0  0  0
 58 60  4  0  0  0
 59 61  4  0  0  0
 60 61  4  0  0  0
 61 62  1  0  0  0
 63 64  1  0  0  0
 64 65  1  0  0  0
 64 67  1  0  0  0
 65 66  2  0  0  0
 65 69  1  0  0  0
 67 68  1  0  0  0
 69 70  1  0  0  0
 70 71  1  0  0  0
 70 73  1  0  0  0
 71 72  2  0  0  0
 71 76  1  0  0  0
 73 74  1  0  0  0
 73 75  1  0  0  0
  1 77  1  0  0  0
  1 78  1  0  0  0
  1 79  1  0  0  0
  2 80  1  0  0  0
  5 81  1  0  0  0
  5 82  1  0  0  0
  6 83  1  0  0  0
  6 84  1  0  0  0
  8 85  1  0  0  0
 10 86  1  0  0  0
 11 87  1  0  0  0
 14 88  1  0  0  0
 14 89  1  0  0  0
 15 90  1  0  0  0
 15 91  1  0  0  0
 18 92  1  0  0  0
 18 93  1  0  0  0
 19 94  1  0  0  0
 20 95  1  0  0  0
 23 96  1  0  0  0
 23 97  1  0  0  0
 25 98  1  0  0  0
 26 99  1  0  0  0
 27100  1  0  0  0
 28101  1  0  0  0
 30102  1  0  0  0
 31103  1  0  0  0
 32104  1  0  0  0
 35105  1  0  0  0
 35106  1  0  0  0
 36107  1  0  0  0
 36108  1  0  0  0
 37109  1  0  0  0
 37110  1  0  0  0
 38111  1  0  0  0
 38112  1  0  0  0
 39113  1  0  0  0
 39114  1  0  0  0
 39115  1  0  0  0
 40116  1  0  0  0
 41117  1  0  0  0
 44118  1  0  0  0
 44119  1  0  0  0
 46120  1  0  0  0
 47121  1  0  0  0
 48122  1  0  0  0
 49123  1  0  0  0
 50124  1  0  0  0
 51125  1  0  0  0
 52126  1  0  0  0
 55127  1  0  0  0
 55128  1  0  0  0
 57129  1  0  0  0
 58130  1  0  0  0
 59131  1  0  0  0
 60132  1  0  0  0
 62133  1  0  0  0
 63134  1  0  0  0
 64135  1  0  0  0
 67136  1  0  0  0
 67137  1  0  0  0
 68138  1  0  0  0
 69139  1  0  0  0
 70140  1  0  0  0
 73141  1  0  0  0
 74142  1  0  0  0
 74143  1  0  0  0
 74144  1  0  0  0
 75145  1  0  0  0
 75146  1  0  0  0
 75147  1  0  0  0
 76148  1  0  0  0
M  END
$$$$
