### 
### Created by X-TOOL on Mon Sep 10 21:12:49 2018
### 

@<TRIPOS>MOLECULE
1leg_ligand
  146   148     1     0     0
SMALL
GAST_HUCK


@<TRIPOS>ATOM
      1 N          49.7140   56.6420    4.6090 N.4       1 GLU         0.2380
      2 CA         48.4610   57.3230    4.1650 C.3       1 GLU         0.0665
      3 C          48.0650   56.9230    2.7550 C.2       1 GLU         0.2268
      4 O          48.9150   56.6810    1.8880 O.2       1 GLU        -0.3907
      5 CB         48.6210   58.8390    4.2150 C.3       1 GLU         0.0194
      6 CG         48.5630   59.3670    5.6080 C.3       1 GLU         0.0075
      7 CD         47.9900   60.7570    5.6700 C.2       1 GLU         0.0351
      8 OE1        48.2150   61.5460    4.7240 O.co2     1 GLU        -0.5690
      9 OE2        47.3100   61.0520    6.6730 O.co2     1 GLU        -0.5690
     10 N          46.7570   56.8930    2.5380 N.am      1 GLN        -0.2609
     11 CA         46.1770   56.5150    1.2640 C.3       1 GLN         0.1331
     12 C          46.1680   57.6660    0.2610 C.2       1 GLN         0.2042
     13 O          46.2880   58.8390    0.6140 O.2       1 GLN        -0.3944
     14 CB         44.7490   56.0090    1.5230 C.3       1 GLN         0.0045
     15 CG         43.8990   55.7190    0.2910 C.3       1 GLN         0.0412
     16 CD         44.3600   54.5000   -0.4410 C.2       1 GLN         0.1737
     17 OE1        43.7520   53.4280   -0.3470 O.2       1 GLN        -0.3973
     18 NE2        45.4530   54.6450   -1.1830 N.am      1 GLN        -0.3009
     19 N          46.0170   57.3060   -1.0050 N.am      1 TYR        -0.2621
     20 CA         45.9430   58.2700   -2.0930 C.3       1 TYR         0.1390
     21 C          44.4870   58.7440   -2.2620 C.2       1 TYR         0.2057
     22 O          43.5590   58.0100   -1.9400 O.2       1 TYR        -0.3942
     23 CB         46.4060   57.5770   -3.3710 C.3       1 TYR         0.0163
     24 CG         46.4970   58.4690   -4.5850 C.ar      1 TYR        -0.0493
     25 CD1        47.3050   59.6090   -4.5860 C.ar      1 TYR        -0.0685
     26 CD2        45.8080   58.1450   -5.7550 C.ar      1 TYR        -0.0685
     27 CE1        47.4230   60.4020   -5.7280 C.ar      1 TYR        -0.0398
     28 CE2        45.9180   58.9280   -6.8980 C.ar      1 TYR        -0.0398
     29 CZ         46.7300   60.0540   -6.8880 C.ar      1 TYR         0.0805
     30 OH         46.8590   60.8070   -8.0430 O.3       1 TYR        -0.3376
     31 N          44.2860   59.9740   -2.7340 N.am      1 LYS        -0.2636
     32 CA         42.9340   60.4820   -3.0010 C.3       1 LYS         0.1310
     33 C          42.6290   60.0740   -4.4410 C.2       1 LYS         0.2040
     34 O          43.2050   60.6050   -5.3800 O.2       1 LYS        -0.3944
     35 CB         42.8480   61.9740   -2.6720 C.3       1 LYS        -0.0122
     36 CG         42.8440   62.2820   -1.1840 C.3       1 LYS        -0.0440
     37 CD         42.9370   63.7780   -0.9290 C.3       1 LYS        -0.0124
     38 CE         42.1330   64.5630   -1.9530 C.3       1 LYS        -0.0354
     39 NZ         40.8150   64.9940   -1.4110 N.4       1 LYS         0.2185
     40 N          41.7460   59.1080   -4.6330 N.am      1 PHE        -0.2619
     41 CA         41.4290   58.6720   -5.9950 C.3       1 PHE         0.1404
     42 C          40.3660   59.5550   -6.6260 C.2       1 PHE         0.2061
     43 O          39.4450   60.0310   -5.9500 O.2       1 PHE        -0.3942
     44 CB         40.9200   57.2170   -5.9990 C.3       1 PHE         0.0214
     45 CG         41.9530   56.2180   -5.6030 C.ar      1 PHE        -0.0386
     46 CD1        42.1690   55.9120   -4.2590 C.ar      1 PHE        -0.0601
     47 CD2        42.7450   55.6070   -6.5690 C.ar      1 PHE        -0.0601
     48 CE1        43.1820   55.0090   -3.8880 C.ar      1 PHE        -0.0686
     49 CE2        43.7470   54.7160   -6.2110 C.ar      1 PHE        -0.0686
     50 CZ         43.9670   54.4180   -4.8700 C.ar      1 PHE        -0.0687
     51 N          40.4970   59.7890   -7.9230 N.am      1 TYR        -0.2620
     52 CA         39.4880   60.5650   -8.6420 C.3       1 TYR         0.1390
     53 C          38.7480   59.6150   -9.5460 C.2       1 TYR         0.2058
     54 O          38.2780   58.5860   -9.0350 O.2       1 TYR        -0.3942
     55 CB         40.1110   61.7730   -9.3230 C.3       1 TYR         0.0163
     56 CG         40.5540   62.8400   -8.3220 C.ar      1 TYR        -0.0493
     57 CD1        40.1760   62.7600   -6.9790 C.ar      1 TYR        -0.0685
     58 CD2        41.3540   63.9150   -8.7100 C.ar      1 TYR        -0.0685
     59 CE1        40.5790   63.7150   -6.0520 C.ar      1 TYR        -0.0398
     60 CE2        41.7670   64.8870   -7.7800 C.ar      1 TYR        -0.0398
     61 CZ         41.3720   64.7800   -6.4550 C.ar      1 TYR         0.0805
     62 OH         41.7740   65.7160   -5.5380 O.3       1 TYR        -0.3376
     63 N          38.5800   59.8680  -10.7910 N.am      1 SER        -0.2614
     64 CA         37.7690   58.8880  -11.3650 C.3       1 SER         0.1539
     65 C          38.2370   58.4930  -12.7050 C.2       1 SER         0.2056
     66 O          39.0100   59.1760  -13.3690 O.2       1 SER        -0.3943
     67 CB         36.3330   59.3880  -11.5050 C.3       1 SER         0.0843
     68 OG         36.2470   60.4880  -12.3930 O.3       1 SER        -0.3903
     69 N          37.7460   57.3510  -13.1460 N.am      1 VAL        -0.2692
     70 CA         38.0590   56.8120  -14.4550 C.3       1 VAL         0.0967
     71 C          37.0590   57.3160  -15.4840 C.2       1 VAL         0.0603
     72 O          36.5410   58.0890  -15.6750 O.co2     1 VAL        -0.5666
     73 CB         38.0530   55.2840  -14.4640 C.3       1 VAL        -0.0118
     74 CG1        38.4760   54.7460  -13.1000 C.3       1 VAL        -0.0590
     75 CG2        36.6700   54.7540  -14.8410 C.3       1 VAL        -0.0590
     76 OXT        38.3540   57.3020  -16.6310 O.co2     1 VAL        -0.5666
     77 H1         49.9409   56.9341    5.5467 H         1 GLU         0.2015
     78 H2         50.4688   56.8890    3.9882 H         1 GLU         0.2015
     79 H3         49.5779   55.6434    4.5918 H         1 GLU         0.2015
     80 H4         47.6523   57.0304    4.8508 H         1 GLU         0.1099
     81 H5         47.8130   59.2998    3.6279 H         1 GLU         0.0363
     82 H6         49.5928   59.1071    3.7750 H         1 GLU         0.0363
     83 H7         49.5821   59.3861    6.0215 H         1 GLU         0.0434
     84 H8         47.9340   58.6981    6.2137 H         1 GLU         0.0434
     85 H9         46.1430   57.1423    3.2869 H         1 GLN         0.1885
     86 H10        46.7738   55.6957    0.8369 H         1 GLN         0.0801
     87 H11        44.2262   56.7722    2.1182 H         1 GLN         0.0337
     88 H12        44.8240   55.0783    2.1045 H         1 GLN         0.0337
     89 H13        43.9548   56.5821   -0.3886 H         1 GLN         0.0504
     90 H14        42.8564   55.5684    0.6078 H         1 GLN         0.0504
     91 H15        45.8142   53.8678   -1.6983 H         1 GLN         0.1814
     92 H16        45.9142   55.5313   -1.2260 H         1 GLN         0.1814
     93 H17        45.9512   56.3320   -1.2220 H         1 TYR         0.1885
     94 H18        46.5910   59.1321   -1.8767 H         1 TYR         0.0821
     95 H19        45.6967   56.7668   -3.5957 H         1 TYR         0.0453
     96 H20        47.4030   57.1507   -3.1857 H         1 TYR         0.0453
     97 H21        47.8473   59.8809   -3.6877 H         1 TYR         0.0530
     98 H22        45.1747   57.2654   -5.7724 H         1 TYR         0.0530
     99 H23        48.0510   61.2855   -5.7141 H         1 TYR         0.0525
    100 H24        45.3712   58.6602   -7.7949 H         1 TYR         0.0525
    101 H25        47.4426   61.5385   -7.8792 H         1 TYR         0.2458
    102 H26        45.0736   60.5645   -2.9104 H         1 LYS         0.1883
    103 H27        42.2172   59.9674   -2.3443 H         1 LYS         0.0800
    104 H28        41.9202   62.3713   -3.1094 H         1 LYS         0.0312
    105 H29        43.7132   62.4785   -3.1268 H         1 LYS         0.0312
    106 H30        43.7042   61.7841   -0.7127 H         1 LYS         0.0269
    107 H31        41.9119   61.9005   -0.7416 H         1 LYS         0.0269
    108 H32        43.9911   64.0868   -0.9877 H         1 LYS         0.0317
    109 H33        42.5467   63.9953    0.0762 H         1 LYS         0.0317
    110 H34        41.9644   63.9282   -2.8354 H         1 LYS         0.0813
    111 H35        42.7056   65.4550   -2.2470 H         1 LYS         0.0813
    112 H36        40.3136   65.5096   -2.1173 H         1 LYS         0.1994
    113 H37        40.9591   65.5817   -0.6048 H         1 LYS         0.1994
    114 H38        40.2799   64.1826   -1.1440 H         1 LYS         0.1994
    115 H39        41.2963   58.6767   -3.8508 H         1 PHE         0.1885
    116 H40        42.3455   58.7316   -6.6004 H         1 PHE         0.0823
    117 H41        40.5731   56.9735   -7.0141 H         1 PHE         0.0474
    118 H42        40.0775   57.1422   -5.2958 H         1 PHE         0.0474
    119 H43        41.5524   56.3729   -3.4958 H         1 PHE         0.0557
    120 H44        42.5774   55.8298   -7.6165 H         1 PHE         0.0557
    121 H45        43.3489   54.7759   -2.8426 H         1 PHE         0.0599
    122 H46        44.3584   54.2521   -6.9765 H         1 PHE         0.0599
    123 H47        44.7517   53.7240   -4.5911 H         1 PHE         0.0559
    124 H48        41.2918   59.4323   -8.4140 H         1 TYR         0.1885
    125 H49        38.7642   60.9533   -7.9103 H         1 TYR         0.0821
    126 H50        39.3706   62.2148  -10.0061 H         1 TYR         0.0453
    127 H51        40.9883   61.4415   -9.8978 H         1 TYR         0.0453
    128 H52        39.5542   61.9343   -6.6523 H         1 TYR         0.0530
    129 H53        41.6627   64.0031   -9.7454 H         1 TYR         0.0530
    130 H54        40.2739   63.6275   -5.0155 H         1 TYR         0.0525
    131 H55        42.3905   65.7149   -8.0976 H         1 TYR         0.0525
    132 H56        41.4183   65.4954   -4.6852 H         1 TYR         0.2458
    133 H57        38.9709   60.6494  -11.2775 H         1 SER         0.1884
    134 H58        37.7808   58.0045  -10.7099 H         1 SER         0.0823
    135 H59        35.9653   59.6985  -10.5159 H         1 SER         0.0606
    136 H60        35.7061   58.5697  -11.8890 H         1 SER         0.0606
    137 H61        36.7823   61.2010  -12.0649 H         1 SER         0.2097
    138 H62        37.1305   56.8340  -12.5511 H         1 VAL         0.1875
    139 H63        39.0642   57.1579  -14.7377 H         1 VAL         0.0729
    140 H64        38.7762   54.9365  -15.2165 H         1 VAL         0.0336
    141 H65        38.4672   53.6462  -13.1209 H         1 VAL         0.0234
    142 H66        37.7752   55.1037  -12.3313 H         1 VAL         0.0234
    143 H67        39.4905   55.1001  -12.8647 H         1 VAL         0.0234
    144 H68        36.3810   55.1510  -15.8253 H         1 VAL         0.0234
    145 H69        35.9363   55.0745  -14.0867 H         1 VAL         0.0234
    146 H70        36.6972   53.6551  -14.8825 H         1 VAL         0.0234
@<TRIPOS>BOND
     1    1    2 1  
     2    2    3 1  
     3    2    5 1  
     4    3    4 2  
     5    3   10 am 
     6    5    6 1  
     7    6    7 1  
     8    7    8 ar 
     9    7    9 ar 
    10   10   11 1  
    11   11   12 1  
    12   11   14 1  
    13   12   13 2  
    14   12   19 am 
    15   14   15 1  
    16   15   16 1  
    17   16   17 2  
    18   16   18 am 
    19   19   20 1  
    20   20   21 1  
    21   20   23 1  
    22   21   22 2  
    23   21   31 am 
    24   23   24 1  
    25   24   25 ar 
    26   24   26 ar 
    27   25   27 ar 
    28   26   28 ar 
    29   27   29 ar 
    30   28   29 ar 
    31   29   30 1  
    32   31   32 1  
    33   32   33 1  
    34   32   35 1  
    35   33   34 2  
    36   33   40 am 
    37   35   36 1  
    38   36   37 1  
    39   37   38 1  
    40   38   39 1  
    41   40   41 1  
    42   41   42 1  
    43   41   44 1  
    44   42   43 2  
    45   42   51 am 
    46   44   45 1  
    47   45   46 ar 
    48   45   47 ar 
    49   46   48 ar 
    50   47   49 ar 
    51   48   50 ar 
    52   49   50 ar 
    53   51   52 1  
    54   52   53 1  
    55   52   55 1  
    56   53   54 2  
    57   53   63 am 
    58   55   56 1  
    59   56   57 ar 
    60   56   58 ar 
    61   57   59 ar 
    62   58   60 ar 
    63   59   61 ar 
    64   60   61 ar 
    65   61   62 1  
    66   63   64 1  
    67   64   65 1  
    68   64   67 1  
    69   65   66 2  
    70   65   69 am 
    71   67   68 1  
    72   69   70 1  
    73   70   71 1  
    74   70   73 1  
    75   71   72 ar 
    76   71   76 ar 
    77   73   74 1  
    78   73   75 1  
    79    1   77 1  
    80    1   78 1  
    81    1   79 1  
    82    2   80 1  
    83    5   81 1  
    84    5   82 1  
    85    6   83 1  
    86    6   84 1  
    87   10   85 1  
    88   11   86 1  
    89   14   87 1  
    90   14   88 1  
    91   15   89 1  
    92   15   90 1  
    93   18   91 1  
    94   18   92 1  
    95   19   93 1  
    96   20   94 1  
    97   23   95 1  
    98   23   96 1  
    99   25   97 1  
   100   26   98 1  
   101   27   99 1  
   102   28  100 1  
   103   30  101 1  
   104   31  102 1  
   105   32  103 1  
   106   35  104 1  
   107   35  105 1  
   108   36  106 1  
   109   36  107 1  
   110   37  108 1  
   111   37  109 1  
   112   38  110 1  
   113   38  111 1  
   114   39  112 1  
   115   39  113 1  
   116   39  114 1  
   117   40  115 1  
   118   41  116 1  
   119   44  117 1  
   120   44  118 1  
   121   46  119 1  
   122   47  120 1  
   123   48  121 1  
   124   49  122 1  
   125   50  123 1  
   126   51  124 1  
   127   52  125 1  
   128   55  126 1  
   129   55  127 1  
   130   57  128 1  
   131   58  129 1  
   132   59  130 1  
   133   60  131 1  
   134   62  132 1  
   135   63  133 1  
   136   64  134 1  
   137   67  135 1  
   138   67  136 1  
   139   68  137 1  
   140   69  138 1  
   141   70  139 1  
   142   73  140 1  
   143   74  141 1  
   144   74  142 1  
   145   74  143 1  
   146   75  144 1  
   147   75  145 1  
   148   75  146 1  
@<TRIPOS>SUBSTRUCTURE
     1 GLU         1

