3olf_ligand
  -I-interpret- 

 64 68  0  0  0  0  0  0  0  0999 V2000
   12.9230   24.3670    3.4290 N   0  0  0  0  0
   13.7900   25.0590    2.6300 C   0  0  0  0  0
   13.1910   26.0640    2.0560 N   0  0  0  0  0
   11.7050   24.9700    3.3190 C   0  0  0  0  0
   11.8950   26.0530    2.4330 C   0  0  0  0  0
   12.3470   22.0100    3.8910 C   0  0  0  0  0
   13.2630   23.1670    4.2090 C   0  0  0  0  0
   10.4640   24.6980    3.8690 C   0  0  0  0  0
   11.9950   21.8630    2.5860 N   0  0  0  0  0
   10.8110   26.8770    2.1230 C   0  0  0  0  0
    9.4090   25.5340    3.5580 C   0  0  0  0  0
   11.1630   20.8480    2.0970 C   0  0  0  0  0
    8.5610   17.8150    0.5560 C   0  0  0  0  0
   15.1950   24.6850    2.4710 C   0  0  0  0  0
    9.5880   26.5960    2.6900 C   0  0  0  0  0
    9.4560   18.8690    1.0970 C   0  0  0  0  0
   10.7970   18.5690    1.3860 C   0  0  0  0  0
   11.6600   19.5590    1.8620 C   0  0  0  0  0
   11.9280   21.2550    4.7520 O   0  0  0  0  0
    7.4490   18.0720    0.1490 O   0  0  0  0  0
    9.8230   21.1500    1.8070 C   0  0  0  0  0
    8.9800   20.1680    1.3160 C   0  0  0  0  0
   13.7030   23.4560    5.6570 C   0  0  0  0  0
   16.1930   25.4720    3.0540 C   0  0  0  0  0
   15.5260   23.4990    1.8030 C   0  0  0  0  0
    8.1920   25.3390    4.1000 F   0  0  0  0  0
    8.5280   27.3520    2.4190 F   0  0  0  0  0
    8.9820   16.5380    0.5130 O   0  0  0  0  0
   17.8530   23.9350    2.2420 C   0  0  0  0  0
   17.5150   25.0980    2.9190 C   0  0  0  0  0
   16.8550   23.1240    1.6980 C   0  0  0  0  0
   19.5310   23.4810    2.1060 Cl  0  0  0  0  0
   13.1080   19.2060    2.1710 C   0  0  0  0  0
   13.6490   24.9290    6.0680 C   0  0  0  0  0
   13.1480   22.5420    6.7450 C   0  0  0  0  0
   13.9190   22.7440    8.0570 C   0  0  0  0  0
   14.4600   25.1350    7.3620 C   0  0  0  0  0
   13.9590   24.2160    8.4780 C   0  0  0  0  0
   14.2140   22.7591    3.8665 H   0  0  0  0  0
   10.3226   23.8443    4.5318 H   0  0  0  0  0
   12.3625   22.5390    1.9164 H   0  0  0  0  0
   10.9303   27.7238    1.4472 H   0  0  0  0  0
   11.1678   17.5548    1.2376 H   0  0  0  0  0
    9.4457   22.1597    1.9688 H   0  0  0  0  0
    7.9391   20.4071    1.0984 H   0  0  0  0  0
   14.7569   23.1853    5.5924 H   0  0  0  0  0
   15.9297   26.3720    3.6096 H   0  0  0  0  0
   14.7436   22.8762    1.3693 H   0  0  0  0  0
    9.8736   16.4842    0.8648 H   0  0  0  0  0
   18.2996   25.7214    3.3477 H   0  0  0  0  0
   17.1217   22.1966    1.1912 H   0  0  0  0  0
   13.7692   19.8431    1.5837 H   0  0  0  0  0
   13.3000   19.3616    3.2326 H   0  0  0  0  0
   13.2881   18.1614    1.9172 H   0  0  0  0  0
   12.6125   25.2191    6.2402 H   0  0  0  0  0
   14.0734   25.5425    5.2732 H   0  0  0  0  0
   13.2544   21.5050    6.4264 H   0  0  0  0  0
   12.0976   22.7825    6.9094 H   0  0  0  0  0
   14.9438   22.4047    7.9059 H   0  0  0  0  0
   13.4132   22.1791    8.8401 H   0  0  0  0  0
   14.3455   26.1699    7.6845 H   0  0  0  0  0
   15.5051   24.9005    7.1598 H   0  0  0  0  0
   14.6463   24.3052    9.3193 H   0  0  0  0  0
   12.9433   24.5197    8.7314 H   0  0  0  0  0
  1  2  4  0  0  0
  1  4  4  0  0  0
  7  1  1  0  0  0
  2  3  4  0  0  0
  2 14  1  0  0  0
  5  3  4  0  0  0
  4  5  4  0  0  0
  4  8  4  0  0  0
  5 10  4  0  0  0
  6  7  1  0  0  0
  9  6  1  0  0  0
  6 19  2  0  0  0
  7 23  1  0  0  0
  8 11  4  0  0  0
 12  9  1  0  0  0
 10 15  4  0  0  0
 11 15  4  0  0  0
 11 26  1  0  0  0
 18 12  4  0  0  0
 12 21  4  0  0  0
 16 13  1  0  0  0
 13 20  2  0  0  0
 13 28  1  0  0  0
 14 24  4  0  0  0
 14 25  4  0  0  0
 15 27  1  0  0  0
 17 16  4  0  0  0
 16 22  4  0  0  0
 17 18  4  0  0  0
 18 33  1  0  0  0
 21 22  4  0  0  0
 23 34  1  0  0  0
 23 35  1  0  0  0
 24 30  4  0  0  0
 25 31  4  0  0  0
 30 29  4  0  0  0
 29 31  4  0  0  0
 29 32  1  0  0  0
 34 37  1  0  0  0
 35 36  1  0  0  0
 36 38  1  0  0  0
 37 38  1  0  0  0
  7 39  1  0  0  0
  8 40  1  0  0  0
  9 41  1  0  0  0
 10 42  1  0  0  0
 17 43  1  0  0  0
 21 44  1  0  0  0
 22 45  1  0  0  0
 23 46  1  0  0  0
 24 47  1  0  0  0
 25 48  1  0  0  0
 28 49  1  0  0  0
 30 50  1  0  0  0
 31 51  1  0  0  0
 33 52  1  0  0  0
 33 53  1  0  0  0
 33 54  1  0  0  0
 34 55  1  0  0  0
 34 56  1  0  0  0
 35 57  1  0  0  0
 35 58  1  0  0  0
 36 59  1  0  0  0
 36 60  1  0  0  0
 37 61  1  0  0  0
 37 62  1  0  0  0
 38 63  1  0  0  0
 38 64  1  0  0  0
M  END
$$$$
