3q2h_ligand
  -I-interpret- 

 69 71  0  0  0  0  0  0  0  0999 V2000
    9.2210  -14.5250    2.4060 C   0  0  0  0  0
   12.8150  -19.1190    3.9190 F   0  0  0  0  0
    9.3110  -14.0750    9.6020 N   0  0  0  0  0
    9.3610  -11.6400    8.8480 O   0  0  0  0  0
    8.4950  -12.8020    8.8450 S   0  0  0  0  0
    9.9240  -14.5210    3.7560 C   0  0  0  0  0
   10.1540  -13.9680   18.3050 N   0  0  0  0  0
    7.1680  -12.7320    9.4210 O   0  0  0  0  0
    8.9290  -14.2280    4.8970 C   0  0  0  0  0
   10.4060  -14.6410    6.7830 N   0  0  0  0  0
   10.0690  -15.3550   18.2270 O   0  0  0  0  0
    9.4650  -13.6770    6.2230 C   0  0  0  0  0
   11.9730  -15.6910    3.9550 N   0  0  0  0  0
    9.9380  -15.9220    7.1090 O   0  0  0  0  0
   10.1940  -12.3920    5.9920 C   0  0  0  0  0
    9.9760  -16.9700    3.6870 N   0  0  0  0  0
   12.4110  -15.3940    7.5200 O   0  0  0  0  0
    8.2710  -13.4040    7.1560 C   0  0  0  0  0
    8.3850  -15.0800   10.1790 C   0  0  0  0  0
    8.2660  -14.9340   11.6710 C   0  0  0  0  0
    9.6430  -14.9950   12.3100 C   0  0  0  0  0
    9.4200  -14.9230   13.8120 C   0  0  0  0  0
   10.6680  -14.6630   14.6410 C   0  0  0  0  0
   10.4240  -14.6360   16.1260 C   0  0  0  0  0
   10.3540  -13.5470   17.0580 C   0  0  0  0  0
   10.4620  -12.0930   16.9110 C   0  0  0  0  0
   10.2390  -15.7480   16.9290 C   0  0  0  0  0
   10.1980  -17.2040   16.6760 C   0  0  0  0  0
   10.5150  -13.8380   11.8240 C   0  0  0  0  0
   10.5640  -13.6870   10.3230 C   0  0  0  0  0
   11.7350  -14.4980    7.0400 C   0  0  0  0  0
   10.6570  -15.8280    3.8080 C   0  0  0  0  0
   12.6920  -16.8060    3.9850 C   0  0  0  0  0
   12.0760  -18.0180    3.8790 C   0  0  0  0  0
   10.7090  -18.0780    3.7340 C   0  0  0  0  0
    8.4483  -15.2937    2.4025 H   0  0  0  0  0
    8.7661  -13.5499    2.2318 H   0  0  0  0  0
    9.9470  -14.7342    1.6204 H   0  0  0  0  0
   10.6494  -13.7182    3.8878 H   0  0  0  0  0
    8.4956  -15.1960    5.1486 H   0  0  0  0  0
    8.2778  -13.4447    4.5089 H   0  0  0  0  0
   10.6606  -16.4446    7.4643 H   0  0  0  0  0
   11.0294  -12.5665    5.3140 H   0  0  0  0  0
    9.5131  -11.6636    5.5517 H   0  0  0  0  0
   10.5690  -12.0125    6.9425 H   0  0  0  0  0
    7.7402  -12.5902    6.6619 H   0  0  0  0  0
    7.8214  -14.3876    7.2918 H   0  0  0  0  0
    8.7770  -16.0735    9.9612 H   0  0  0  0  0
    7.3988  -14.9308    9.7394 H   0  0  0  0  0
    7.6523  -15.7450   12.0631 H   0  0  0  0  0
    7.8055  -13.9734   11.9019 H   0  0  0  0  0
   10.1667  -15.9118   12.0393 H   0  0  0  0  0
    9.0384  -15.8969   14.1185 H   0  0  0  0  0
    8.7471  -14.0838   13.9883 H   0  0  0  0  0
   11.0445  -13.6800   14.3579 H   0  0  0  0  0
   11.3628  -15.4792   14.4429 H   0  0  0  0  0
    9.5409  -11.6246   17.2579 H   0  0  0  0  0
   11.3013  -11.7304   17.5045 H   0  0  0  0  0
   10.6238  -11.8462   15.8617 H   0  0  0  0  0
   10.9893  -17.6927   17.2445 H   0  0  0  0  0
    9.2300  -17.5981   16.9854 H   0  0  0  0  0
   10.3446  -17.3909   15.6122 H   0  0  0  0  0
   11.5322  -14.0392   12.1600 H   0  0  0  0  0
   10.0844  -12.9206   12.2253 H   0  0  0  0  0
   10.7267  -12.6285   10.1202 H   0  0  0  0  0
   11.3492  -14.3539    9.9669 H   0  0  0  0  0
   12.2141  -13.5468    6.8083 H   0  0  0  0  0
   13.7752  -16.7531    4.0944 H   0  0  0  0  0
   10.2196  -19.0489    3.6565 H   0  0  0  0  0
  6  1  1  0  0  0
 34  2  1  0  0  0
  5  3  1  0  0  0
  3 19  1  0  0  0
  3 30  1  0  0  0
  5  4  2  0  0  0
  5  8  2  0  0  0
 18  5  1  0  0  0
  6  9  1  0  0  0
 32  6  1  0  0  0
 11  7  4  0  0  0
 25  7  4  0  0  0
  9 12  1  0  0  0
 12 10  1  0  0  0
 10 14  1  0  0  0
 10 31  1  0  0  0
 27 11  4  0  0  0
 12 15  1  0  0  0
 12 18  1  0  0  0
 13 32  4  0  0  0
 33 13  4  0  0  0
 32 16  4  0  0  0
 16 35  4  0  0  0
 31 17  2  0  0  0
 19 20  1  0  0  0
 20 21  1  0  0  0
 21 22  1  0  0  0
 29 21  1  0  0  0
 22 23  1  0  0  0
 23 24  1  0  0  0
 24 25  4  0  0  0
 24 27  4  0  0  0
 25 26  1  0  0  0
 27 28  1  0  0  0
 30 29  1  0  0  0
 33 34  4  0  0  0
 34 35  4  0  0  0
  1 36  1  0  0  0
  1 37  1  0  0  0
  1 38  1  0  0  0
  6 39  1  0  0  0
  9 40  1  0  0  0
  9 41  1  0  0  0
 14 42  1  0  0  0
 15 43  1  0  0  0
 15 44  1  0  0  0
 15 45  1  0  0  0
 18 46  1  0  0  0
 18 47  1  0  0  0
 19 48  1  0  0  0
 19 49  1  0  0  0
 20 50  1  0  0  0
 20 51  1  0  0  0
 21 52  1  0  0  0
 22 53  1  0  0  0
 22 54  1  0  0  0
 23 55  1  0  0  0
 23 56  1  0  0  0
 26 57  1  0  0  0
 26 58  1  0  0  0
 26 59  1  0  0  0
 28 60  1  0  0  0
 28 61  1  0  0  0
 28 62  1  0  0  0
 29 63  1  0  0  0
 29 64  1  0  0  0
 30 65  1  0  0  0
 30 66  1  0  0  0
 31 67  1  0  0  0
 33 68  1  0  0  0
 35 69  1  0  0  0
M  END
$$$$
