1n3i_ligand
  -I-interpret- 

 35 37  0  0  0  0  0  0  0  0999 V2000
   54.7860   13.5760   44.0320 O   0  0  0  0  0
   54.9630   14.9140   44.4710 C   0  0  0  0  0
   56.2460   15.6180   44.7340 C   0  0  0  0  0
   57.0460   15.6340   43.5030 C   0  0  0  0  0
   56.0710   17.0320   45.1720 C   0  0  0  0  0
   56.9050   17.4660   46.2280 O   0  0  0  0  0
   56.2120   17.6320   43.8270 C   0  0  0  0  0
   57.3550   17.0200   43.2100 N   0  3  0  0  0
   57.5110   17.2290   41.7890 C   0  0  0  0  0
   56.6420   16.7970   40.6660 C   0  0  0  0  0
   56.7440   15.6870   39.8370 C   0  0  0  0  0
   55.8070   15.5800   38.9250 N   0  0  0  0  0
   54.9980   16.6890   39.1290 C   0  0  0  0  0
   53.7860   17.1310   38.4300 C   0  0  0  0  0
   53.2380   16.5700   37.4840 O   0  0  0  0  0
   53.2170   18.3510   38.9360 N   0  0  0  0  0
   53.7530   19.1040   40.0300 C   0  0  0  0  0
   54.9020   18.6860   40.6950 N   0  0  0  0  0
   55.4900   17.4660   40.2070 C   0  0  0  0  0
   53.8481   13.3899   43.9464 H   0  0  0  0  0
   54.5357   14.8681   45.4727 H   0  0  0  0  0
   54.5857   15.4714   43.6137 H   0  0  0  0  0
   56.7338   15.0734   45.5424 H   0  0  0  0  0
   56.4926   15.1820   42.6799 H   0  0  0  0  0
   57.9610   15.0560   43.6325 H   0  0  0  0  0
   55.1529   17.3021   45.6937 H   0  0  0  0  0
   56.6866   16.9806   47.0269 H   0  0  0  0  0
   56.3453   18.7114   43.8990 H   0  0  0  0  0
   55.3149   17.4592   43.2324 H   0  0  0  0  0
   58.2378   17.3972   43.5546 H   0  0  0  0  0
   58.3965   16.6231   41.5970 H   0  0  0  0  0
   57.3814   18.3098   41.7336 H   0  0  0  0  0
   57.5464   14.9561   39.9372 H   0  0  0  0  0
   52.3734   18.7044   38.4845 H   0  0  0  0  0
   53.2530   20.0192   40.3469 H   0  0  0  0  0
  1  2  1  0  0  0
  2  3  1  0  0  0
  3  4  1  0  0  0
  3  5  1  0  0  0
  4  8  1  0  0  0
  5  6  1  0  0  0
  5  7  1  0  0  0
  7  8  1  0  0  0
  8  9  1  0  0  0
  9 10  1  0  0  0
 10 11  4  0  0  0
 10 19  4  0  0  0
 11 12  4  0  0  0
 12 13  4  0  0  0
 13 14  1  0  0  0
 13 19  4  0  0  0
 14 15  2  0  0  0
 14 16  1  0  0  0
 16 17  1  0  0  0
 17 18  2  0  0  0
 18 19  1  0  0  0
  1 20  1  0  0  0
  2 21  1  0  0  0
  2 22  1  0  0  0
  3 23  1  0  0  0
  4 24  1  0  0  0
  4 25  1  0  0  0
  5 26  1  0  0  0
  6 27  1  0  0  0
  7 28  1  0  0  0
  7 29  1  0  0  0
  8 30  1  0  0  0
  9 31  1  0  0  0
  9 32  1  0  0  0
 11 33  1  0  0  0
 16 34  1  0  0  0
 17 35  1  0  0  0
M  END
$$$$
