4o7c_ligand
  -I-interpret- 

 51 55  0  0  0  0  0  0  0  0999 V2000
  114.1370   -8.1560    2.6650 C   0  0  0  0  0
  113.0650   -8.4270    3.7530 C   0  0  0  0  0
  112.9440   -9.8640    4.0500 N   0  3  0  0  0
  114.2100  -10.4520    4.5290 C   0  0  0  0  0
  115.3270  -10.2680    3.4730 C   0  0  0  0  0
  115.5020   -8.7850    3.0740 C   0  0  0  0  0
  116.5530   -8.6520    2.0310 C   0  0  0  0  0
  117.7120   -8.0150    2.2020 N   0  0  0  0  0
  118.4340   -8.1130    1.0850 C   0  0  0  0  0
  119.7070   -7.5400    0.9960 C   0  0  0  0  0
  120.7530   -8.1280    0.2200 C   0  0  0  0  0
  122.0470   -7.5440    0.1810 C   0  0  0  0  0
  122.3120   -6.3630    0.8670 C   0  0  0  0  0
  123.4380   -5.6050    0.9430 C   0  0  0  0  0
  123.2360   -4.4580    1.8140 C   0  0  0  0  0
  121.7700   -4.5610    2.2430 C   0  0  0  0  0
  121.3070   -5.7810    1.5930 C   0  0  0  0  0
  120.0260   -6.3470    1.7040 C   0  0  0  0  0
  124.5690   -5.8190    0.3480 N   0  0  0  0  0
  125.4400   -4.9670    0.3320 O   0  0  0  0  0
  117.7020   -8.8510    0.1470 C   0  0  0  0  0
  117.9640   -9.2170   -1.1860 C   0  0  0  0  0
  118.6500   -8.3690   -2.0420 C   0  0  0  0  0
  118.8980   -8.7110   -3.3240 C   0  0  0  0  0
  118.4580   -9.8950   -3.7930 N   0  0  0  0  0
  117.7700  -10.7380   -2.9960 C   0  0  0  0  0
  117.5150  -10.4190   -1.7070 C   0  0  0  0  0
  116.5490   -9.1680    0.7760 N   0  0  0  0  0
  114.2631   -7.0791    2.5531 H   0  0  0  0  0
  113.8090   -8.6023    1.7262 H   0  0  0  0  0
  112.1033   -8.0696    3.3849 H   0  0  0  0  0
  113.3630   -7.9110    4.6657 H   0  0  0  0  0
  112.6818  -10.3421    3.1880 H   0  0  0  0  0
  112.2474   -9.9750    4.7867 H   0  0  0  0  0
  114.0613  -11.5173    4.7053 H   0  0  0  0  0
  114.5073   -9.9505    5.4500 H   0  0  0  0  0
  115.0519  -10.8321    2.5818 H   0  0  0  0  0
  116.2651  -10.6201    3.9020 H   0  0  0  0  0
  115.8473   -8.2154    3.9368 H   0  0  0  0  0
  120.5552   -9.0363   -0.3492 H   0  0  0  0  0
  122.8397   -8.0254   -0.3916 H   0  0  0  0  0
  124.1600   -6.1101    0.3013 H   0  0  0  0  0
  123.4500   -3.5164    1.3082 H   0  0  0  0  0
  123.9144   -4.4666    2.6671 H   0  0  0  0  0
  121.1881   -3.6868    1.9512 H   0  0  0  0  0
  121.6544   -4.5964    3.3263 H   0  0  0  0  0
  119.2743   -5.8713    2.3340 H   0  0  0  0  0
  118.9969   -7.4044   -1.6713 H   0  0  0  0  0
  119.4505   -8.0339   -3.9754 H   0  0  0  0  0
  117.4153  -11.6879   -3.3959 H   0  0  0  0  0
  116.9548  -11.1095   -1.0765 H   0  0  0  0  0
  1  2  1  0  0  0
  1  6  1  0  0  0
  2  3  1  0  0  0
  3  4  1  0  0  0
  4  5  1  0  0  0
  5  6  1  0  0  0
  6  7  1  0  0  0
  7  8  4  0  0  0
  7 28  4  0  0  0
  8  9  4  0  0  0
  9 10  1  0  0  0
  9 21  4  0  0  0
 10 11  4  0  0  0
 10 18  4  0  0  0
 11 12  4  0  0  0
 12 13  4  0  0  0
 13 14  1  0  0  0
 13 17  4  0  0  0
 14 15  1  0  0  0
 14 19  1  0  0  0
 15 16  1  0  0  0
 16 17  1  0  0  0
 17 18  4  0  0  0
 19 20  2  0  0  0
 21 22  1  0  0  0
 21 28  4  0  0  0
 22 23  4  0  0  0
 22 27  4  0  0  0
 23 24  4  0  0  0
 24 25  4  0  0  0
 25 26  4  0  0  0
 26 27  4  0  0  0
  1 29  1  0  0  0
  1 30  1  0  0  0
  2 31  1  0  0  0
  2 32  1  0  0  0
  3 33  1  0  0  0
  3 34  1  0  0  0
  4 35  1  0  0  0
  4 36  1  0  0  0
  5 37  1  0  0  0
  5 38  1  0  0  0
  6 39  1  0  0  0
 11 40  1  0  0  0
 12 41  1  0  0  0
 14 42  1  0  0  0
 15 43  1  0  0  0
 15 44  1  0  0  0
 16 45  1  0  0  0
 16 46  1  0  0  0
 18 47  1  0  0  0
 23 48  1  0  0  0
 24 49  1  0  0  0
 26 50  1  0  0  0
 27 51  1  0  0  0
M  END
$$$$
