6f5h_ligand
  -I-interpret- 

 72 75  0  0  0  0  0  0  0  0999 V2000
   33.6780   14.4530   -7.2120 N   0  0  0  0  0
   34.4620   13.0840   -9.0640 C   0  0  0  0  0
   32.8990   11.5740   -9.8520 O   0  0  0  0  0
   26.0960   14.0520  -12.1570 O   0  0  0  0  0
   27.2650   13.8150  -12.3480 C   0  0  0  0  0
   27.7110   13.5840  -13.8010 C   0  0  0  0  0
   27.5510   12.1370  -14.2800 C   0  0  0  0  0
   27.9810   12.0260  -15.7610 C   0  0  0  0  0
   28.3140   11.1490  -13.3980 C   0  0  0  0  0
   29.6860   10.9410  -13.4830 C   0  0  0  0  0
   30.3070   10.0250  -12.6560 C   0  0  0  0  0
   29.5630    9.3140  -11.7260 C   0  0  0  0  0
   28.2010    9.5300  -11.6290 C   0  0  0  0  0
   27.5790   10.4310  -12.4580 C   0  0  0  0  0
   28.0980   13.8110  -11.2330 N   0  0  0  0  0
   29.5480   14.1050  -11.3480 C   0  0  0  0  0
   30.4230   13.2410  -10.4510 C   0  0  0  0  0
   27.5870   13.5970   -9.8450 C   0  0  0  0  0
   28.4910   12.7460   -8.9410 C   0  0  0  0  0
   29.9470   13.2200   -8.9760 C   0  0  0  0  0
   29.9710   14.5550   -8.4920 O   0  0  0  0  0
   30.8350   12.3190   -8.0880 C   0  0  0  0  0
   32.2040   12.8670   -8.1150 N   0  0  0  0  0
   33.1430   12.4530   -9.0530 C   0  0  0  0  0
   32.5140   13.8740   -7.2300 C   0  0  0  0  0
   34.7320   14.0490   -8.1650 C   0  0  0  0  0
   35.9180   14.7640   -8.1130 N   0  0  0  0  0
   36.9600   14.7930   -9.1540 C   0  0  0  0  0
   36.3940   15.3170  -10.4950 C   0  0  0  0  0
   35.6650   16.5920  -10.4690 N   0  3  0  0  0
   36.5240   17.7530  -10.2180 C   0  0  0  0  0
   35.7440   18.9430  -10.7890 C   0  0  0  0  0
   34.6500   18.3320  -11.6610 C   0  0  0  0  0
   35.0470   16.8670  -11.7720 C   0  0  0  0  0
   35.2156   12.7775   -9.7895 H   0  0  0  0  0
   28.7721   13.8272  -13.8559 H   0  0  0  0  0
   27.0799   14.2062  -14.4356 H   0  0  0  0  0
   26.4981   11.8672  -14.1985 H   0  0  0  0  0
   29.0465   12.2395  -15.8456 H   0  0  0  0  0
   27.7817   11.0167  -16.1212 H   0  0  0  0  0
   27.4169   12.7437  -16.3566 H   0  0  0  0  0
   30.2754   11.5041  -14.2066 H   0  0  0  0  0
   31.3817    9.8610  -12.7343 H   0  0  0  0  0
   30.0500    8.5883  -11.0746 H   0  0  0  0  0
   27.6171    8.9817  -10.8898 H   0  0  0  0  0
   26.5028   10.5852  -12.3797 H   0  0  0  0  0
   29.6946   15.1415  -11.0442 H   0  0  0  0  0
   29.8398   13.9032  -12.3786 H   0  0  0  0  0
   31.4297   13.6586  -10.4684 H   0  0  0  0  0
   30.3777   12.2194  -10.8284 H   0  0  0  0  0
   26.6425   13.0609   -9.9378 H   0  0  0  0  0
   27.5172   14.5810   -9.3814 H   0  0  0  0  0
   28.4589   11.7169   -9.2987 H   0  0  0  0  0
   28.1285   12.8338   -7.9168 H   0  0  0  0  0
   29.6794   14.5679   -7.5775 H   0  0  0  0  0
   30.8299   11.2956   -8.4631 H   0  0  0  0  0
   30.4546   12.3020   -7.0667 H   0  0  0  0  0
   31.7555   14.1984   -6.5175 H   0  0  0  0  0
   36.0851   15.3223   -7.2758 H   0  0  0  0  0
   37.3307   13.7791   -9.3045 H   0  0  0  0  0
   37.7591   15.4592   -8.8289 H   0  0  0  0  0
   35.6695   14.5704  -10.8203 H   0  0  0  0  0
   37.2607   15.4867  -11.1339 H   0  0  0  0  0
   34.9865   16.4778   -9.7160 H   0  0  0  0  0
   37.5022   17.6447  -10.6866 H   0  0  0  0  0
   36.7391   17.8786   -9.1568 H   0  0  0  0  0
   36.3905   19.6055  -11.3646 H   0  0  0  0  0
   35.3241   19.5628   -9.9968 H   0  0  0  0  0
   34.5776   18.8164  -12.6347 H   0  0  0  0  0
   33.6570   18.4606  -11.2304 H   0  0  0  0  0
   34.1996   16.2148  -11.9834 H   0  0  0  0  0
   35.7199   16.6741  -12.6075 H   0  0  0  0  0
  1 25  2  0  0  0
 26  1  1  0  0  0
 24  2  1  0  0  0
  2 26  2  0  0  0
 24  3  2  0  0  0
  5  4  2  0  0  0
  5  6  1  0  0  0
 15  5  1  0  0  0
  6  7  1  0  0  0
  7  8  1  0  0  0
  7  9  1  0  0  0
  9 10  4  0  0  0
  9 14  4  0  0  0
 10 11  4  0  0  0
 11 12  4  0  0  0
 13 12  4  0  0  0
 14 13  4  0  0  0
 16 15  1  0  0  0
 18 15  1  0  0  0
 17 16  1  0  0  0
 20 17  1  0  0  0
 19 18  1  0  0  0
 20 19  1  0  0  0
 20 21  1  0  0  0
 22 20  1  0  0  0
 23 22  1  0  0  0
 23 24  1  0  0  0
 23 25  1  0  0  0
 26 27  1  0  0  0
 27 28  1  0  0  0
 28 29  1  0  0  0
 29 30  1  0  0  0
 30 31  1  0  0  0
 30 34  1  0  0  0
 31 32  1  0  0  0
 32 33  1  0  0  0
 33 34  1  0  0  0
  2 35  1  0  0  0
  6 36  1  0  0  0
  6 37  1  0  0  0
  7 38  1  0  0  0
  8 39  1  0  0  0
  8 40  1  0  0  0
  8 41  1  0  0  0
 10 42  1  0  0  0
 11 43  1  0  0  0
 12 44  1  0  0  0
 13 45  1  0  0  0
 14 46  1  0  0  0
 16 47  1  0  0  0
 16 48  1  0  0  0
 17 49  1  0  0  0
 17 50  1  0  0  0
 18 51  1  0  0  0
 18 52  1  0  0  0
 19 53  1  0  0  0
 19 54  1  0  0  0
 21 55  1  0  0  0
 22 56  1  0  0  0
 22 57  1  0  0  0
 25 58  1  0  0  0
 27 59  1  0  0  0
 28 60  1  0  0  0
 28 61  1  0  0  0
 29 62  1  0  0  0
 29 63  1  0  0  0
 30 64  1  0  0  0
 31 65  1  0  0  0
 31 66  1  0  0  0
 32 67  1  0  0  0
 32 68  1  0  0  0
 33 69  1  0  0  0
 33 70  1  0  0  0
 34 71  1  0  0  0
 34 72  1  0  0  0
M  END
$$$$
