4msu_ligand
  -I-interpret- 

 46 48  0  0  0  0  0  0  0  0999 V2000
   39.3910  -24.6130   15.2360 N   0  0  0  0  0
   34.0840  -20.7900   21.8960 C   0  0  0  0  0
   37.9300  -24.7940   15.1780 C   0  0  0  0  0
   39.7820  -24.6280   16.6520 C   0  0  0  0  0
   35.6050  -20.8660   19.8700 C   0  0  0  0  0
   36.9650  -22.4900   18.0070 C   0  0  0  0  0
   37.1290  -23.6200   15.8000 C   0  0  0  0  0
   39.8230  -29.0660   16.6750 C   0  0  0  0  0
   36.8320  -21.3990   20.1870 C   0  0  0  0  0
   37.5020  -22.1970   19.2620 C   0  0  0  0  0
   40.3720  -27.9010   16.3550 C   0  0  0  0  0
   38.8460  -29.5900   15.8880 C   0  0  0  0  0
   38.6270  -28.4390   14.6720 S   0  0  0  0  0
   39.8000  -27.3910   15.2660 C   0  0  0  0  0
   40.2040  -25.8840   14.5010 S   0  0  0  0  0
   39.8170  -26.0310   13.0640 O   0  0  0  0  0
   41.6780  -25.7580   14.7280 O   0  0  0  0  0
   39.0650  -23.6020   17.4930 C   0  0  0  0  0
   37.6670  -23.2890   17.1010 N   0  0  0  0  0
   35.7320  -21.9740   17.7240 C   0  0  0  0  0
   35.0580  -21.1700   18.6460 C   0  0  0  0  0
   34.8400  -19.9810   20.8270 C   0  0  0  0  0
   35.7520  -18.9790   21.4760 C   0  0  0  0  0
   34.9630  -18.1090   22.0840 F   0  0  0  0  0
   36.4700  -19.6010   22.3420 F   0  0  0  0  0
   36.5380  -18.3460   20.5910 F   0  0  0  0  0
   34.8790  -21.6450   22.5660 F   0  0  0  0  0
   33.0590  -21.4380   21.3950 F   0  0  0  0  0
   33.5650  -19.9050   22.6890 F   0  0  0  0  0
   33.9430  -19.1710   20.1090 O   0  0  0  0  0
   37.6904  -25.6903   15.7500 H   0  0  0  0  0
   37.6515  -24.8564   14.1260 H   0  0  0  0  0
   40.8466  -24.3986   16.6974 H   0  0  0  0  0
   39.5257  -25.6101   17.0493 H   0  0  0  0  0
   36.0853  -23.9152   15.9079 H   0  0  0  0  0
   37.2044  -22.7494   15.1485 H   0  0  0  0  0
   40.1540  -29.6007   17.5653 H   0  0  0  0  0
   37.2798  -21.1977   21.1601 H   0  0  0  0  0
   38.4771  -22.6058   19.5268 H   0  0  0  0  0
   41.1817  -27.4258   16.9087 H   0  0  0  0  0
   38.3228  -30.5380   16.0135 H   0  0  0  0  0
   39.6259  -22.6739   17.3825 H   0  0  0  0  0
   39.0118  -24.0182   18.4990 H   0  0  0  0  0
   35.2667  -22.1934   16.7630 H   0  0  0  0  0
   34.0754  -20.7744   18.3890 H   0  0  0  0  0
   33.3082  -19.7267   19.6509 H   0  0  0  0  0
  1  3  1  0  0  0
  1  4  1  0  0  0
 15  1  1  0  0  0
 22  2  1  0  0  0
  2 27  1  0  0  0
  2 28  1  0  0  0
  2 29  1  0  0  0
  3  7  1  0  0  0
  4 18  1  0  0  0
  9  5  4  0  0  0
  5 21  4  0  0  0
  5 22  1  0  0  0
  6 10  4  0  0  0
 19  6  1  0  0  0
  6 20  4  0  0  0
  7 19  1  0  0  0
 11  8  4  0  0  0
 12  8  4  0  0  0
 10  9  4  0  0  0
 14 11  4  0  0  0
 13 12  4  0  0  0
 14 13  4  0  0  0
 14 15  1  0  0  0
 15 16  2  0  0  0
 15 17  2  0  0  0
 18 19  1  0  0  0
 20 21  4  0  0  0
 22 23  1  0  0  0
 22 30  1  0  0  0
 23 24  1  0  0  0
 23 25  1  0  0  0
 23 26  1  0  0  0
  3 31  1  0  0  0
  3 32  1  0  0  0
  4 33  1  0  0  0
  4 34  1  0  0  0
  7 35  1  0  0  0
  7 36  1  0  0  0
  8 37  1  0  0  0
  9 38  1  0  0  0
 10 39  1  0  0  0
 11 40  1  0  0  0
 12 41  1  0  0  0
 18 42  1  0  0  0
 18 43  1  0  0  0
 20 44  1  0  0  0
 21 45  1  0  0  0
 30 46  1  0  0  0
M  END
$$$$
