3rm9_ligand
  -I-interpret- 

 31 32  0  0  0  0  0  0  0  0999 V2000
   33.7470   -7.2880    3.4640 C   0  0  0  0  0
   33.9840   -5.5510    5.1930 N   0  0  0  0  0
   33.6870  -11.2930    3.5750 Cl  0  0  0  0  0
   33.6740   -8.6330    3.0710 C   0  0  0  0  0
   33.8640   -2.7650    5.8930 N   0  0  0  0  0
   33.7700   -9.6350    4.0350 C   0  0  0  0  0
   33.8330   -0.3270    5.5670 N   0  0  0  0  0
   33.9390   -9.2950    5.3740 C   0  0  0  0  0
   31.9020   -1.3750    6.4540 N   0  0  0  0  0
   34.0120   -7.9450    5.7550 C   0  0  0  0  0
   33.9240   -6.8930    4.8150 C   0  0  0  0  0
   33.1150   -5.1070    6.2970 C   0  0  0  0  0
   33.6110   -3.8120    6.9330 C   0  0  0  0  0
   34.6960   -3.2100    4.7310 C   0  0  0  0  0
   34.1820   -4.5290    4.1440 C   0  0  0  0  0
   33.1780   -1.5180    5.8940 C   0  0  0  0  0
   33.6643   -6.5150    2.7000 H   0  0  0  0  0
   33.5433   -8.8921    2.0203 H   0  0  0  0  0
   33.3781    0.5694    5.7402 H   0  0  0  0  0
   34.0149  -10.0779    6.1286 H   0  0  0  0  0
   31.5098   -0.4446    6.5984 H   0  0  0  0  0
   31.3651   -2.2013    6.7174 H   0  0  0  0  0
   34.1406   -7.7008    6.8095 H   0  0  0  0  0
   33.1145   -5.8831    7.0624 H   0  0  0  0  0
   32.1183   -4.9277    5.8939 H   0  0  0  0  0
   32.8479   -3.4453    7.6195 H   0  0  0  0  0
   34.5443   -4.0157    7.4580 H   0  0  0  0  0
   35.7186   -3.3614    5.0766 H   0  0  0  0  0
   34.6448   -2.4445    3.9567 H   0  0  0  0  0
   33.2229   -4.3406    3.6615 H   0  0  0  0  0
   34.9215   -4.9018    3.4353 H   0  0  0  0  0
  1  4  4  0  0  0
 11  1  4  0  0  0
  2 11  1  0  0  0
 12  2  1  0  0  0
  2 15  1  0  0  0
  6  3  1  0  0  0
  4  6  4  0  0  0
 13  5  1  0  0  0
  5 14  1  0  0  0
  5 16  1  0  0  0
  8  6  4  0  0  0
 16  7  2  0  0  0
 10  8  4  0  0  0
 16  9  1  0  0  0
 11 10  4  0  0  0
 12 13  1  0  0  0
 14 15  1  0  0  0
  1 17  1  0  0  0
  4 18  1  0  0  0
  7 19  1  0  0  0
  8 20  1  0  0  0
  9 21  1  0  0  0
  9 22  1  0  0  0
 10 23  1  0  0  0
 12 24  1  0  0  0
 12 25  1  0  0  0
 13 26  1  0  0  0
 13 27  1  0  0  0
 14 28  1  0  0  0
 14 29  1  0  0  0
 15 30  1  0  0  0
 15 31  1  0  0  0
M  END
$$$$
