### 
### Created by X-TOOL on Mon Sep 10 21:12:55 2018
### 

@<TRIPOS>MOLECULE
2qcd_ligand
   32    33     1     0     0
SMALL
GAST_HUCK


@<TRIPOS>ATOM
      1 N1          5.2910    5.8290   26.1390 N.am      1 U5P        -0.1592
      2 C2          4.5940    6.8840   25.5330 C.2       1 U5P         0.3328
      3 N3          4.0870    6.7260   24.3030 N.am      1 U5P        -0.1865
      4 C4          4.2050    5.5850   23.6380 C.2       1 U5P         0.1822
      5 C5          4.8690    4.5360   24.2320 C.2       1 U5P         0.0062
      6 C6          5.4020    4.6740   25.4810 C.2       1 U5P         0.0591
      7 O2          4.4270    7.9780   26.1130 O.2       1 U5P        -0.3815
      8 O4          3.7050    5.4560   22.5060 O.2       1 U5P        -0.4124
      9 C1'         5.8390    5.9170   27.5120 C.3       1 U5P         0.2059
     10 C2'         6.9060    6.9900   27.7280 C.3       1 U5P         0.1387
     11 O2'         8.2000    6.4570   27.4890 O.3       1 U5P        -0.3836
     12 C3'         6.7090    7.4060   29.1630 C.3       1 U5P         0.1149
     13 C4'         5.2010    7.2440   29.3650 C.3       1 U5P         0.1182
     14 O3'         7.4400    6.5520   30.0790 O.3       1 U5P        -0.3864
     15 O4'         4.7870    6.2190   28.4460 O.3       1 U5P        -0.3363
     16 C5'         4.4060    8.5190   29.0840 C.3       1 U5P         0.1072
     17 O5'         4.6310    9.4360   30.1720 O.3       1 U5P        -0.2734
     18 P           3.8850   10.8540   30.3520 P.3       1 U5P         0.2008
     19 O1P         4.7500   11.4630   31.4290 O.co2     1 U5P        -0.5537
     20 O2P         3.8570   11.5040   29.0000 O.co2     1 U5P        -0.5537
     21 O3P         2.5210   10.3990   30.8430 O.co2     1 U5P        -0.5537
     22 H1          3.6058    7.4905   23.8742 H         1 U5P         0.2259
     23 H2          4.9698    3.5899   23.7022 H         1 U5P         0.0258
     24 H3          5.9212    3.8358   25.9433 H         1 U5P         0.1178
     25 H4          6.2772    4.9383   27.7571 H         1 U5P         0.0997
     26 H5          6.7408    7.8452   27.0562 H         1 U5P         0.0676
     27 H6          8.2520    6.1443   26.5935 H         1 U5P         0.2101
     28 H7          7.0187    8.4507   29.3132 H         1 U5P         0.0648
     29 H8          5.0050    6.9278   30.4002 H         1 U5P         0.0650
     30 H9          7.2212    6.7877   30.9729 H         1 U5P         0.2100
     31 H10         3.3343    8.2819   29.0120 H         1 U5P         0.0639
     32 H11         4.7460    8.9700   28.1401 H         1 U5P         0.0639
@<TRIPOS>BOND
     1    1    2 am 
     2    1    6 1  
     3    1    9 1  
     4    2    3 am 
     5    2    7 2  
     6    3    4 am 
     7    4    5 1  
     8    4    8 2  
     9    5    6 2  
    10    9   10 1  
    11    9   15 1  
    12   10   11 1  
    13   10   12 1  
    14   12   13 1  
    15   12   14 1  
    16   13   15 1  
    17   13   16 1  
    18   16   17 1  
    19   17   18 1  
    20   18   19 ar 
    21   18   20 ar 
    22   18   21 ar 
    23    3   22 1  
    24    5   23 1  
    25    6   24 1  
    26    9   25 1  
    27   10   26 1  
    28   11   27 1  
    29   12   28 1  
    30   13   29 1  
    31   14   30 1  
    32   16   31 1  
    33   16   32 1  
@<TRIPOS>SUBSTRUCTURE
     1 U5P         1

