2qcd_ligand
  -I-interpret- 

 34 35  0  0  0  0  0  0  0  0999 V2000
    5.2910    5.8290   26.1390 N   0  0  0  0  0
    4.5940    6.8840   25.5330 C   0  0  0  0  0
    4.0870    6.7260   24.3030 N   0  0  0  0  0
    4.2050    5.5850   23.6380 C   0  0  0  0  0
    4.8690    4.5360   24.2320 C   0  0  0  0  0
    5.4020    4.6740   25.4810 C   0  0  0  0  0
    4.4270    7.9780   26.1130 O   0  0  0  0  0
    3.7050    5.4560   22.5060 O   0  0  0  0  0
    5.8390    5.9170   27.5120 C   0  0  0  0  0
    6.9060    6.9900   27.7280 C   0  0  0  0  0
    8.2000    6.4570   27.4890 O   0  0  0  0  0
    6.7090    7.4060   29.1630 C   0  0  0  0  0
    5.2010    7.2440   29.3650 C   0  0  0  0  0
    7.4400    6.5520   30.0790 O   0  0  0  0  0
    4.7870    6.2190   28.4460 O   0  0  0  0  0
    4.4060    8.5190   29.0840 C   0  0  0  0  0
    4.6310    9.4360   30.1720 O   0  0  0  0  0
    3.8850   10.8540   30.3520 P   0  0  0  0  0
    4.7500   11.4630   31.4290 O   0  0  0  0  0
    3.8570   11.5040   29.0000 O   0  0  0  0  0
    2.5210   10.3990   30.8430 O   0  0  0  0  0
    3.5961    7.5058   23.8656 H   0  0  0  0  0
    4.9699    3.5890   23.7017 H   0  0  0  0  0
    5.9217    3.8350   25.9437 H   0  0  0  0  0
    6.3002    4.9418   27.6683 H   0  0  0  0  0
    6.8186    7.8376   27.0483 H   0  0  0  0  0
    8.8578    7.1421   27.6286 H   0  0  0  0  0
    7.0733    8.4145   29.3588 H   0  0  0  0  0
    5.0071    6.9960   30.4086 H   0  0  0  0  0
    7.2896    6.8480   30.9798 H   0  0  0  0  0
    3.3439    8.2886   29.0005 H   0  0  0  0  0
    4.7310    8.9647   28.1439 H   0  0  0  0  0
    4.6690   10.9456   32.2336 H   0  0  0  0  0
    2.6124    9.9945   31.7088 H   0  0  0  0  0
  1  2  1  0  0  0
  1  6  1  0  0  0
  1  9  1  0  0  0
  2  3  1  0  0  0
  2  7  2  0  0  0
  3  4  1  0  0  0
  4  5  1  0  0  0
  4  8  2  0  0  0
  5  6  2  0  0  0
  9 10  1  0  0  0
  9 15  1  0  0  0
 10 11  1  0  0  0
 10 12  1  0  0  0
 12 13  1  0  0  0
 12 14  1  0  0  0
 13 15  1  0  0  0
 13 16  1  0  0  0
 16 17  1  0  0  0
 17 18  1  0  0  0
 18 19  1  0  0  0
 18 20  2  0  0  0
 18 21  1  0  0  0
  3 22  1  0  0  0
  5 23  1  0  0  0
  6 24  1  0  0  0
  9 25  1  0  0  0
 10 26  1  0  0  0
 11 27  1  0  0  0
 12 28  1  0  0  0
 13 29  1  0  0  0
 14 30  1  0  0  0
 16 31  1  0  0  0
 16 32  1  0  0  0
 19 33  1  0  0  0
 21 34  1  0  0  0
M  END
$$$$
