1xom_ligand
  -I-interpret- 

 50 52  0  0  0  0  0  0  0  0999 V2000
   14.0820    5.8760   18.9490 O   0  0  0  0  0
   12.9580    6.1930   18.4940 C   0  0  0  0  0
   11.9790    6.3800   19.2400 O   0  0  0  0  0
   12.7620    6.3720   17.0060 C   0  0  0  0  0
   14.1000    6.6980   16.3470 C   0  0  0  0  0
   13.9840    6.7830   14.8250 C   0  0  0  0  0
   12.1490    5.1170   16.3770 C   0  0  0  0  0
   12.0620    5.2080   14.8430 C   0  0  0  0  0
   13.4250    5.4970   14.2070 C   0  0  0  0  0
   14.3230    4.3810   14.5570 C   0  0  0  0  0
   15.0350    3.5150   14.8530 N   0  0  0  0  0
   13.4010    5.6650   12.6950 C   0  0  0  0  0
   12.2390    5.6860   11.9170 C   0  0  0  0  0
   12.3110    5.8530   10.5250 C   0  0  0  0  0
   13.5500    6.0030    9.9000 C   0  0  0  0  0
   13.7090    6.1690    8.5440 O   0  0  0  0  0
   12.6080    6.1300    7.6360 C   0  0  0  0  0
   14.6980    5.9850   10.6630 C   0  0  0  0  0
   14.6230    5.8190   12.0450 C   0  0  0  0  0
   15.9040    6.1370   10.0270 O   0  0  0  0  0
   17.1450    6.2900   10.7230 C   0  0  0  0  0
   18.2450    6.4290    9.6820 C   0  0  0  0  0
   18.3420    7.9250    9.4170 C   0  0  0  0  0
   17.8980    8.6320   10.6890 C   0  0  0  0  0
   17.1920    7.5830   11.5340 C   0  0  0  0  0
   14.7032    5.7770   18.2238 H   0  0  0  0  0
   12.0704    7.1987   16.8437 H   0  0  0  0  0
   14.8029    5.9014   16.5910 H   0  0  0  0  0
   14.4351    7.6667   16.7176 H   0  0  0  0  0
   14.9829    6.9445   14.4199 H   0  0  0  0  0
   13.3000    7.5969   14.5846 H   0  0  0  0  0
   11.1364    5.0070   16.7651 H   0  0  0  0  0
   12.7870    4.2696   16.6277 H   0  0  0  0  0
   11.3868    6.0248   14.5878 H   0  0  0  0  0
   11.7056    4.2500   14.4645 H   0  0  0  0  0
   11.2669    5.5715   12.3967 H   0  0  0  0  0
   11.3972    5.8656    9.9309 H   0  0  0  0  0
   12.1169    5.1593    7.7039 H   0  0  0  0  0
   11.8984    6.9164    7.8934 H   0  0  0  0  0
   12.9710    6.2847    6.6199 H   0  0  0  0  0
   15.5423    5.8095   12.6306 H   0  0  0  0  0
   17.2619    5.4312   11.3840 H   0  0  0  0  0
   18.0180    5.8698    8.7743 H   0  0  0  0  0
   19.1909    6.0167   10.0333 H   0  0  0  0  0
   17.7089    8.2096    8.5766 H   0  0  0  0  0
   19.3627    8.2050    9.1564 H   0  0  0  0  0
   17.2339    9.4663   10.4632 H   0  0  0  0  0
   18.7500    9.0560   11.2204 H   0  0  0  0  0
   17.7285    7.4251   12.4696 H   0  0  0  0  0
   16.1831    7.9120   11.7829 H   0  0  0  0  0
  1  2  1  0  0  0
  2  3  2  0  0  0
  2  4  1  0  0  0
  4  5  1  0  0  0
  4  7  1  0  0  0
  5  6  1  0  0  0
  6  9  1  0  0  0
  7  8  1  0  0  0
  8  9  1  0  0  0
  9 10  1  0  0  0
  9 12  1  0  0  0
 10 11  3  0  0  0
 12 13  4  0  0  0
 12 19  4  0  0  0
 13 14  4  0  0  0
 14 15  4  0  0  0
 15 16  1  0  0  0
 15 18  4  0  0  0
 16 17  1  0  0  0
 18 19  4  0  0  0
 18 20  1  0  0  0
 20 21  1  0  0  0
 21 22  1  0  0  0
 21 25  1  0  0  0
 22 23  1  0  0  0
 23 24  1  0  0  0
 24 25  1  0  0  0
  1 26  1  0  0  0
  4 27  1  0  0  0
  5 28  1  0  0  0
  5 29  1  0  0  0
  6 30  1  0  0  0
  6 31  1  0  0  0
  7 32  1  0  0  0
  7 33  1  0  0  0
  8 34  1  0  0  0
  8 35  1  0  0  0
 13 36  1  0  0  0
 14 37  1  0  0  0
 17 38  1  0  0  0
 17 39  1  0  0  0
 17 40  1  0  0  0
 19 41  1  0  0  0
 21 42  1  0  0  0
 22 43  1  0  0  0
 22 44  1  0  0  0
 23 45  1  0  0  0
 23 46  1  0  0  0
 24 47  1  0  0  0
 24 48  1  0  0  0
 25 49  1  0  0  0
 25 50  1  0  0  0
M  END
$$$$
