6ox0_ligand
  -I-interpret- 

 52 54  0  0  0  0  0  0  0  0999 V2000
    4.4130    9.0900   16.8130 N   0  3  0  0  0
    3.9040    8.3430   15.7030 C   0  0  0  0  0
    4.0000    9.1900   14.4570 C   0  0  0  0  0
    3.4860    8.7830   13.3590 O   0  0  0  0  0
    4.5950   10.3020   14.4970 O   0  0  0  0  0
    2.4320    7.8960   15.9510 C   0  0  0  0  0
    2.3740    6.5680   16.6920 C   0  0  0  0  0
    3.1270    5.5020   15.8840 C   0  0  0  0  0
    2.1740    4.6410   15.2280 N   0  3  0  0  0
    4.0680    4.6940   16.7790 C   0  0  0  0  0
    5.4150    5.3630   16.9840 C   0  0  0  0  0
    5.2600    6.4750   17.8940 O   0  0  0  0  0
    6.4090    4.4880   17.7040 C   0  0  0  0  0
    7.2120    3.7840   16.7590 O   0  0  0  0  0
    7.2210    5.5750   18.4660 C   0  0  0  0  0
    8.2190    6.1100   17.5880 O   0  0  0  0  0
    6.3760    6.5160   18.7630 C   0  0  0  0  0
    5.8870    6.4240   20.1780 N   0  0  0  0  0
    4.6900    5.9820   20.5670 C   0  0  0  0  0
    4.5740    6.0550   21.9160 N   0  0  0  0  0
    5.7200    6.5580   22.3670 C   0  0  0  0  0
    6.1660    6.8520   23.6590 C   0  0  0  0  0
    5.3780    6.6310   24.7190 N   0  0  0  0  0
    7.3630    7.3530   23.8570 N   0  0  0  0  0
    8.1180    7.5610   22.7500 C   0  0  0  0  0
    7.7940    7.3170   21.4740 N   0  0  0  0  0
    6.5610    6.8030   21.2810 C   0  0  0  0  0
    5.3756    9.3678   16.6216 H   0  0  0  0  0
    3.8393    9.9216   16.9533 H   0  0  0  0  0
    4.3855    8.5109   17.6522 H   0  0  0  0  0
    4.5006    7.4392   15.5790 H   0  0  0  0  0
    3.0743    7.9269   13.4977 H   0  0  0  0  0
    1.9387    7.7766   14.9864 H   0  0  0  0  0
    1.9372    8.6538   16.5584 H   0  0  0  0  0
    1.3344    6.2647   16.8159 H   0  0  0  0  0
    2.8374    6.6771   17.6726 H   0  0  0  0  0
    3.7415    5.9958   15.1313 H   0  0  0  0  0
    2.6722    3.9317   14.6904 H   0  0  0  0  0
    1.5876    4.1883   15.9292 H   0  0  0  0  0
    1.5905    5.1962   14.6021 H   0  0  0  0  0
    4.2452    3.7347   16.2928 H   0  0  0  0  0
    3.5942    4.5971   17.7558 H   0  0  0  0  0
    5.7601    5.6222   15.9831 H   0  0  0  0  0
    5.9893    3.7134   18.3458 H   0  0  0  0  0
    7.8417    3.2297   17.2258 H   0  0  0  0  0
    7.7047    5.1691   19.3545 H   0  0  0  0  0
    8.7244    6.7818   18.0515 H   0  0  0  0  0
    6.9126    7.4576   18.6467 H   0  0  0  0  0
    3.9145    5.6140   19.8952 H   0  0  0  0  0
    4.4431    6.2448   24.5878 H   0  0  0  0  0
    5.7127    6.8489   25.6576 H   0  0  0  0  0
    9.1106    7.9781   22.9198 H   0  0  0  0  0
  1  2  1  0  0  0
  2  3  1  0  0  0
  2  6  1  0  0  0
  3  4  1  0  0  0
  3  5  2  0  0  0
  6  7  1  0  0  0
  7  8  1  0  0  0
  8  9  1  0  0  0
  8 10  1  0  0  0
 10 11  1  0  0  0
 11 12  1  0  0  0
 11 13  1  0  0  0
 12 17  1  0  0  0
 13 14  1  0  0  0
 13 15  1  0  0  0
 15 16  1  0  0  0
 15 17  1  0  0  0
 17 18  1  0  0  0
 18 19  4  0  0  0
 18 27  4  0  0  0
 19 20  4  0  0  0
 20 21  4  0  0  0
 21 22  4  0  0  0
 21 27  4  0  0  0
 22 23  1  0  0  0
 22 24  4  0  0  0
 24 25  4  0  0  0
 25 26  4  0  0  0
 26 27  4  0  0  0
  1 28  1  0  0  0
  1 29  1  0  0  0
  1 30  1  0  0  0
  2 31  1  0  0  0
  4 32  1  0  0  0
  6 33  1  0  0  0
  6 34  1  0  0  0
  7 35  1  0  0  0
  7 36  1  0  0  0
  8 37  1  0  0  0
  9 38  1  0  0  0
  9 39  1  0  0  0
  9 40  1  0  0  0
 10 41  1  0  0  0
 10 42  1  0  0  0
 11 43  1  0  0  0
 13 44  1  0  0  0
 14 45  1  0  0  0
 15 46  1  0  0  0
 16 47  1  0  0  0
 17 48  1  0  0  0
 19 49  1  0  0  0
 23 50  1  0  0  0
 23 51  1  0  0  0
 25 52  1  0  0  0
M  END
$$$$
