5ih5_ligand
  -I-interpret- 

 30 32  0  0  0  0  0  0  0  0999 V2000
  -43.6830   18.7980    2.7210 N   0  0  0  0  0
  -44.5490   19.8050    3.0180 C   0  0  0  0  0
  -44.2960   21.0690    2.6860 N   0  0  0  0  0
  -43.1350   21.3980    1.9930 C   0  0  0  0  0
  -42.2240   20.3800    1.6710 C   0  0  0  0  0
  -42.5090   19.0310    2.0590 C   0  0  0  0  0
  -42.8770   22.7290    1.6480 N   0  0  0  0  0
  -41.6980   23.0310    0.9900 C   0  0  0  0  0
  -40.7680   21.9520    0.7090 C   0  0  0  0  0
  -41.0710   20.6590    1.0250 N   0  0  0  0  0
  -39.5130   22.1740   -0.1130 C   0  0  0  0  0
  -38.5520   23.2150   -0.0800 C   0  0  0  0  0
  -37.5090   23.2010   -1.0230 C   0  0  0  0  0
  -37.4850   22.1750   -2.0100 C   0  0  0  0  0
  -38.5030   21.1440   -2.0800 C   0  0  0  0  0
  -39.4830   21.2120   -1.1210 C   0  0  0  0  0
  -41.5760   18.0470    1.7120 N   0  0  0  0  0
  -45.7390   19.5630    3.7210 N   0  0  0  0  0
  -41.4090   24.4150    0.6230 N   0  0  0  0  0
  -38.8100   19.7350   -3.1780 Cl  0  0  0  0  0
  -38.6200   24.0108    0.6617 H   0  0  0  0  0
  -36.7308   23.9639   -0.9988 H   0  0  0  0  0
  -36.6738   22.1639   -2.7380 H   0  0  0  0  0
  -40.2827   20.4719   -1.1495 H   0  0  0  0  0
  -41.7497   17.0715    1.9541 H   0  0  0  0  0
  -40.7224   18.3054    1.2170 H   0  0  0  0  0
  -45.9705   18.6160    4.0210 H   0  0  0  0  0
  -46.3725   20.3341    3.9320 H   0  0  0  0  0
  -42.0748   25.1530    0.8519 H   0  0  0  0  0
  -40.5414   24.6434    0.1378 H   0  0  0  0  0
  1  2  4  0  0  0
  1  6  4  0  0  0
  2  3  4  0  0  0
  2 18  1  0  0  0
  3  4  4  0  0  0
  4  5  4  0  0  0
  4  7  4  0  0  0
  5  6  4  0  0  0
  5 10  4  0  0  0
  6 17  1  0  0  0
  7  8  4  0  0  0
  8  9  4  0  0  0
  8 19  1  0  0  0
  9 10  4  0  0  0
  9 11  1  0  0  0
 11 12  4  0  0  0
 11 16  4  0  0  0
 12 13  4  0  0  0
 13 14  4  0  0  0
 14 15  4  0  0  0
 15 16  4  0  0  0
 15 20  1  0  0  0
 12 21  1  0  0  0
 13 22  1  0  0  0
 14 23  1  0  0  0
 16 24  1  0  0  0
 17 25  1  0  0  0
 17 26  1  0  0  0
 18 27  1  0  0  0
 18 28  1  0  0  0
 19 29  1  0  0  0
 19 30  1  0  0  0
M  END
$$$$
