3mbp_ligand
  -I-interpret- 

 66 68  0  0  0  0  0  0  0  0999 V2000
   11.3340   20.6710   42.3890 C   0  0  0  0  0
   10.1340   21.4530   42.7730 C   0  0  0  0  0
    9.5240   22.1090   41.5220 C   0  0  0  0  0
   10.6180   22.9450   40.8570 C   0  0  0  0  0
   11.8180   22.0600   40.4690 C   0  0  0  0  0
   12.9860   22.9010   40.0170 C   0  0  0  0  0
    9.1800   20.6120   43.4430 O   0  0  0  0  0
    8.5130   23.0530   41.8910 O   0  0  0  0  0
   10.1710   23.5250   39.7040 O   0  0  0  0  0
   12.2580   21.3890   41.6830 O   0  0  0  0  0
   14.0070   22.0720   39.4630 O   0  0  0  0  0
   11.3220   15.5570   41.1180 C   0  0  0  0  0
   10.7080   16.0020   42.4230 C   0  0  0  0  0
   10.2170   17.4220   42.1960 C   0  0  0  0  0
   11.4190   18.2600   41.8290 C   0  0  0  0  0
   12.1540   17.7620   40.5770 C   0  0  0  0  0
   13.4620   18.4370   40.3680 C   0  0  0  0  0
    9.6370   15.1300   42.7700 O   0  0  0  0  0
    9.5840   17.8860   43.4040 O   0  0  0  0  0
   10.8530   19.5820   41.5140 O   0  0  0  0  0
   12.4400   16.3760   40.7570 O   0  0  0  0  0
   13.8800   18.2420   38.9670 O   0  0  0  0  0
    8.5810   13.1670   37.2960 C   0  0  0  0  0
    8.7490   12.5880   38.6650 C   0  0  0  0  0
    8.9910   13.6480   39.6900 C   0  0  0  0  0
   10.2220   14.4550   39.2460 C   0  0  0  0  0
    9.9070   15.1180   37.8760 C   0  0  0  0  0
   11.1130   15.8200   37.2620 C   0  0  0  0  0
    7.3930   13.9380   37.2320 O   0  0  0  0  0
    7.5910   11.8180   38.9460 O   0  0  0  0  0
    9.2640   13.0020   40.9520 O   0  0  0  0  0
   10.2850   15.5200   40.1660 O   0  0  0  0  0
    9.6030   14.0840   36.9670 O   0  0  0  0  0
   10.6650   16.6350   36.1460 O   0  0  0  0  0
   11.8261   20.3324   43.3008 H   0  0  0  0  0
   10.4221   22.2409   43.4689 H   0  0  0  0  0
    9.1164   21.3255   40.8831 H   0  0  0  0  0
   10.9068   23.7073   41.5805 H   0  0  0  0  0
   11.5163   21.3803   39.6721 H   0  0  0  0  0
   13.3903   23.4392   40.8743 H   0  0  0  0  0
   12.6458   23.6036   39.2563 H   0  0  0  0  0
    9.5898   20.2186   44.2169 H   0  0  0  0  0
    7.7874   22.5923   42.3186 H   0  0  0  0  0
    9.4191   24.0884   39.9011 H   0  0  0  0  0
   14.7433   22.6191   39.1798 H   0  0  0  0  0
   11.7527   14.5586   41.1934 H   0  0  0  0  0
   11.4221   15.9728   43.2460 H   0  0  0  0  0
    9.4837   17.4842   41.3920 H   0  0  0  0  0
   12.1442   18.2406   42.6425 H   0  0  0  0  0
   11.5115   17.9682   39.7210 H   0  0  0  0  0
   14.2084   18.0111   41.0385 H   0  0  0  0  0
   13.3657   19.5019   40.5796 H   0  0  0  0  0
    9.2491   15.4161   43.6002 H   0  0  0  0  0
    9.2686   18.7834   43.2743 H   0  0  0  0  0
   14.7246   18.6751   38.8230 H   0  0  0  0  0
    8.5830   12.3118   36.6202 H   0  0  0  0  0
    9.6321   11.9501   38.7009 H   0  0  0  0  0
    8.1286   14.3063   39.7949 H   0  0  0  0  0
   11.1196   13.8392   39.1894 H   0  0  0  0  0
    9.1064   15.8377   38.0468 H   0  0  0  0  0
   11.8320   15.0792   36.9121 H   0  0  0  0  0
   11.5924   16.4512   38.0102 H   0  0  0  0  0
    7.2972   14.3034   36.3495 H   0  0  0  0  0
    7.6695   11.4319   39.8214 H   0  0  0  0  0
    9.4223   13.6690   41.6240 H   0  0  0  0  0
   11.4193   17.0807   35.7536 H   0  0  0  0  0
  1  2  1  0  0  0
  1 10  1  0  0  0
 20  1  1  0  0  0
  2  3  1  0  0  0
  2  7  1  0  0  0
  3  4  1  0  0  0
  3  8  1  0  0  0
  5  4  1  0  0  0
  4  9  1  0  0  0
  5  6  1  0  0  0
 10  5  1  0  0  0
  6 11  1  0  0  0
 12 13  1  0  0  0
 12 21  1  0  0  0
 32 12  1  0  0  0
 13 14  1  0  0  0
 13 18  1  0  0  0
 14 15  1  0  0  0
 14 19  1  0  0  0
 16 15  1  0  0  0
 15 20  1  0  0  0
 16 17  1  0  0  0
 21 16  1  0  0  0
 17 22  1  0  0  0
 24 23  1  0  0  0
 23 29  1  0  0  0
 23 33  1  0  0  0
 25 24  1  0  0  0
 24 30  1  0  0  0
 26 25  1  0  0  0
 25 31  1  0  0  0
 26 27  1  0  0  0
 26 32  1  0  0  0
 27 28  1  0  0  0
 27 33  1  0  0  0
 28 34  1  0  0  0
  1 35  1  0  0  0
  2 36  1  0  0  0
  3 37  1  0  0  0
  4 38  1  0  0  0
  5 39  1  0  0  0
  6 40  1  0  0  0
  6 41  1  0  0  0
  7 42  1  0  0  0
  8 43  1  0  0  0
  9 44  1  0  0  0
 11 45  1  0  0  0
 12 46  1  0  0  0
 13 47  1  0  0  0
 14 48  1  0  0  0
 15 49  1  0  0  0
 16 50  1  0  0  0
 17 51  1  0  0  0
 17 52  1  0  0  0
 18 53  1  0  0  0
 19 54  1  0  0  0
 22 55  1  0  0  0
 23 56  1  0  0  0
 24 57  1  0  0  0
 25 58  1  0  0  0
 26 59  1  0  0  0
 27 60  1  0  0  0
 28 61  1  0  0  0
 28 62  1  0  0  0
 29 63  1  0  0  0
 30 64  1  0  0  0
 31 65  1  0  0  0
 34 66  1  0  0  0
M  END
$$$$
