6j63_ligand
  -I-interpret- 

 35 36  0  0  0  0  0  0  0  0999 V2000
   33.9020  -21.6530    4.5850 O   0  0  0  0  0
   33.1950  -22.1920    3.8000 C   0  0  0  0  0
   33.7070  -22.3820    2.3690 C   0  0  0  0  0
   33.0190  -23.4380    1.5670 C   0  0  0  0  0
   31.5330  -23.3820    1.6660 C   0  0  0  0  0
   31.0710  -23.5220    3.1140 C   0  0  0  0  0
   30.1890  -24.2790    3.3650 O   0  0  0  0  0
   31.7690  -22.6850    4.2210 C   0  0  0  0  0
   31.0740  -21.9930    5.1180 C   0  0  0  0  0
   31.4180  -20.6640    5.3510 O   0  0  0  0  0
   29.7980  -22.5850    5.7180 C   0  0  0  0  0
   29.8840  -23.4690    6.7860 C   0  0  0  0  0
   28.7330  -24.0170    7.3310 C   0  0  0  0  0
   27.4940  -23.6640    6.8190 C   0  0  0  0  0
   26.2140  -24.2320    7.4170 C   0  0  0  0  0
   25.8960  -25.4070    6.7880 F   0  0  0  0  0
   26.3990  -24.4530    8.7500 F   0  0  0  0  0
   25.2110  -23.3240    7.2400 F   0  0  0  0  0
   27.4060  -22.7740    5.7630 C   0  0  0  0  0
   28.5530  -22.2380    5.2100 C   0  0  0  0  0
   28.4270  -21.3110    4.0970 N   0  0  0  0  0
   28.2380  -21.7190    3.0080 O   0  0  0  0  0
   28.5190  -19.9380    4.3190 O   0  0  0  0  0
   34.7492  -22.6897    2.4534 H   0  0  0  0  0
   33.5311  -21.4390    1.8515 H   0  0  0  0  0
   33.3380  -24.4054    1.9549 H   0  0  0  0  0
   33.2848  -23.2821    0.5215 H   0  0  0  0  0
   31.1143  -24.2044    1.0860 H   0  0  0  0  0
   31.1948  -22.4186    1.2844 H   0  0  0  0  0
   31.9255  -23.4351    4.9962 H   0  0  0  0  0
   31.5756  -22.3564    6.0149 H   0  0  0  0  0
   30.8342  -20.2958    6.0182 H   0  0  0  0  0
   30.8587  -23.7325    7.1966 H   0  0  0  0  0
   28.8020  -24.7227    8.1589 H   0  0  0  0  0
   26.4296  -22.4953    5.3667 H   0  0  0  0  0
  1  2  2  0  0  0
  2  3  1  0  0  0
  2  8  1  0  0  0
  3  4  1  0  0  0
  4  5  1  0  0  0
  5  6  1  0  0  0
  6  7  2  0  0  0
  6  8  1  0  0  0
  8  9  1  0  0  0
  9 10  1  0  0  0
  9 11  1  0  0  0
 11 12  4  0  0  0
 11 20  4  0  0  0
 12 13  4  0  0  0
 13 14  4  0  0  0
 14 15  1  0  0  0
 14 19  4  0  0  0
 15 16  1  0  0  0
 15 17  1  0  0  0
 15 18  1  0  0  0
 19 20  4  0  0  0
 20 21  1  0  0  0
 21 22  2  0  0  0
 21 23  2  0  0  0
  3 24  1  0  0  0
  3 25  1  0  0  0
  4 26  1  0  0  0
  4 27  1  0  0  0
  5 28  1  0  0  0
  5 29  1  0  0  0
  8 30  1  0  0  0
  9 31  1  0  0  0
 10 32  1  0  0  0
 12 33  1  0  0  0
 13 34  1  0  0  0
 19 35  1  0  0  0
M  END
$$$$
