3d6o_ligand
  -I-interpret- 

 44 46  0  0  0  0  0  0  0  0999 V2000
   34.9830   -4.6780   12.4760 C   0  0  0  0  0
   36.1580   -4.5630   13.2130 C   0  0  0  0  0
   36.9630   -3.4330   13.0620 C   0  0  0  0  0
   36.6020   -2.3900   12.1720 N   0  0  0  0  0
   34.6140   -3.6620   11.5760 N   0  0  0  0  0
   43.6670   -1.7280   15.6860 C   0  0  0  0  0
   43.0740   -0.3290   15.4650 C   0  0  0  0  0
   42.3070   -0.2320   14.1260 C   0  0  0  0  0
   43.1190   -2.7260   14.6560 C   0  0  0  0  0
   41.5970   -2.5850   14.4910 C   0  0  0  0  0
   41.2220   -1.2390   14.0040 N   0  3  0  0  0
   40.0440   -0.7590   14.7480 C   0  0  0  0  0
   38.7520   -0.8450   13.9020 C   0  0  0  0  0
   38.8130   -1.4260   12.5540 O   0  0  0  0  0
   38.2010    0.5180   13.5660 C   0  0  0  0  0
   37.7400    1.2280   14.7060 O   0  0  0  0  0
   37.0080    0.1200   12.7250 C   0  0  0  0  0
   36.8670    1.1950   11.8120 O   0  0  0  0  0
   37.4830   -1.1760   12.0090 C   0  0  0  0  0
   34.2750   -5.6740   12.6040 O   0  0  0  0  0
   35.4160   -2.5160   11.4240 C   0  0  0  0  0
   35.0660   -1.6390   10.6350 O   0  0  0  0  0
   36.4485   -5.3528   13.9058 H   0  0  0  0  0
   37.8848   -3.3509   13.6380 H   0  0  0  0  0
   33.7582   -3.7568   11.0292 H   0  0  0  0  0
   43.3941   -2.0701   16.6843 H   0  0  0  0  0
   44.7499   -1.6705   15.5758 H   0  0  0  0  0
   43.8934    0.3895   15.4421 H   0  0  0  0  0
   42.3744   -0.1228   16.2750 H   0  0  0  0  0
   43.0197   -0.4129   13.3214 H   0  0  0  0  0
   41.8498    0.7562   14.0762 H   0  0  0  0  0
   43.3370   -3.7359   15.0033 H   0  0  0  0  0
   43.5911   -2.5246   13.6944 H   0  0  0  0  0
   41.1301   -2.7409   15.4635 H   0  0  0  0  0
   41.2610   -3.3207   13.7602 H   0  0  0  0  0
   41.0216   -1.3411   13.0091 H   0  0  0  0  0
   40.2097    0.2852   15.0130 H   0  0  0  0  0
   39.9174   -1.3876   15.6295 H   0  0  0  0  0
   38.1744   -1.4818   14.5721 H   0  0  0  0  0
   38.9376    1.1748   13.1033 H   0  0  0  0  0
   37.4020    2.0842   14.4333 H   0  0  0  0  0
   36.0664   -0.0580   13.2445 H   0  0  0  0  0
   36.1223    1.0241   11.2308 H   0  0  0  0  0
   37.4575   -1.0130   10.9316 H   0  0  0  0  0
  2  1  1  0  0  0
  5  1  1  0  0  0
  1 20  2  0  0  0
  3  2  2  0  0  0
  4  3  1  0  0  0
 19  4  1  0  0  0
  4 21  1  0  0  0
 21  5  1  0  0  0
  7  6  1  0  0  0
  9  6  1  0  0  0
  8  7  1  0  0  0
 11  8  1  0  0  0
 10  9  1  0  0  0
 11 10  1  0  0  0
 12 11  1  0  0  0
 13 12  1  0  0  0
 14 13  1  0  0  0
 13 15  1  0  0  0
 14 19  1  0  0  0
 15 16  1  0  0  0
 15 17  1  0  0  0
 17 18  1  0  0  0
 17 19  1  0  0  0
 21 22  2  0  0  0
  2 23  1  0  0  0
  3 24  1  0  0  0
  5 25  1  0  0  0
  6 26  1  0  0  0
  6 27  1  0  0  0
  7 28  1  0  0  0
  7 29  1  0  0  0
  8 30  1  0  0  0
  8 31  1  0  0  0
  9 32  1  0  0  0
  9 33  1  0  0  0
 10 34  1  0  0  0
 10 35  1  0  0  0
 11 36  1  0  0  0
 12 37  1  0  0  0
 12 38  1  0  0  0
 13 39  1  0  0  0
 15 40  1  0  0  0
 16 41  1  0  0  0
 17 42  1  0  0  0
 18 43  1  0  0  0
 19 44  1  0  0  0
M  END
$$$$
