4frk_ligand
  -I-interpret- 

 52 56  0  0  0  0  0  0  0  0999 V2000
   74.0350   47.0350    6.0540 C   0  0  0  0  0
   74.4870   46.2190    5.1090 N   0  0  0  0  0
   73.8200   46.0660    3.9680 C   0  0  0  0  0
   72.6920   46.7190    3.7420 N   0  0  0  0  0
   72.1990   47.5670    4.6340 C   0  0  0  0  0
   72.8600   47.7600    5.8490 C   0  0  0  0  0
   72.3550   48.6160    6.8450 C   0  0  0  0  0
   70.9930   48.5710    7.1680 C   0  0  0  0  0
   70.4610   49.3970    8.1660 C   0  0  0  0  0
   73.1970   49.4890    7.5390 C   0  0  0  0  0
   72.6670   50.3270    8.5380 C   0  0  0  0  0
   71.3090   50.2790    8.8580 C   0  0  0  0  0
   70.8650   51.1090    9.8560 O   0  0  0  0  0
   69.5500   51.1980   10.1580 C   0  0  0  0  0
   69.2090   52.1360   11.1180 C   0  0  0  0  0
   67.8800   52.2970   11.5000 C   0  0  0  0  0
   66.8860   51.4990   10.9200 C   0  0  0  0  0
   65.6050   51.7410   11.3280 O   0  0  0  0  0
   64.6940   50.6940   11.3200 C   0  0  0  0  0
   63.5120   51.3170   12.0860 C   0  0  0  0  0
   62.7320   50.2130   12.7800 C   0  0  0  0  0
   62.5960   52.1260   11.1700 C   0  0  0  0  0
   67.2250   50.5500    9.9430 C   0  0  0  0  0
   68.5660   50.3880    9.5620 C   0  0  0  0  0
   68.9480   49.3380    8.4960 C   0  0  0  0  0
   68.5630   47.9020    8.8940 C   0  0  0  0  0
   67.6580   47.4560    7.8240 O   0  0  0  0  0
   67.3530   48.5290    7.0320 C   0  0  0  0  0
   66.4260   48.4810    6.0650 N   0  0  0  0  0
   68.0580   49.6200    7.3170 N   0  0  0  0  0
   74.5822   47.1388    6.9910 H   0  0  0  0  0
   74.2098   45.3908    3.2062 H   0  0  0  0  0
   71.2799   48.1123    4.4195 H   0  0  0  0  0
   70.3372   47.8828    6.6347 H   0  0  0  0  0
   74.2616   49.5209    7.3073 H   0  0  0  0  0
   73.3225   51.0193    9.0663 H   0  0  0  0  0
   69.9840   52.7505   11.5762 H   0  0  0  0  0
   67.6136   53.0427   12.2491 H   0  0  0  0  0
   65.0750   49.7780   11.7716 H   0  0  0  0  0
   64.4341   50.3468   10.3200 H   0  0  0  0  0
   63.9111   52.0114   12.8254 H   0  0  0  0  0
   62.3577   49.5108   12.0350 H   0  0  0  0  0
   63.3868   49.6903   13.4772 H   0  0  0  0  0
   61.8939   50.6487   13.3239 H   0  0  0  0  0
   63.1658   52.9329   10.7092 H   0  0  0  0  0
   62.1931   51.4749   10.3942 H   0  0  0  0  0
   61.7776   52.5455   11.7552 H   0  0  0  0  0
   66.4485   49.9402    9.4812 H   0  0  0  0  0
   68.0887   47.8621    9.8746 H   0  0  0  0  0
   69.4354   47.2554    8.9884 H   0  0  0  0  0
   65.9122   47.6167    5.8935 H   0  0  0  0  0
   68.0037   50.5067    6.8158 H   0  0  0  0  0
  1  2  4  0  0  0
  1  6  4  0  0  0
  2  3  4  0  0  0
  3  4  4  0  0  0
  4  5  4  0  0  0
  5  6  4  0  0  0
  6  7  1  0  0  0
  7  8  4  0  0  0
  7 10  4  0  0  0
  8  9  4  0  0  0
  9 12  4  0  0  0
  9 25  1  0  0  0
 10 11  4  0  0  0
 11 12  4  0  0  0
 12 13  1  0  0  0
 13 14  1  0  0  0
 14 15  4  0  0  0
 14 24  4  0  0  0
 15 16  4  0  0  0
 16 17  4  0  0  0
 17 18  1  0  0  0
 17 23  4  0  0  0
 18 19  1  0  0  0
 19 20  1  0  0  0
 20 21  1  0  0  0
 20 22  1  0  0  0
 23 24  4  0  0  0
 24 25  1  0  0  0
 25 26  1  0  0  0
 25 30  1  0  0  0
 26 27  1  0  0  0
 27 28  1  0  0  0
 28 29  2  0  0  0
 28 30  1  0  0  0
  1 31  1  0  0  0
  3 32  1  0  0  0
  5 33  1  0  0  0
  8 34  1  0  0  0
 10 35  1  0  0  0
 11 36  1  0  0  0
 15 37  1  0  0  0
 16 38  1  0  0  0
 19 39  1  0  0  0
 19 40  1  0  0  0
 20 41  1  0  0  0
 21 42  1  0  0  0
 21 43  1  0  0  0
 21 44  1  0  0  0
 22 45  1  0  0  0
 22 46  1  0  0  0
 22 47  1  0  0  0
 23 48  1  0  0  0
 26 49  1  0  0  0
 26 50  1  0  0  0
 29 51  1  0  0  0
 30 52  1  0  0  0
M  END
$$$$
