### 
### Created by X-TOOL on Mon Sep 10 21:12:49 2018
### 

@<TRIPOS>MOLECULE
1ms6_ligand
   61    62     1     0     0
SMALL
GAST_HUCK


@<TRIPOS>ATOM
      1 C1         50.6790   28.9840   61.6690 C.2       1 BLN         0.2623
      2 C2         51.5670   29.6310   63.8690 C.3       1 BLN         0.0577
      3 C3         51.9100   28.8360   65.1330 C.3       1 BLN         0.0678
      4 C5         53.0600   27.1730   63.9000 C.3       1 BLN         0.0678
      5 C6         52.7050   27.8160   62.5460 C.3       1 BLN         0.0577
      6 O1         49.7790   29.8170   61.7760 O.2       1 BLN        -0.4005
      7 O2         53.1520   28.1550   64.9360 O.3       1 BLN        -0.3758
      8 N1         51.6160   28.7890   62.6490 N.am      1 BLN        -0.2550
      9 N          50.7880   28.2580   60.5550 N.am      1 BLN        -0.2517
     10 CA         49.7920   28.4250   59.4840 C.3       1 BLN         0.1316
     11 CB         50.1930   27.6390   58.2310 C.3       1 BLN        -0.0103
     12 CG         51.5050   28.0890   57.5760 C.3       1 BLN        -0.0425
     13 CD1        51.8320   27.1980   56.3670 C.3       1 BLN        -0.0625
     14 CD2        51.3720   29.5510   57.1330 C.3       1 BLN        -0.0625
     15 C          48.4770   27.8970   60.0640 C.2       1 BLN         0.2046
     16 O          48.4680   26.8420   60.6850 O.2       1 BLN        -0.3943
     17 CB'        45.3500   29.4450   60.9580 C.3       1 BLN         0.0909
     18 N'         47.3700   28.6100   59.8570 N.am      1 BLN        -0.2602
     19 OG         45.0790   30.2630   59.8400 O.3       1 BLN        -0.3617
     20 CD         44.7860   31.6030   60.2230 C.3       1 BLN         0.0820
     21 C1'        44.0390   32.2400   59.0900 C.ar      1 BLN        -0.0175
     22 C2'        42.6600   32.1650   59.0270 C.ar      1 BLN        -0.0581
     23 C3'        41.9580   32.7470   57.9610 C.ar      1 BLN        -0.0685
     24 C4'        42.6480   33.4100   56.9550 C.ar      1 BLN        -0.0687
     25 C5'        44.0350   33.4920   57.0070 C.ar      1 BLN        -0.0685
     26 C6'        44.7230   32.9080   58.0710 C.ar      1 BLN        -0.0581
     27 C'         45.1930   27.3610   59.6000 C.2       1 BLN         0.0229
     28 N40        43.8980   27.1820   59.8160 N.2       1 BLN        -0.3618
     29 CA'        46.0970   28.2030   60.4770 C.3       1 BLN         0.1242
     30 H1         52.2888   30.4540   63.7610 H         1 BLN         0.0542
     31 H2         50.5529   30.0440   63.9742 H         1 BLN         0.0542
     32 H3         51.1155   28.1021   65.3333 H         1 BLN         0.0580
     33 H4         51.9984   29.5231   65.9874 H         1 BLN         0.0580
     34 H5         54.0274   26.6574   63.8087 H         1 BLN         0.0580
     35 H6         52.2799   26.4445   64.1658 H         1 BLN         0.0580
     36 H7         52.4018   27.0216   61.8482 H         1 BLN         0.0542
     37 H8         53.5971   28.3269   62.1547 H         1 BLN         0.0542
     38 H9         51.5392   27.6066   60.4486 H         1 BLN         0.1877
     39 H10        49.6911   29.4889   59.2233 H         1 BLN         0.0797
     40 H11        49.3875   27.7448   57.4894 H         1 BLN         0.0315
     41 H12        50.2969   26.5803   58.5109 H         1 BLN         0.0315
     42 H13        52.3202   28.0073   58.3100 H         1 BLN         0.0298
     43 H14        52.7743   27.5330   55.9089 H         1 BLN         0.0232
     44 H15        51.0197   27.2692   55.6287 H         1 BLN         0.0232
     45 H16        51.9361   26.1542   56.6982 H         1 BLN         0.0232
     46 H17        51.1382   30.1787   58.0056 H         1 BLN         0.0232
     47 H18        50.5637   29.6375   56.3920 H         1 BLN         0.0232
     48 H19        52.3187   29.8856   56.6838 H         1 BLN         0.0232
     49 H20        44.4061   29.1479   61.4385 H         1 BLN         0.0622
     50 H21        45.9712   29.9959   61.6795 H         1 BLN         0.0622
     51 H22        47.4037   29.4248   59.2783 H         1 BLN         0.1897
     52 H23        45.7198   32.1523   60.4136 H         1 BLN         0.0724
     53 H24        44.1660   31.6073   61.1316 H         1 BLN         0.0724
     54 H25        42.1150   31.6506   59.8102 H         1 BLN         0.0557
     55 H26        40.8768   32.6791   57.9227 H         1 BLN         0.0599
     56 H27        42.1071   33.8623   56.1316 H         1 BLN         0.0559
     57 H28        44.5795   34.0075   56.2242 H         1 BLN         0.0599
     58 H29        45.8044   32.9735   58.1077 H         1 BLN         0.0557
     59 H30        45.6368   26.8705   58.7349 H         1 BLN         0.1226
     60 H31        43.3572   26.6070   59.1891 H         1 BLN         0.1054
     61 H32        46.3475   27.5929   61.3573 H         1 BLN         0.0863
@<TRIPOS>BOND
     1    1    6 2  
     2    1    8 am 
     3    9    1 am 
     4    2    3 1  
     5    8    2 1  
     6    3    7 1  
     7    5    4 1  
     8    4    7 1  
     9    8    5 1  
    10   10    9 1  
    11   10   11 1  
    12   15   10 1  
    13   11   12 1  
    14   12   13 1  
    15   12   14 1  
    16   15   16 2  
    17   18   15 am 
    18   17   19 1  
    19   29   17 1  
    20   29   18 1  
    21   19   20 1  
    22   20   21 1  
    23   21   22 ar 
    24   21   26 ar 
    25   22   23 ar 
    26   23   24 ar 
    27   25   24 ar 
    28   26   25 ar 
    29   27   28 2  
    30   27   29 1  
    31    2   30 1  
    32    2   31 1  
    33    3   32 1  
    34    3   33 1  
    35    4   34 1  
    36    4   35 1  
    37    5   36 1  
    38    5   37 1  
    39    9   38 1  
    40   10   39 1  
    41   11   40 1  
    42   11   41 1  
    43   12   42 1  
    44   13   43 1  
    45   13   44 1  
    46   13   45 1  
    47   14   46 1  
    48   14   47 1  
    49   14   48 1  
    50   17   49 1  
    51   17   50 1  
    52   18   51 1  
    53   20   52 1  
    54   20   53 1  
    55   22   54 1  
    56   23   55 1  
    57   24   56 1  
    58   25   57 1  
    59   26   58 1  
    60   27   59 1  
    61   28   60 1  
    62   29   61 1  
@<TRIPOS>SUBSTRUCTURE
     1 BLN         1

