1ms6_ligand
  -I-interpret- 

 61 62  0  0  0  0  0  0  0  0999 V2000
   50.6790   28.9840   61.6690 C   0  0  0  0  0
   51.5670   29.6310   63.8690 C   0  0  0  0  0
   51.9100   28.8360   65.1330 C   0  0  0  0  0
   53.0600   27.1730   63.9000 C   0  0  0  0  0
   52.7050   27.8160   62.5460 C   0  0  0  0  0
   49.7790   29.8170   61.7760 O   0  0  0  0  0
   53.1520   28.1550   64.9360 O   0  0  0  0  0
   51.6160   28.7890   62.6490 N   0  0  0  0  0
   50.7880   28.2580   60.5550 N   0  0  0  0  0
   49.7920   28.4250   59.4840 C   0  0  0  0  0
   50.1930   27.6390   58.2310 C   0  0  0  0  0
   51.5050   28.0890   57.5760 C   0  0  0  0  0
   51.8320   27.1980   56.3670 C   0  0  0  0  0
   51.3720   29.5510   57.1330 C   0  0  0  0  0
   48.4770   27.8970   60.0640 C   0  0  0  0  0
   48.4680   26.8420   60.6850 O   0  0  0  0  0
   45.3500   29.4450   60.9580 C   0  0  0  0  0
   47.3700   28.6100   59.8570 N   0  0  0  0  0
   45.0790   30.2630   59.8400 O   0  0  0  0  0
   44.7860   31.6030   60.2230 C   0  0  0  0  0
   44.0390   32.2400   59.0900 C   0  0  0  0  0
   42.6600   32.1650   59.0270 C   0  0  0  0  0
   41.9580   32.7470   57.9610 C   0  0  0  0  0
   42.6480   33.4100   56.9550 C   0  0  0  0  0
   44.0350   33.4920   57.0070 C   0  0  0  0  0
   44.7230   32.9080   58.0710 C   0  0  0  0  0
   45.1930   27.3610   59.6000 C   0  0  0  0  0
   43.8980   27.1820   59.8160 N   0  0  0  0  0
   46.0970   28.2030   60.4770 C   0  0  0  0  0
   52.3009   30.4296   63.7603 H   0  0  0  0  0
   50.5531   30.0168   63.9750 H   0  0  0  0  0
   51.1221   28.1101   65.3343 H   0  0  0  0  0
   51.9952   29.5153   65.9811 H   0  0  0  0  0
   54.0266   26.6781   63.8054 H   0  0  0  0  0
   52.2745   26.4646   64.1633 H   0  0  0  0  0
   52.3808   27.0216   61.8737 H   0  0  0  0  0
   53.5888   28.3409   62.1835 H   0  0  0  0  0
   51.5542   27.5935   60.4464 H   0  0  0  0  0
   49.7068   29.4666   59.1743 H   0  0  0  0  0
   49.4041   27.7955   57.4954 H   0  0  0  0  0
   50.3348   26.6037   58.5409 H   0  0  0  0  0
   52.3168   27.9995   58.2978 H   0  0  0  0  0
   51.9348   26.1641   56.6965 H   0  0  0  0  0
   51.0264   27.2694   55.6362 H   0  0  0  0  0
   52.7658   27.5309   55.9139 H   0  0  0  0  0
   50.5555   29.6393   56.4163 H   0  0  0  0  0
   51.1634   30.1751   58.0020 H   0  0  0  0  0
   52.3028   29.8742   56.6670 H   0  0  0  0  0
   44.4177   29.1551   61.4427 H   0  0  0  0  0
   45.9583   29.9898   61.6800 H   0  0  0  0  0
   47.4044   29.4411   59.2667 H   0  0  0  0  0
   45.7053   32.1507   60.4303 H   0  0  0  0  0
   44.1856   31.6177   61.1326 H   0  0  0  0  0
   42.1120   31.6478   59.8146 H   0  0  0  0  0
   40.8708   32.6787   57.9225 H   0  0  0  0  0
   42.1041   33.8648   56.1271 H   0  0  0  0  0
   44.5825   34.0104   56.2198 H   0  0  0  0  0
   45.8104   32.9738   58.1079 H   0  0  0  0  0
   45.6372   26.8700   58.7342 H   0  0  0  0  0
   43.4483   27.6261   60.6166 H   0  0  0  0  0
   46.3668   27.5537   61.3099 H   0  0  0  0  0
  1  6  2  0  0  0
  1  8  1  0  0  0
  9  1  1  0  0  0
  2  3  1  0  0  0
  8  2  1  0  0  0
  3  7  1  0  0  0
  5  4  1  0  0  0
  4  7  1  0  0  0
  8  5  1  0  0  0
 10  9  1  0  0  0
 10 11  1  0  0  0
 15 10  1  0  0  0
 11 12  1  0  0  0
 12 13  1  0  0  0
 12 14  1  0  0  0
 15 16  2  0  0  0
 18 15  1  0  0  0
 17 19  1  0  0  0
 29 17  1  0  0  0
 29 18  1  0  0  0
 19 20  1  0  0  0
 20 21  1  0  0  0
 21 22  4  0  0  0
 21 26  4  0  0  0
 22 23  4  0  0  0
 23 24  4  0  0  0
 25 24  4  0  0  0
 26 25  4  0  0  0
 27 28  2  0  0  0
 27 29  1  0  0  0
  2 30  1  0  0  0
  2 31  1  0  0  0
  3 32  1  0  0  0
  3 33  1  0  0  0
  4 34  1  0  0  0
  4 35  1  0  0  0
  5 36  1  0  0  0
  5 37  1  0  0  0
  9 38  1  0  0  0
 10 39  1  0  0  0
 11 40  1  0  0  0
 11 41  1  0  0  0
 12 42  1  0  0  0
 13 43  1  0  0  0
 13 44  1  0  0  0
 13 45  1  0  0  0
 14 46  1  0  0  0
 14 47  1  0  0  0
 14 48  1  0  0  0
 17 49  1  0  0  0
 17 50  1  0  0  0
 18 51  1  0  0  0
 20 52  1  0  0  0
 20 53  1  0  0  0
 22 54  1  0  0  0
 23 55  1  0  0  0
 24 56  1  0  0  0
 25 57  1  0  0  0
 26 58  1  0  0  0
 27 59  1  0  0  0
 28 60  1  0  0  0
 29 61  1  0  0  0
M  END
$$$$
