4zme_ligand
  -I-interpret- 

 32 34  0  0  0  0  0  0  0  0999 V2000
   13.9680  -14.8590    7.9420 O   0  0  0  0  0
   14.5180  -14.1610    6.8270 C   0  0  0  0  0
   15.0250  -12.8510    7.3700 C   0  0  0  0  0
   16.4580  -12.7460    7.3270 O   0  0  0  0  0
   14.4520  -11.7030    6.5740 C   0  0  0  0  0
   13.2030  -11.2660    7.1010 O   0  0  0  0  0
   15.5100  -10.6460    6.7110 C   0  0  0  0  0
   15.2650   -9.8690    7.8930 O   0  0  0  0  0
   16.7940  -11.4440    6.8250 C   0  0  0  0  0
   17.5050  -11.5910    5.5300 N   0  0  0  0  0
   17.4540  -12.6320    4.6610 C   0  0  0  0  0
   18.2960  -12.4180    3.5980 N   0  0  0  0  0
   18.9040  -11.2360    3.8100 C   0  0  0  0  0
   19.9070  -10.3980    3.1250 C   0  0  0  0  0
   20.4580  -10.7800    1.9500 N   0  0  0  0  0
   20.2650   -9.2290    3.6960 N   0  0  0  0  0
   19.7240   -8.8020    4.8690 C   0  0  0  0  0
   18.8060   -9.5100    5.5310 N   0  0  0  0  0
   18.3670  -10.6980    5.0680 C   0  0  0  0  0
   13.6275  -15.7079    7.6504 H   0  0  0  0  0
   13.7699  -14.0044    6.0499 H   0  0  0  0  0
   15.3196  -14.7322    6.3587 H   0  0  0  0  0
   14.7064  -12.8096    8.4116 H   0  0  0  0  0
   14.2351  -11.9653    5.5385 H   0  0  0  0  0
   12.5516  -11.9636    6.9975 H   0  0  0  0  0
   15.5390   -9.9387    5.8822 H   0  0  0  0  0
   14.4471   -9.3776    7.7877 H   0  0  0  0  0
   17.4674  -10.9075    7.4934 H   0  0  0  0  0
   16.8302  -13.5166    4.7893 H   0  0  0  0  0
   20.1818  -11.6629    1.5203 H   0  0  0  0  0
   21.1496  -10.1851    1.4938 H   0  0  0  0  0
   20.0516   -7.8483    5.2828 H   0  0  0  0  0
  1  2  1  0  0  0
  2  3  1  0  0  0
  3  4  1  0  0  0
  3  5  1  0  0  0
  4  9  1  0  0  0
  5  6  1  0  0  0
  5  7  1  0  0  0
  7  8  1  0  0  0
  7  9  1  0  0  0
  9 10  1  0  0  0
 10 11  4  0  0  0
 10 19  4  0  0  0
 11 12  4  0  0  0
 12 13  4  0  0  0
 13 14  4  0  0  0
 13 19  4  0  0  0
 14 15  1  0  0  0
 14 16  4  0  0  0
 16 17  4  0  0  0
 17 18  4  0  0  0
 18 19  4  0  0  0
  1 20  1  0  0  0
  2 21  1  0  0  0
  2 22  1  0  0  0
  3 23  1  0  0  0
  5 24  1  0  0  0
  6 25  1  0  0  0
  7 26  1  0  0  0
  8 27  1  0  0  0
  9 28  1  0  0  0
 11 29  1  0  0  0
 15 30  1  0  0  0
 15 31  1  0  0  0
 17 32  1  0  0  0
M  END
$$$$
