4olh_ligand
  -I-interpret- 

 58 61  0  0  0  0  0  0  0  0999 V2000
   44.8600  -20.8000  -15.5180 C   0  0  0  0  0
   45.4260  -19.5620  -15.6630 C   0  0  0  0  0
   45.1150  -18.5340  -14.7820 C   0  0  0  0  0
   45.6940  -17.3270  -14.9180 N   0  0  0  0  0
   44.2320  -18.7670  -13.7940 N   0  0  0  0  0
   43.6530  -19.9490  -13.6490 C   0  0  0  0  0
   43.9510  -20.9950  -14.4980 C   0  0  0  0  0
   43.1550  -22.5320  -14.2960 S   0  0  0  0  0
   43.9820  -23.6410  -14.6970 O   0  0  0  0  0
   42.7400  -22.6960  -12.8720 O   0  0  0  0  0
   41.8300  -22.5510  -15.2240 N   0  0  0  0  0
   42.1930  -22.0970  -16.5560 C   0  0  0  0  0
   40.9900  -22.0920  -17.4830 C   0  0  0  0  0
   40.8520  -21.6490  -14.6510 C   0  0  0  0  0
   39.5810  -21.9390  -15.3920 C   0  0  0  0  0
   39.7650  -21.6590  -16.8130 N   0  0  0  0  0
   38.6930  -21.2620  -17.5970 C   0  0  0  0  0
   38.6230  -21.8730  -18.7790 N   0  0  0  0  0
   37.6490  -21.6230  -19.6630 C   0  0  0  0  0
   36.6070  -20.7440  -19.3910 C   0  0  0  0  0
   35.4450  -20.4680  -20.3590 C   0  0  0  0  0
   35.8260  -19.4570  -21.4380 C   0  0  0  0  0
   36.8270  -19.9640  -22.1480 F   0  0  0  0  0
   36.1260  -18.3410  -20.8120 F   0  0  0  0  0
   34.8120  -19.1290  -22.2520 F   0  0  0  0  0
   34.8760  -21.7320  -20.9720 C   0  0  0  0  0
   34.5960  -22.5860  -20.0400 F   0  0  0  0  0
   35.6870  -22.3120  -21.7680 F   0  0  0  0  0
   33.7630  -21.4190  -21.6260 F   0  0  0  0  0
   34.3150  -19.9710  -19.6510 O   0  0  0  0  0
   36.6700  -20.0880  -18.1740 C   0  0  0  0  0
   37.6970  -20.3450  -17.2460 C   0  0  0  0  0
   37.6360  -19.6220  -16.0440 C   0  0  0  0  0
   36.4040  -19.3730  -15.4400 C   0  0  0  0  0
   36.3470  -18.6070  -14.2690 C   0  0  0  0  0
   37.5330  -18.1260  -13.7070 C   0  0  0  0  0
   38.6950  -18.3720  -14.3220 N   0  0  0  0  0
   38.7780  -19.1020  -15.4380 C   0  0  0  0  0
   45.1217  -21.6143  -16.1937 H   0  0  0  0  0
   46.1274  -19.3812  -16.4775 H   0  0  0  0  0
   46.3638  -17.1645  -15.6699 H   0  0  0  0  0
   45.4631  -16.5746  -14.2692 H   0  0  0  0  0
   42.9301  -20.0979  -12.8469 H   0  0  0  0  0
   42.9420  -22.7766  -16.9625 H   0  0  0  0  0
   42.5797  -21.0805  -16.4832 H   0  0  0  0  0
   40.8358  -23.1111  -17.8376 H   0  0  0  0  0
   41.1942  -21.3921  -18.2933 H   0  0  0  0  0
   41.1526  -20.6064  -14.7545 H   0  0  0  0  0
   40.7393  -21.8021  -13.5777 H   0  0  0  0  0
   38.7825  -21.3090  -15.0001 H   0  0  0  0  0
   39.3183  -22.9888  -15.2617 H   0  0  0  0  0
   37.6740  -22.1262  -20.6296 H   0  0  0  0  0
   33.5996  -19.8041  -20.2690 H   0  0  0  0  0
   35.9040  -19.3527  -17.9274 H   0  0  0  0  0
   35.4892  -19.7729  -15.8775 H   0  0  0  0  0
   35.3875  -18.3881  -13.8006 H   0  0  0  0  0
   37.5111  -17.5567  -12.7778 H   0  0  0  0  0
   39.7550  -19.2939  -15.8816 H   0  0  0  0  0
  1  2  4  0  0  0
  1  7  4  0  0  0
  2  3  4  0  0  0
  3  4  1  0  0  0
  3  5  4  0  0  0
  5  6  4  0  0  0
  6  7  4  0  0  0
  7  8  1  0  0  0
  8  9  2  0  0  0
  8 10  2  0  0  0
  8 11  1  0  0  0
 11 12  1  0  0  0
 11 14  1  0  0  0
 12 13  1  0  0  0
 13 16  1  0  0  0
 14 15  1  0  0  0
 15 16  1  0  0  0
 16 17  1  0  0  0
 17 18  4  0  0  0
 17 32  4  0  0  0
 18 19  4  0  0  0
 19 20  4  0  0  0
 20 21  1  0  0  0
 20 31  4  0  0  0
 21 22  1  0  0  0
 21 26  1  0  0  0
 21 30  1  0  0  0
 22 23  1  0  0  0
 22 24  1  0  0  0
 22 25  1  0  0  0
 26 27  1  0  0  0
 26 28  1  0  0  0
 26 29  1  0  0  0
 31 32  4  0  0  0
 32 33  1  0  0  0
 33 34  4  0  0  0
 33 38  4  0  0  0
 34 35  4  0  0  0
 35 36  4  0  0  0
 36 37  4  0  0  0
 37 38  4  0  0  0
  1 39  1  0  0  0
  2 40  1  0  0  0
  4 41  1  0  0  0
  4 42  1  0  0  0
  6 43  1  0  0  0
 12 44  1  0  0  0
 12 45  1  0  0  0
 13 46  1  0  0  0
 13 47  1  0  0  0
 14 48  1  0  0  0
 14 49  1  0  0  0
 15 50  1  0  0  0
 15 51  1  0  0  0
 19 52  1  0  0  0
 30 53  1  0  0  0
 31 54  1  0  0  0
 34 55  1  0  0  0
 35 56  1  0  0  0
 36 57  1  0  0  0
 38 58  1  0  0  0
M  END
$$$$
