6e5t_ligand
  -I-interpret- 

 41 42  0  0  0  0  0  0  0  0999 V2000
   14.2790   46.2180  106.2370 C   0  0  0  0  0
   11.3750   46.2000  111.5760 C   0  0  0  0  0
   12.2790   47.5930  106.5690 C   0  0  0  0  0
   15.0580   50.0390  106.9330 C   0  0  0  0  0
   16.4740   48.7210  108.3670 C   0  0  0  0  0
   13.9240   46.1090  104.9150 C   0  0  0  0  0
   11.9660   47.4850  105.2220 C   0  0  0  0  0
   15.5480   45.4760  106.6650 C   0  0  0  0  0
   12.7780   46.7220  104.4040 C   0  0  0  0  0
   15.2330   49.1220  108.1080 C   0  0  0  0  0
   11.4950   48.3260  107.3810 O   0  0  0  0  0
   12.4410   46.6200  103.0900 O   0  0  0  0  0
   14.0320   48.6370  108.9480 C   0  0  0  0  0
   13.7010   47.1780  108.5890 C   0  0  0  0  0
   14.2240   48.7060  110.4550 C   0  0  0  0  0
   13.0080   48.2310  111.2490 C   0  0  0  0  0
   12.6610   46.5830  109.4530 C   0  0  0  0  0
   12.3600   46.9700  110.7100 C   0  0  0  0  0
   13.4580   46.9920  107.1280 C   0  0  0  0  0
   10.4012   46.1804  111.0867 H   0  0  0  0  0
   11.7344   45.1802  111.7139 H   0  0  0  0  0
   11.2860   46.6895  112.5458 H   0  0  0  0  0
   15.6384   50.9476  107.0933 H   0  0  0  0  0
   15.4054   49.5392  106.0288 H   0  0  0  0  0
   14.0036   50.2939  106.8265 H   0  0  0  0  0
   16.6636   48.0323  109.1903 H   0  0  0  0  0
   17.3018   49.0809  107.7560 H   0  0  0  0  0
   14.5557   45.5265  104.2443 H   0  0  0  0  0
   11.0926   47.9943  104.8146 H   0  0  0  0  0
   15.4254   44.4097  106.4750 H   0  0  0  0  0
   16.3973   45.8527  106.0950 H   0  0  0  0  0
   15.7215   45.6392  107.7287 H   0  0  0  0  0
   11.8467   48.2986  108.2738 H   0  0  0  0  0
   11.6276   47.1045  102.9309 H   0  0  0  0  0
   13.2254   49.3262  108.6981 H   0  0  0  0  0
   14.5976   46.5989  108.8099 H   0  0  0  0  0
   14.3964   49.7504  110.7150 H   0  0  0  0  0
   15.0566   48.0499  110.7087 H   0  0  0  0  0
   12.2610   49.0229  111.1935 H   0  0  0  0  0
   13.3532   48.0065  112.2582 H   0  0  0  0  0
   12.0846   45.7565  109.0374 H   0  0  0  0  0
  1  6  4  0  0  0
  1  8  1  0  0  0
 19  1  4  0  0  0
 18  2  1  0  0  0
  3  7  4  0  0  0
  3 11  1  0  0  0
 19  3  4  0  0  0
 10  4  1  0  0  0
 10  5  2  0  0  0
  6  9  4  0  0  0
  7  9  4  0  0  0
  9 12  1  0  0  0
 13 10  1  0  0  0
 13 14  1  0  0  0
 15 13  1  0  0  0
 14 17  1  0  0  0
 14 19  1  0  0  0
 16 15  1  0  0  0
 16 18  1  0  0  0
 17 18  2  0  0  0
  2 20  1  0  0  0
  2 21  1  0  0  0
  2 22  1  0  0  0
  4 23  1  0  0  0
  4 24  1  0  0  0
  4 25  1  0  0  0
  5 26  1  0  0  0
  5 27  1  0  0  0
  6 28  1  0  0  0
  7 29  1  0  0  0
  8 30  1  0  0  0
  8 31  1  0  0  0
  8 32  1  0  0  0
 11 33  1  0  0  0
 12 34  1  0  0  0
 13 35  1  0  0  0
 14 36  1  0  0  0
 15 37  1  0  0  0
 15 38  1  0  0  0
 16 39  1  0  0  0
 16 40  1  0  0  0
 17 41  1  0  0  0
M  END
$$$$
