1odi_ligand
  -I-interpret- 

 32 34  0  0  0  0  0  0  0  0999 V2000
   -0.6350  -80.2750 -146.6140 O   0  0  0  0  0
    0.5970  -80.9160 -146.3410 C   0  0  0  0  0
    1.6660  -79.9270 -146.8450 C   0  0  0  0  0
    1.6620  -78.6220 -146.1490 O   0  0  0  0  0
    3.0750  -80.4490 -146.6260 C   0  0  0  0  0
    3.8090  -80.1230 -147.8230 O   0  0  0  0  0
    3.6340  -79.7220 -145.3790 C   0  0  0  0  0
    4.9000  -79.1020 -145.5840 O   0  0  0  0  0
    2.4670  -78.7730 -144.9650 C   0  0  0  0  0
    1.6410  -79.2150 -143.7730 N   0  0  0  0  0
    0.5610  -78.4890 -143.2370 C   0  0  0  0  0
   -0.0350  -79.0410 -142.2120 N   0  0  0  0  0
    0.6750  -80.2260 -142.0200 C   0  0  0  0  0
    0.5430  -81.3170 -141.0640 C   0  0  0  0  0
   -0.3950  -81.3370 -140.1120 N   0  0  0  0  0
    1.4360  -82.3630 -141.1640 N   0  0  0  0  0
    2.3940  -82.3520 -142.1330 C   0  0  0  0  0
    2.6100  -81.3940 -143.0770 N   0  0  0  0  0
    1.7160  -80.3590 -142.9690 C   0  0  0  0  0
   -1.3577  -80.8367 -146.3245 H   0  0  0  0  0
    0.6717  -81.8850 -146.8344 H   0  0  0  0  0
    0.7150  -81.1401 -145.2808 H   0  0  0  0  0
    1.4073  -79.8117 -147.8975 H   0  0  0  0  0
    3.1345  -81.5233 -146.4513 H   0  0  0  0  0
    3.4293  -80.5943 -148.5682 H   0  0  0  0  0
    3.8952  -80.4021 -144.5682 H   0  0  0  0  0
    5.5446  -79.7681 -145.8337 H   0  0  0  0  0
    2.8879  -77.8329 -144.6084 H   0  0  0  0  0
    0.2427  -77.5311 -143.6484 H   0  0  0  0  0
   -1.0577  -80.5657 -140.0327 H   0  0  0  0  0
   -0.4481  -82.1236 -139.4648 H   0  0  0  0  0
    3.0659  -83.2100 -142.1553 H   0  0  0  0  0
  1  2  1  0  0  0
  2  3  1  0  0  0
  3  4  1  0  0  0
  3  5  1  0  0  0
  4  9  1  0  0  0
  5  6  1  0  0  0
  5  7  1  0  0  0
  7  8  1  0  0  0
  7  9  1  0  0  0
  9 10  1  0  0  0
 10 11  4  0  0  0
 10 19  4  0  0  0
 11 12  4  0  0  0
 12 13  4  0  0  0
 13 14  4  0  0  0
 13 19  4  0  0  0
 14 15  1  0  0  0
 14 16  4  0  0  0
 16 17  4  0  0  0
 17 18  4  0  0  0
 18 19  4  0  0  0
  1 20  1  0  0  0
  2 21  1  0  0  0
  2 22  1  0  0  0
  3 23  1  0  0  0
  5 24  1  0  0  0
  6 25  1  0  0  0
  7 26  1  0  0  0
  8 27  1  0  0  0
  9 28  1  0  0  0
 11 29  1  0  0  0
 15 30  1  0  0  0
 15 31  1  0  0  0
 17 32  1  0  0  0
M  END
$$$$
