4mr3_ligand
  -I-interpret- 

 42 44  0  0  0  0  0  0  0  0999 V2000
   22.4690   31.5070   20.6270 O   0  0  0  0  0
   23.2390   31.2210   19.4790 C   0  0  0  0  0
   22.4540   32.7550   21.1970 C   0  0  0  0  0
   21.5710   33.0200   22.2560 C   0  0  0  0  0
   21.4970   34.2350   22.8460 C   0  0  0  0  0
   23.0880   37.6200   22.4370 N   0  0  0  0  0
   19.8640   33.4040   24.4470 C   0  0  0  0  0
   20.6610   34.4930   23.9260 O   0  0  0  0  0
   22.2900   35.3110   22.4130 C   0  0  0  0  0
   27.1960   41.5700   19.7830 O   0  0  0  0  0
   23.9620   36.0700   20.8360 N   0  0  0  0  0
   22.2460   36.6240   22.9880 C   0  0  0  0  0
   23.8980   37.3060   21.3890 C   0  0  0  0  0
   21.4940   36.9730   23.9220 O   0  0  0  0  0
   24.7590   38.3670   20.8420 C   0  0  0  0  0
   26.0220   38.1430   20.2540 C   0  0  0  0  0
   26.8270   39.2150   19.8920 C   0  0  0  0  0
   28.1800   38.8780   19.3520 C   0  0  0  0  0
   26.3720   40.5500   20.0640 C   0  0  0  0  0
   25.1080   40.7880   20.5860 C   0  0  0  0  0
   24.6350   42.2030   20.7390 C   0  0  0  0  0
   24.3180   39.7290   20.9730 C   0  0  0  0  0
   23.1720   35.0130   21.3330 C   0  0  0  0  0
   23.2720   33.7710   20.7290 C   0  0  0  0  0
   22.9169   31.8618   18.6582 H   0  0  0  0  0
   24.2916   31.4052   19.6939 H   0  0  0  0  0
   23.1010   30.1760   19.2016 H   0  0  0  0  0
   20.9235   32.2199   22.6147 H   0  0  0  0  0
   23.0877   38.5646   22.8220 H   0  0  0  0  0
   19.2056   33.0298   23.6630 H   0  0  0  0  0
   20.5218   32.6028   24.7839 H   0  0  0  0  0
   19.2662   33.7617   25.2853 H   0  0  0  0  0
   26.7439   42.4003   19.9495 H   0  0  0  0  0
   26.3675   37.1234   20.0831 H   0  0  0  0  0
   28.7414   38.3222   20.1030 H   0  0  0  0  0
   28.0703   38.2694   18.4544 H   0  0  0  0  0
   28.7111   39.7976   19.1064 H   0  0  0  0  0
   25.3103   42.7405   21.4047 H   0  0  0  0  0
   24.6225   42.6881   19.7630 H   0  0  0  0  0
   23.6297   42.2051   21.1602 H   0  0  0  0  0
   23.3310   39.9287   21.3902 H   0  0  0  0  0
   23.9718   33.5980   19.9115 H   0  0  0  0  0
  1  2  1  0  0  0
  3  1  1  0  0  0
  4  3  4  0  0  0
  3 24  4  0  0  0
  5  4  4  0  0  0
  5  8  1  0  0  0
  9  5  4  0  0  0
  6 12  1  0  0  0
 13  6  1  0  0  0
  8  7  1  0  0  0
 12  9  1  0  0  0
 23  9  4  0  0  0
 19 10  1  0  0  0
 13 11  2  0  0  0
 11 23  1  0  0  0
 12 14  2  0  0  0
 15 13  1  0  0  0
 16 15  4  0  0  0
 15 22  4  0  0  0
 17 16  4  0  0  0
 17 18  1  0  0  0
 17 19  4  0  0  0
 19 20  4  0  0  0
 20 21  1  0  0  0
 20 22  4  0  0  0
 23 24  4  0  0  0
  2 25  1  0  0  0
  2 26  1  0  0  0
  2 27  1  0  0  0
  4 28  1  0  0  0
  6 29  1  0  0  0
  7 30  1  0  0  0
  7 31  1  0  0  0
  7 32  1  0  0  0
 10 33  1  0  0  0
 16 34  1  0  0  0
 18 35  1  0  0  0
 18 36  1  0  0  0
 18 37  1  0  0  0
 21 38  1  0  0  0
 21 39  1  0  0  0
 21 40  1  0  0  0
 22 41  1  0  0  0
 24 42  1  0  0  0
M  END
$$$$
