5op6_ligand
  -I-interpret- 

 55 57  0  0  0  0  0  0  0  0999 V2000
  -15.8460   21.4340   -1.1360 O   0  0  0  0  0
  -16.0790   21.5140   -2.3160 C   0  0  0  0  0
  -15.8340   20.3530   -3.1740 N   0  0  0  0  0
  -15.3110   19.1580   -2.4950 C   0  0  0  0  0
  -16.0400   17.9730   -3.0880 C   0  0  0  0  0
  -15.6830   16.7180   -2.3000 C   0  0  0  0  0
  -14.1900   16.5020   -2.1980 C   0  0  0  0  0
  -13.4190   17.7470   -1.7740 C   0  0  0  0  0
  -13.8210   18.9740   -2.5760 C   0  0  0  0  0
  -16.1030   20.4220   -4.5760 C   0  0  0  0  0
  -15.8790   19.3320   -5.4210 O   0  0  0  0  0
  -16.6330   21.6950   -5.1280 C   0  0  0  0  0
  -16.9430   21.8800   -6.6230 C   0  0  0  0  0
  -17.3080   23.2000   -7.0500 N   0  0  0  0  0
  -17.6130   23.4940   -8.4310 C   0  0  0  0  0
  -17.9480   24.9940   -8.5330 C   0  0  0  0  0
  -18.5720   25.4460   -9.5410 O   0  0  0  0  0
  -17.6080   25.7770   -7.6030 O   0  0  0  0  0
  -16.8710   20.9570   -7.4050 O   0  0  0  0  0
  -16.8680   22.8560   -4.2540 C   0  0  0  0  0
  -16.5990   22.7680   -2.8650 N   0  0  0  0  0
  -16.8230   23.8990   -1.9900 C   0  0  0  0  0
  -15.4150   24.2870   -1.6050 C   0  0  0  0  0
  -15.3860   25.4110   -0.5890 C   0  0  0  0  0
  -16.2450   25.1100    0.6100 C   0  0  0  0  0
  -17.6510   24.7270    0.2150 C   0  0  0  0  0
  -17.6670   23.5890   -0.7850 C   0  0  0  0  0
  -17.2970   23.8820   -4.7260 O   0  0  0  0  0
  -15.4917   19.2679   -1.4257 H   0  0  0  0  0
  -15.7452   17.8466   -4.1297 H   0  0  0  0  0
  -17.1155   18.1428   -3.0371 H   0  0  0  0  0
  -16.1115   15.8614   -2.8204 H   0  0  0  0  0
  -16.0755   16.8328   -1.2896 H   0  0  0  0  0
  -13.8330   16.2187   -3.1881 H   0  0  0  0  0
  -14.0219   15.7395   -1.4375 H   0  0  0  0  0
  -12.3584   17.5631   -1.9453 H   0  0  0  0  0
  -13.6401   17.9411   -0.7245 H   0  0  0  0  0
  -13.3231   19.8540   -2.1688 H   0  0  0  0  0
  -13.5270   18.8405   -3.6171 H   0  0  0  0  0
  -15.5386   18.5955   -4.9079 H   0  0  0  0  0
  -17.3533   23.9504   -6.3606 H   0  0  0  0  0
  -18.4593   22.8946   -8.7665 H   0  0  0  0  0
  -16.7598   23.2538   -9.0654 H   0  0  0  0  0
  -18.7549   24.7278  -10.1512 H   0  0  0  0  0
  -17.3919   24.6898   -2.4790 H   0  0  0  0  0
  -14.9009   24.6294   -2.5031 H   0  0  0  0  0
  -14.9338   23.4161   -1.1599 H   0  0  0  0  0
  -15.7711   26.3120   -1.0665 H   0  0  0  0  0
  -14.3581   25.5364   -0.2489 H   0  0  0  0  0
  -16.2962   26.0071    1.2270 H   0  0  0  0  0
  -15.8007   24.2715    1.1463 H   0  0  0  0  0
  -18.1245   25.5938   -0.2461 H   0  0  0  0  0
  -18.1811   24.4025    1.1104 H   0  0  0  0  0
  -17.2630   22.6998   -0.3012 H   0  0  0  0  0
  -18.6944   23.4348   -1.1147 H   0  0  0  0  0
  1  2  2  0  0  0
  2  3  1  0  0  0
  2 21  1  0  0  0
  3  4  1  0  0  0
  3 10  1  0  0  0
  4  5  1  0  0  0
  4  9  1  0  0  0
  5  6  1  0  0  0
  6  7  1  0  0  0
  7  8  1  0  0  0
  8  9  1  0  0  0
 10 11  1  0  0  0
 10 12  2  0  0  0
 12 13  1  0  0  0
 12 20  1  0  0  0
 13 14  1  0  0  0
 13 19  2  0  0  0
 14 15  1  0  0  0
 15 16  1  0  0  0
 16 17  1  0  0  0
 16 18  2  0  0  0
 20 21  1  0  0  0
 20 28  2  0  0  0
 21 22  1  0  0  0
 22 23  1  0  0  0
 22 27  1  0  0  0
 23 24  1  0  0  0
 24 25  1  0  0  0
 25 26  1  0  0  0
 26 27  1  0  0  0
  4 29  1  0  0  0
  5 30  1  0  0  0
  5 31  1  0  0  0
  6 32  1  0  0  0
  6 33  1  0  0  0
  7 34  1  0  0  0
  7 35  1  0  0  0
  8 36  1  0  0  0
  8 37  1  0  0  0
  9 38  1  0  0  0
  9 39  1  0  0  0
 11 40  1  0  0  0
 14 41  1  0  0  0
 15 42  1  0  0  0
 15 43  1  0  0  0
 17 44  1  0  0  0
 22 45  1  0  0  0
 23 46  1  0  0  0
 23 47  1  0  0  0
 24 48  1  0  0  0
 24 49  1  0  0  0
 25 50  1  0  0  0
 25 51  1  0  0  0
 26 52  1  0  0  0
 26 53  1  0  0  0
 27 54  1  0  0  0
 27 55  1  0  0  0
M  END
$$$$
