5n2d_ligand
  -I-interpret- 

 66 68  0  0  0  0  0  0  0  0999 V2000
   -0.4420    9.5520  -24.1260 O   0  0  0  0  0
   -7.7550   11.1420  -22.0040 C   0  0  0  0  0
   -8.9590   10.7550  -21.3450 C   0  0  0  0  0
  -10.3370   11.0570  -21.8340 C   0  0  0  0  0
  -11.2360   11.7660  -21.0320 C   0  0  0  0  0
  -12.5350   12.0020  -21.4550 C   0  0  0  0  0
  -12.9620   11.5320  -22.6790 C   0  0  0  0  0
  -12.0900   10.8170  -23.4810 C   0  0  0  0  0
  -10.7880   10.5840  -23.0660 C   0  0  0  0  0
   -8.8990   10.0160  -20.1690 C   0  0  0  0  0
   -0.9320    8.5040  -27.0950 O   0  0  0  0  0
   -7.6840    9.6320  -19.6450 C   0  0  0  0  0
   -6.5160    9.9560  -20.2970 C   0  0  0  0  0
   -6.5400   10.6690  -21.4870 C   0  0  0  0  0
   -5.2370   10.6090  -22.2480 C   0  0  0  0  0
   -3.2840   11.6480  -23.1210 C   0  0  0  0  0
   -2.5020   10.5100  -23.2680 C   0  0  0  0  0
   -1.3150   10.5960  -23.9800 C   0  0  0  0  0
   -1.2740   14.0560  -25.0030 O   0  0  0  0  0
   -0.8240    8.2940  -23.5880 C   0  0  0  0  0
   -0.8980   11.7980  -24.5740 C   0  0  0  0  0
    0.6420    9.4350  -28.3930 N   0  0  0  0  0
    0.4030   11.9720  -25.3310 C   0  0  0  0  0
    0.2250    8.5220  -27.5100 C   0  0  0  0  0
    1.2610    7.5550  -27.0180 C   0  0  0  0  0
   -0.1580   10.5920  -28.7790 C   0  0  0  0  0
   -0.1550   11.6500  -27.6940 C   0  0  0  0  0
    0.6550   11.2120  -26.5550 N   0  3  0  0  0
   -1.7250   12.9140  -24.4060 C   0  0  0  0  0
   -2.1160   15.1990  -24.9500 C   0  0  0  0  0
   -2.9000   12.8520  -23.6840 C   0  0  0  0  0
   -4.5370   11.8060  -22.5740 O   0  0  0  0  0
   -7.7710   12.1260  -23.1460 C   0  0  0  0  0
  -10.9111   12.1385  -20.0605 H   0  0  0  0  0
  -13.2208   12.5607  -20.8181 H   0  0  0  0  0
  -13.9818   11.7228  -23.0133 H   0  0  0  0  0
  -12.4286   10.4350  -24.4441 H   0  0  0  0  0
  -10.1091   10.0248  -23.7098 H   0  0  0  0  0
   -9.8205    9.7382  -19.6574 H   0  0  0  0  0
   -7.6477    9.0702  -18.7117 H   0  0  0  0  0
   -5.5600    9.6486  -19.8731 H   0  0  0  0  0
   -5.5089   10.1844  -23.2144 H   0  0  0  0  0
   -4.5603   10.0744  -21.5814 H   0  0  0  0  0
   -2.8166    9.5627  -22.8301 H   0  0  0  0  0
   -0.9785    8.3916  -22.5134 H   0  0  0  0  0
   -1.7489    7.9638  -24.0608 H   0  0  0  0  0
   -0.0366    7.5647  -23.7784 H   0  0  0  0  0
    1.5624    9.3171  -28.8165 H   0  0  0  0  0
    1.1672   11.6240  -24.6361 H   0  0  0  0  0
    0.3869   13.0116  -25.6583 H   0  0  0  0  0
    1.3858    7.6746  -25.9418 H   0  0  0  0  0
    0.9389    6.5369  -27.2369 H   0  0  0  0  0
    2.2084    7.7534  -27.5191 H   0  0  0  0  0
   -1.1849   10.2650  -28.9421 H   0  0  0  0  0
    0.2690   11.0226  -29.6848 H   0  0  0  0  0
   -1.1785   11.8167  -27.3582 H   0  0  0  0  0
    0.2679   12.5702  -28.0970 H   0  0  0  0  0
    0.4156   10.2388  -26.3656 H   0  0  0  0  0
    1.6342   11.3502  -26.8048 H   0  0  0  0  0
   -3.0644   14.9729  -25.4373 H   0  0  0  0  0
   -2.2959   15.4682  -23.9092 H   0  0  0  0  0
   -1.6314   16.0297  -25.4630 H   0  0  0  0  0
   -3.5179   13.7412  -23.5590 H   0  0  0  0  0
   -8.3856   11.7316  -23.9552 H   0  0  0  0  0
   -8.1856   13.0735  -22.8018 H   0  0  0  0  0
   -6.7533   12.2819  -23.5039 H   0  0  0  0  0
 18  1  1  0  0  0
  1 20  1  0  0  0
  2  3  4  0  0  0
 14  2  4  0  0  0
  2 33  1  0  0  0
  3  4  1  0  0  0
  3 10  4  0  0  0
  4  5  4  0  0  0
  4  9  4  0  0  0
  5  6  4  0  0  0
  6  7  4  0  0  0
  8  7  4  0  0  0
  9  8  4  0  0  0
 12 10  4  0  0  0
 24 11  2  0  0  0
 13 12  4  0  0  0
 14 13  4  0  0  0
 15 14  1  0  0  0
 32 15  1  0  0  0
 17 16  4  0  0  0
 16 31  4  0  0  0
 16 32  1  0  0  0
 18 17  4  0  0  0
 21 18  4  0  0  0
 29 19  1  0  0  0
 19 30  1  0  0  0
 23 21  1  0  0  0
 21 29  4  0  0  0
 22 24  1  0  0  0
 26 22  1  0  0  0
 28 23  1  0  0  0
 24 25  1  0  0  0
 27 26  1  0  0  0
 27 28  1  0  0  0
 29 31  4  0  0  0
  5 34  1  0  0  0
  6 35  1  0  0  0
  7 36  1  0  0  0
  8 37  1  0  0  0
  9 38  1  0  0  0
 10 39  1  0  0  0
 12 40  1  0  0  0
 13 41  1  0  0  0
 15 42  1  0  0  0
 15 43  1  0  0  0
 17 44  1  0  0  0
 20 45  1  0  0  0
 20 46  1  0  0  0
 20 47  1  0  0  0
 22 48  1  0  0  0
 23 49  1  0  0  0
 23 50  1  0  0  0
 25 51  1  0  0  0
 25 52  1  0  0  0
 25 53  1  0  0  0
 26 54  1  0  0  0
 26 55  1  0  0  0
 27 56  1  0  0  0
 27 57  1  0  0  0
 28 58  1  0  0  0
 28 59  1  0  0  0
 30 60  1  0  0  0
 30 61  1  0  0  0
 30 62  1  0  0  0
 31 63  1  0  0  0
 33 64  1  0  0  0
 33 65  1  0  0  0
 33 66  1  0  0  0
M  END
$$$$
