3tz0_ligand
  -I-interpret- 

 20 19  0  0  0  0  0  0  0  0999 V2000
   -7.7750  -29.3900   14.5210 Cl  0  0  0  0  0
   -7.4330  -31.7810   13.3540 C   0  0  0  0  0
   -6.9230  -32.8860   13.3030 O   0  0  0  0  0
   -7.7060  -31.1750   14.6980 C   0  0  0  0  0
   -8.1450  -31.3740   12.3040 O   0  0  0  0  0
   -9.0170  -31.7530   15.2180 C   0  0  0  0  0
   -9.2270  -31.4850   16.7030 C   0  0  0  0  0
  -10.6830  -31.7190   17.0670 C   0  0  0  0  0
   -8.3340  -32.3510   17.5830 C   0  0  0  0  0
   -6.9192  -31.4067   15.4159 H   0  0  0  0  0
   -8.4882  -30.4936   12.4734 H   0  0  0  0  0
   -8.9886  -32.8329   15.0727 H   0  0  0  0  0
   -9.8327  -31.2782   14.6727 H   0  0  0  0  0
   -8.9554  -30.4453   16.8854 H   0  0  0  0  0
  -10.9305  -32.7692   16.9126 H   0  0  0  0  0
  -10.8412  -31.4571   18.1132 H   0  0  0  0  0
  -11.3184  -31.0980   16.4356 H   0  0  0  0  0
   -8.4929  -32.0890   18.6290 H   0  0  0  0  0
   -8.5822  -33.4011   17.4284 H   0  0  0  0  0
   -7.2904  -32.1803   17.3188 H   0  0  0  0  0
  4  1  1  0  0  0
  2  3  2  0  0  0
  2  4  1  0  0  0
  2  5  1  0  0  0
  4  6  1  0  0  0
  6  7  1  0  0  0
  7  8  1  0  0  0
  7  9  1  0  0  0
  4 10  1  0  0  0
  5 11  1  0  0  0
  6 12  1  0  0  0
  6 13  1  0  0  0
  7 14  1  0  0  0
  8 15  1  0  0  0
  8 16  1  0  0  0
  8 17  1  0  0  0
  9 18  1  0  0  0
  9 19  1  0  0  0
  9 20  1  0  0  0
M  END
$$$$
