6dkb_ligand
  -I-interpret- 

 60 63  0  0  0  0  0  0  0  0999 V2000
  -20.4870    2.7100  -28.2680 C   0  0  0  0  0
  -19.9840    1.4600  -30.3900 C   0  0  0  0  0
  -20.4000    4.5270  -26.4580 C   0  0  0  0  0
  -19.7790    5.7070  -26.0610 C   0  0  0  0  0
  -21.2090    5.7470  -24.1540 C   0  0  0  0  0
  -22.7900    6.7660  -21.0150 C   0  0  0  0  0
  -21.4960    5.5360  -17.9400 C   0  0  0  0  0
  -22.0870    6.5570  -16.9850 C   0  0  0  0  0
  -20.3080    7.4070  -15.4150 C   0  0  0  0  0
  -19.9510    6.4310  -13.2570 C   0  0  0  0  0
  -21.7420    5.6590  -14.6520 C   0  0  0  0  0
  -19.9930    3.8530  -27.7040 C   0  0  0  0  0
  -18.9510    4.4140  -28.5300 N   0  0  0  0  0
  -18.8520    3.6000  -29.5540 C   0  0  0  0  0
  -19.7870    2.5460  -29.4280 N   0  0  0  0  0
  -20.1750    6.3680  -24.8960 C   0  0  0  0  0
  -21.7970    4.6090  -24.5050 N   0  0  0  0  0
  -21.4070    4.0240  -25.6460 C   0  0  0  0  0
  -21.6600    6.4300  -23.0710 O   0  0  0  0  0
  -22.2900    5.7160  -21.9800 C   0  0  0  0  0
  -23.2520    6.1060  -19.6570 C   0  0  0  0  0
  -22.1420    5.3250  -19.1070 N   0  0  0  0  0
  -21.7680    4.2210  -20.0030 C   0  0  0  0  0
  -21.2870    4.7560  -21.3520 C   0  0  0  0  0
  -20.4260    5.0030  -17.6930 O   0  0  0  0  0
  -21.3840    6.5590  -15.6460 C   0  0  0  0  0
  -19.5810    7.3390  -14.2370 C   0  0  0  0  0
  -21.0360    5.5920  -13.4620 C   0  0  0  0  0
  -19.2460    6.4710  -12.0530 O   0  0  0  0  0
  -18.3740    5.5010  -11.8070 C   0  0  0  0  0
  -17.4590    5.3820  -12.7610 F   0  0  0  0  0
  -17.7670    5.8050  -10.6770 F   0  0  0  0  0
  -18.9370    4.3200  -11.6360 F   0  0  0  0  0
  -21.7660    7.6930  -20.7420 F   0  0  0  0  0
  -19.5940    7.6990  -24.5240 C   0  0  0  0  0
  -19.3710    7.9520  -23.2370 N   0  0  0  0  0
  -19.3650    8.5230  -25.4050 O   0  0  0  0  0
  -21.2735    2.0660  -27.8746 H   0  0  0  0  0
  -19.8030    0.5039  -29.8988 H   0  0  0  0  0
  -21.0071    1.4894  -30.7648 H   0  0  0  0  0
  -19.2880    1.5810  -31.2201 H   0  0  0  0  0
  -18.9730    6.1210  -26.6669 H   0  0  0  0  0
  -23.6394    7.2702  -21.4759 H   0  0  0  0  0
  -23.1333    6.3007  -16.8188 H   0  0  0  0  0
  -21.9718    7.5451  -17.4305 H   0  0  0  0  0
  -20.0307    8.1388  -16.1737 H   0  0  0  0  0
  -22.5916    4.9947  -14.8101 H   0  0  0  0  0
  -18.1518    3.7185  -30.3809 H   0  0  0  0  0
  -21.9068    3.1051  -25.9523 H   0  0  0  0  0
  -23.1291    5.1020  -22.3072 H   0  0  0  0  0
  -24.1074    5.4547  -19.8363 H   0  0  0  0  0
  -23.5417    6.8830  -18.9496 H   0  0  0  0  0
  -22.6414    3.5896  -20.1664 H   0  0  0  0  0
  -20.9603    3.6524  -19.5421 H   0  0  0  0  0
  -20.3548    5.2971  -21.1898 H   0  0  0  0  0
  -21.1588    3.9096  -22.0268 H   0  0  0  0  0
  -18.7243    7.9949  -14.0822 H   0  0  0  0  0
  -21.3322    4.8823  -12.6895 H   0  0  0  0  0
  -18.9967    8.8572  -22.9526 H   0  0  0  0  0
  -19.5744    7.2408  -22.5347 H   0  0  0  0  0
 12  1  4  0  0  0
  1 15  4  0  0  0
 15  2  1  0  0  0
  4  3  4  0  0  0
  3 12  1  0  0  0
 18  3  4  0  0  0
 16  4  4  0  0  0
  5 16  4  0  0  0
  5 17  4  0  0  0
 19  5  1  0  0  0
  6 20  1  0  0  0
 21  6  1  0  0  0
  6 34  1  0  0  0
  7  8  1  0  0  0
 22  7  1  0  0  0
  7 25  2  0  0  0
  8 26  1  0  0  0
 26  9  4  0  0  0
  9 27  4  0  0  0
 27 10  4  0  0  0
 28 10  4  0  0  0
 10 29  1  0  0  0
 26 11  4  0  0  0
 11 28  4  0  0  0
 12 13  4  0  0  0
 13 14  4  0  0  0
 14 15  4  0  0  0
 16 35  1  0  0  0
 17 18  4  0  0  0
 20 19  1  0  0  0
 20 24  1  0  0  0
 21 22  1  0  0  0
 22 23  1  0  0  0
 23 24  1  0  0  0
 29 30  1  0  0  0
 30 31  1  0  0  0
 30 32  1  0  0  0
 30 33  1  0  0  0
 35 36  1  0  0  0
 35 37  2  0  0  0
  1 38  1  0  0  0
  2 39  1  0  0  0
  2 40  1  0  0  0
  2 41  1  0  0  0
  4 42  1  0  0  0
  6 43  1  0  0  0
  8 44  1  0  0  0
  8 45  1  0  0  0
  9 46  1  0  0  0
 11 47  1  0  0  0
 14 48  1  0  0  0
 18 49  1  0  0  0
 20 50  1  0  0  0
 21 51  1  0  0  0
 21 52  1  0  0  0
 23 53  1  0  0  0
 23 54  1  0  0  0
 24 55  1  0  0  0
 24 56  1  0  0  0
 27 57  1  0  0  0
 28 58  1  0  0  0
 36 59  1  0  0  0
 36 60  1  0  0  0
M  END
$$$$
