4nra_ligand
  -I-interpret- 

 26 28  0  0  0  0  0  0  0  0999 V2000
   67.5520   40.8620   -0.3610 C   0  0  0  0  0
   68.6830   41.1270   -1.3650 C   0  0  0  0  0
   69.7200   40.1010   -1.2360 C   0  0  0  0  0
   70.9660   40.1470   -1.7350 N   0  0  0  0  0
   71.6390   39.0280   -1.4450 C   0  0  0  0  0
   72.9090   38.6920   -1.7640 C   0  0  0  0  0
   73.4350   37.4590   -1.3440 C   0  0  0  0  0
   72.6020   36.6060   -0.5970 C   0  0  0  0  0
   73.2570   35.1080   -0.0760 Cl  0  0  0  0  0
   71.2800   37.0090   -0.3160 C   0  0  0  0  0
   70.8110   38.2030   -0.7180 C   0  0  0  0  0
   69.6230   38.8670   -0.5800 C   0  0  0  0  0
   68.4190   38.4900    0.0340 C   0  0  0  0  0
   67.2840   39.4470   -0.4070 N   0  0  0  0  0
   66.1610   39.0660   -0.9220 C   0  0  0  0  0
   65.1830   39.7620   -1.1610 O   0  0  0  0  0
   65.9470   37.5020   -0.7930 C   0  0  0  0  0
   67.0499   41.6001    0.2644 H   0  0  0  0  0
   68.7101   41.9574   -2.0706 H   0  0  0  0  0
   73.5245   39.3774   -2.3467 H   0  0  0  0  0
   74.4575   37.1718   -1.5894 H   0  0  0  0  0
   70.6245   36.3379    0.2390 H   0  0  0  0  0
   68.3004   37.6500    0.7184 H   0  0  0  0  0
   65.2482   37.2979    0.0182 H   0  0  0  0  0
   65.5437   37.1134   -1.7281 H   0  0  0  0  0
   66.9024   37.0221   -0.5807 H   0  0  0  0  0
  1  2  4  0  0  0
  1 14  4  0  0  0
  2  3  4  0  0  0
  3  4  4  0  0  0
  3 12  1  0  0  0
  4  5  4  0  0  0
  5  6  4  0  0  0
  5 11  4  0  0  0
  6  7  4  0  0  0
  7  8  4  0  0  0
  8  9  1  0  0  0
  8 10  4  0  0  0
 10 11  4  0  0  0
 11 12  4  0  0  0
 12 13  4  0  0  0
 13 14  4  0  0  0
 14 15  1  0  0  0
 15 16  2  0  0  0
 15 17  1  0  0  0
  1 18  1  0  0  0
  2 19  1  0  0  0
  6 20  1  0  0  0
  7 21  1  0  0  0
 10 22  1  0  0  0
 13 23  1  0  0  0
 17 24  1  0  0  0
 17 25  1  0  0  0
 17 26  1  0  0  0
M  END
$$$$
