6hrq_ligand
  -I-interpret- 

 37 39  0  0  0  0  0  0  0  0999 V2000
   42.1560   38.0480   92.1710 C   0  0  0  0  0
   40.9040   38.2620   92.7200 C   0  0  0  0  0
   40.6160   39.4520   93.3540 C   0  0  0  0  0
   42.8340   40.2350   92.8880 C   0  0  0  0  0
   44.0490   37.1520   87.4260 C   0  0  0  0  0
   44.8040   34.0070   84.6550 C   0  0  0  0  0
   45.4860   34.0330   85.8690 C   0  0  0  0  0
   45.2510   35.0780   86.7610 C   0  0  0  0  0
   44.3230   36.0730   86.4580 C   0  0  0  0  0
   43.6430   36.0240   85.2430 C   0  0  0  0  0
   43.8870   34.9980   84.3470 C   0  0  0  0  0
   46.3980   32.9040   86.2450 C   0  0  0  0  0
   43.1290   39.0350   92.2560 C   0  0  0  0  0
   41.5790   40.4360   93.4360 C   0  0  0  0  0
   44.1190   38.6740   88.9500 N   0  0  0  0  0
   42.8580   38.6420   88.4880 N   0  0  0  0  0
   42.8120   37.7130   87.5610 N   0  0  0  0  0
   44.8850   37.7690   88.3170 C   0  0  0  0  0
   46.4130   31.8650   85.4120 N   0  0  0  0  0
   47.1400   30.7140   85.7180 O   0  0  0  0  0
   47.0590   32.9360   87.2830 O   0  0  0  0  0
   44.7420   38.7560   91.5870 S   0  0  0  0  0
   44.5410   39.5860   89.9930 C   0  0  0  0  0
   42.3784   37.1048   91.6719 H   0  0  0  0  0
   40.1417   37.4860   92.6509 H   0  0  0  0  0
   39.6300   39.6147   93.7892 H   0  0  0  0  0
   43.5896   41.0180   92.9527 H   0  0  0  0  0
   44.9929   33.2028   83.9439 H   0  0  0  0  0
   45.7974   35.1174   87.7033 H   0  0  0  0  0
   42.9154   36.7974   84.9970 H   0  0  0  0  0
   43.3557   34.9698   83.3957 H   0  0  0  0  0
   41.3503   41.3775   93.9353 H   0  0  0  0  0
   45.9443   37.5693   88.4785 H   0  0  0  0  0
   45.8866   31.9112   84.5396 H   0  0  0  0  0
   47.0366   30.0739   85.0100 H   0  0  0  0  0
   43.7737   40.3521   90.1042 H   0  0  0  0  0
   45.5048   40.0065   89.7060 H   0  0  0  0  0
  1  2  4  0  0  0
 13  1  4  0  0  0
  2  3  4  0  0  0
 14  3  4  0  0  0
 13  4  4  0  0  0
  4 14  4  0  0  0
  5  9  1  0  0  0
  5 17  4  0  0  0
 18  5  4  0  0  0
  7  6  4  0  0  0
 11  6  4  0  0  0
  8  7  4  0  0  0
  7 12  1  0  0  0
  9  8  4  0  0  0
  9 10  4  0  0  0
 10 11  4  0  0  0
 12 19  1  0  0  0
 12 21  2  0  0  0
 22 13  1  0  0  0
 15 16  4  0  0  0
 15 18  4  0  0  0
 23 15  1  0  0  0
 16 17  4  0  0  0
 19 20  1  0  0  0
 22 23  1  0  0  0
  1 24  1  0  0  0
  2 25  1  0  0  0
  3 26  1  0  0  0
  4 27  1  0  0  0
  6 28  1  0  0  0
  8 29  1  0  0  0
 10 30  1  0  0  0
 11 31  1  0  0  0
 14 32  1  0  0  0
 18 33  1  0  0  0
 19 34  1  0  0  0
 20 35  1  0  0  0
 23 36  1  0  0  0
 23 37  1  0  0  0
M  END
$$$$
