6s07_ligand
  -I-interpret- 

231233  0  0  0  0  0  0  0  0999 V2000
    3.4480  -10.6600  -21.2040 C   0  0  0  0  0
    4.1050   -9.7550  -21.6640 O   0  0  0  0  0
    2.9840  -10.7100  -19.8200 C   0  0  0  0  0
    3.2660   -9.6780  -18.9040 C   0  0  0  0  0
    2.8180   -9.8090  -17.5810 C   0  0  0  0  0
    3.9680   -8.5510  -19.2860 N   0  0  0  0  0
    2.0960  -10.9140  -17.1760 C   0  0  0  0  0
    1.8050  -11.9130  -18.0720 C   0  0  0  0  0
    2.2460  -11.8190  -19.3800 C   0  0  0  0  0
    3.0760  -11.6890  -22.1210 N   0  0  0  0  0
    3.6410  -11.6770  -23.4660 C   0  0  0  0  0
    3.1180  -10.4860  -24.2690 C   0  0  0  0  0
    3.7960   -9.9930  -25.1690 O   0  0  0  0  0
    3.3150  -12.9800  -24.1660 C   0  0  0  0  0
    1.9740   -9.9130  -23.9020 N   0  0  0  0  0
    1.5490   -8.6880  -24.5810 C   0  0  0  0  0
    1.2980   -7.5550  -23.5870 C   0  0  0  0  0
    2.2540   -6.9950  -23.0400 O   0  0  0  0  0
    0.3390   -8.9530  -25.4790 C   0  0  0  0  0
   -0.6780   -9.6190  -24.7240 O   0  0  0  0  0
    0.7350   -9.8250  -26.6700 C   0  0  0  0  0
    0.0340   -7.1850  -23.3690 N   0  0  0  0  0
   -0.3460   -6.3760  -22.2250 C   0  0  0  0  0
   -1.3930   -7.1180  -21.4040 C   0  0  0  0  0
   -2.3970   -7.5720  -21.9610 O   0  0  0  0  0
   -0.9170   -5.0430  -22.7150 C   0  0  0  0  0
    0.0520   -4.4070  -23.5540 O   0  0  0  0  0
   -1.2590   -4.1270  -21.5440 C   0  0  0  0  0
   -1.2010   -7.2650  -20.0980 N   0  0  0  0  0
   -2.2220   -7.9170  -19.2710 C   0  0  0  0  0
   -3.6050   -7.2980  -19.4400 C   0  0  0  0  0
   -3.7570   -6.0910  -19.6570 O   0  0  0  0  0
   -1.6770   -7.7340  -17.8490 C   0  0  0  0  0
   -0.1870   -7.8090  -18.0550 C   0  0  0  0  0
    0.0280   -7.0030  -19.3240 C   0  0  0  0  0
   -4.6210   -8.1390  -19.3030 N   0  0  0  0  0
   -6.0060   -7.7640  -19.5400 C   0  0  0  0  0
   -6.7740   -7.8400  -18.2310 C   0  0  0  0  0
   -6.8740   -8.9170  -17.6370 O   0  0  0  0  0
   -6.6190   -8.7270  -20.5560 C   0  0  0  0  0
   -8.0470   -8.3590  -20.9560 C   0  0  0  0  0
   -8.0530   -7.1290  -21.8320 C   0  0  0  0  0
   -8.7240   -9.5040  -21.6620 C   0  0  0  0  0
   -7.3310   -6.7100  -17.7960 N   0  0  0  0  0
   -8.2250   -6.6680  -16.6470 C   0  0  0  0  0
   -9.6840   -6.4290  -17.0110 C   0  0  0  0  0
  -10.5530   -6.7560  -16.2060 O   0  0  0  0  0
   -7.7650   -5.6180  -15.6200 C   0  0  0  0  0
   -6.1460   -6.0150  -14.9140 S   0  0  0  0  0
   -9.9810   -5.8950  -18.1900 N   0  0  0  0  0
  -11.3480   -5.5950  -18.5670 C   0  0  0  0  0
  -11.8240   -6.4670  -19.7190 C   0  0  0  0  0
  -11.5110   -6.2020  -20.8820 O   0  0  0  0  0
  -12.5840   -7.5260  -19.4180 N   0  0  0  0  0
  -13.0780   -8.4470  -20.4600 C   0  0  0  0  0
  -14.2940   -7.8410  -21.1500 C   0  0  0  0  0
  -15.2930   -7.5140  -20.5080 O   0  0  0  0  0
  -13.4480   -9.7040  -19.6640 C   0  0  0  0  0
  -13.8610   -9.1580  -18.3300 C   0  0  0  0  0
  -13.0080   -7.9440  -18.0680 C   0  0  0  0  0
  -14.2240   -7.7090  -22.4720 N   0  0  0  0  0
  -15.2850   -7.0380  -23.2060 C   0  0  0  0  0
  -16.1520   -8.0300  -23.9650 C   0  0  0  0  0
  -15.7100   -9.1050  -24.3970 O   0  0  0  0  0
  -14.7320   -6.0220  -24.1980 C   0  0  0  0  0
  -14.2950   -6.7070  -25.3560 O   0  0  0  0  0
  -17.4210   -7.6640  -24.1250 N   0  0  0  0  0
  -18.3160   -8.5180  -24.8990 C   0  0  0  0  0
  -17.8410   -8.6590  -26.3350 C   0  0  0  0  0
  -17.9930   -9.7250  -26.9430 O   0  0  0  0  0
  -19.7450   -7.9720  -24.8610 C   0  0  0  0  0
  -20.3700   -8.0060  -23.4890 C   0  0  0  0  0
  -21.8020   -7.4680  -23.4770 C   0  0  0  0  0
  -22.3510   -7.4430  -22.1300 N   0  0  0  0  0
  -22.8220   -8.5090  -21.4880 C   0  0  0  0  0
  -22.8320   -9.6780  -22.0850 N   0  0  0  0  0
  -23.3010   -8.4110  -20.2600 N   0  0  0  0  0
  -17.2630   -7.6010  -26.8930 N   0  0  0  0  0
  -16.7720   -7.6450  -28.2620 C   0  0  0  0  0
  -15.6600   -8.6670  -28.4160 C   0  0  0  0  0
  -15.4910   -9.2420  -29.5020 O   0  0  0  0  0
  -16.2620   -6.2630  -28.6720 C   0  0  0  0  0
  -14.8810   -8.8950  -27.3540 N   0  0  0  0  0
  -13.6490   -9.6600  -27.4850 C   0  0  0  0  0
  -13.8870  -11.1310  -27.7710 C   0  0  0  0  0
  -12.9810  -11.7920  -28.2880 O   0  0  0  0  0
  -12.8000   -9.5280  -26.2190 C   0  0  0  0  0
  -13.3420  -10.2650  -25.1440 O   0  0  0  0  0
  -15.0720  -11.6610  -27.4470 N   0  0  0  0  0
  -15.3330  -13.0890  -27.6200 C   0  0  0  0  0
  -15.9020  -13.4260  -28.9870 C   0  0  0  0  0
  -16.0930  -14.6160  -29.2900 O   0  0  0  0  0
  -16.2830  -13.6350  -26.5380 C   0  0  0  0  0
  -17.6710  -13.0110  -26.6820 C   0  0  0  0  0
  -15.7080  -13.3800  -25.1620 C   0  0  0  0  0
  -18.7730  -13.7630  -25.9750 C   0  0  0  0  0
  -16.1900  -12.4280  -29.8170 N   0  0  0  0  0
  -16.7590  -12.6610  -31.1370 C   0  0  0  0  0
  -15.6330  -12.9630  -32.1150 C   0  0  0  0  0
  -14.7470  -12.1270  -32.3300 O   0  0  0  0  0
  -17.5060  -11.4150  -31.5920 C   0  0  0  0  0
  -18.6250  -10.9080  -30.6910 C   0  0  0  0  0
  -19.1140   -9.5690  -31.2120 C   0  0  0  0  0
  -19.7660  -11.9070  -30.6260 C   0  0  0  0  0
  -15.6890  -14.1350  -32.7400 N   0  0  0  0  0
  -14.5990  -14.5600  -33.6060 C   0  0  0  0  0
  -15.0190  -15.6760  -34.5570 C   0  0  0  0  0
  -14.6300  -16.8340  -34.3670 O   0  0  0  0  0
  -13.4180  -15.0220  -32.7490 C   0  0  0  0  0
  -12.3680  -15.5260  -33.5540 O   0  0  0  0  0
  -15.8010  -15.3480  -35.5820 N   0  0  0  0  0
  -16.1630  -16.3340  -36.5910 C   0  0  0  0  0
  -17.5940  -16.8390  -36.5640 C   0  0  0  0  0
  -17.8630  -17.9850  -36.1830 O   0  0  0  0  0
  -18.5350  -16.1200  -36.9220 O   0  0  0  0  0
    3.0441   -9.0239  -16.8595 H   0  0  0  0  0
    4.2931   -8.4543  -20.2480 H   0  0  0  0  0
    4.1612   -7.8156  -18.6061 H   0  0  0  0  0
    1.7564  -10.9935  -16.1433 H   0  0  0  0  0
    1.2266  -12.7800  -17.7528 H   0  0  0  0  0
    2.0159  -12.6211  -20.0813 H   0  0  0  0  0
    2.4247  -12.4219  -21.8399 H   0  0  0  0  0
    4.7236  -11.5746  -23.3909 H   0  0  0  0  0
    3.7396  -13.8103  -23.6016 H   0  0  0  0  0
    2.2331  -13.0968  -24.2281 H   0  0  0  0  0
    3.7386  -12.9673  -25.1702 H   0  0  0  0  0
    1.4037  -10.3203  -23.1608 H   0  0  0  0  0
    2.3630   -8.3590  -25.2269 H   0  0  0  0  0
   -0.0362   -7.9991  -25.8497 H   0  0  0  0  0
   -1.4368   -9.7849  -25.2881 H   0  0  0  0  0
    1.5031   -9.3158  -27.2520 H   0  0  0  0  0
    1.1229  -10.7773  -26.3084 H   0  0  0  0  0
   -0.1396  -10.0017  -27.2960 H   0  0  0  0  0
   -0.6875   -7.4800  -24.0269 H   0  0  0  0  0
    0.5280   -6.1861  -21.6020 H   0  0  0  0  0
   -1.8340   -5.2363  -23.2716 H   0  0  0  0  0
   -0.2975   -3.5693  -23.8665 H   0  0  0  0  0
   -2.0008   -4.6121  -20.9095 H   0  0  0  0  0
   -0.3575   -3.9283  -20.9644 H   0  0  0  0  0
   -1.6622   -3.1884  -21.9243 H   0  0  0  0  0
   -2.3773   -8.9611  -19.5428 H   0  0  0  0  0
   -2.0486   -8.4841  -17.1508 H   0  0  0  0  0
   -1.9965   -6.7996  -17.3875 H   0  0  0  0  0
    0.1749   -8.8336  -18.1409 H   0  0  0  0  0
    0.3752   -7.4172  -17.2074 H   0  0  0  0  0
    0.1852   -5.9423  -19.1284 H   0  0  0  0  0
    0.9328   -7.2917  -19.8588 H   0  0  0  0  0
   -4.4210   -9.0974  -19.0169 H   0  0  0  0  0
   -6.0557   -6.7473  -19.9297 H   0  0  0  0  0
   -6.6510   -9.7143  -20.0951 H   0  0  0  0  0
   -6.0055   -8.6891  -21.4562 H   0  0  0  0  0
   -8.6041   -8.1428  -20.0444 H   0  0  0  0  0
   -7.6119   -6.2943  -21.2872 H   0  0  0  0  0
   -7.4720   -7.3237  -22.7335 H   0  0  0  0  0
   -9.0794   -6.8843  -22.1054 H   0  0  0  0  0
   -8.1633   -9.7569  -22.5619 H   0  0  0  0  0
   -8.7587  -10.3685  -20.9990 H   0  0  0  0  0
   -9.7384   -9.2125  -21.9344 H   0  0  0  0  0
   -7.1230   -5.8405  -18.2870 H   0  0  0  0  0
   -8.1691   -7.6625  -16.2043 H   0  0  0  0  0
   -8.4925   -5.5959  -14.8086 H   0  0  0  0  0
   -7.6865   -4.6574  -16.1291 H   0  0  0  0  0
   -5.8039   -5.0752  -14.0373 H   0  0  0  0  0
   -9.2280   -5.6908  -18.8470 H   0  0  0  0  0
  -11.3937   -4.5536  -18.8855 H   0  0  0  0  0
  -11.9893   -5.7860  -17.7065 H   0  0  0  0  0
  -12.3567   -8.6536  -21.2507 H   0  0  0  0  0
  -12.6227  -10.4123  -19.5904 H   0  0  0  0  0
  -14.2361  -10.2863  -20.1414 H   0  0  0  0  0
  -13.7210   -9.9040  -17.5477 H   0  0  0  0  0
  -14.9184   -8.8934  -18.3321 H   0  0  0  0  0
  -13.5477   -7.1598  -17.5371 H   0  0  0  0  0
  -12.1644   -8.1587  -17.4120 H   0  0  0  0  0
  -13.4189   -8.0818  -22.9752 H   0  0  0  0  0
  -15.8887   -6.5212  -22.4600 H   0  0  0  0  0
  -13.8966   -5.4846  -23.7493 H   0  0  0  0  0
  -15.5086   -5.3049  -24.4640 H   0  0  0  0  0
  -13.9446   -6.0745  -25.9875 H   0  0  0  0  0
  -17.7642   -6.7970  -23.7117 H   0  0  0  0  0
  -18.3069   -9.5085  -24.4441 H   0  0  0  0  0
  -20.3521   -8.6015  -25.5116 H   0  0  0  0  0
  -19.7041   -6.9290  -25.1750 H   0  0  0  0  0
  -19.7705   -7.3747  -22.8332 H   0  0  0  0  0
  -20.4009   -9.0452  -23.1617 H   0  0  0  0  0
  -22.4217   -8.1222  -24.0903 H   0  0  0  0  0
  -21.7913   -6.4492  -23.8644 H   0  0  0  0  0
  -22.3766   -6.5465  -21.6442 H   0  0  0  0  0
  -22.4794   -9.7670  -23.0380 H   0  0  0  0  0
  -23.6714   -9.2368  -19.7897 H   0  0  0  0  0
  -23.3002   -7.5096  -19.7827 H   0  0  0  0  0
  -17.1616   -6.7423  -26.3520 H   0  0  0  0  0
  -17.5976   -7.9406  -28.9094 H   0  0  0  0  0
  -17.0760   -5.5414  -28.6027 H   0  0  0  0  0
  -15.4521   -5.9639  -28.0067 H   0  0  0  0  0
  -15.8956   -6.3019  -29.6978 H   0  0  0  0  0
  -15.1526   -8.5290  -26.4415 H   0  0  0  0  0
  -13.1224   -9.2395  -28.3417 H   0  0  0  0  0
  -12.7724   -8.4764  -25.9335 H   0  0  0  0  0
  -11.8042   -9.9165  -26.4327 H   0  0  0  0  0
  -12.7838  -10.1578  -24.3704 H   0  0  0  0  0
  -15.8054  -11.0588  -27.0731 H   0  0  0  0  0
  -14.3588  -13.5686  -27.5251 H   0  0  0  0  0
  -16.3859  -14.7123  -26.6683 H   0  0  0  0  0
  -17.9135  -13.0149  -27.7447 H   0  0  0  0  0
  -17.6227  -12.0192  -26.2324 H   0  0  0  0  0
  -14.7426  -13.8785  -25.0750 H   0  0  0  0  0
  -15.5790  -12.3075  -25.0166 H   0  0  0  0  0
  -16.3896  -13.7710  -24.4066 H   0  0  0  0  0
  -18.8366  -14.7743  -26.3766 H   0  0  0  0  0
  -18.5543  -13.8074  -24.9081 H   0  0  0  0  0
  -19.7209  -13.2482  -26.1317 H   0  0  0  0  0
  -16.0067  -11.4696  -29.5199 H   0  0  0  0  0
  -17.4500  -13.5031  -31.0991 H   0  0  0  0  0
  -17.9829  -11.6830  -32.5348 H   0  0  0  0  0
  -16.7633  -10.6176  -31.6196 H   0  0  0  0  0
  -18.2398  -10.7847  -29.6788 H   0  0  0  0  0
  -18.2892   -8.8564  -31.2096 H   0  0  0  0  0
  -19.4877   -9.6907  -32.2287 H   0  0  0  0  0
  -19.9151   -9.2016  -30.5706 H   0  0  0  0  0
  -20.1669  -12.0644  -31.6273 H   0  0  0  0  0
  -19.3972  -12.8524  -30.2281 H   0  0  0  0  0
  -20.5503  -11.5190  -29.9761 H   0  0  0  0  0
  -16.5003  -14.7398  -32.6120 H   0  0  0  0  0
  -14.3081  -13.7061  -34.2178 H   0  0  0  0  0
  -13.7594  -15.8161  -32.0850 H   0  0  0  0  0
  -13.0439  -14.1689  -32.1830 H   0  0  0  0  0
  -11.6424  -15.8077  -32.9921 H   0  0  0  0  0
  -16.1516  -14.3935  -35.6623 H   0  0  0  0  0
  -15.5331  -17.2034  -36.4023 H   0  0  0  0  0
  -16.0361  -15.8399  -37.5542 H   0  0  0  0  0
  -17.0532  -18.4368  -35.9346 H   0  0  0  0  0
  1  2  2  0  0  0
  1  3  1  0  0  0
  1 10  1  0  0  0
  3  4  4  0  0  0
  3  9  4  0  0  0
  4  5  4  0  0  0
  4  6  1  0  0  0
  5  7  4  0  0  0
  7  8  4  0  0  0
  8  9  4  0  0  0
 10 11  1  0  0  0
 11 12  1  0  0  0
 11 14  1  0  0  0
 12 13  2  0  0  0
 12 15  1  0  0  0
 15 16  1  0  0  0
 16 17  1  0  0  0
 16 19  1  0  0  0
 17 18  2  0  0  0
 17 22  1  0  0  0
 19 20  1  0  0  0
 19 21  1  0  0  0
 22 23  1  0  0  0
 23 24  1  0  0  0
 23 26  1  0  0  0
 24 25  2  0  0  0
 24 29  1  0  0  0
 26 27  1  0  0  0
 26 28  1  0  0  0
 29 30  1  0  0  0
 29 35  1  0  0  0
 30 31  1  0  0  0
 30 33  1  0  0  0
 31 32  2  0  0  0
 31 36  1  0  0  0
 33 34  1  0  0  0
 34 35  1  0  0  0
 36 37  1  0  0  0
 37 38  1  0  0  0
 37 40  1  0  0  0
 38 39  2  0  0  0
 38 44  1  0  0  0
 40 41  1  0  0  0
 41 42  1  0  0  0
 41 43  1  0  0  0
 44 45  1  0  0  0
 45 46  1  0  0  0
 45 48  1  0  0  0
 46 47  2  0  0  0
 46 50  1  0  0  0
 48 49  1  0  0  0
 50 51  1  0  0  0
 51 52  1  0  0  0
 52 53  2  0  0  0
 52 54  1  0  0  0
 54 55  1  0  0  0
 54 60  1  0  0  0
 55 56  1  0  0  0
 55 58  1  0  0  0
 56 57  2  0  0  0
 56 61  1  0  0  0
 58 59  1  0  0  0
 59 60  1  0  0  0
 61 62  1  0  0  0
 62 63  1  0  0  0
 62 65  1  0  0  0
 63 64  2  0  0  0
 63 67  1  0  0  0
 65 66  1  0  0  0
 67 68  1  0  0  0
 68 69  1  0  0  0
 68 71  1  0  0  0
 69 70  2  0  0  0
 69 78  1  0  0  0
 71 72  1  0  0  0
 72 73  1  0  0  0
 73 74  1  0  0  0
 74 75  1  0  0  0
 75 76  2  0  0  0
 75 77  1  0  0  0
 78 79  1  0  0  0
 79 80  1  0  0  0
 79 82  1  0  0  0
 80 81  2  0  0  0
 80 83  1  0  0  0
 83 84  1  0  0  0
 84 85  1  0  0  0
 84 87  1  0  0  0
 85 86  2  0  0  0
 85 89  1  0  0  0
 87 88  1  0  0  0
 89 90  1  0  0  0
 90 91  1  0  0  0
 90 93  1  0  0  0
 91 92  2  0  0  0
 91 97  1  0  0  0
 93 94  1  0  0  0
 93 95  1  0  0  0
 94 96  1  0  0  0
 97 98  1  0  0  0
 98 99  1  0  0  0
 98101  1  0  0  0
 99100  2  0  0  0
 99105  1  0  0  0
101102  1  0  0  0
102103  1  0  0  0
102104  1  0  0  0
105106  1  0  0  0
106107  1  0  0  0
106109  1  0  0  0
107108  2  0  0  0
107111  1  0  0  0
109110  1  0  0  0
111112  1  0  0  0
112113  1  0  0  0
113114  1  0  0  0
113115  2  0  0  0
  5116  1  0  0  0
  6117  1  0  0  0
  6118  1  0  0  0
  7119  1  0  0  0
  8120  1  0  0  0
  9121  1  0  0  0
 10122  1  0  0  0
 11123  1  0  0  0
 14124  1  0  0  0
 14125  1  0  0  0
 14126  1  0  0  0
 15127  1  0  0  0
 16128  1  0  0  0
 19129  1  0  0  0
 20130  1  0  0  0
 21131  1  0  0  0
 21132  1  0  0  0
 21133  1  0  0  0
 22134  1  0  0  0
 23135  1  0  0  0
 26136  1  0  0  0
 27137  1  0  0  0
 28138  1  0  0  0
 28139  1  0  0  0
 28140  1  0  0  0
 30141  1  0  0  0
 33142  1  0  0  0
 33143  1  0  0  0
 34144  1  0  0  0
 34145  1  0  0  0
 35146  1  0  0  0
 35147  1  0  0  0
 36148  1  0  0  0
 37149  1  0  0  0
 40150  1  0  0  0
 40151  1  0  0  0
 41152  1  0  0  0
 42153  1  0  0  0
 42154  1  0  0  0
 42155  1  0  0  0
 43156  1  0  0  0
 43157  1  0  0  0
 43158  1  0  0  0
 44159  1  0  0  0
 45160  1  0  0  0
 48161  1  0  0  0
 48162  1  0  0  0
 49163  1  0  0  0
 50164  1  0  0  0
 51165  1  0  0  0
 51166  1  0  0  0
 55167  1  0  0  0
 58168  1  0  0  0
 58169  1  0  0  0
 59170  1  0  0  0
 59171  1  0  0  0
 60172  1  0  0  0
 60173  1  0  0  0
 61174  1  0  0  0
 62175  1  0  0  0
 65176  1  0  0  0
 65177  1  0  0  0
 66178  1  0  0  0
 67179  1  0  0  0
 68180  1  0  0  0
 71181  1  0  0  0
 71182  1  0  0  0
 72183  1  0  0  0
 72184  1  0  0  0
 73185  1  0  0  0
 73186  1  0  0  0
 74187  1  0  0  0
 76188  1  0  0  0
 77189  1  0  0  0
 77190  1  0  0  0
 78191  1  0  0  0
 79192  1  0  0  0
 82193  1  0  0  0
 82194  1  0  0  0
 82195  1  0  0  0
 83196  1  0  0  0
 84197  1  0  0  0
 87198  1  0  0  0
 87199  1  0  0  0
 88200  1  0  0  0
 89201  1  0  0  0
 90202  1  0  0  0
 93203  1  0  0  0
 94204  1  0  0  0
 94205  1  0  0  0
 95206  1  0  0  0
 95207  1  0  0  0
 95208  1  0  0  0
 96209  1  0  0  0
 96210  1  0  0  0
 96211  1  0  0  0
 97212  1  0  0  0
 98213  1  0  0  0
101214  1  0  0  0
101215  1  0  0  0
102216  1  0  0  0
103217  1  0  0  0
103218  1  0  0  0
103219  1  0  0  0
104220  1  0  0  0
104221  1  0  0  0
104222  1  0  0  0
105223  1  0  0  0
106224  1  0  0  0
109225  1  0  0  0
109226  1  0  0  0
110227  1  0  0  0
111228  1  0  0  0
112229  1  0  0  0
112230  1  0  0  0
114231  1  0  0  0
M  END
$$$$
