### 
### Created by X-TOOL on Mon Aug  2 16:16:48 2021
### 

@<TRIPOS>MOLECULE
6s07_ligand
  231   233     1     0     0
SMALL
GAST_HUCK


@<TRIPOS>ATOM
      1 C           3.4480  -10.6600  -21.2040 C.2       1 BE2         0.1989
      2 O1          4.1050   -9.7550  -21.6640 O.2       1 BE2        -0.3920
      3 C1          2.9840  -10.7100  -19.8200 C.ar      1 BE2         0.0668
      4 C2          3.2660   -9.6780  -18.9040 C.ar      1 BE2         0.0569
      5 C3          2.8180   -9.8090  -17.5810 C.ar      1 BE2        -0.0383
      6 N2          3.9680   -8.5510  -19.2860 N.pl3     1 BE2        -0.3324
      7 C4          2.0960  -10.9140  -17.1760 C.ar      1 BE2        -0.0691
      8 C5          1.8050  -11.9130  -18.0720 C.ar      1 BE2        -0.0693
      9 C6          2.2460  -11.8190  -19.3800 C.ar      1 BE2        -0.0534
     10 N           3.0760  -11.6890  -22.1210 N.am      1 BE2        -0.2675
     11 CA          3.6410  -11.6770  -23.4660 C.3       1 BE2         0.1274
     12 C           3.1180  -10.4860  -24.2690 C.2       1 BE2         0.2036
     13 O           3.7960   -9.9930  -25.1690 O.2       1 BE2        -0.3944
     14 CB          3.3150  -12.9800  -24.1660 C.3       1 BE2        -0.0245
     15 N           1.9740   -9.9130  -23.9020 N.am      1 BE2        -0.2613
     16 CA          1.5490   -8.6880  -24.5810 C.3       1 BE2         0.1565
     17 C           1.2980   -7.5550  -23.5870 C.2       1 BE2         0.2065
     18 O           2.2540   -6.9950  -23.0400 O.2       1 BE2        -0.3943
     19 CB          0.3390   -8.9530  -25.4790 C.3       1 BE2         0.0924
     20 OG1        -0.6780   -9.6190  -24.7240 O.3       1 BE2        -0.3874
     21 CG2         0.7350   -9.8250  -26.6700 C.3       1 BE2        -0.0346
     22 N           0.0340   -7.1850  -23.3690 N.am      1 BE2        -0.2613
     23 CA         -0.3460   -6.3760  -22.2250 C.3       1 BE2         0.1567
     24 C          -1.3930   -7.1180  -21.4040 C.2       1 BE2         0.2090
     25 O          -2.3970   -7.5720  -21.9610 O.2       1 BE2        -0.3941
     26 CB         -0.9170   -5.0430  -22.7150 C.3       1 BE2         0.0924
     27 OG1         0.0520   -4.4070  -23.5540 O.3       1 BE2        -0.3874
     28 CG2        -1.2590   -4.1270  -21.5440 C.3       1 BE2        -0.0346
     29 N          -1.2010   -7.2650  -20.0980 N.am      1 BE2        -0.2498
     30 CA         -2.2220   -7.9170  -19.2710 C.3       1 BE2         0.1338
     31 C          -3.6050   -7.2980  -19.4400 C.2       1 BE2         0.2041
     32 O          -3.7570   -6.0910  -19.6570 O.2       1 BE2        -0.3944
     33 CB         -1.6770   -7.7340  -17.8490 C.3       1 BE2        -0.0104
     34 CG         -0.1870   -7.8090  -18.0550 C.3       1 BE2        -0.0281
     35 CD          0.0280   -7.0030  -19.3240 C.3       1 BE2         0.0369
     36 N          -4.6210   -8.1390  -19.3030 N.am      1 BE2        -0.2637
     37 CA         -6.0060   -7.7640  -19.5400 C.3       1 BE2         0.1312
     38 C          -6.7740   -7.8400  -18.2310 C.2       1 BE2         0.2039
     39 O          -6.8740   -8.9170  -17.6370 O.2       1 BE2        -0.3944
     40 CB         -6.6190   -8.7270  -20.5560 C.3       1 BE2        -0.0101
     41 CG         -8.0470   -8.3590  -20.9560 C.3       1 BE2        -0.0425
     42 CD1        -8.0530   -7.1290  -21.8320 C.3       1 BE2        -0.0625
     43 CD2        -8.7240   -9.5040  -21.6620 C.3       1 BE2        -0.0625
     44 N          -7.3310   -6.7100  -17.7960 N.am      1 BE2        -0.2629
     45 CA         -8.2250   -6.6680  -16.6470 C.3       1 BE2         0.1396
     46 C          -9.6840   -6.4290  -17.0110 C.2       1 BE2         0.2045
     47 O         -10.5530   -6.7560  -16.2060 O.2       1 BE2        -0.3944
     48 CB         -7.7650   -5.6180  -15.6200 C.3       1 BE2         0.0311
     49 SG         -6.1460   -6.0150  -14.9140 S.3       1 BE2        -0.1735
     50 N          -9.9810   -5.8950  -18.1900 N.am      1 BE2        -0.2664
     51 CA        -11.3480   -5.5950  -18.5670 C.3       1 BE2         0.1203
     52 C         -11.8240   -6.4670  -19.7190 C.2       1 BE2         0.2032
     53 O         -11.5110   -6.2020  -20.8820 O.2       1 BE2        -0.3945
     54 N         -12.5840   -7.5260  -19.4180 N.am      1 BE2        -0.2501
     55 CA        -13.0780   -8.4470  -20.4600 C.3       1 BE2         0.1338
     56 C         -14.2940   -7.8410  -21.1500 C.2       1 BE2         0.2042
     57 O         -15.2930   -7.5140  -20.5080 O.2       1 BE2        -0.3944
     58 CB        -13.4480   -9.7040  -19.6640 C.3       1 BE2        -0.0104
     59 CG        -13.8610   -9.1580  -18.3300 C.3       1 BE2        -0.0281
     60 CD        -13.0080   -7.9440  -18.0680 C.3       1 BE2         0.0369
     61 N         -14.2240   -7.7090  -22.4720 N.am      1 BE2        -0.2616
     62 CA        -15.2850   -7.0380  -23.2060 C.3       1 BE2         0.1539
     63 C         -16.1520   -8.0300  -23.9650 C.2       1 BE2         0.2062
     64 O         -15.7100   -9.1050  -24.3970 O.2       1 BE2        -0.3943
     65 CB        -14.7320   -6.0220  -24.1980 C.3       1 BE2         0.0843
     66 OG        -14.2950   -6.7070  -25.3560 O.3       1 BE2        -0.3903
     67 N         -17.4210   -7.6640  -24.1250 N.am      1 BE2        -0.2637
     68 CA        -18.3160   -8.5180  -24.8990 C.3       1 BE2         0.1311
     69 C         -17.8410   -8.6590  -26.3350 C.2       1 BE2         0.2039
     70 O         -17.9930   -9.7250  -26.9430 O.2       1 BE2        -0.3944
     71 CB        -19.7450   -7.9720  -24.8610 C.3       1 BE2        -0.0092
     72 CG        -20.3700   -8.0060  -23.4890 C.3       1 BE2        -0.0156
     73 CD        -21.8020   -7.4680  -23.4770 C.3       1 BE2         0.0627
     74 NE        -22.3510   -7.4430  -22.1300 N.pl3     1 BE2        -0.2723
     75 CZ        -22.8220   -8.5090  -21.4880 C.cat     1 BE2         0.2882
     76 NH1       -22.8320   -9.6780  -22.0850 N.pl3     1 BE2        -0.2849
     77 NH2       -23.3010   -8.4110  -20.2600 N.pl3     1 BE2        -0.2849
     78 N         -17.2630   -7.6010  -26.8930 N.am      1 BE2        -0.2640
     79 CA        -16.7720   -7.6450  -28.2620 C.3       1 BE2         0.1282
     80 C         -15.6600   -8.6670  -28.4160 C.2       1 BE2         0.2037
     81 O         -15.4910   -9.2420  -29.5020 O.2       1 BE2        -0.3944
     82 CB        -16.2620   -6.2630  -28.6720 C.3       1 BE2        -0.0244
     83 N         -14.8810   -8.8950  -27.3540 N.am      1 BE2        -0.2616
     84 CA        -13.6490   -9.6600  -27.4850 C.3       1 BE2         0.1539
     85 C         -13.8870  -11.1310  -27.7710 C.2       1 BE2         0.2062
     86 O         -12.9810  -11.7920  -28.2880 O.2       1 BE2        -0.3943
     87 CB        -12.8000   -9.5280  -26.2190 C.3       1 BE2         0.0843
     88 OG        -13.3420  -10.2650  -25.1440 O.3       1 BE2        -0.3903
     89 N         -15.0720  -11.6610  -27.4470 N.am      1 BE2        -0.2634
     90 CA        -15.3330  -13.0890  -27.6200 C.3       1 BE2         0.1335
     91 C         -15.9020  -13.4260  -28.9870 C.2       1 BE2         0.2042
     92 O         -16.0930  -14.6160  -29.2900 O.2       1 BE2        -0.3944
     93 CB        -16.2830  -13.6350  -26.5380 C.3       1 BE2        -0.0037
     94 CG1       -17.6710  -13.0110  -26.6820 C.3       1 BE2        -0.0491
     95 CG2       -15.7080  -13.3800  -25.1620 C.3       1 BE2        -0.0582
     96 CD1       -18.7730  -13.7630  -25.9750 C.3       1 BE2        -0.0648
     97 N         -16.1900  -12.4280  -29.8170 N.am      1 BE2        -0.2637
     98 CA        -16.7590  -12.6610  -31.1370 C.3       1 BE2         0.1312
     99 C         -15.6330  -12.9630  -32.1150 C.2       1 BE2         0.2040
    100 O         -14.7470  -12.1270  -32.3300 O.2       1 BE2        -0.3944
    101 CB        -17.5060  -11.4150  -31.5920 C.3       1 BE2        -0.0101
    102 CG        -18.6250  -10.9080  -30.6910 C.3       1 BE2        -0.0425
    103 CD1       -19.1140   -9.5690  -31.2120 C.3       1 BE2        -0.0625
    104 CD2       -19.7660  -11.9070  -30.6260 C.3       1 BE2        -0.0625
    105 N         -15.6890  -14.1350  -32.7400 N.am      1 BE2        -0.2616
    106 CA        -14.5990  -14.5600  -33.6060 C.3       1 BE2         0.1539
    107 C         -15.0190  -15.6760  -34.5570 C.2       1 BE2         0.2054
    108 O         -14.6300  -16.8340  -34.3670 O.2       1 BE2        -0.3943
    109 CB        -13.4180  -15.0220  -32.7490 C.3       1 BE2         0.0843
    110 OG        -12.3680  -15.5260  -33.5540 O.3       1 BE2        -0.3903
    111 N         -15.8010  -15.3480  -35.5820 N.am      1 BE2        -0.2721
    112 CA        -16.1630  -16.3340  -36.5910 C.3       1 BE2         0.0833
    113 C         -17.5940  -16.8390  -36.5640 C.2       1 BE2         0.0570
    114 O         -17.8630  -17.9850  -36.1830 O.co2     1 BE2        -0.5669
    115 OXT       -18.5350  -16.1200  -36.9220 O.co2     1 BE2        -0.5669
    116 H1          3.0429   -9.0282  -16.8634 H         1 BE2         0.0528
    117 H2          4.2973   -8.4539  -20.2571 H         1 BE2         0.1745
    118 H3          4.1620   -7.8079  -18.5997 H         1 BE2         0.1745
    119 H4          1.7583  -10.9930  -16.1490 H         1 BE2         0.0619
    120 H5          1.2298  -12.7752  -17.7545 H         1 BE2         0.0519
    121 H6          2.0171  -12.6167  -20.0774 H         1 BE2         0.0634
    122 H7          2.4374  -12.4075  -21.8454 H         1 BE2         0.1871
    123 H8          4.7343  -11.5863  -23.3853 H         1 BE2         0.0796
    124 H9          3.7420  -12.9684  -25.1797 H         1 BE2         0.0277
    125 H10         2.2233  -13.0991  -24.2294 H         1 BE2         0.0277
    126 H11         3.7430  -13.8188  -23.5974 H         1 BE2         0.0277
    127 H12         1.4149  -10.3123  -23.1754 H         1 BE2         0.1884
    128 H13         2.3755   -8.3695  -25.2333 H         1 BE2         0.0826
    129 H14        -0.0513   -7.9935  -25.8490 H         1 BE2         0.0639
    130 H15        -0.3389  -10.4439  -24.3967 H         1 BE2         0.2101
    131 H16        -0.1469  -10.0040  -27.3026 H         1 BE2         0.0257
    132 H17         1.1266  -10.7865  -26.3064 H         1 BE2         0.0257
    133 H18         1.5102   -9.3122  -27.2583 H         1 BE2         0.0257
    134 H19        -0.6734   -7.4742  -24.0140 H         1 BE2         0.1884
    135 H20         0.5392   -6.1860  -21.6003 H         1 BE2         0.0826
    136 H21        -1.8314   -5.2357  -23.2952 H         1 BE2         0.0639
    137 H22         0.8474   -4.2541  -23.0576 H         1 BE2         0.2101
    138 H23        -1.6661   -3.1794  -21.9265 H         1 BE2         0.0257
    139 H24        -0.3500   -3.9257  -20.9583 H         1 BE2         0.0257
    140 H25        -2.0076   -4.6154  -20.9029 H         1 BE2         0.0257
    141 H26        -2.2874   -8.9862  -19.5210 H         1 BE2         0.0802
    142 H27        -2.0266   -8.5371  -17.1835 H         1 BE2         0.0313
    143 H28        -1.9716   -6.7591  -17.4334 H         1 BE2         0.0313
    144 H29         0.1409   -8.8504  -18.1887 H         1 BE2         0.0287
    145 H30         0.3516   -7.3609  -17.2070 H         1 BE2         0.0287
    146 H31         0.1320   -5.9314  -19.0985 H         1 BE2         0.0524
    147 H32         0.9188   -7.3515  -19.8671 H         1 BE2         0.0524
    148 H33        -4.4249   -9.0786  -19.0225 H         1 BE2         0.1883
    149 H34        -6.0496   -6.7376  -19.9331 H         1 BE2         0.0800
    150 H35        -6.6286   -9.7361  -20.1182 H         1 BE2         0.0315
    151 H36        -5.9924   -8.7255  -21.4600 H         1 BE2         0.0315
    152 H37        -8.6135   -8.1352  -20.0401 H         1 BE2         0.0298
    153 H38        -9.0883   -6.8810  -22.1087 H         1 BE2         0.0232
    154 H39        -7.4670   -7.3242  -22.7422 H         1 BE2         0.0232
    155 H40        -7.6081   -6.2858  -21.2833 H         1 BE2         0.0232
    156 H41        -8.7127  -10.3926  -21.0137 H         1 BE2         0.0232
    157 H42        -8.1892   -9.7258  -22.5973 H         1 BE2         0.0232
    158 H43        -9.7645   -9.2301  -21.8906 H         1 BE2         0.0232
    159 H44        -7.1271   -5.8576  -18.2774 H         1 BE2         0.1884
    160 H45        -8.1691   -7.6543  -16.1632 H         1 BE2         0.0808
    161 H46        -8.5040   -5.5706  -14.8066 H         1 BE2         0.0422
    162 H47        -7.7039   -4.6389  -16.1176 H         1 BE2         0.0422
    163 H48        -6.1932   -6.9083  -14.4495 H         1 BE2         0.1019
    164 H49        -9.2427   -5.6948  -18.8341 H         1 BE2         0.1881
    165 H50       -11.4095   -4.5397  -18.8711 H         1 BE2         0.0763
    166 H51       -12.0017   -5.7651  -17.6988 H         1 BE2         0.0763
    167 H52       -12.2991   -8.6662  -21.2051 H         1 BE2         0.0802
    168 H53       -12.5829  -10.3760  -19.5640 H         1 BE2         0.0313
    169 H54       -14.2782  -10.2437  -20.1430 H         1 BE2         0.0313
    170 H55       -13.6964   -9.9117  -17.5459 H         1 BE2         0.0287
    171 H56       -14.9239   -8.8757  -18.3500 H         1 BE2         0.0287
    172 H57       -13.5914   -7.1519  -17.5758 H         1 BE2         0.0524
    173 H58       -12.1390   -8.2008  -17.4444 H         1 BE2         0.0524
    174 H59       -13.4347   -8.0745  -22.9654 H         1 BE2         0.1884
    175 H60       -15.9160   -6.5070  -22.4781 H         1 BE2         0.0823
    176 H61       -13.8857   -5.4853  -23.7445 H         1 BE2         0.0606
    177 H62       -15.5194   -5.3032  -24.4687 H         1 BE2         0.0606
    178 H63       -13.9482   -6.0811  -25.9809 H         1 BE2         0.2097
    179 H64       -17.7575   -6.8139  -23.7198 H         1 BE2         0.1883
    180 H65       -18.3165   -9.5174  -24.4394 H         1 BE2         0.0800
    181 H66       -20.3655   -8.5749  -25.5404 H         1 BE2         0.0313
    182 H67       -19.7276   -6.9287  -25.2090 H         1 BE2         0.0313
    183 H68       -19.7590   -7.3942  -22.8091 H         1 BE2         0.0301
    184 H69       -20.3827   -9.0471  -23.1341 H         1 BE2         0.0301
    185 H70       -22.4315   -8.1131  -24.1075 H         1 BE2         0.0689
    186 H71       -21.8031   -6.4454  -23.8824 H         1 BE2         0.0689
    187 H72       -22.3769   -6.5377  -21.6395 H         1 BE2         0.2642
    188 H73       -23.1959  -10.5054  -21.5911 H         1 BE2         0.2615
    189 H74       -22.4760   -9.7679  -23.0473 H         1 BE2         0.2615
    190 H75       -23.3002   -7.5007  -19.7780 H         1 BE2         0.2615
    191 H76       -23.6751   -9.2449  -19.7850 H         1 BE2         0.2615
    192 H77       -17.1636   -6.7591  -26.3626 H         1 BE2         0.1883
    193 H78       -17.6035   -7.9288  -28.9238 H         1 BE2         0.0797
    194 H79       -15.8920   -6.3010  -29.7072 H         1 BE2         0.0277
    195 H80       -15.4445   -5.9600  -28.0013 H         1 BE2         0.0277
    196 H81       -17.0826   -5.5338  -28.6026 H         1 BE2         0.0277
    197 H82       -15.1473   -8.5361  -26.4594 H         1 BE2         0.1884
    198 H83       -13.0832   -9.2386  -28.3290 H         1 BE2         0.0823
    199 H84       -12.7496   -8.4669  -25.9333 H         1 BE2         0.0606
    200 H85       -11.7864   -9.8996  -26.4299 H         1 BE2         0.0606
    201 H86       -14.2161   -9.9463  -24.9518 H         1 BE2         0.2097
    202 H87       -15.7910  -11.0706  -27.0804 H         1 BE2         0.1883
    203 H88       -14.3693  -13.6097  -27.5198 H         1 BE2         0.0803
    204 H89       -16.3787  -14.7221  -26.6757 H         1 BE2         0.0345
    205 H90       -17.9181  -12.9665  -27.7530 H         1 BE2         0.0267
    206 H91       -17.6333  -11.9911  -26.2716 H         1 BE2         0.0267
    207 H92       -14.7115  -13.8402  -25.0900 H         1 BE2         0.0235
    208 H93       -16.3702  -13.8184  -24.4009 H         1 BE2         0.0235
    209 H94       -15.6242  -12.2960  -24.9947 H         1 BE2         0.0235
    210 H95       -19.7302  -13.2444  -26.1324 H         1 BE2         0.0230
    211 H96       -18.5535  -13.8085  -24.8981 H         1 BE2         0.0230
    212 H97       -18.8383  -14.7839  -26.3794 H         1 BE2         0.0230
    213 H98       -16.0103  -11.4884  -29.5258 H         1 BE2         0.1883
    214 H99       -17.4532  -13.5133  -31.0965 H         1 BE2         0.0800
    215 H100      -17.9465  -11.6337  -32.5759 H         1 BE2         0.0315
    216 H101      -16.7687  -10.6048  -31.6921 H         1 BE2         0.0315
    217 H102      -18.2259  -10.7692  -29.6754 H         1 BE2         0.0298
    218 H103      -19.9225   -9.1972  -30.5655 H         1 BE2         0.0232
    219 H104      -19.4915   -9.6904  -32.2380 H         1 BE2         0.0232
    220 H105      -18.2825   -8.8489  -31.2100 H         1 BE2         0.0232
    221 H106      -19.3902  -12.8686  -30.2465 H         1 BE2         0.0232
    222 H107      -20.1867  -12.0492  -31.6324 H         1 BE2         0.0232
    223 H108      -20.5479  -11.5272  -29.9520 H         1 BE2         0.0232
    224 H109      -16.4844  -14.7279  -32.6145 H         1 BE2         0.1884
    225 H110      -14.2812  -13.6968  -34.2092 H         1 BE2         0.0823
    226 H111      -13.7584  -15.8142  -32.0659 H         1 BE2         0.0606
    227 H112      -13.0438  -14.1690  -32.1638 H         1 BE2         0.0606
    228 H113      -12.6847  -16.2658  -34.0589 H         1 BE2         0.2097
    229 H114      -16.1448  -14.4123  -35.6608 H         1 BE2         0.1873
    230 H115      -15.5001  -17.2023  -36.4623 H         1 BE2         0.0689
    231 H116      -15.9872  -15.8816  -37.5781 H         1 BE2         0.0689
@<TRIPOS>BOND
     1    1    2 2  
     2    1    3 1  
     3    1   10 am 
     4    3    4 ar 
     5    3    9 ar 
     6    4    5 ar 
     7    4    6 1  
     8    5    7 ar 
     9    7    8 ar 
    10    8    9 ar 
    11   10   11 1  
    12   11   12 1  
    13   11   14 1  
    14   12   13 2  
    15   12   15 am 
    16   15   16 1  
    17   16   17 1  
    18   16   19 1  
    19   17   18 2  
    20   17   22 am 
    21   19   20 1  
    22   19   21 1  
    23   22   23 1  
    24   23   24 1  
    25   23   26 1  
    26   24   25 2  
    27   24   29 am 
    28   26   27 1  
    29   26   28 1  
    30   29   30 1  
    31   29   35 1  
    32   30   31 1  
    33   30   33 1  
    34   31   32 2  
    35   31   36 am 
    36   33   34 1  
    37   34   35 1  
    38   36   37 1  
    39   37   38 1  
    40   37   40 1  
    41   38   39 2  
    42   38   44 am 
    43   40   41 1  
    44   41   42 1  
    45   41   43 1  
    46   44   45 1  
    47   45   46 1  
    48   45   48 1  
    49   46   47 2  
    50   46   50 am 
    51   48   49 1  
    52   50   51 1  
    53   51   52 1  
    54   52   53 2  
    55   52   54 am 
    56   54   55 1  
    57   54   60 1  
    58   55   56 1  
    59   55   58 1  
    60   56   57 2  
    61   56   61 am 
    62   58   59 1  
    63   59   60 1  
    64   61   62 1  
    65   62   63 1  
    66   62   65 1  
    67   63   64 2  
    68   63   67 am 
    69   65   66 1  
    70   67   68 1  
    71   68   69 1  
    72   68   71 1  
    73   69   70 2  
    74   69   78 am 
    75   71   72 1  
    76   72   73 1  
    77   73   74 1  
    78   74   75 ar 
    79   75   76 ar 
    80   75   77 ar 
    81   78   79 1  
    82   79   80 1  
    83   79   82 1  
    84   80   81 2  
    85   80   83 am 
    86   83   84 1  
    87   84   85 1  
    88   84   87 1  
    89   85   86 2  
    90   85   89 am 
    91   87   88 1  
    92   89   90 1  
    93   90   91 1  
    94   90   93 1  
    95   91   92 2  
    96   91   97 am 
    97   93   94 1  
    98   93   95 1  
    99   94   96 1  
   100   97   98 1  
   101   98   99 1  
   102   98  101 1  
   103   99  100 2  
   104   99  105 am 
   105  101  102 1  
   106  102  103 1  
   107  102  104 1  
   108  105  106 1  
   109  106  107 1  
   110  106  109 1  
   111  107  108 2  
   112  107  111 am 
   113  109  110 1  
   114  111  112 1  
   115  112  113 1  
   116  113  114 ar 
   117  113  115 ar 
   118    5  116 1  
   119    6  117 1  
   120    6  118 1  
   121    7  119 1  
   122    8  120 1  
   123    9  121 1  
   124   10  122 1  
   125   11  123 1  
   126   14  124 1  
   127   14  125 1  
   128   14  126 1  
   129   15  127 1  
   130   16  128 1  
   131   19  129 1  
   132   20  130 1  
   133   21  131 1  
   134   21  132 1  
   135   21  133 1  
   136   22  134 1  
   137   23  135 1  
   138   26  136 1  
   139   27  137 1  
   140   28  138 1  
   141   28  139 1  
   142   28  140 1  
   143   30  141 1  
   144   33  142 1  
   145   33  143 1  
   146   34  144 1  
   147   34  145 1  
   148   35  146 1  
   149   35  147 1  
   150   36  148 1  
   151   37  149 1  
   152   40  150 1  
   153   40  151 1  
   154   41  152 1  
   155   42  153 1  
   156   42  154 1  
   157   42  155 1  
   158   43  156 1  
   159   43  157 1  
   160   43  158 1  
   161   44  159 1  
   162   45  160 1  
   163   48  161 1  
   164   48  162 1  
   165   49  163 1  
   166   50  164 1  
   167   51  165 1  
   168   51  166 1  
   169   55  167 1  
   170   58  168 1  
   171   58  169 1  
   172   59  170 1  
   173   59  171 1  
   174   60  172 1  
   175   60  173 1  
   176   61  174 1  
   177   62  175 1  
   178   65  176 1  
   179   65  177 1  
   180   66  178 1  
   181   67  179 1  
   182   68  180 1  
   183   71  181 1  
   184   71  182 1  
   185   72  183 1  
   186   72  184 1  
   187   73  185 1  
   188   73  186 1  
   189   74  187 1  
   190   76  188 1  
   191   76  189 1  
   192   77  190 1  
   193   77  191 1  
   194   78  192 1  
   195   79  193 1  
   196   82  194 1  
   197   82  195 1  
   198   82  196 1  
   199   83  197 1  
   200   84  198 1  
   201   87  199 1  
   202   87  200 1  
   203   88  201 1  
   204   89  202 1  
   205   90  203 1  
   206   93  204 1  
   207   94  205 1  
   208   94  206 1  
   209   95  207 1  
   210   95  208 1  
   211   95  209 1  
   212   96  210 1  
   213   96  211 1  
   214   96  212 1  
   215   97  213 1  
   216   98  214 1  
   217  101  215 1  
   218  101  216 1  
   219  102  217 1  
   220  103  218 1  
   221  103  219 1  
   222  103  220 1  
   223  104  221 1  
   224  104  222 1  
   225  104  223 1  
   226  105  224 1  
   227  106  225 1  
   228  109  226 1  
   229  109  227 1  
   230  110  228 1  
   231  111  229 1  
   232  112  230 1  
   233  112  231 1  
@<TRIPOS>SUBSTRUCTURE
     1 BE2         1

