1jwm_ligand
  -I-interpret- 

228229  0  0  0  0  0  0  0  0999 V2000
  -17.4770   37.1480   20.6740 N   0  3  0  0  0
  -17.7500   38.5230   20.1900 C   0  0  0  0  0
  -18.4550   38.5070   18.8340 C   0  0  0  0  0
  -17.9440   37.9450   17.8550 O   0  0  0  0  0
  -16.4080   39.2390   20.1020 C   0  0  0  0  0
  -15.6130   38.4970   21.1700 C   0  0  0  0  0
  -16.0480   37.0190   21.0110 C   0  0  0  0  0
  -19.6270   39.1400   18.7870 N   0  0  0  0  0
  -20.4210   39.1820   17.5700 C   0  0  0  0  0
  -20.4020   40.5260   16.8360 C   0  0  0  0  0
  -20.7350   41.5610   17.4090 O   0  0  0  0  0
  -21.8640   38.7770   17.8900 C   0  0  0  0  0
  -22.6420   38.3930   16.6470 C   0  0  0  0  0
  -23.8600   37.5270   16.9390 C   0  0  0  0  0
  -24.2250   36.7340   15.6850 C   0  0  0  0  0
  -25.4680   35.9400   15.8450 N   0  3  0  0  0
  -19.9990   40.4930   15.5640 N   0  0  0  0  0
  -19.9560   41.6870   14.7140 C   0  0  0  0  0
  -21.3750   42.1860   14.4390 C   0  0  0  0  0
  -22.2800   41.3930   14.1790 O   0  0  0  0  0
  -19.2630   41.3680   13.3800 C   0  0  0  0  0
  -17.7670   41.6140   13.3720 C   0  0  0  0  0
  -17.2600   42.9070   13.4120 C   0  0  0  0  0
  -16.8570   40.5530   13.3520 C   0  0  0  0  0
  -15.8870   43.1470   13.4380 C   0  0  0  0  0
  -15.4740   40.7840   13.3780 C   0  0  0  0  0
  -15.0020   42.0880   13.4240 C   0  0  0  0  0
  -13.6520   42.3480   13.4730 O   0  0  0  0  0
  -21.5660   43.4980   14.5060 N   0  0  0  0  0
  -22.8770   44.0820   14.2590 C   0  0  0  0  0
  -22.8660   44.9970   13.0430 C   0  0  0  0  0
  -21.9560   45.8080   12.8860 O   0  0  0  0  0
  -23.3550   44.9010   15.4690 C   0  0  0  0  0
  -24.7010   45.5280   15.1710 C   0  0  0  0  0
  -23.4570   44.0040   16.6880 C   0  0  0  0  0
  -23.8880   44.8760   12.2000 N   0  0  0  0  0
  -23.9960   45.6980   10.9900 C   0  0  0  0  0
  -24.8880   46.9200   11.1880 C   0  0  0  0  0
  -25.6520   46.9970   12.1500 O   0  0  0  0  0
  -24.6010   44.8900    9.8380 C   0  0  0  0  0
  -26.1330   44.7890    9.9050 C   0  0  0  0  0
  -26.7090   44.2180    8.6190 C   0  0  0  0  0
  -28.2220   44.3200    8.5700 C   0  0  0  0  0
  -28.8550   43.4610    9.5890 N   0  3  0  0  0
  -24.7880   47.8680   10.2650 N   0  0  0  0  0
  -25.6400   49.0470   10.2980 C   0  0  0  0  0
  -26.7270   48.7180    9.2930 C   0  0  0  0  0
  -26.4610   48.0830    8.2740 O   0  0  0  0  0
  -24.8830   50.2950    9.8470 C   0  0  0  0  0
  -24.1700   51.0580   10.9580 C   0  0  0  0  0
  -25.1240   51.5610   12.0260 C   0  0  0  0  0
  -25.4660   50.8400   12.9600 O   0  0  0  0  0
  -25.5700   52.8030   11.8840 N   0  0  0  0  0
  -27.9560   49.1160    9.5690 N   0  0  0  0  0
  -29.0170   48.8200    8.6250 C   0  0  0  0  0
  -29.1320   49.8520    7.5070 C   0  0  0  0  0
  -29.0050   51.0610    7.7250 O   0  0  0  0  0
  -30.3500   48.6810    9.3500 C   0  0  0  0  0
  -30.3810   47.4790   10.2590 C   0  0  0  0  0
  -29.9420   46.3950    9.8770 O   0  0  0  0  0
  -30.9080   47.6550   11.4630 N   0  0  0  0  0
  -29.3670   49.3530    6.3010 N   0  0  0  0  0
  -29.5180   50.2030    5.1320 C   0  0  0  0  0
  -30.8630   50.9320    5.1760 C   0  0  0  0  0
  -31.9110   50.3340    5.4190 O   0  0  0  0  0
  -29.4340   49.3650    3.8280 C   0  0  0  0  0
  -29.8970   48.0350    4.0860 O   0  0  0  0  0
  -28.0200   49.2710    3.3300 C   0  0  0  0  0
  -30.8130   52.2330    4.9490 N   0  0  0  0  0
  -32.0030   53.0580    4.9410 C   0  0  0  0  0
  -32.5580   53.1380    3.5340 C   0  0  0  0  0
  -31.7940   53.2140    2.5700 O   0  0  0  0  0
  -31.6470   54.4720    5.3780 C   0  0  0  0  0
  -31.1010   54.6300    6.7860 C   0  0  0  0  0
  -30.2510   55.8780    6.8560 C   0  0  0  0  0
  -32.2680   54.6710    7.7690 C   0  0  0  0  0
  -33.8820   53.1240    3.4220 N   0  0  0  0  0
  -34.5500   53.2670    2.1230 C   0  0  0  0  0
  -34.4670   54.7360    1.7110 C   0  0  0  0  0
  -34.4850   55.6380    2.5560 O   0  0  0  0  0
  -36.0320   52.8710    2.1970 C   0  0  0  0  0
  -36.2850   51.3740    2.3550 C   0  0  0  0  0
  -37.0690   51.0420    3.6450 C   0  0  0  0  0
  -37.4250   49.5390    3.6760 C   0  0  0  0  0
  -38.2370   49.1200    2.4610 N   0  3  0  0  0
  -34.3710   54.9610    0.4060 N   0  0  0  0  0
  -34.2760   56.3060   -0.1240 C   0  0  0  0  0
  -35.6390   56.9620   -0.1910 C   0  0  0  0  0
  -36.6710   56.2920   -0.1490 O   0  0  0  0  0
  -33.6600   56.2920   -1.5240 C   0  0  0  0  0
  -32.1960   55.8820   -1.6700 C   0  0  0  0  0
  -31.7460   56.1240   -3.1060 C   0  0  0  0  0
  -31.3320   56.6950   -0.7260 C   0  0  0  0  0
  -35.6280   58.2850   -0.2880 N   0  0  0  0  0
  -36.8550   59.0480   -0.4000 C   0  0  0  0  0
  -37.5250   58.6400   -1.7020 C   0  0  0  0  0
  -36.8760   58.5730   -2.7520 O   0  0  0  0  0
  -36.5440   60.5340   -0.4210 C   0  0  0  0  0
  -38.8200   58.3540   -1.6240 N   0  0  0  0  0
  -39.5940   57.9630   -2.7960 C   0  0  0  0  0
  -40.6460   59.0310   -3.0880 C   0  0  0  0  0
  -40.5400   59.6810   -4.1530 O   0  0  0  0  0
  -40.3170   56.6270   -2.5710 C   0  0  0  0  0
  -39.3740   55.6400   -2.1380 O   0  0  0  0  0
  -40.9710   56.1570   -3.8600 C   0  0  0  0  0
  -41.5580   59.2080   -2.2420 O   0  0  0  0  0
  -17.7155   36.4773   19.9435 H   0  0  0  0  0
  -18.0397   36.9623   21.5042 H   0  0  0  0  0
  -18.4195   39.0417   20.8761 H   0  0  0  0  0
  -16.4702   40.3148   20.2658 H   0  0  0  0  0
  -15.9543   39.2060   19.1115 H   0  0  0  0  0
  -15.8136   38.8789   22.1710 H   0  0  0  0  0
  -14.5378   38.6246   21.0446 H   0  0  0  0  0
  -15.4754   36.4819   20.2549 H   0  0  0  0  0
  -15.8699   36.4206   21.9045 H   0  0  0  0  0
  -19.9751   39.6060   19.6249 H   0  0  0  0  0
  -19.9570   38.4739   16.8834 H   0  0  0  0  0
  -22.3611   39.6310   18.3501 H   0  0  0  0  0
  -21.8338   37.9111   18.5513 H   0  0  0  0  0
  -21.9746   37.8160   16.0070 H   0  0  0  0  0
  -22.9970   39.3138   16.1842 H   0  0  0  0  0
  -24.6985   38.1606   17.2280 H   0  0  0  0  0
  -23.6330   36.8392   17.7535 H   0  0  0  0  0
  -23.4101   36.0392   15.4817 H   0  0  0  0  0
  -24.3870   37.4465   14.8761 H   0  0  0  0  0
  -25.6606   35.4342   14.9804 H   0  0  0  0  0
  -25.3495   35.2756   16.6098 H   0  0  0  0  0
  -26.2454   36.5662   16.0544 H   0  0  0  0  0
  -19.7087   39.5996   15.1665 H   0  0  0  0  0
  -19.3925   42.4610   15.2350 H   0  0  0  0  0
  -19.6981   42.0278   12.6294 H   0  0  0  0  0
  -19.4119   40.3050   13.1901 H   0  0  0  0  0
  -17.9498   43.7509   13.4233 H   0  0  0  0  0
  -17.2286   39.5290   13.3156 H   0  0  0  0  0
  -15.5127   44.1702   13.4694 H   0  0  0  0  0
  -14.7762   39.9468   13.3622 H   0  0  0  0  0
  -13.1669   41.5197   13.4560 H   0  0  0  0  0
  -20.7808   44.1077   14.7345 H   0  0  0  0  0
  -23.5557   43.2481   14.0796 H   0  0  0  0  0
  -22.6347   45.6939   15.6703 H   0  0  0  0  0
  -24.6109   46.1847   14.3057 H   0  0  0  0  0
  -25.4271   44.7431   14.9590 H   0  0  0  0  0
  -25.0304   46.1058   16.0345 H   0  0  0  0  0
  -24.1694   43.2032   16.4897 H   0  0  0  0  0
  -22.4784   43.5759   16.9054 H   0  0  0  0  0
  -23.7962   44.5906   17.5418 H   0  0  0  0  0
  -24.6175   44.1919   12.4009 H   0  0  0  0  0
  -22.9797   46.0200   10.7628 H   0  0  0  0  0
  -24.2012   43.8779    9.9000 H   0  0  0  0  0
  -24.3448   45.3987    8.9087 H   0  0  0  0  0
  -26.5395   45.7897   10.0516 H   0  0  0  0  0
  -26.4002   44.1260   10.7279 H   0  0  0  0  0
  -26.4395   43.1631    8.5671 H   0  0  0  0  0
  -26.3045   44.7902    7.7841 H   0  0  0  0  0
  -28.5584   43.9937    7.5859 H   0  0  0  0  0
  -28.5049   45.3542    8.7661 H   0  0  0  0  0
  -29.8689   43.5538    9.5280 H   0  0  0  0  0
  -28.5908   42.4896    9.4248 H   0  0  0  0  0
  -28.5413   43.7478   10.5162 H   0  0  0  0  0
  -24.1007   47.7683    9.5180 H   0  0  0  0  0
  -26.0121   49.2619   11.2997 H   0  0  0  0  0
  -25.6232   50.9750    9.4253 H   0  0  0  0  0
  -24.1124   49.9600    9.1527 H   0  0  0  0  0
  -23.6813   51.9234   10.5103 H   0  0  0  0  0
  -23.4639   50.3768   11.4329 H   0  0  0  0  0
  -26.2218   53.1918   12.5654 H   0  0  0  0  0
  -25.2609   53.3686   11.0935 H   0  0  0  0  0
  -28.1556   49.6229   10.4313 H   0  0  0  0  0
  -28.7545   47.8734    8.1526 H   0  0  0  0  0
  -31.1325   48.5600    8.6009 H   0  0  0  0  0
  -30.4986   49.5718    9.9604 H   0  0  0  0  0
  -30.9616   46.8729   12.1155 H   0  0  0  0  0
  -31.2597   48.5725   11.7366 H   0  0  0  0  0
  -29.4441   48.3419    6.1906 H   0  0  0  0  0
  -28.7077   50.9320    5.1397 H   0  0  0  0  0
  -30.0498   49.8583    3.0759 H   0  0  0  0  0
  -29.8449   47.5171    3.2794 H   0  0  0  0  0
  -27.6412   50.2722    3.1246 H   0  0  0  0  0
  -27.3996   48.7951    4.0894 H   0  0  0  0  0
  -27.9968   48.6777    2.4159 H   0  0  0  0  0
  -29.9079   52.6696    4.7740 H   0  0  0  0  0
  -32.7363   52.6197    5.6180 H   0  0  0  0  0
  -32.5773   55.0393    5.3501 H   0  0  0  0  0
  -30.8537   54.8038    4.7081 H   0  0  0  0  0
  -30.4667   53.7850    7.0536 H   0  0  0  0  0
  -29.4240   55.7928    6.1510 H   0  0  0  0  0
  -30.8597   56.7454    6.6009 H   0  0  0  0  0
  -29.8584   55.9925    7.8664 H   0  0  0  0  0
  -32.9150   55.5144    7.5279 H   0  0  0  0  0
  -32.8357   53.7434    7.6959 H   0  0  0  0  0
  -31.8837   54.7844    8.7827 H   0  0  0  0  0
  -34.4496   53.0108    4.2619 H   0  0  0  0  0
  -34.0572   52.6113    1.4051 H   0  0  0  0  0
  -36.4884   53.1721    1.2540 H   0  0  0  0  0
  -36.4468   53.3578    3.0796 H   0  0  0  0  0
  -35.3187   50.8725    2.4090 H   0  0  0  0  0
  -36.8790   51.0407    1.5041 H   0  0  0  0  0
  -37.9876   51.6283    3.6669 H   0  0  0  0  0
  -36.4521   51.2820    4.5110 H   0  0  0  0  0
  -38.0230   49.3490    4.5673 H   0  0  0  0  0
  -36.4959   48.9690    3.6778 H   0  0  0  0  0
  -38.4491   48.1242    2.5223 H   0  0  0  0  0
  -39.1062   49.6530    2.4342 H   0  0  0  0  0
  -37.6985   49.3027    1.6142 H   0  0  0  0  0
  -34.3640   54.1696   -0.2375 H   0  0  0  0  0
  -33.6375   56.8779    0.5493 H   0  0  0  0  0
  -33.7023   57.3264   -1.8650 H   0  0  0  0  0
  -34.2236   55.5402   -2.0765 H   0  0  0  0  0
  -32.0935   54.8250   -1.4244 H   0  0  0  0  0
  -32.3609   55.5310   -3.7829 H   0  0  0  0  0
  -31.8551   57.1816   -3.3463 H   0  0  0  0  0
  -30.7012   55.8319   -3.2121 H   0  0  0  0  0
  -31.4335   57.7539   -0.9636 H   0  0  0  0  0
  -31.6531   56.5193    0.3007 H   0  0  0  0  0
  -30.2904   56.3942   -0.8388 H   0  0  0  0  0
  -34.7345   58.7770   -0.2836 H   0  0  0  0  0
  -37.5091   58.8511    0.4494 H   0  0  0  0  0
  -36.0329   60.8100    0.5013 H   0  0  0  0  0
  -35.9033   60.7578   -1.2739 H   0  0  0  0  0
  -37.4734   61.0972   -0.5054 H   0  0  0  0  0
  -39.2860   58.4095   -0.7184 H   0  0  0  0  0
  -38.9022   57.8557   -3.6314 H   0  0  0  0  0
  -41.0850   56.7681   -1.8105 H   0  0  0  0  0
  -39.8275   54.8056   -1.9978 H   0  0  0  0  0
  -41.6942   56.9020   -4.1917 H   0  0  0  0  0
  -40.2071   56.0241   -4.6261 H   0  0  0  0  0
  -41.4791   55.2090   -3.6834 H   0  0  0  0  0
  -41.4367   58.5987   -1.5101 H   0  0  0  0  0
  1  2  1  0  0  0
  1  7  1  0  0  0
  2  3  1  0  0  0
  2  5  1  0  0  0
  3  4  2  0  0  0
  3  8  1  0  0  0
  5  6  1  0  0  0
  6  7  1  0  0  0
  8  9  1  0  0  0
  9 10  1  0  0  0
  9 12  1  0  0  0
 10 11  2  0  0  0
 10 17  1  0  0  0
 12 13  1  0  0  0
 13 14  1  0  0  0
 14 15  1  0  0  0
 15 16  1  0  0  0
 17 18  1  0  0  0
 18 19  1  0  0  0
 18 21  1  0  0  0
 19 20  2  0  0  0
 19 29  1  0  0  0
 21 22  1  0  0  0
 22 23  4  0  0  0
 22 24  4  0  0  0
 23 25  4  0  0  0
 24 26  4  0  0  0
 25 27  4  0  0  0
 26 27  4  0  0  0
 27 28  1  0  0  0
 29 30  1  0  0  0
 30 31  1  0  0  0
 30 33  1  0  0  0
 31 32  2  0  0  0
 31 36  1  0  0  0
 33 34  1  0  0  0
 33 35  1  0  0  0
 36 37  1  0  0  0
 37 38  1  0  0  0
 37 40  1  0  0  0
 38 39  2  0  0  0
 38 45  1  0  0  0
 40 41  1  0  0  0
 41 42  1  0  0  0
 42 43  1  0  0  0
 43 44  1  0  0  0
 45 46  1  0  0  0
 46 47  1  0  0  0
 46 49  1  0  0  0
 47 48  2  0  0  0
 47 54  1  0  0  0
 49 50  1  0  0  0
 50 51  1  0  0  0
 51 52  2  0  0  0
 51 53  1  0  0  0
 54 55  1  0  0  0
 55 56  1  0  0  0
 55 58  1  0  0  0
 56 57  2  0  0  0
 56 62  1  0  0  0
 58 59  1  0  0  0
 59 60  2  0  0  0
 59 61  1  0  0  0
 62 63  1  0  0  0
 63 64  1  0  0  0
 63 66  1  0  0  0
 64 65  2  0  0  0
 64 69  1  0  0  0
 66 67  1  0  0  0
 66 68  1  0  0  0
 69 70  1  0  0  0
 70 71  1  0  0  0
 70 73  1  0  0  0
 71 72  2  0  0  0
 71 77  1  0  0  0
 73 74  1  0  0  0
 74 75  1  0  0  0
 74 76  1  0  0  0
 77 78  1  0  0  0
 78 79  1  0  0  0
 78 81  1  0  0  0
 79 80  2  0  0  0
 79 86  1  0  0  0
 81 82  1  0  0  0
 82 83  1  0  0  0
 83 84  1  0  0  0
 84 85  1  0  0  0
 86 87  1  0  0  0
 87 88  1  0  0  0
 87 90  1  0  0  0
 88 89  2  0  0  0
 88 94  1  0  0  0
 90 91  1  0  0  0
 91 92  1  0  0  0
 91 93  1  0  0  0
 94 95  1  0  0  0
 95 96  1  0  0  0
 95 98  1  0  0  0
 96 97  2  0  0  0
 96 99  1  0  0  0
 99100  1  0  0  0
100101  1  0  0  0
100103  1  0  0  0
101102  2  0  0  0
101106  1  0  0  0
103104  1  0  0  0
103105  1  0  0  0
  1107  1  0  0  0
  1108  1  0  0  0
  2109  1  0  0  0
  5110  1  0  0  0
  5111  1  0  0  0
  6112  1  0  0  0
  6113  1  0  0  0
  7114  1  0  0  0
  7115  1  0  0  0
  8116  1  0  0  0
  9117  1  0  0  0
 12118  1  0  0  0
 12119  1  0  0  0
 13120  1  0  0  0
 13121  1  0  0  0
 14122  1  0  0  0
 14123  1  0  0  0
 15124  1  0  0  0
 15125  1  0  0  0
 16126  1  0  0  0
 16127  1  0  0  0
 16128  1  0  0  0
 17129  1  0  0  0
 18130  1  0  0  0
 21131  1  0  0  0
 21132  1  0  0  0
 23133  1  0  0  0
 24134  1  0  0  0
 25135  1  0  0  0
 26136  1  0  0  0
 28137  1  0  0  0
 29138  1  0  0  0
 30139  1  0  0  0
 33140  1  0  0  0
 34141  1  0  0  0
 34142  1  0  0  0
 34143  1  0  0  0
 35144  1  0  0  0
 35145  1  0  0  0
 35146  1  0  0  0
 36147  1  0  0  0
 37148  1  0  0  0
 40149  1  0  0  0
 40150  1  0  0  0
 41151  1  0  0  0
 41152  1  0  0  0
 42153  1  0  0  0
 42154  1  0  0  0
 43155  1  0  0  0
 43156  1  0  0  0
 44157  1  0  0  0
 44158  1  0  0  0
 44159  1  0  0  0
 45160  1  0  0  0
 46161  1  0  0  0
 49162  1  0  0  0
 49163  1  0  0  0
 50164  1  0  0  0
 50165  1  0  0  0
 53166  1  0  0  0
 53167  1  0  0  0
 54168  1  0  0  0
 55169  1  0  0  0
 58170  1  0  0  0
 58171  1  0  0  0
 61172  1  0  0  0
 61173  1  0  0  0
 62174  1  0  0  0
 63175  1  0  0  0
 66176  1  0  0  0
 67177  1  0  0  0
 68178  1  0  0  0
 68179  1  0  0  0
 68180  1  0  0  0
 69181  1  0  0  0
 70182  1  0  0  0
 73183  1  0  0  0
 73184  1  0  0  0
 74185  1  0  0  0
 75186  1  0  0  0
 75187  1  0  0  0
 75188  1  0  0  0
 76189  1  0  0  0
 76190  1  0  0  0
 76191  1  0  0  0
 77192  1  0  0  0
 78193  1  0  0  0
 81194  1  0  0  0
 81195  1  0  0  0
 82196  1  0  0  0
 82197  1  0  0  0
 83198  1  0  0  0
 83199  1  0  0  0
 84200  1  0  0  0
 84201  1  0  0  0
 85202  1  0  0  0
 85203  1  0  0  0
 85204  1  0  0  0
 86205  1  0  0  0
 87206  1  0  0  0
 90207  1  0  0  0
 90208  1  0  0  0
 91209  1  0  0  0
 92210  1  0  0  0
 92211  1  0  0  0
 92212  1  0  0  0
 93213  1  0  0  0
 93214  1  0  0  0
 93215  1  0  0  0
 94216  1  0  0  0
 95217  1  0  0  0
 98218  1  0  0  0
 98219  1  0  0  0
 98220  1  0  0  0
 99221  1  0  0  0
100222  1  0  0  0
103223  1  0  0  0
104224  1  0  0  0
105225  1  0  0  0
105226  1  0  0  0
105227  1  0  0  0
106228  1  0  0  0
M  END
$$$$
