### 
### Created by X-TOOL on Mon Sep 10 21:12:50 2018
### 

@<TRIPOS>MOLECULE
1jwm_ligand
  227   228     1     0     0
SMALL
GAST_HUCK


@<TRIPOS>ATOM
      1 N         -17.4770   37.1480   20.6740 N.4       1 PRO         0.2461
      2 CA        -17.7500   38.5230   20.1900 C.3       1 PRO         0.0670
      3 C         -18.4550   38.5070   18.8340 C.2       1 PRO         0.2268
      4 O         -17.9440   37.9450   17.8550 O.2       1 PRO        -0.3907
      5 CB        -16.4080   39.2390   20.1020 C.3       1 PRO         0.0127
      6 CG        -15.6130   38.4970   21.1700 C.3       1 PRO        -0.0053
      7 CD        -16.0480   37.0190   21.0110 C.3       1 PRO        -0.0313
      8 N         -19.6270   39.1400   18.7870 N.am      1 LYS        -0.2610
      9 CA        -20.4210   39.1820   17.5700 C.3       1 LYS         0.1311
     10 C         -20.4020   40.5260   16.8360 C.2       1 LYS         0.2040
     11 O         -20.7350   41.5610   17.4090 O.2       1 LYS        -0.3944
     12 CB        -21.8640   38.7770   17.8900 C.3       1 LYS        -0.0122
     13 CG        -22.6420   38.3930   16.6470 C.3       1 LYS        -0.0440
     14 CD        -23.8600   37.5270   16.9390 C.3       1 LYS        -0.0124
     15 CE        -24.2250   36.7340   15.6850 C.3       1 LYS        -0.0354
     16 NZ        -25.4680   35.9400   15.8450 N.4       1 LYS         0.2185
     17 N         -19.9990   40.4930   15.5640 N.am      1 TYR        -0.2621
     18 CA        -19.9560   41.6870   14.7140 C.3       1 TYR         0.1390
     19 C         -21.3750   42.1860   14.4390 C.2       1 TYR         0.2057
     20 O         -22.2800   41.3930   14.1790 O.2       1 TYR        -0.3942
     21 CB        -19.2630   41.3680   13.3800 C.3       1 TYR         0.0163
     22 CG        -17.7670   41.6140   13.3720 C.ar      1 TYR        -0.0493
     23 CD1       -17.2600   42.9070   13.4120 C.ar      1 TYR        -0.0685
     24 CD2       -16.8570   40.5530   13.3520 C.ar      1 TYR        -0.0685
     25 CE1       -15.8870   43.1470   13.4380 C.ar      1 TYR        -0.0398
     26 CE2       -15.4740   40.7840   13.3780 C.ar      1 TYR        -0.0398
     27 CZ        -15.0020   42.0880   13.4240 C.ar      1 TYR         0.0805
     28 OH        -13.6520   42.3480   13.4730 O.3       1 TYR        -0.3376
     29 N         -21.5660   43.4980   14.5060 N.am      1 VAL        -0.2633
     30 CA        -22.8770   44.0820   14.2590 C.3       1 VAL         0.1333
     31 C         -22.8660   44.9970   13.0430 C.2       1 VAL         0.2041
     32 O         -21.9560   45.8080   12.8860 O.2       1 VAL        -0.3944
     33 CB        -23.3550   44.9010   15.4690 C.3       1 VAL        -0.0063
     34 CG1       -24.7010   45.5280   15.1710 C.3       1 VAL        -0.0584
     35 CG2       -23.4570   44.0040   16.6880 C.3       1 VAL        -0.0584
     36 N         -23.8880   44.8760   12.2000 N.am      1 LYS        -0.2637
     37 CA        -23.9960   45.6980   10.9900 C.3       1 LYS         0.1310
     38 C         -24.8880   46.9200   11.1880 C.2       1 LYS         0.2039
     39 O         -25.6520   46.9970   12.1500 O.2       1 LYS        -0.3944
     40 CB        -24.6010   44.8900    9.8380 C.3       1 LYS        -0.0122
     41 CG        -26.1330   44.7890    9.9050 C.3       1 LYS        -0.0440
     42 CD        -26.7090   44.2180    8.6190 C.3       1 LYS        -0.0124
     43 CE        -28.2220   44.3200    8.5700 C.3       1 LYS        -0.0354
     44 NZ        -28.8550   43.4610    9.5890 N.4       1 LYS         0.2185
     45 N         -24.7880   47.8680   10.2650 N.am      1 GLN        -0.2636
     46 CA        -25.6400   49.0470   10.2980 C.3       1 GLN         0.1330
     47 C         -26.7270   48.7180    9.2930 C.2       1 GLN         0.2042
     48 O         -26.4610   48.0830    8.2740 O.2       1 GLN        -0.3944
     49 CB        -24.8830   50.2950    9.8470 C.3       1 GLN         0.0045
     50 CG        -24.1700   51.0580   10.9580 C.3       1 GLN         0.0412
     51 CD        -25.1240   51.5610   12.0260 C.2       1 GLN         0.1737
     52 OE1       -25.4660   50.8400   12.9600 O.2       1 GLN        -0.3973
     53 NE2       -25.5700   52.8030   11.8840 N.am      1 GLN        -0.3009
     54 N         -27.9560   49.1160    9.5690 N.am      1 ASN        -0.2616
     55 CA        -29.0170   48.8200    8.6250 C.3       1 ASN         0.1476
     56 C         -29.1320   49.8520    7.5070 C.2       1 ASN         0.2063
     57 O         -29.0050   51.0610    7.7250 O.2       1 ASN        -0.3942
     58 CB        -30.3500   48.6810    9.3500 C.3       1 ASN         0.0773
     59 CG        -30.3810   47.4790   10.2590 C.2       1 ASN         0.1780
     60 OD1       -29.9420   46.3950    9.8770 O.2       1 ASN        -0.3970
     61 ND2       -30.9080   47.6550   11.4630 N.am      1 ASN        -0.3007
     62 N         -29.3670   49.3530    6.3010 N.am      1 THR        -0.2612
     63 CA        -29.5180   50.2030    5.1320 C.3       1 THR         0.1565
     64 C         -30.8630   50.9320    5.1760 C.2       1 THR         0.2065
     65 O         -31.9110   50.3340    5.4190 O.2       1 THR        -0.3943
     66 CB        -29.4340   49.3650    3.8280 C.3       1 THR         0.0924
     67 OG1       -29.8970   48.0350    4.0860 O.3       1 THR        -0.3874
     68 CG2       -28.0200   49.2710    3.3300 C.3       1 THR        -0.0346
     69 N         -30.8130   52.2330    4.9490 N.am      1 LEU        -0.2636
     70 CA        -32.0030   53.0580    4.9410 C.3       1 LEU         0.1312
     71 C         -32.5580   53.1380    3.5340 C.2       1 LEU         0.2039
     72 O         -31.7940   53.2140    2.5700 O.2       1 LEU        -0.3944
     73 CB        -31.6470   54.4720    5.3780 C.3       1 LEU        -0.0101
     74 CG        -31.1010   54.6300    6.7860 C.3       1 LEU        -0.0425
     75 CD1       -30.2510   55.8780    6.8560 C.3       1 LEU        -0.0625
     76 CD2       -32.2680   54.6710    7.7690 C.3       1 LEU        -0.0625
     77 N         -33.8820   53.1240    3.4220 N.am      1 LYS        -0.2637
     78 CA        -34.5500   53.2670    2.1230 C.3       1 LYS         0.1310
     79 C         -34.4670   54.7360    1.7110 C.2       1 LYS         0.2039
     80 O         -34.4850   55.6380    2.5560 O.2       1 LYS        -0.3944
     81 CB        -36.0320   52.8710    2.1970 C.3       1 LYS        -0.0122
     82 CG        -36.2850   51.3740    2.3550 C.3       1 LYS        -0.0440
     83 CD        -37.0690   51.0420    3.6450 C.3       1 LYS        -0.0124
     84 CE        -37.4250   49.5390    3.6760 C.3       1 LYS        -0.0354
     85 NZ        -38.2370   49.1200    2.4610 N.4       1 LYS         0.2185
     86 N         -34.3710   54.9610    0.4060 N.am      1 LEU        -0.2637
     87 CA        -34.2760   56.3060   -0.1240 C.3       1 LEU         0.1312
     88 C         -35.6390   56.9620   -0.1910 C.2       1 LEU         0.2039
     89 O         -36.6710   56.2920   -0.1490 O.2       1 LEU        -0.3944
     90 CB        -33.6600   56.2920   -1.5240 C.3       1 LEU        -0.0101
     91 CG        -32.1960   55.8820   -1.6700 C.3       1 LEU        -0.0425
     92 CD1       -31.7460   56.1240   -3.1060 C.3       1 LEU        -0.0625
     93 CD2       -31.3320   56.6950   -0.7260 C.3       1 LEU        -0.0625
     94 N         -35.6280   58.2850   -0.2880 N.am      1 ALA        -0.2640
     95 CA        -36.8550   59.0480   -0.4000 C.3       1 ALA         0.1282
     96 C         -37.5250   58.6400   -1.7020 C.2       1 ALA         0.2031
     97 O         -36.8760   58.5730   -2.7520 O.2       1 ALA        -0.3944
     98 CB        -36.5440   60.5340   -0.4210 C.3       1 ALA        -0.0244
     99 N         -38.8200   58.3540   -1.6240 N.am      1 THR        -0.2670
    100 CA        -39.5940   57.9630   -2.7960 C.3       1 THR         0.1198
    101 C         -40.6460   59.0310   -3.0880 C.2       1 THR         0.0626
    102 O         -40.5400   59.6810   -4.1530 O.co2     1 THR        -0.5665
    103 CB        -40.3170   56.6270   -2.5710 C.3       1 THR         0.0869
    104 OG1       -39.3740   55.6400   -2.1380 O.3       1 THR        -0.3880
    105 CG2       -40.9710   56.1570   -3.8600 C.3       1 THR        -0.0352
    106 OXT       -41.5580   59.2080   -2.2420 O.co2     1 THR        -0.5665
    107 H1        -17.7129   36.4850   19.9524 H         1 PRO         0.2035
    108 H2        -18.0333   36.9641   21.4942 H         1 PRO         0.2035
    109 H3        -18.3950   39.0429   20.9136 H         1 PRO         0.1099
    110 H4        -16.5042   40.3086   20.3401 H         1 PRO         0.0347
    111 H5        -15.9532   39.1242   19.1070 H         1 PRO         0.0347
    112 H6        -15.8639   38.8715   22.1734 H         1 PRO         0.0320
    113 H7        -14.5321   38.6060   20.9976 H         1 PRO         0.0320
    114 H8        -15.4907   36.5244   20.2018 H         1 PRO         0.0814
    115 H9        -15.9083   36.4595   21.9477 H         1 PRO         0.0814
    116 H10       -19.9683   39.5969   19.6085 H         1 LYS         0.1884
    117 H11       -20.0005   38.4336   16.8822 H         1 LYS         0.0800
    118 H12       -22.3698   39.6241   18.3764 H         1 LYS         0.0312
    119 H13       -21.8465   37.9174   18.5761 H         1 LYS         0.0312
    120 H14       -21.9723   37.8371   15.9744 H         1 LYS         0.0269
    121 H15       -22.9802   39.3137   16.1491 H         1 LYS         0.0269
    122 H16       -24.7061   38.1676   17.2284 H         1 LYS         0.0317
    123 H17       -23.6290   36.8318   17.7596 H         1 LYS         0.0317
    124 H18       -23.3980   36.0476   15.4507 H         1 LYS         0.0813
    125 H19       -24.3637   37.4389   14.8520 H         1 LYS         0.0813
    126 H20       -25.6593   35.4397   14.9911 H         1 LYS         0.1994
    127 H21       -26.2371   36.5578   16.0520 H         1 LYS         0.1994
    128 H22       -25.3521   35.2829   16.6006 H         1 LYS         0.1994
    129 H23       -19.7144   39.6171   15.1743 H         1 TYR         0.1885
    130 H24       -19.3909   42.4749   15.2335 H         1 TYR         0.0821
    131 H25       -19.7179   41.9943   12.5985 H         1 TYR         0.0453
    132 H26       -19.4376   40.3071   13.1476 H         1 TYR         0.0453
    133 H27       -17.9460   43.7462   13.4232 H         1 TYR         0.0530
    134 H28       -17.2266   39.5346   13.3158 H         1 TYR         0.0530
    135 H29       -15.5147   44.1646   13.4692 H         1 TYR         0.0525
    136 H30       -14.7800   39.9514   13.3623 H         1 TYR         0.0525
    137 H31       -13.5123   43.2873   13.4998 H         1 TYR         0.2458
    138 H32       -20.7962   44.0957   14.7300 H         1 VAL         0.1883
    139 H33       -23.5892   43.2632   14.0794 H         1 VAL         0.0802
    140 H34       -22.6260   45.6994   15.6719 H         1 VAL         0.0343
    141 H35       -25.0345   46.1115   16.0418 H         1 VAL         0.0234
    142 H36       -25.4347   44.7369   14.9569 H         1 VAL         0.0234
    143 H37       -24.6114   46.1911   14.2979 H         1 VAL         0.0234
    144 H38       -22.4748   43.5541   16.8954 H         1 VAL         0.0234
    145 H39       -24.1919   43.2081   16.4971 H         1 VAL         0.0234
    146 H40       -23.7781   44.5993   17.5555 H         1 VAL         0.0234
    147 H41       -24.6032   44.2054   12.3969 H         1 LYS         0.1883
    148 H42       -22.9863   46.0331   10.7102 H         1 LYS         0.0800
    149 H43       -24.1825   43.8731    9.8672 H         1 LYS         0.0312
    150 H44       -24.3242   45.3733    8.8894 H         1 LYS         0.0312
    151 H45       -26.5509   45.7932   10.0692 H         1 LYS         0.0269
    152 H46       -26.4120   44.1341   10.7436 H         1 LYS         0.0269
    153 H47       -26.4234   43.1584    8.5434 H         1 LYS         0.0317
    154 H48       -26.2894   44.7726    7.7667 H         1 LYS         0.0317
    155 H49       -28.5692   44.0082    7.5739 H         1 LYS         0.0813
    156 H50       -28.5159   45.3645    8.7504 H         1 LYS         0.0813
    157 H51       -29.8571   43.5519    9.5296 H         1 LYS         0.1994
    158 H52       -28.5458   43.7436   10.5058 H         1 LYS         0.1994
    159 H53       -28.5947   42.5007    9.4277 H         1 LYS         0.1994
    160 H54       -24.1141   47.7703    9.5326 H         1 GLN         0.1883
    161 H55       -26.0565   49.2064   11.3035 H         1 GLN         0.0801
    162 H56       -25.6038   50.9778    9.3735 H         1 GLN         0.0337
    163 H57       -24.1291   49.9872    9.1075 H         1 GLN         0.0337
    164 H58       -23.6502   51.9205   10.5155 H         1 GLN         0.0504
    165 H59       -23.4349   50.3890   11.4292 H         1 GLN         0.0504
    166 H60       -26.2012   53.1877   12.5575 H         1 GLN         0.1814
    167 H61       -25.2749   53.3541   11.1035 H         1 GLN         0.1814
    168 H62       -28.1517   49.6130   10.4144 H         1 ASN         0.1885
    169 H63       -28.7814   47.8524    8.1579 H         1 ASN         0.0826
    170 H64       -31.1510   48.5807    8.6027 H         1 ASN         0.0551
    171 H65       -30.5216   49.5852    9.9524 H         1 ASN         0.0551
    172 H66       -30.9533   46.8902   12.1057 H         1 ASN         0.1814
    173 H67       -31.2602   48.5525   11.7283 H         1 ASN         0.1814
    174 H68       -29.4426   48.3618    6.1927 H         1 THR         0.1884
    175 H69       -28.7076   50.9468    5.1302 H         1 THR         0.0826
    176 H70       -30.0624   49.8350    3.0572 H         1 THR         0.0639
    177 H71       -29.3537   47.6360    4.7555 H         1 THR         0.2101
    178 H72       -27.9952   48.6725    2.4074 H         1 THR         0.0257
    179 H73       -27.3928   48.7908    4.0955 H         1 THR         0.0257
    180 H74       -27.6365   50.2808    3.1223 H         1 THR         0.0257
    181 H75       -29.9257   52.6610    4.7774 H         1 LEU         0.1883
    182 H76       -32.7553   52.6305    5.6202 H         1 LEU         0.0800
    183 H77       -32.5577   55.0842    5.3024 H         1 LEU         0.0315
    184 H78       -30.8880   54.8560    4.6805 H         1 LEU         0.0315
    185 H79       -30.4691   53.7627    7.0278 H         1 LEU         0.0298
    186 H80       -29.8542   55.9947    7.8753 H         1 LEU         0.0232
    187 H81       -30.8642   56.7542    6.5988 H         1 LEU         0.0232
    188 H82       -29.4160   55.7933    6.1450 H         1 LEU         0.0232
    189 H83       -32.8545   53.7446    7.6806 H         1 LEU         0.0232
    190 H84       -32.9099   55.5346    7.5404 H         1 LEU         0.0232
    191 H85       -31.8807   54.7632    8.7944 H         1 LEU         0.0232
    192 H86       -34.4385   53.0130    4.2454 H         1 LYS         0.1883
    193 H87       -34.0413   52.6362    1.3792 H         1 LYS         0.0800
    194 H88       -36.5227   53.2055    1.2711 H         1 LYS         0.0312
    195 H89       -36.4821   53.3872    3.0578 H         1 LYS         0.0312
    196 H90       -35.3165   50.8534    2.3864 H         1 LYS         0.0269
    197 H91       -36.8637   51.0201    1.4890 H         1 LYS         0.0269
    198 H92       -37.9945   51.6360    3.6717 H         1 LYS         0.0317
    199 H93       -36.4502   51.2877    4.5206 H         1 LYS         0.0317
    200 H94       -38.0112   49.3317    4.5834 H         1 LYS         0.0813
    201 H95       -36.4938   48.9540    3.6995 H         1 LYS         0.0813
    202 H96       -38.4472   48.1360    2.5205 H         1 LYS         0.1994
    203 H97       -37.7058   49.3000    1.6235 H         1 LYS         0.1994
    204 H98       -39.0964   49.6461    2.4335 H         1 LYS         0.1994
    205 H99       -34.3641   54.1851   -0.2249 H         1 LEU         0.1883
    206 H100      -33.6309   56.8977    0.5421 H         1 LEU         0.0800
    207 H101      -33.7547   57.3095   -1.9311 H         1 LEU         0.0315
    208 H102      -34.2548   55.5962   -2.1339 H         1 LEU         0.0315
    209 H103      -32.0915   54.8139   -1.4289 H         1 LEU         0.0298
    210 H104      -30.6917   55.8296   -3.2144 H         1 LEU         0.0232
    211 H105      -31.8556   57.1910   -3.3497 H         1 LEU         0.0232
    212 H106      -32.3658   55.5260   -3.7902 H         1 LEU         0.0232
    213 H107      -31.6567   56.5204    0.3104 H         1 LEU         0.0232
    214 H108      -31.4317   57.7638   -0.9663 H         1 LEU         0.0232
    215 H109      -30.2808   56.3906   -0.8371 H         1 LEU         0.0232
    216 H110      -34.7520   58.7674   -0.2837 H         1 ALA         0.1883
    217 H111      -37.5162   58.8238    0.4500 H         1 ALA         0.0797
    218 H112      -37.4812   61.1036   -0.5062 H         1 ALA         0.0277
    219 H113      -35.8974   60.7612   -1.2814 H         1 ALA         0.0277
    220 H114      -36.0282   60.8139    0.5093 H         1 ALA         0.0277
    221 H115      -39.2769   58.4085   -0.7361 H         1 THR         0.1876
    222 H116      -38.9159   57.8671   -3.6568 H         1 THR         0.0752
    223 H117      -41.0894   56.7592   -1.7990 H         1 THR         0.0632
    224 H118      -39.8227   54.8143   -1.9993 H         1 THR         0.2100
    225 H119      -41.4842   55.2002   -3.6831 H         1 THR         0.0256
    226 H120      -40.2010   56.0224   -4.6340 H         1 THR         0.0256
    227 H121      -41.7012   56.9081   -4.1958 H         1 THR         0.0256
@<TRIPOS>BOND
     1    1    2 1  
     2    1    7 1  
     3    2    3 1  
     4    2    5 1  
     5    3    4 2  
     6    3    8 am 
     7    5    6 1  
     8    6    7 1  
     9    8    9 1  
    10    9   10 1  
    11    9   12 1  
    12   10   11 2  
    13   10   17 am 
    14   12   13 1  
    15   13   14 1  
    16   14   15 1  
    17   15   16 1  
    18   17   18 1  
    19   18   19 1  
    20   18   21 1  
    21   19   20 2  
    22   19   29 am 
    23   21   22 1  
    24   22   23 ar 
    25   22   24 ar 
    26   23   25 ar 
    27   24   26 ar 
    28   25   27 ar 
    29   26   27 ar 
    30   27   28 1  
    31   29   30 1  
    32   30   31 1  
    33   30   33 1  
    34   31   32 2  
    35   31   36 am 
    36   33   34 1  
    37   33   35 1  
    38   36   37 1  
    39   37   38 1  
    40   37   40 1  
    41   38   39 2  
    42   38   45 am 
    43   40   41 1  
    44   41   42 1  
    45   42   43 1  
    46   43   44 1  
    47   45   46 1  
    48   46   47 1  
    49   46   49 1  
    50   47   48 2  
    51   47   54 am 
    52   49   50 1  
    53   50   51 1  
    54   51   52 2  
    55   51   53 am 
    56   54   55 1  
    57   55   56 1  
    58   55   58 1  
    59   56   57 2  
    60   56   62 am 
    61   58   59 1  
    62   59   60 2  
    63   59   61 am 
    64   62   63 1  
    65   63   64 1  
    66   63   66 1  
    67   64   65 2  
    68   64   69 am 
    69   66   67 1  
    70   66   68 1  
    71   69   70 1  
    72   70   71 1  
    73   70   73 1  
    74   71   72 2  
    75   71   77 am 
    76   73   74 1  
    77   74   75 1  
    78   74   76 1  
    79   77   78 1  
    80   78   79 1  
    81   78   81 1  
    82   79   80 2  
    83   79   86 am 
    84   81   82 1  
    85   82   83 1  
    86   83   84 1  
    87   84   85 1  
    88   86   87 1  
    89   87   88 1  
    90   87   90 1  
    91   88   89 2  
    92   88   94 am 
    93   90   91 1  
    94   91   92 1  
    95   91   93 1  
    96   94   95 1  
    97   95   96 1  
    98   95   98 1  
    99   96   97 2  
   100   96   99 am 
   101   99  100 1  
   102  100  101 1  
   103  100  103 1  
   104  101  102 ar 
   105  101  106 ar 
   106  103  104 1  
   107  103  105 1  
   108    1  107 1  
   109    1  108 1  
   110    2  109 1  
   111    5  110 1  
   112    5  111 1  
   113    6  112 1  
   114    6  113 1  
   115    7  114 1  
   116    7  115 1  
   117    8  116 1  
   118    9  117 1  
   119   12  118 1  
   120   12  119 1  
   121   13  120 1  
   122   13  121 1  
   123   14  122 1  
   124   14  123 1  
   125   15  124 1  
   126   15  125 1  
   127   16  126 1  
   128   16  127 1  
   129   16  128 1  
   130   17  129 1  
   131   18  130 1  
   132   21  131 1  
   133   21  132 1  
   134   23  133 1  
   135   24  134 1  
   136   25  135 1  
   137   26  136 1  
   138   28  137 1  
   139   29  138 1  
   140   30  139 1  
   141   33  140 1  
   142   34  141 1  
   143   34  142 1  
   144   34  143 1  
   145   35  144 1  
   146   35  145 1  
   147   35  146 1  
   148   36  147 1  
   149   37  148 1  
   150   40  149 1  
   151   40  150 1  
   152   41  151 1  
   153   41  152 1  
   154   42  153 1  
   155   42  154 1  
   156   43  155 1  
   157   43  156 1  
   158   44  157 1  
   159   44  158 1  
   160   44  159 1  
   161   45  160 1  
   162   46  161 1  
   163   49  162 1  
   164   49  163 1  
   165   50  164 1  
   166   50  165 1  
   167   53  166 1  
   168   53  167 1  
   169   54  168 1  
   170   55  169 1  
   171   58  170 1  
   172   58  171 1  
   173   61  172 1  
   174   61  173 1  
   175   62  174 1  
   176   63  175 1  
   177   66  176 1  
   178   67  177 1  
   179   68  178 1  
   180   68  179 1  
   181   68  180 1  
   182   69  181 1  
   183   70  182 1  
   184   73  183 1  
   185   73  184 1  
   186   74  185 1  
   187   75  186 1  
   188   75  187 1  
   189   75  188 1  
   190   76  189 1  
   191   76  190 1  
   192   76  191 1  
   193   77  192 1  
   194   78  193 1  
   195   81  194 1  
   196   81  195 1  
   197   82  196 1  
   198   82  197 1  
   199   83  198 1  
   200   83  199 1  
   201   84  200 1  
   202   84  201 1  
   203   85  202 1  
   204   85  203 1  
   205   85  204 1  
   206   86  205 1  
   207   87  206 1  
   208   90  207 1  
   209   90  208 1  
   210   91  209 1  
   211   92  210 1  
   212   92  211 1  
   213   92  212 1  
   214   93  213 1  
   215   93  214 1  
   216   93  215 1  
   217   94  216 1  
   218   95  217 1  
   219   98  218 1  
   220   98  219 1  
   221   98  220 1  
   222   99  221 1  
   223  100  222 1  
   224  103  223 1  
   225  104  224 1  
   226  105  225 1  
   227  105  226 1  
   228  105  227 1  
@<TRIPOS>SUBSTRUCTURE
     1 PRO         1

