4xbo_ligand
  -I-interpret- 

 47 49  0  0  0  0  0  0  0  0999 V2000
  -35.1600  -24.4200   -0.6680 N   0  3  0  0  0
  -34.9310  -25.0030   -1.9820 C   0  0  0  0  0
  -34.3580  -23.8840   -2.8660 C   0  0  0  0  0
  -34.7730  -23.9510   -4.3290 C   0  0  0  0  0
  -33.3740  -23.7300   -5.4520 S   0  0  0  0  0
  -34.1090  -26.3260   -1.9160 C   0  0  0  0  0
  -32.8760  -26.3920   -1.9710 O   0  0  0  0  0
  -34.6670  -27.4150   -1.8230 O   0  0  0  0  0
  -33.9940  -24.8120   -6.7560 C   0  0  0  0  0
  -33.2340  -26.1190   -6.8600 C   0  0  0  0  0
  -31.8180  -25.9020   -6.8700 O   0  0  0  0  0
  -33.4890  -27.0280   -5.6710 C   0  0  0  0  0
  -34.5900  -27.8590   -5.8950 O   0  0  0  0  0
  -32.2100  -27.8370   -5.5770 C   0  0  0  0  0
  -32.2390  -28.9080   -6.4840 O   0  0  0  0  0
  -31.1580  -26.9000   -6.1110 C   0  0  0  0  0
  -30.3440  -26.3490   -5.0070 N   0  0  0  0  0
  -30.2070  -25.0540   -4.6270 C   0  0  0  0  0
  -29.3400  -25.0120   -3.5940 N   0  0  0  0  0
  -28.9100  -26.2570   -3.2770 C   0  0  0  0  0
  -28.0350  -26.7690   -2.3080 C   0  0  0  0  0
  -27.3980  -25.9930   -1.4120 N   0  0  0  0  0
  -27.8320  -28.1280   -2.3030 N   0  0  0  0  0
  -28.4570  -28.9660   -3.1970 C   0  0  0  0  0
  -29.3140  -28.4600   -4.1390 N   0  0  0  0  0
  -29.5390  -27.1140   -4.1800 C   0  0  0  0  0
  -35.6998  -23.5604   -0.7682 H   0  0  0  0  0
  -35.6768  -25.0819   -0.0891 H   0  0  0  0  0
  -34.2633  -24.2107   -0.2293 H   0  0  0  0  0
  -35.8555  -25.3515   -2.4423 H   0  0  0  0  0
  -33.2729  -23.9842   -2.8398 H   0  0  0  0  0
  -34.7395  -22.9422   -2.4715 H   0  0  0  0  0
  -35.4853  -23.1471   -4.5149 H   0  0  0  0  0
  -35.2015  -24.9361   -4.5135 H   0  0  0  0  0
  -32.5121  -25.5065   -2.0423 H   0  0  0  0  0
  -33.8780  -24.2865   -7.7039 H   0  0  0  0  0
  -35.0312  -25.0511   -6.5211 H   0  0  0  0  0
  -33.5838  -26.5743   -7.7865 H   0  0  0  0  0
  -33.7206  -26.4796   -4.7580 H   0  0  0  0  0
  -34.7267  -28.4208   -5.1286 H   0  0  0  0  0
  -32.0520  -28.2107   -4.5653 H   0  0  0  0  0
  -31.4234  -29.4092   -6.4118 H   0  0  0  0  0
  -30.4546  -27.4220   -6.7597 H   0  0  0  0  0
  -30.7092  -24.1977   -5.0772 H   0  0  0  0  0
  -27.5421  -24.9833   -1.4181 H   0  0  0  0  0
  -26.7710  -26.4145   -0.7267 H   0  0  0  0  0
  -28.2695  -30.0390   -3.1559 H   0  0  0  0  0
  1  2  1  0  0  0
  2  3  1  0  0  0
  2  6  1  0  0  0
  3  4  1  0  0  0
  4  5  1  0  0  0
  5  9  1  0  0  0
  6  7  1  0  0  0
  6  8  2  0  0  0
  9 10  1  0  0  0
 10 11  1  0  0  0
 10 12  1  0  0  0
 11 16  1  0  0  0
 12 13  1  0  0  0
 12 14  1  0  0  0
 14 15  1  0  0  0
 14 16  1  0  0  0
 16 17  1  0  0  0
 17 18  4  0  0  0
 17 26  4  0  0  0
 18 19  4  0  0  0
 19 20  4  0  0  0
 20 21  4  0  0  0
 20 26  4  0  0  0
 21 22  1  0  0  0
 21 23  4  0  0  0
 23 24  4  0  0  0
 24 25  4  0  0  0
 25 26  4  0  0  0
  1 27  1  0  0  0
  1 28  1  0  0  0
  1 29  1  0  0  0
  2 30  1  0  0  0
  3 31  1  0  0  0
  3 32  1  0  0  0
  4 33  1  0  0  0
  4 34  1  0  0  0
  7 35  1  0  0  0
  9 36  1  0  0  0
  9 37  1  0  0  0
 10 38  1  0  0  0
 12 39  1  0  0  0
 13 40  1  0  0  0
 14 41  1  0  0  0
 15 42  1  0  0  0
 16 43  1  0  0  0
 18 44  1  0  0  0
 22 45  1  0  0  0
 22 46  1  0  0  0
 24 47  1  0  0  0
M  END
$$$$
