6fyz_ligand
  -I-interpret- 

 41 43  0  0  0  0  0  0  0  0999 V2000
   -8.1590   -2.8560   11.6720 C   0  0  0  0  0
   -7.3730   -2.1720   12.5920 C   0  0  0  0  0
   -7.4510   -2.4230   13.9730 C   0  0  0  0  0
   -6.5890   -1.6740   14.9690 C   0  0  0  0  0
   -5.5300   -0.8350   14.5650 C   0  0  0  0  0
   -9.0630   -3.8250   12.0870 C   0  0  0  0  0
   -9.1540   -4.0900   13.4540 C   0  0  0  0  0
   -5.0020   -0.3060   16.7910 C   0  0  0  0  0
   -8.3660   -3.4030   14.3750 C   0  0  0  0  0
   -8.3350   -6.5620   11.4530 C   0  0  0  0  0
   -6.7940   -1.7680   16.3590 C   0  0  0  0  0
   -9.8840   -4.5500   11.0730 C   0  0  0  0  0
   -9.3670   -5.9180   10.7490 C   0  0  0  0  0
   -7.9260   -7.8440   11.1000 C   0  0  0  0  0
   -4.7760   -0.1800   15.4680 N   0  0  0  0  0
  -11.3200   -4.6530   11.5370 C   0  0  0  0  0
   -4.1520    0.4450   17.7830 C   0  0  0  0  0
  -11.7380   -5.6720   12.0710 O   0  0  0  0  0
  -12.1100   -3.5980   11.3320 N   0  0  0  0  0
  -13.4420   -3.6290   11.7440 O   0  0  0  0  0
   -8.5320   -8.5030   10.0400 C   0  0  0  0  0
   -9.5620   -7.8830    9.3450 C   0  0  0  0  0
   -9.9730   -6.6020    9.6900 C   0  0  0  0  0
  -10.9830   -6.0390    8.9880 F   0  0  0  0  0
   -6.0120   -1.0950   17.2210 N   0  0  0  0  0
   -8.0645   -2.6287   10.6102 H   0  0  0  0  0
   -6.6742   -1.4173   12.2313 H   0  0  0  0  0
   -5.3180   -0.7146   13.5026 H   0  0  0  0  0
   -9.8536   -4.8475   13.8073 H   0  0  0  0  0
   -8.4646   -3.6346   15.4355 H   0  0  0  0  0
   -7.8497   -6.0513   12.2848 H   0  0  0  0  0
   -7.5987   -2.3958   16.7418 H   0  0  0  0  0
   -9.8196   -3.9610   10.1581 H   0  0  0  0  0
   -7.1270   -8.3323   11.6579 H   0  0  0  0  0
   -3.1103    0.1461   17.6666 H   0  0  0  0  0
   -4.2463    1.5159   17.6030 H   0  0  0  0  0
   -4.4867    0.2144   18.7944 H   0  0  0  0  0
  -11.7389   -2.7663   10.8727 H   0  0  0  0  0
  -13.8640   -2.7959   11.5217 H   0  0  0  0  0
   -8.2015   -9.5017    9.7544 H   0  0  0  0  0
  -10.0514   -8.4054    8.5229 H   0  0  0  0  0
  1  2  4  0  0  0
  6  1  4  0  0  0
  2  3  4  0  0  0
  3  4  1  0  0  0
  9  3  4  0  0  0
  4  5  4  0  0  0
  4 11  4  0  0  0
  5 15  4  0  0  0
  6  7  4  0  0  0
 12  6  1  0  0  0
  7  9  4  0  0  0
 15  8  4  0  0  0
  8 17  1  0  0  0
 25  8  4  0  0  0
 13 10  4  0  0  0
 10 14  4  0  0  0
 11 25  4  0  0  0
 12 13  1  0  0  0
 12 16  1  0  0  0
 13 23  4  0  0  0
 14 21  4  0  0  0
 16 18  2  0  0  0
 16 19  1  0  0  0
 19 20  1  0  0  0
 21 22  4  0  0  0
 22 23  4  0  0  0
 23 24  1  0  0  0
  1 26  1  0  0  0
  2 27  1  0  0  0
  5 28  1  0  0  0
  7 29  1  0  0  0
  9 30  1  0  0  0
 10 31  1  0  0  0
 11 32  1  0  0  0
 12 33  1  0  0  0
 14 34  1  0  0  0
 17 35  1  0  0  0
 17 36  1  0  0  0
 17 37  1  0  0  0
 19 38  1  0  0  0
 20 39  1  0  0  0
 21 40  1  0  0  0
 22 41  1  0  0  0
M  END
$$$$
