6g25_ligand
  -I-interpret- 

 29 31  0  0  0  0  0  0  0  0999 V2000
   -5.7370    7.3500  -21.9150 C   0  0  0  0  0
   -3.7040    8.0650  -22.3830 C   0  0  0  0  0
   -3.2350    6.9350  -17.9220 C   0  0  0  0  0
   -1.8740   11.7200  -19.4160 N   0  0  0  0  0
   -6.9780    6.7470  -21.2930 C   0  0  0  0  0
   -1.0870   10.7520  -18.9550 C   0  0  0  0  0
   -1.5670    9.4700  -18.7650 C   0  0  0  0  0
   -3.7800    5.7710  -18.2150 N   0  0  0  0  0
   -3.6760   10.2210  -19.6500 C   0  0  0  0  0
   -2.8930    9.1850  -19.1220 C   0  0  0  0  0
   -4.0650    7.0680  -20.0040 C   0  0  0  0  0
   -2.2410    8.4220  -22.3110 C   0  0  0  0  0
   -4.4890    7.4830  -21.3550 C   0  0  0  0  0
   -3.1380   11.4940  -19.7600 C   0  0  0  0  0
   -4.2790    5.8280  -19.5080 N   0  0  0  0  0
   -3.3850    7.7920  -19.0280 C   0  0  0  0  0
   -4.5020    8.2100  -23.3980 N   0  0  0  0  0
   -5.6360    7.8190  -23.1540 O   0  0  0  0  0
   -2.7493    7.1909  -16.9803 H   0  0  0  0  0
   -6.7834    5.7066  -21.0325 H   0  0  0  0  0
   -7.2402    7.3051  -20.3942 H   0  0  0  0  0
   -7.8010    6.7965  -22.0060 H   0  0  0  0  0
   -0.0453   10.9736  -18.7230 H   0  0  0  0  0
   -0.9265    8.6943  -18.3452 H   0  0  0  0  0
   -4.6994   10.0273  -19.9714 H   0  0  0  0  0
   -2.0842    9.1473  -21.5126 H   0  0  0  0  0
   -1.6587    7.5235  -22.1070 H   0  0  0  0  0
   -1.9262    8.8525  -23.2616 H   0  0  0  0  0
   -3.7543   12.3133  -20.1302 H   0  0  0  0  0
  1  5  1  0  0  0
 13  1  4  0  0  0
  1 18  4  0  0  0
  2 12  1  0  0  0
 13  2  4  0  0  0
  2 17  4  0  0  0
  8  3  4  0  0  0
  3 16  4  0  0  0
  6  4  4  0  0  0
 14  4  4  0  0  0
  7  6  4  0  0  0
 10  7  4  0  0  0
 15  8  4  0  0  0
 10  9  4  0  0  0
  9 14  4  0  0  0
 16 10  1  0  0  0
 11 13  1  0  0  0
 11 15  4  0  0  0
 11 16  4  0  0  0
 17 18  4  0  0  0
  3 19  1  0  0  0
  5 20  1  0  0  0
  5 21  1  0  0  0
  5 22  1  0  0  0
  6 23  1  0  0  0
  7 24  1  0  0  0
  9 25  1  0  0  0
 12 26  1  0  0  0
 12 27  1  0  0  0
 12 28  1  0  0  0
 14 29  1  0  0  0
M  END
$$$$
