3uzc_ligand
  -I-interpret- 

 32 34  0  0  0  0  0  0  0  0999 V2000
   23.6840    6.6660   32.0800 N   0  0  0  0  0
   23.1050    7.7810   32.5480 N   0  0  0  0  0
   23.1670    8.9370   31.8280 C   0  0  0  0  0
   23.8520    8.9450   30.5710 C   0  0  0  0  0
   24.4320    7.7990   30.1230 N   0  0  0  0  0
   24.3080    6.7380   30.9080 C   0  0  0  0  0
   21.1140   12.2590   33.6870 C   0  0  0  0  0
   20.4300   11.0610   33.4070 C   0  0  0  0  0
   21.1100    9.9870   32.8030 C   0  0  0  0  0
   22.4800   10.0830   32.4660 C   0  0  0  0  0
   23.1550   11.2920   32.7500 C   0  0  0  0  0
   22.4840   12.3760   33.3560 C   0  0  0  0  0
   24.3620   12.3440   27.9270 C   0  0  0  0  0
   23.1740   12.2040   28.6630 C   0  0  0  0  0
   23.0040   11.1020   29.5210 C   0  0  0  0  0
   24.0110   10.1160   29.6680 C   0  0  0  0  0
   25.2000   10.2810   28.9140 C   0  0  0  0  0
   25.3800   11.3810   28.0530 C   0  0  0  0  0
   24.8830    5.5990   30.4620 N   0  0  0  0  0
   23.3520   13.8360   33.6830 Cl  0  0  0  0  0
   20.4430   13.2930   34.2730 O   0  0  0  0  0
   19.3736   10.9651   33.6580 H   0  0  0  0  0
   20.5705    9.0639   32.5910 H   0  0  0  0  0
   24.2108   11.3888   32.4970 H   0  0  0  0  0
   24.4949   13.1960   27.2603 H   0  0  0  0  0
   22.3838   12.9490   28.5695 H   0  0  0  0  0
   22.0766   11.0045   30.0854 H   0  0  0  0  0
   25.9936    9.5391   29.0026 H   0  0  0  0  0
   26.3050   11.4859   27.4861 H   0  0  0  0  0
   24.8238    4.7461   31.0183 H   0  0  0  0  0
   25.3762    5.5924   29.5692 H   0  0  0  0  0
   21.0425   14.0324   34.3974 H   0  0  0  0  0
  2  1  4  0  0  0
  6  1  4  0  0  0
  3  2  4  0  0  0
  4  3  4  0  0  0
  3 10  1  0  0  0
  4  5  4  0  0  0
 16  4  1  0  0  0
  5  6  4  0  0  0
  6 19  1  0  0  0
  8  7  4  0  0  0
 12  7  4  0  0  0
  7 21  1  0  0  0
  9  8  4  0  0  0
 10  9  4  0  0  0
 10 11  4  0  0  0
 11 12  4  0  0  0
 12 20  1  0  0  0
 14 13  4  0  0  0
 13 18  4  0  0  0
 15 14  4  0  0  0
 15 16  4  0  0  0
 16 17  4  0  0  0
 17 18  4  0  0  0
  8 22  1  0  0  0
  9 23  1  0  0  0
 11 24  1  0  0  0
 13 25  1  0  0  0
 14 26  1  0  0  0
 15 27  1  0  0  0
 17 28  1  0  0  0
 18 29  1  0  0  0
 19 30  1  0  0  0
 19 31  1  0  0  0
 21 32  1  0  0  0
M  END
$$$$
