5toz_ligand
  -I-interpret- 

 41 43  0  0  0  0  0  0  0  0999 V2000
    1.1530   12.0780   -3.5670 N   0  0  0  0  0
   -2.7540   17.8640   -4.4560 C   0  0  0  0  0
   -1.0340   16.1440   -4.3830 N   0  0  0  0  0
    0.0580   20.4760   -6.1060 C   0  0  0  0  0
   -0.6130   18.0560   -5.7710 C   0  0  0  0  0
   -0.5190   21.9780   -8.0010 C   0  0  0  0  0
   -0.1420   11.8100   -4.0840 C   0  0  0  0  0
   -0.2620   21.9380   -6.5030 C   0  0  0  0  0
    1.2230   16.1870   -3.5330 N   0  0  0  0  0
   -3.1240   19.2090   -7.3620 C   0  0  0  0  0
   -2.4270   19.7580   -6.1210 C   0  0  0  0  0
   -3.0820   19.3230   -4.8150 C   0  0  0  0  0
   -1.2570   17.5790   -4.4770 C   0  0  0  0  0
   -0.9500   19.4620   -6.0540 N   0  0  0  0  0
    1.2280   20.2490   -5.7580 O   0  0  0  0  0
    0.1070   15.4840   -3.9450 C   0  0  0  0  0
    0.1030   14.0520   -3.9490 C   0  0  0  0  0
   -0.7910   13.0080   -4.3380 C   0  0  0  0  0
    1.3110   13.4370   -3.4840 C   0  0  0  0  0
    2.4490   14.1030   -3.0620 N   0  0  0  0  0
    2.3030   15.4540   -3.1330 C   0  0  0  0  0
   -3.2288   17.2209   -5.1970 H   0  0  0  0  0
   -3.1174   17.6769   -3.4455 H   0  0  0  0  0
   -1.8105   15.5503   -4.6744 H   0  0  0  0  0
   -0.9846   17.4398   -6.5898 H   0  0  0  0  0
    0.4691   17.9735   -5.6695 H   0  0  0  0  0
    0.3687   21.6312   -8.5300 H   0  0  0  0  0
   -1.3626   21.3308   -8.2410 H   0  0  0  0  0
   -0.7467   23.0005   -8.3021 H   0  0  0  0  0
   -0.5601   10.8179   -4.2544 H   0  0  0  0  0
    0.5759   22.5872   -6.2491 H   0  0  0  0  0
   -1.1409   22.2893   -5.9625 H   0  0  0  0  0
   -3.1075   18.1195   -7.3343 H   0  0  0  0  0
   -4.1565   19.5577   -7.3814 H   0  0  0  0  0
   -2.6042   19.5590   -8.2539 H   0  0  0  0  0
   -2.5461   20.8356   -6.2333 H   0  0  0  0  0
   -2.7026   19.9613   -4.0171 H   0  0  0  0  0
   -4.1622   19.4077   -4.9335 H   0  0  0  0  0
   -0.8137   18.1094   -3.6342 H   0  0  0  0  0
   -1.7909   13.1300   -4.7544 H   0  0  0  0  0
    3.1733   16.0343   -2.8265 H   0  0  0  0  0
  7  1  4  0  0  0
  1 19  4  0  0  0
  2 12  1  0  0  0
 13  2  1  0  0  0
  3 13  1  0  0  0
 16  3  1  0  0  0
  4  8  1  0  0  0
 14  4  1  0  0  0
  4 15  2  0  0  0
 13  5  1  0  0  0
  5 14  1  0  0  0
  8  6  1  0  0  0
 18  7  4  0  0  0
 16  9  4  0  0  0
  9 21  4  0  0  0
 11 10  1  0  0  0
 12 11  1  0  0  0
 14 11  1  0  0  0
 17 16  4  0  0  0
 17 18  4  0  0  0
 17 19  4  0  0  0
 19 20  4  0  0  0
 20 21  4  0  0  0
  2 22  1  0  0  0
  2 23  1  0  0  0
  3 24  1  0  0  0
  5 25  1  0  0  0
  5 26  1  0  0  0
  6 27  1  0  0  0
  6 28  1  0  0  0
  6 29  1  0  0  0
  7 30  1  0  0  0
  8 31  1  0  0  0
  8 32  1  0  0  0
 10 33  1  0  0  0
 10 34  1  0  0  0
 10 35  1  0  0  0
 11 36  1  0  0  0
 12 37  1  0  0  0
 12 38  1  0  0  0
 13 39  1  0  0  0
 18 40  1  0  0  0
 21 41  1  0  0  0
M  END
$$$$
