1a85_ligand
  -I-interpret- 

 55 55  0  0  0  0  0  0  0  0999 V2000
   25.6970   59.9730   53.9180 N   0  0  0  0  0
   24.7240   58.9940   54.0170 O   0  0  0  0  0
   26.9920   59.6330   53.9010 C   0  0  0  0  0
   27.3890   58.4410   53.9480 O   0  0  0  0  0
   27.9370   60.7550   53.4380 C   0  0  0  0  0
   29.2270   60.8700   54.3090 C   0  0  0  0  0
   30.0990   62.1060   54.1260 C   0  0  0  0  0
   29.7750   63.0730   55.2430 C   0  0  0  0  0
   31.5530   61.6930   54.1660 C   0  0  0  0  0
   28.2790   60.4970   51.9860 C   0  0  0  0  0
   27.8040   61.2060   51.0980 O   0  0  0  0  0
   29.0890   59.4860   51.7210 N   0  0  0  0  0
   29.4430   59.2330   50.3360 C   0  0  0  0  0
   28.3500   58.4080   49.6300 C   0  0  0  0  0
   28.5010   58.0280   48.4590 O   0  0  0  0  0
   30.7990   58.5590   50.2130 C   0  0  0  0  0
   31.2200   58.3710   48.7540 C   0  0  0  0  0
   31.5670   57.2660   48.3610 O   0  0  0  0  0
   31.2300   59.4580   47.9560 N   0  0  0  0  0
   27.2920   58.0690   50.3740 N   0  0  0  0  0
   26.1430   57.3420   49.8480 C   0  0  0  0  0
   26.0560   55.9240   49.3880 C   0  0  0  0  0
   26.8460   54.9160   49.9950 C   0  0  0  0  0
   26.6850   53.5720   49.6810 C   0  0  0  0  0
   25.1110   55.5570   48.4270 C   0  0  0  0  0
   24.9480   54.2090   48.1140 C   0  0  0  0  0
   25.7300   53.2130   48.7240 C   0  0  0  0  0
   23.9800   53.9090   47.2730 N   0  0  0  0  0
   25.4274   60.9549   53.8579 H   0  0  0  0  0
   23.8566   59.4053   54.0156 H   0  0  0  0  0
   27.4292   61.7125   53.5540 H   0  0  0  0  0
   29.8523   60.0266   54.0161 H   0  0  0  0  0
   28.8788   60.9095   55.3411 H   0  0  0  0  0
   29.9093   62.5882   53.1670 H   0  0  0  0  0
   29.9762   62.5977   56.2031 H   0  0  0  0  0
   30.3936   63.9646   55.1408 H   0  0  0  0  0
   28.7226   63.3511   55.1872 H   0  0  0  0  0
   32.1832   62.5756   54.0568 H   0  0  0  0  0
   31.7657   61.2087   55.1191 H   0  0  0  0  0
   31.7545   60.9980   53.3509 H   0  0  0  0  0
   29.4556   58.8991   52.4703 H   0  0  0  0  0
   29.5159   60.1997   49.8377 H   0  0  0  0  0
   30.7320   57.5747   50.6764 H   0  0  0  0  0
   31.5389   59.1937   50.7007 H   0  0  0  0  0
   31.5348   59.3758   46.9861 H   0  0  0  0  0
   30.9328   60.3624   48.3223 H   0  0  0  0  0
   27.2886   58.3324   51.3594 H   0  0  0  0  0
   25.9849   57.8690   48.9070 H   0  0  0  0  0
   25.5056   57.3065   50.7315 H   0  0  0  0  0
   27.6002   55.2027   50.7279 H   0  0  0  0  0
   27.2920   52.8111   50.1716 H   0  0  0  0  0
   24.5084   56.3159   47.9280 H   0  0  0  0  0
   25.5930   52.1662   48.4527 H   0  0  0  0  0
   23.7823   52.9335   47.0500 H   0  0  0  0  0
   23.4280   54.6521   46.8447 H   0  0  0  0  0
  3  1  1  0  0  0
  1  2  1  0  0  0
  5  3  1  0  0  0
  3  4  2  0  0  0
 10  5  1  0  0  0
  5  6  1  0  0  0
  6  7  1  0  0  0
  7  9  1  0  0  0
  7  8  1  0  0  0
 10 11  2  0  0  0
 14 13  1  0  0  0
 13 16  1  0  0  0
 13 12  1  0  0  0
 16 17  1  0  0  0
 17 18  2  0  0  0
 17 19  1  0  0  0
 14 15  2  0  0  0
 20 21  1  0  0  0
 21 22  1  0  0  0
 22 25  4  0  0  0
 22 23  4  0  0  0
 23 24  4  0  0  0
 24 27  4  0  0  0
 26 27  4  0  0  0
 26 28  1  0  0  0
 25 26  4  0  0  0
 12 10  1  0  0  0
 14 20  1  0  0  0
  1 29  1  0  0  0
  2 30  1  0  0  0
  5 31  1  0  0  0
  6 32  1  0  0  0
  6 33  1  0  0  0
  7 34  1  0  0  0
  8 35  1  0  0  0
  8 36  1  0  0  0
  8 37  1  0  0  0
  9 38  1  0  0  0
  9 39  1  0  0  0
  9 40  1  0  0  0
 12 41  1  0  0  0
 13 42  1  0  0  0
 16 43  1  0  0  0
 16 44  1  0  0  0
 19 45  1  0  0  0
 19 46  1  0  0  0
 20 47  1  0  0  0
 21 48  1  0  0  0
 21 49  1  0  0  0
 23 50  1  0  0  0
 24 51  1  0  0  0
 25 52  1  0  0  0
 27 53  1  0  0  0
 28 54  1  0  0  0
 28 55  1  0  0  0
M  END
$$$$
