4mk9_ligand
  -I-interpret- 

 58 61  0  0  0  0  0  0  0  0999 V2000
   -9.5240    8.3630   12.3170 C   0  0  0  0  0
   -8.4510    8.9320   12.9970 C   0  0  0  0  0
   -7.3720    9.5160   12.3300 C   0  0  0  0  0
   -7.4200    9.5070   10.9100 C   0  0  0  0  0
   -8.5160    8.9830   10.2010 C   0  0  0  0  0
   -9.5520    8.3870   10.9240 C   0  0  0  0  0
   -8.7160    9.2100    8.7610 C   0  0  0  0  0
   -9.1980    8.4230    7.8470 N   0  0  0  0  0
   -9.2040    9.1960    6.6790 C   0  0  0  0  0
   -8.7080   10.4440    6.9790 C   0  0  0  0  0
   -8.3840   10.4650    8.3200 O   0  0  0  0  0
   -8.5960   11.4590    6.0550 C   0  0  0  0  0
   -8.9960   11.1840    4.7580 C   0  0  0  0  0
   -9.4850    9.9210    4.4050 C   0  0  0  0  0
   -9.6060    8.9070    5.3650 C   0  0  0  0  0
   -9.7940    9.7460    3.0140 N   0  0  0  0  0
  -10.3630    8.4740    2.1760 S   0  0  0  0  0
  -10.1610    8.7790    0.7930 O   0  0  0  0  0
   -9.7560    7.2950    2.7180 O   0  0  0  0  0
  -12.0860    8.4140    2.4700 C   0  0  0  0  0
   -6.3660   10.0640   10.2060 O   0  0  0  0  0
   -5.5410    9.2000    9.4160 C   0  0  0  0  0
   -6.2360   10.1610   13.1750 C   0  0  0  0  0
   -6.5750   10.1610   14.6830 C   0  0  0  0  0
   -4.9060    9.3910   13.0330 C   0  0  0  0  0
   -6.0060   11.6410   12.7920 C   0  0  0  0  0
  -10.6580    7.7790   13.0800 C   0  0  0  0  0
  -11.1240    6.4360   12.7280 C   0  0  0  0  0
  -10.7430    5.7700   11.7620 O   0  0  0  0  0
  -12.1100    5.9270   13.5810 N   0  0  0  0  0
  -12.6440    6.5970   14.6370 C   0  0  0  0  0
  -12.2470    7.8610   14.9250 C   0  0  0  0  0
  -11.2280    8.4530   14.1370 C   0  0  0  0  0
   -8.4530    8.9214   14.0869 H   0  0  0  0  0
  -10.3906    7.9362   10.3933 H   0  0  0  0  0
   -8.2083   12.4390    6.3332 H   0  0  0  0  0
   -8.9289   11.9640    3.9996 H   0  0  0  0  0
   -9.9995    7.9256    5.1001 H   0  0  0  0  0
   -9.6249   10.5752    2.4445 H   0  0  0  0  0
  -12.5284    9.3805    2.2285 H   0  0  0  0  0
  -12.5334    7.6417    1.8443 H   0  0  0  0  0
  -12.2663    8.1826    3.5198 H   0  0  0  0  0
   -5.0818    8.4498   10.0597 H   0  0  0  0  0
   -6.1525    8.7070    8.6602 H   0  0  0  0  0
   -4.7631    9.7880    8.9289 H   0  0  0  0  0
   -6.6772    9.1332   15.0311 H   0  0  0  0  0
   -5.7746   10.6547   15.2340 H   0  0  0  0  0
   -7.5115   10.6951   14.8436 H   0  0  0  0  0
   -4.1315    9.8967   13.6097 H   0  0  0  0  0
   -5.0341    8.3751   13.4068 H   0  0  0  0  0
   -4.6164    9.3593   11.9827 H   0  0  0  0  0
   -6.9124   12.2121   12.9931 H   0  0  0  0  0
   -5.1828   12.0439   13.3819 H   0  0  0  0  0
   -5.7613   11.7068   11.7319 H   0  0  0  0  0
  -13.3982    6.1133   15.2577 H   0  0  0  0  0
  -11.8294    7.8038   15.9302 H   0  0  0  0  0
  -13.1289    8.4792   14.7572 H   0  0  0  0  0
  -10.8889    9.4618   14.3725 H   0  0  0  0  0
  1  2  4  0  0  0
  1  6  4  0  0  0
  1 27  1  0  0  0
  2  3  4  0  0  0
  3  4  4  0  0  0
  3 23  1  0  0  0
  4  5  4  0  0  0
  4 21  1  0  0  0
  5  6  4  0  0  0
  5  7  1  0  0  0
  7  8  4  0  0  0
  7 11  4  0  0  0
  8  9  4  0  0  0
  9 10  4  0  0  0
  9 15  4  0  0  0
 10 11  4  0  0  0
 10 12  4  0  0  0
 12 13  4  0  0  0
 13 14  4  0  0  0
 14 15  4  0  0  0
 14 16  1  0  0  0
 16 17  1  0  0  0
 17 18  2  0  0  0
 17 19  2  0  0  0
 17 20  1  0  0  0
 21 22  1  0  0  0
 23 24  1  0  0  0
 23 25  1  0  0  0
 23 26  1  0  0  0
 27 28  1  0  0  0
 27 33  2  0  0  0
 28 29  2  0  0  0
 28 30  1  0  0  0
 30 31  2  0  0  0
 31 32  1  0  0  0
 32 33  1  0  0  0
  2 34  1  0  0  0
  6 35  1  0  0  0
 12 36  1  0  0  0
 13 37  1  0  0  0
 15 38  1  0  0  0
 16 39  1  0  0  0
 20 40  1  0  0  0
 20 41  1  0  0  0
 20 42  1  0  0  0
 22 43  1  0  0  0
 22 44  1  0  0  0
 22 45  1  0  0  0
 24 46  1  0  0  0
 24 47  1  0  0  0
 24 48  1  0  0  0
 25 49  1  0  0  0
 25 50  1  0  0  0
 25 51  1  0  0  0
 26 52  1  0  0  0
 26 53  1  0  0  0
 26 54  1  0  0  0
 31 55  1  0  0  0
 32 56  1  0  0  0
 32 57  1  0  0  0
 33 58  1  0  0  0
M  END
$$$$
