3o9c_ligand
  -I-interpret- 

 79 83  0  0  0  0  0  0  0  0999 V2000
   15.6860   36.7420   18.4310 C   0  0  0  0  0
   15.0120   35.4700   18.5970 O   0  0  0  0  0
   15.6050   34.5810   17.7220 C   0  0  0  0  0
   16.6340   36.5460   17.3740 O   0  0  0  0  0
   16.5950   35.2180   17.0020 C   0  0  0  0  0
   17.3370   34.5430   16.0350 C   0  0  0  0  0
   17.1220   33.1740   15.8070 C   0  0  0  0  0
   16.1140   32.5460   16.5500 C   0  0  0  0  0
   15.3500   33.2310   17.5120 C   0  0  0  0  0
   18.0290   32.3410   14.7480 S   0  0  0  0  0
   17.3140   31.2170   14.2430 O   0  0  0  0  0
   18.5200   33.2070   13.6830 O   0  0  0  0  0
   19.3370   31.7340   15.4920 N   0  0  0  0  0
   20.1080   32.7450   16.2580 C   0  0  0  0  0
   21.6060   32.4410   16.3620 C   0  0  0  0  0
   22.3340   32.4190   15.0120 C   0  0  0  0  0
   22.2570   33.4460   17.3190 C   0  0  0  0  0
   19.0540   30.5120   16.2740 C   0  0  0  0  0
   19.9560   29.3810   15.7650 C   0  0  0  0  0
   22.0590   34.8880   16.9170 C   0  0  0  0  0
   19.9420   28.2620   16.6590 O   0  0  0  0  0
   19.5790   28.9150   14.3640 C   0  0  0  0  0
   20.6490   28.0800   13.8710 N   0  0  0  0  0
   21.4910   28.4340   12.9130 C   0  0  0  0  0
   21.5540   29.4800   12.2750 O   0  0  0  0  0
   22.4540   27.4050   12.6720 O   0  0  0  0  0
   23.2520   27.5490   11.5030 C   0  0  0  0  0
   24.5770   26.9610   11.9210 C   0  0  0  0  0
   24.3060   25.5610   11.8970 O   0  0  0  0  0
   23.4600   25.2900   10.7860 C   0  0  0  0  0
   22.4810   24.3360   11.1700 O   0  0  0  0  0
   21.2020   24.9680   11.2500 C   0  0  0  0  0
   21.3050   26.2320   10.3990 C   0  0  0  0  0
   22.7810   26.5960   10.4180 C   0  0  0  0  0
   18.2720   28.1290   14.2720 C   0  0  0  0  0
   18.1060   26.3830   12.4390 C   0  0  0  0  0
   17.8720   26.0170   11.1200 C   0  0  0  0  0
   17.5120   26.9650   10.1800 C   0  0  0  0  0
   17.4180   28.2930   10.5560 C   0  0  0  0  0
   17.6510   28.6580   11.8820 C   0  0  0  0  0
   18.0000   27.7140   12.8360 C   0  0  0  0  0
   16.1780   37.0535   19.3524 H   0  0  0  0  0
   14.9801   37.5363   18.1885 H   0  0  0  0  0
   18.0869   35.0793   15.4535 H   0  0  0  0  0
   15.9146   31.4886   16.3764 H   0  0  0  0  0
   14.5758   32.7149   18.0797 H   0  0  0  0  0
   19.7093   32.7543   17.2724 H   0  0  0  0  0
   20.0071   33.6944   15.7321 H   0  0  0  0  0
   21.7007   31.4278   16.7525 H   0  0  0  0  0
   21.8931   31.6519   14.3754 H   0  0  0  0  0
   22.2355   33.3925   14.5316 H   0  0  0  0  0
   23.3889   32.1970   15.1731 H   0  0  0  0  0
   23.3295   33.2517   17.3135 H   0  0  0  0  0
   21.7903   33.3140   18.2952 H   0  0  0  0  0
   18.0073   30.2317   16.1561 H   0  0  0  0  0
   19.2509   30.6951   17.3303 H   0  0  0  0  0
   20.9625   29.7972   15.7213 H   0  0  0  0  0
   22.4933   35.0518   15.9308 H   0  0  0  0  0
   20.9928   35.1126   16.8877 H   0  0  0  0  0
   22.5485   35.5368   17.6433 H   0  0  0  0  0
   20.5140   27.5719   16.3151 H   0  0  0  0  0
   19.4266   29.8166   13.7707 H   0  0  0  0  0
   20.7635   27.1565   14.2885 H   0  0  0  0  0
   23.2453   28.5798   11.1487 H   0  0  0  0  0
   24.9175   27.3164   12.8935 H   0  0  0  0  0
   25.4009   27.2507   11.2688 H   0  0  0  0  0
   24.0255   24.8944    9.9424 H   0  0  0  0  0
   20.9424   25.2059   12.2815 H   0  0  0  0  0
   20.4125   24.3101   10.8868 H   0  0  0  0  0
   20.6841   27.0369   10.7924 H   0  0  0  0  0
   20.9412   26.0682    9.3847 H   0  0  0  0  0
   22.9967   27.0743    9.4626 H   0  0  0  0  0
   17.4541   28.7605   14.6189 H   0  0  0  0  0
   18.3527   27.2345   14.8897 H   0  0  0  0  0
   18.3752   25.6214   13.1708 H   0  0  0  0  0
   17.9730   24.9731   10.8231 H   0  0  0  0  0
   17.3041   26.6686    9.1519 H   0  0  0  0  0
   17.1623   29.0528    9.8174 H   0  0  0  0  0
   17.5571   29.7041   12.1735 H   0  0  0  0  0
  2  1  1  0  0  0
  4  1  1  0  0  0
  3  2  1  0  0  0
  5  3  4  0  0  0
  9  3  4  0  0  0
  5  4  1  0  0  0
  6  5  4  0  0  0
  7  6  4  0  0  0
  7  8  4  0  0  0
 10  7  1  0  0  0
  8  9  4  0  0  0
 10 11  2  0  0  0
 10 12  2  0  0  0
 13 10  1  0  0  0
 13 14  1  0  0  0
 18 13  1  0  0  0
 14 15  1  0  0  0
 15 16  1  0  0  0
 15 17  1  0  0  0
 17 20  1  0  0  0
 19 18  1  0  0  0
 19 21  1  0  0  0
 22 19  1  0  0  0
 22 23  1  0  0  0
 35 22  1  0  0  0
 23 24  1  0  0  0
 24 25  2  0  0  0
 24 26  1  0  0  0
 26 27  1  0  0  0
 27 28  1  0  0  0
 27 34  1  0  0  0
 28 29  1  0  0  0
 30 29  1  0  0  0
 30 31  1  0  0  0
 34 30  1  0  0  0
 32 31  1  0  0  0
 33 32  1  0  0  0
 34 33  1  0  0  0
 41 35  1  0  0  0
 36 37  4  0  0  0
 36 41  4  0  0  0
 37 38  4  0  0  0
 38 39  4  0  0  0
 39 40  4  0  0  0
 40 41  4  0  0  0
  1 42  1  0  0  0
  1 43  1  0  0  0
  6 44  1  0  0  0
  8 45  1  0  0  0
  9 46  1  0  0  0
 14 47  1  0  0  0
 14 48  1  0  0  0
 15 49  1  0  0  0
 16 50  1  0  0  0
 16 51  1  0  0  0
 16 52  1  0  0  0
 17 53  1  0  0  0
 17 54  1  0  0  0
 18 55  1  0  0  0
 18 56  1  0  0  0
 19 57  1  0  0  0
 20 58  1  0  0  0
 20 59  1  0  0  0
 20 60  1  0  0  0
 21 61  1  0  0  0
 22 62  1  0  0  0
 23 63  1  0  0  0
 27 64  1  0  0  0
 28 65  1  0  0  0
 28 66  1  0  0  0
 30 67  1  0  0  0
 32 68  1  0  0  0
 32 69  1  0  0  0
 33 70  1  0  0  0
 33 71  1  0  0  0
 34 72  1  0  0  0
 35 73  1  0  0  0
 35 74  1  0  0  0
 36 75  1  0  0  0
 37 76  1  0  0  0
 38 77  1  0  0  0
 39 78  1  0  0  0
 40 79  1  0  0  0
M  END
$$$$
