4ht0_ligand
  -I-interpret- 

 32 33  0  0  0  0  0  0  0  0999 V2000
   -2.8580    1.5460   16.5300 F   0  0  0  0  0
   -3.5700    2.4730   15.9340 C   0  0  0  0  0
   -4.9690    2.2800   15.9450 C   0  0  0  0  0
   -5.8330    0.9750   16.8280 S   0  0  0  0  0
   -5.2660    0.7130   18.1080 O   0  0  0  0  0
   -5.3710   -0.3260   16.0040 N   0  0  0  0  0
   -7.2590    0.7940   16.4860 O   0  0  0  0  0
   -5.6760    3.2800   15.2780 C   0  0  0  0  0
   -6.9920    3.1620   15.3220 F   0  0  0  0  0
   -5.0670    4.3740   14.6000 C   0  0  0  0  0
   -5.8390    5.2770   13.9680 F   0  0  0  0  0
   -2.9050    3.5540   15.2600 C   0  0  0  0  0
   -1.5200    3.7210   15.1910 F   0  0  0  0  0
   -3.6540    4.5390   14.6200 C   0  0  0  0  0
   -2.7010    5.7940   13.7640 S   0  0  0  0  0
   -2.0930    7.5170   13.7800 C   0  0  0  0  0
   -2.5130    8.1840   12.6610 N   0  0  0  0  0
   -2.1420    9.4900   12.4780 C   0  0  0  0  0
   -2.6930   10.2020   11.2670 C   0  0  0  0  0
   -1.3330   10.2020   13.3240 C   0  0  0  0  0
   -0.8960    9.4350   14.3880 C   0  0  0  0  0
   -1.2230    8.1160   14.6550 N   0  0  0  0  0
    0.0280   10.1980   15.3150 C   0  0  0  0  0
   -4.8146   -1.0483   16.4613 H   0  0  0  0  0
   -5.6343   -0.4290   15.0240 H   0  0  0  0  0
   -2.3754    9.6800   10.3644 H   0  0  0  0  0
   -3.7818   10.2131   11.3177 H   0  0  0  0  0
   -2.3185   11.2254   11.2472 H   0  0  0  0  0
   -1.0658   11.2483   13.1759 H   0  0  0  0  0
    0.9045   10.5309   14.7591 H   0  0  0  0  0
   -0.4979   11.0632   15.7188 H   0  0  0  0  0
    0.3398    9.5470   16.1317 H   0  0  0  0  0
  1  2  1  0  0  0
  2  3  4  0  0  0
  2 12  4  0  0  0
  3  4  1  0  0  0
  3  8  4  0  0  0
  4  5  2  0  0  0
  4  6  1  0  0  0
  4  7  2  0  0  0
  8  9  1  0  0  0
  8 10  4  0  0  0
 10 11  1  0  0  0
 10 14  4  0  0  0
 12 13  1  0  0  0
 12 14  4  0  0  0
 14 15  1  0  0  0
 15 16  1  0  0  0
 16 17  4  0  0  0
 16 22  4  0  0  0
 17 18  4  0  0  0
 18 19  1  0  0  0
 18 20  4  0  0  0
 20 21  4  0  0  0
 21 22  4  0  0  0
 21 23  1  0  0  0
  6 24  1  0  0  0
  6 25  1  0  0  0
 19 26  1  0  0  0
 19 27  1  0  0  0
 19 28  1  0  0  0
 20 29  1  0  0  0
 23 30  1  0  0  0
 23 31  1  0  0  0
 23 32  1  0  0  0
M  END
$$$$
