3pz2_ligand
  -I-interpret- 

 67 71  0  0  0  0  0  0  0  0999 V2000
    3.9350   18.4490   27.6120 C   0  0  0  0  0
    6.7390   19.8380   27.0830 N   0  0  0  0  0
    7.6270   21.0200   29.0960 O   0  0  0  0  0
    7.4080   19.6340   28.5900 S   0  0  0  0  0
    4.2130   19.8110   27.6360 C   0  0  0  0  0
    4.6880   17.5680   26.9850 N   0  0  0  0  0
    8.7300   18.9520   28.4090 O   0  0  0  0  0
    3.3350   20.7050   28.2530 C   0  0  0  0  0
    2.1770   15.0090   24.8320 N   0  0  0  0  0
    4.1990   16.2330   32.1400 O   0  0  0  0  0
    2.1730   20.2300   28.8220 C   0  0  0  0  0
    3.7020   14.0990   26.0930 N   0  0  0  0  0
    1.8810   18.8710   28.7790 C   0  0  0  0  0
    0.5270   21.8520   29.9420 N   0  0  0  0  0
    2.7550   17.9690   28.1730 C   0  0  0  0  0
    5.4310   20.5440   27.0420 C   0  0  0  0  0
    6.8920   18.6590   26.2460 C   0  0  0  0  0
    5.5550   18.0050   25.8450 C   0  0  0  0  0
    4.6640   16.1190   27.2670 C   0  0  0  0  0
    3.7440   15.4090   26.2840 C   0  0  0  0  0
    2.8240   15.9610   25.4910 C   0  0  0  0  0
    2.7450   13.8380   25.1920 C   0  0  0  0  0
    4.5690   13.0930   26.8220 C   0  0  0  0  0
    7.7860   19.0400   25.0250 C   0  0  0  0  0
    6.3910   22.3540   22.5810 C   0  0  0  0  0
    7.0700   22.6000   23.7680 C   0  0  0  0  0
    7.5140   21.5350   24.5600 C   0  0  0  0  0
    7.2870   20.2090   24.1690 C   0  0  0  0  0
    6.6330   19.9820   22.9580 C   0  0  0  0  0
    6.1900   21.0470   22.1700 C   0  0  0  0  0
    4.9030   17.1120   31.3620 C   0  0  0  0  0
    4.7430   18.5050   31.4020 C   0  0  0  0  0
    5.5120   19.3090   30.5630 C   0  0  0  0  0
    6.4290   18.7120   29.6910 C   0  0  0  0  0
    6.5940   17.3430   29.6780 C   0  0  0  0  0
    5.8270   16.5550   30.5030 C   0  0  0  0  0
    3.1460   16.8800   32.9060 C   0  0  0  0  0
    1.2640   21.1430   29.4470 C   0  0  0  0  0
    3.5669   21.7696   28.2843 H   0  0  0  0  0
    0.9560   18.5057   29.2252 H   0  0  0  0  0
    2.5180   16.9056   28.1392 H   0  0  0  0  0
    5.2044   20.6839   25.9850 H   0  0  0  0  0
    5.5605   21.4403   27.6487 H   0  0  0  0  0
    7.3867   17.8783   26.8239 H   0  0  0  0  0
    4.9913   18.7592   25.2959 H   0  0  0  0  0
    5.8044   17.1064   25.2807 H   0  0  0  0  0
    4.2965   15.9582   28.2805 H   0  0  0  0  0
    5.6727   15.7184   27.1657 H   0  0  0  0  0
    2.6333   17.0302   25.3988 H   0  0  0  0  0
    2.4725   12.8521   24.8153 H   0  0  0  0  0
    5.6188   13.3075   26.6219 H   0  0  0  0  0
    4.3806   13.1618   27.8934 H   0  0  0  0  0
    4.3292   12.0885   26.4734 H   0  0  0  0  0
    7.8028   18.1670   24.3725 H   0  0  0  0  0
    8.7486   19.3476   25.4335 H   0  0  0  0  0
    6.0197   23.1829   21.9784 H   0  0  0  0  0
    7.2576   23.6263   24.0835 H   0  0  0  0  0
    8.0422   21.7395   25.4913 H   0  0  0  0  0
    6.4652   18.9588   22.6217 H   0  0  0  0  0
    5.6830   20.8480   21.2258 H   0  0  0  0  0
    4.0223   18.9553   32.0845 H   0  0  0  0  0
    5.4002   20.3930   30.5858 H   0  0  0  0  0
    7.3301   16.8872   29.0158 H   0  0  0  0  0
    5.9512   15.4724   30.4778 H   0  0  0  0  0
    3.5853   17.6305   33.5632 H   0  0  0  0  0
    2.4439   17.3590   32.2235 H   0  0  0  0  0
    2.6222   16.1338   33.5035 H   0  0  0  0  0
  5  1  4  0  0  0
  6  1  1  0  0  0
  1 15  4  0  0  0
  4  2  1  0  0  0
  2 16  1  0  0  0
  2 17  1  0  0  0
  4  3  2  0  0  0
  4  7  2  0  0  0
 34  4  1  0  0  0
  5  8  4  0  0  0
 16  5  1  0  0  0
 18  6  1  0  0  0
  6 19  1  0  0  0
  8 11  4  0  0  0
 21  9  4  0  0  0
  9 22  4  0  0  0
 31 10  1  0  0  0
 10 37  1  0  0  0
 11 13  4  0  0  0
 11 38  1  0  0  0
 20 12  4  0  0  0
 12 22  4  0  0  0
 12 23  1  0  0  0
 15 13  4  0  0  0
 38 14  3  0  0  0
 17 18  1  0  0  0
 17 24  1  0  0  0
 19 20  1  0  0  0
 20 21  4  0  0  0
 24 28  1  0  0  0
 26 25  4  0  0  0
 30 25  4  0  0  0
 27 26  4  0  0  0
 28 27  4  0  0  0
 28 29  4  0  0  0
 29 30  4  0  0  0
 32 31  4  0  0  0
 31 36  4  0  0  0
 33 32  4  0  0  0
 33 34  4  0  0  0
 34 35  4  0  0  0
 35 36  4  0  0  0
  8 39  1  0  0  0
 13 40  1  0  0  0
 15 41  1  0  0  0
 16 42  1  0  0  0
 16 43  1  0  0  0
 17 44  1  0  0  0
 18 45  1  0  0  0
 18 46  1  0  0  0
 19 47  1  0  0  0
 19 48  1  0  0  0
 21 49  1  0  0  0
 22 50  1  0  0  0
 23 51  1  0  0  0
 23 52  1  0  0  0
 23 53  1  0  0  0
 24 54  1  0  0  0
 24 55  1  0  0  0
 25 56  1  0  0  0
 26 57  1  0  0  0
 27 58  1  0  0  0
 29 59  1  0  0  0
 30 60  1  0  0  0
 32 61  1  0  0  0
 33 62  1  0  0  0
 35 63  1  0  0  0
 36 64  1  0  0  0
 37 65  1  0  0  0
 37 66  1  0  0  0
 37 67  1  0  0  0
M  END
$$$$
