3qj9_ligand
  -I-interpret- 

 58 63  0  0  0  0  0  0  0  0999 V2000
  -17.2830    0.2050   -4.8380 N   0  0  0  0  0
  -15.5840   -1.4580   -4.9530 N   0  0  0  0  0
  -16.6030   -0.7910   -4.2350 C   0  0  0  0  0
  -18.9330    1.9020   -4.8700 C   0  0  0  0  0
  -18.9550    2.1340   -6.1850 C   0  0  0  0  0
  -20.1810    3.6830   -5.1950 C   0  0  0  0  0
  -19.7090    3.2060   -6.4240 C   0  0  0  0  0
  -20.8750    4.9840   -7.5680 C   0  0  0  0  0
  -14.6900   -2.4490   -4.2810 C   0  0  0  0  0
  -12.9920   -1.9500   -6.1070 C   0  0  0  0  0
  -15.3820   -1.1500   -6.4000 C   0  0  0  0  0
  -11.2260   -5.0730   -3.6660 C   0  0  0  0  0
  -10.8020   -6.3770   -3.9260 C   0  0  0  0  0
  -11.2750   -7.0510   -5.0520 C   0  0  0  0  0
  -12.5880   -5.1210   -5.6600 C   0  0  0  0  0
   -8.6270   -3.9570   -1.8220 C   0  0  0  0  0
  -10.0430   -4.4620   -1.5500 C   0  0  0  0  0
  -10.9440   -4.2040   -2.6950 N   0  0  0  0  0
  -11.6230   -3.0820   -2.9170 C   0  0  0  0  0
  -11.5970   -2.0750   -2.2080 O   0  0  0  0  0
  -12.1650   -6.4190   -5.9240 C   0  0  0  0  0
  -12.1190   -4.4410   -4.5330 C   0  0  0  0  0
  -12.3360   -3.2160   -4.0340 N   0  0  0  0  0
  -13.2120   -2.1490   -4.5870 C   0  0  0  0  0
  -13.9010   -0.8590   -6.6870 C   0  0  0  0  0
  -16.9000   -1.1330   -2.9620 N   0  0  0  0  0
  -17.8570   -0.5040   -2.2890 C   0  0  0  0  0
  -18.5730    0.5280   -2.8930 C   0  0  0  0  0
  -18.2590    0.8770   -4.2030 C   0  0  0  0  0
  -20.0550    3.8580   -7.6110 C   0  0  0  0  0
  -21.3470    5.4560   -6.3420 C   0  0  0  0  0
  -21.0050    4.8100   -5.1520 C   0  0  0  0  0
  -19.6870    2.8550   -4.2220 O   0  0  0  0  0
  -18.4392    1.5418   -6.9409 H   0  0  0  0  0
  -21.1476    5.4958   -8.4910 H   0  0  0  0  0
  -14.9298   -3.4457   -4.6513 H   0  0  0  0  0
  -14.8449   -2.3876   -3.2038 H   0  0  0  0  0
  -13.2265   -2.8887   -6.6090 H   0  0  0  0  0
  -11.9567   -1.6465   -6.2626 H   0  0  0  0  0
  -15.9723   -0.2716   -6.6607 H   0  0  0  0  0
  -15.6949   -2.0101   -6.9920 H   0  0  0  0  0
  -10.1021   -6.8682   -3.2500 H   0  0  0  0  0
  -10.9498   -8.0720   -5.2518 H   0  0  0  0  0
  -13.2892   -4.6313   -6.3358 H   0  0  0  0  0
   -8.2238   -4.4644   -2.6984 H   0  0  0  0  0
   -8.6544   -2.8825   -2.0031 H   0  0  0  0  0
   -7.9961   -4.1651   -0.9578 H   0  0  0  0  0
  -10.4343   -3.9361   -0.6791 H   0  0  0  0  0
   -9.9982   -5.5382   -1.3833 H   0  0  0  0  0
  -12.5269   -6.9422   -6.8091 H   0  0  0  0  0
  -12.9386   -1.2144   -4.0973 H   0  0  0  0  0
  -13.7579   -0.8281   -7.7671 H   0  0  0  0  0
  -13.6393    0.0918   -6.2226 H   0  0  0  0  0
  -18.0826   -0.7953   -1.2632 H   0  0  0  0  0
  -19.3616    1.0502   -2.3512 H   0  0  0  0  0
  -19.6848    3.4871   -8.5668 H   0  0  0  0  0
  -21.9884    6.3369   -6.3132 H   0  0  0  0  0
  -21.3779    5.1821   -4.1978 H   0  0  0  0  0
  3  1  4  0  0  0
  1 29  4  0  0  0
  2  3  1  0  0  0
  9  2  1  0  0  0
  2 11  1  0  0  0
  3 26  4  0  0  0
  4  5  4  0  0  0
 29  4  1  0  0  0
  4 33  4  0  0  0
  5  7  4  0  0  0
  6  7  4  0  0  0
  6 32  4  0  0  0
 33  6  4  0  0  0
  7 30  4  0  0  0
 30  8  4  0  0  0
  8 31  4  0  0  0
 24  9  1  0  0  0
 24 10  1  0  0  0
 10 25  1  0  0  0
 25 11  1  0  0  0
 12 13  4  0  0  0
 12 18  1  0  0  0
 22 12  4  0  0  0
 13 14  4  0  0  0
 21 14  4  0  0  0
 15 21  4  0  0  0
 22 15  4  0  0  0
 17 16  1  0  0  0
 18 17  1  0  0  0
 19 18  1  0  0  0
 19 20  2  0  0  0
 23 19  1  0  0  0
 23 22  1  0  0  0
 23 24  1  0  0  0
 26 27  4  0  0  0
 27 28  4  0  0  0
 28 29  4  0  0  0
 31 32  4  0  0  0
  5 34  1  0  0  0
  8 35  1  0  0  0
  9 36  1  0  0  0
  9 37  1  0  0  0
 10 38  1  0  0  0
 10 39  1  0  0  0
 11 40  1  0  0  0
 11 41  1  0  0  0
 13 42  1  0  0  0
 14 43  1  0  0  0
 15 44  1  0  0  0
 16 45  1  0  0  0
 16 46  1  0  0  0
 16 47  1  0  0  0
 17 48  1  0  0  0
 17 49  1  0  0  0
 21 50  1  0  0  0
 24 51  1  0  0  0
 25 52  1  0  0  0
 25 53  1  0  0  0
 27 54  1  0  0  0
 28 55  1  0  0  0
 30 56  1  0  0  0
 31 57  1  0  0  0
 32 58  1  0  0  0
M  END
$$$$
