3lgl_ligand
  -I-interpret- 

 32 31  0  0  0  0  0  0  0  0999 V2000
   -8.6250    2.5060    6.8590 N   0  3  0  0  0
   -7.8540    3.1080    7.9390 C   0  0  0  0  0
   -6.3520    2.7860    7.9950 C   0  0  0  0  0
   -5.7350    1.7060    8.8830 C   0  0  0  0  0
   -4.9360    2.1950   10.0820 C   0  0  0  0  0
   -4.1410    1.1260   10.8190 C   0  0  0  0  0
   -4.6440    0.5280   12.0280 N   0  3  0  0  0
   -4.2310   -0.8530   12.0860 C   0  0  0  0  0
   -6.0770    0.5200   11.9080 C   0  0  0  0  0
   -7.9960    4.6170    7.8880 C   0  0  0  0  0
   -7.9843    5.2511    8.9768 O   0  0  0  0  0
   -8.1221    5.2194    6.7885 O   0  0  0  0  0
   -8.5266    1.4915    6.8972 H   0  0  0  0  0
   -9.6080    2.7576    6.9633 H   0  0  0  0  0
   -8.2782    2.8490    5.9632 H   0  0  0  0  0
   -8.2833    2.6568    8.8335 H   0  0  0  0  0
   -5.9275    3.7023    8.4052 H   0  0  0  0  0
   -6.1515    2.4116    6.9911 H   0  0  0  0  0
   -5.0334    1.1591    8.2531 H   0  0  0  0  0
   -6.5689    1.1323    9.2873 H   0  0  0  0  0
   -5.6581    2.5923   10.7954 H   0  0  0  0  0
   -4.2107    2.9134    9.6999 H   0  0  0  0  0
   -3.2356    1.6428   11.1371 H   0  0  0  0  0
   -4.0964    0.2966   10.1131 H   0  0  0  0  0
   -4.3094    1.0357   12.8470 H   0  0  0  0  0
   -4.6924   -1.3329   12.9491 H   0  0  0  0  0
   -4.5436   -1.3630   11.1748 H   0  0  0  0  0
   -3.1460   -0.9029   12.1778 H   0  0  0  0  0
   -6.3613   -0.0110   10.9995 H   0  0  0  0  0
   -6.5100    0.0190   12.7738 H   0  0  0  0  0
   -6.4420    1.5459   11.8600 H   0  0  0  0  0
   -7.8807    4.6335    9.7044 H   0  0  0  0  0
  1  2  1  0  0  0
  2  3  1  0  0  0
  2 10  1  0  0  0
  3  4  1  0  0  0
  4  5  1  0  0  0
  5  6  1  0  0  0
  6  7  1  0  0  0
  7  8  1  0  0  0
  7  9  1  0  0  0
 10 11  1  0  0  0
 10 12  2  0  0  0
  1 13  1  0  0  0
  1 14  1  0  0  0
  1 15  1  0  0  0
  2 16  1  0  0  0
  3 17  1  0  0  0
  3 18  1  0  0  0
  4 19  1  0  0  0
  4 20  1  0  0  0
  5 21  1  0  0  0
  5 22  1  0  0  0
  6 23  1  0  0  0
  6 24  1  0  0  0
  7 25  1  0  0  0
  8 26  1  0  0  0
  8 27  1  0  0  0
  8 28  1  0  0  0
  9 29  1  0  0  0
  9 30  1  0  0  0
  9 31  1  0  0  0
 11 32  1  0  0  0
M  END
$$$$
