1fsg_ligand
  -I-interpret- 

 16 17  0  0  0  0  0  0  0  0999 V2000
   17.8570   39.7410  -15.2030 C   0  0  0  0  0
   17.0950   38.6400  -15.2880 C   0  0  0  0  0
   16.2910   38.5520  -14.1760 N   0  0  0  0  0
   16.5240   39.6770  -13.3680 C   0  0  0  0  0
   15.8650   40.1100  -12.2230 C   0  0  0  0  0
   14.9750   39.5540  -11.5480 O   0  0  0  0  0
   16.4180   41.3280  -11.7960 N   0  0  0  0  0
   17.3810   42.0220  -12.4260 C   0  0  0  0  0
   17.7420   43.2050  -11.8300 N   0  0  0  0  0
   17.9970   41.6150  -13.4810 N   0  0  0  0  0
   17.5280   40.4120  -13.9960 C   0  0  0  0  0
   18.5991   40.0639  -15.9332 H   0  0  0  0  0
   17.1108   37.9258  -16.1112 H   0  0  0  0  0
   16.0555   41.7222  -10.9279 H   0  0  0  0  0
   18.4997   43.7636  -12.2228 H   0  0  0  0  0
   17.2525   43.5253  -10.9944 H   0  0  0  0  0
  1  2  4  0  0  0
  1 11  4  0  0  0
  2  3  4  0  0  0
  3  4  4  0  0  0
  4  5  1  0  0  0
  4 11  4  0  0  0
  5  6  2  0  0  0
  5  7  1  0  0  0
  7  8  1  0  0  0
  8  9  1  0  0  0
  8 10  2  0  0  0
 10 11  1  0  0  0
  1 12  1  0  0  0
  2 13  1  0  0  0
  7 14  1  0  0  0
  9 15  1  0  0  0
  9 16  1  0  0  0
M  END
$$$$
