1fzk_ligand
  -I-interpret- 

133136  0  0  0  0  0  0  0  0999 V2000
   49.8640   56.5120    4.9650 N   0  3  0  0  0
   49.0430   57.6520    4.4610 C   0  0  0  0  0
   48.5200   57.2540    3.0820 C   0  0  0  0  0
   49.2850   57.1580    2.1260 O   0  0  0  0  0
   49.9230   58.8970    4.3590 C   0  0  0  0  0
   49.1640   60.1900    4.3470 C   0  0  0  0  0
   48.6860   60.7400    5.5280 C   0  0  0  0  0
   48.9660   60.8820    3.1590 C   0  0  0  0  0
   48.0300   61.9710    5.5270 C   0  0  0  0  0
   48.3130   62.1120    3.1460 C   0  0  0  0  0
   47.8440   62.6550    4.3340 C   0  0  0  0  0
   47.2140   57.0330    2.9870 N   0  0  0  0  0
   46.5830   56.5950    1.7430 C   0  0  0  0  0
   46.4910   57.6250    0.6180 C   0  0  0  0  0
   46.4970   58.8320    0.8630 O   0  0  0  0  0
   45.1850   56.0640    2.0570 C   0  0  0  0  0
   46.4260   57.1520   -0.6420 N   0  0  0  0  0
   46.3180   58.0500   -1.7960 C   0  0  0  0  0
   45.0710   58.9120   -1.5810 C   0  0  0  0  0
   44.0420   58.4140   -1.1100 O   0  0  0  0  0
   46.1570   57.0850   -2.9650 C   0  0  0  0  0
   46.9830   55.9180   -2.5420 C   0  0  0  0  0
   46.6120   55.7550   -1.0790 C   0  0  0  0  0
   45.1620   60.1890   -1.9420 N   0  0  0  0  0
   44.0520   61.1020   -1.7290 C   0  0  0  0  0
   42.9710   61.3220   -2.7730 C   0  0  0  0  0
   41.8270   61.5740   -2.3950 O   0  0  0  0  0
   43.2910   61.2540   -4.0610 N   0  0  0  0  0
   42.2590   61.4860   -5.0750 C   0  0  0  0  0
   42.4150   60.6310   -6.3310 C   0  0  0  0  0
   43.1650   60.9700   -7.2490 O   0  0  0  0  0
   42.2070   62.9830   -5.4480 C   0  0  0  0  0
   43.3020   63.4020   -6.4200 C   0  0  0  0  0
   43.1790   63.2130   -7.6320 O   0  0  0  0  0
   44.3790   63.9740   -5.8910 N   0  0  0  0  0
   41.7050   59.5090   -6.3680 N   0  0  0  0  0
   41.7780   58.6360   -7.5300 C   0  0  0  0  0
   40.9910   59.2830   -8.6630 C   0  0  0  0  0
   39.7750   59.4520   -8.5610 O   0  0  0  0  0
   41.1860   57.2580   -7.2230 C   0  0  0  0  0
   41.9370   56.4560   -6.1770 C   0  0  0  0  0
   41.6350   56.5810   -4.8210 C   0  0  0  0  0
   42.9270   55.5420   -6.5500 C   0  0  0  0  0
   42.2940   55.8060   -3.8630 C   0  0  0  0  0
   43.5930   54.7690   -5.6010 C   0  0  0  0  0
   43.2690   54.9040   -4.2580 C   0  0  0  0  0
   43.9110   54.1310   -3.3070 O   0  0  0  0  0
   41.6760   59.6550   -9.7580 N   0  0  0  0  0
   41.0060   60.2870  -10.9000 C   0  0  0  0  0
   39.9180   59.3760  -11.4560 C   0  0  0  0  0
   40.0930   58.1600  -11.5020 O   0  0  0  0  0
   42.1480   60.5040  -11.8880 C   0  0  0  0  0
   43.0640   59.3450  -11.5890 C   0  0  0  0  0
   43.0800   59.3500  -10.0810 C   0  0  0  0  0
   38.8000   59.9600  -11.8780 N   0  0  0  0  0
   37.6950   59.1750  -12.4190 C   0  0  0  0  0
   38.1050   58.5230  -13.7350 C   0  0  0  0  0
   38.8430   59.1160  -14.5200 O   0  0  0  0  0
   36.4720   60.0710  -12.6350 C   0  0  0  0  0
   37.6300   57.3030  -13.9720 N   0  0  0  0  0
   37.9570   56.5930  -15.2060 C   0  0  0  0  0
   37.2290   57.1890  -16.4110 C   0  0  0  0  0
   36.2890   57.9920  -16.1990 O   0  0  0  0  0
   37.5870   55.1100  -15.0800 C   0  0  0  0  0
   38.2890   54.3190  -13.9780 C   0  0  0  0  0
   37.8050   52.8700  -14.0090 C   0  0  0  0  0
   39.7870   54.3730  -14.1780 C   0  0  0  0  0
   37.5970   56.8290  -17.5560 O   0  0  0  0  0
   49.2800   55.6786    5.0346 H   0  0  0  0  0
   50.6332   56.3366    4.3185 H   0  0  0  0  0
   50.2378   56.7444    5.8851 H   0  0  0  0  0
   48.2123   57.8742    5.1308 H   0  0  0  0  0
   50.4615   58.8325    3.4135 H   0  0  0  0  0
   50.5641   58.9097    5.2405 H   0  0  0  0  0
   48.8247   60.2041    6.4669 H   0  0  0  0  0
   49.3271   60.4560    2.2229 H   0  0  0  0  0
   47.6640   62.3951    6.4620 H   0  0  0  0  0
   48.1708   62.6461    2.2065 H   0  0  0  0  0
   47.3307   63.6166    4.3300 H   0  0  0  0  0
   46.6302   57.1739    3.8114 H   0  0  0  0  0
   47.2496   55.8271    1.3504 H   0  0  0  0  0
   44.5456   56.8899    2.3689 H   0  0  0  0  0
   44.7670   55.5957    1.1659 H   0  0  0  0  0
   45.2487   55.3290    2.8594 H   0  0  0  0  0
   47.1574   58.7269   -1.9553 H   0  0  0  0  0
   46.4778   57.5110   -3.9156 H   0  0  0  0  0
   45.1172   56.8221   -3.1595 H   0  0  0  0  0
   48.0506   56.0771   -2.6935 H   0  0  0  0  0
   46.7856   55.0228   -3.1317 H   0  0  0  0  0
   47.3687   55.2232   -0.5022 H   0  0  0  0  0
   45.7263   55.1378   -0.9282 H   0  0  0  0  0
   46.0207   60.5311   -2.3732 H   0  0  0  0  0
   43.5119   60.6548   -0.8945 H   0  0  0  0  0
   44.5352   62.0762   -1.6545 H   0  0  0  0  0
   44.2483   61.0418   -4.3418 H   0  0  0  0  0
   41.3166   61.1791   -4.6214 H   0  0  0  0  0
   42.3451   63.5553   -4.5307 H   0  0  0  0  0
   41.2485   63.1678   -5.9330 H   0  0  0  0  0
   45.1445   64.2754   -6.4939 H   0  0  0  0  0
   44.4399   64.1115   -4.8821 H   0  0  0  0  0
   41.1073   59.2588   -5.5802 H   0  0  0  0  0
   42.8226   58.4997   -7.8099 H   0  0  0  0  0
   41.2275   56.6844   -8.1489 H   0  0  0  0  0
   40.1834   57.4267   -6.8301 H   0  0  0  0  0
   40.8737   57.2937   -4.5039 H   0  0  0  0  0
   43.1829   55.4319   -7.6038 H   0  0  0  0  0
   42.0418   55.9107   -2.8078 H   0  0  0  0  0
   44.3633   54.0630   -5.9112 H   0  0  0  0  0
   44.5530   53.5625   -3.7386 H   0  0  0  0  0
   40.4910   61.2158  -10.6547 H   0  0  0  0  0
   42.6340   61.4728  -11.7724 H   0  0  0  0  0
   41.8155   60.5284  -12.9258 H   0  0  0  0  0
   44.0535   59.4467  -12.0346 H   0  0  0  0  0
   42.7253   58.4015  -12.0171 H   0  0  0  0  0
   43.7843   60.0676   -9.6602 H   0  0  0  0  0
   43.4264   58.4103   -9.6509 H   0  0  0  0  0
   38.7134   60.9748  -11.8225 H   0  0  0  0  0
   37.4388   58.3918  -11.7055 H   0  0  0  0  0
   36.7159   60.8480  -13.3595 H   0  0  0  0  0
   35.6442   59.4694  -13.0103 H   0  0  0  0  0
   36.1885   60.5311  -11.6884 H   0  0  0  0  0
   37.0276   56.8562  -13.2807 H   0  0  0  0  0
   39.0304   56.6969  -15.3642 H   0  0  0  0  0
   37.8854   54.6453  -16.0197 H   0  0  0  0  0
   36.5247   55.0852  -14.8371 H   0  0  0  0  0
   38.0514   54.7568  -13.0085 H   0  0  0  0  0
   36.7274   52.8447  -13.8470 H   0  0  0  0  0
   38.0383   52.4310  -14.9790 H   0  0  0  0  0
   38.3052   52.3043  -13.2230 H   0  0  0  0  0
   40.0387   53.9412  -15.1467 H   0  0  0  0  0
   40.1197   55.4104  -14.1437 H   0  0  0  0  0
   40.2785   53.8061  -13.3873 H   0  0  0  0  0
   38.3296   56.2137  -17.4767 H   0  0  0  0  0
  3  2  1  0  0  0
  2  5  1  0  0  0
  2  1  1  0  0  0
  5  6  1  0  0  0
  6  8  4  0  0  0
  6  7  4  0  0  0
  7  9  4  0  0  0
  9 11  4  0  0  0
 10 11  4  0  0  0
  8 10  4  0  0  0
  3  4  2  0  0  0
 14 13  1  0  0  0
 13 16  1  0  0  0
 13 12  1  0  0  0
 14 15  2  0  0  0
 18 17  1  0  0  0
 18 21  1  0  0  0
 19 18  1  0  0  0
 19 20  2  0  0  0
 21 22  1  0  0  0
 22 23  1  0  0  0
 17 23  1  0  0  0
 26 25  1  0  0  0
 25 24  1  0  0  0
 26 27  2  0  0  0
 30 29  1  0  0  0
 29 32  1  0  0  0
 29 28  1  0  0  0
 32 33  1  0  0  0
 33 34  2  0  0  0
 33 35  1  0  0  0
 30 31  2  0  0  0
 38 37  1  0  0  0
 37 40  1  0  0  0
 37 36  1  0  0  0
 40 41  1  0  0  0
 41 43  4  0  0  0
 41 42  4  0  0  0
 42 44  4  0  0  0
 44 46  4  0  0  0
 46 47  1  0  0  0
 45 46  4  0  0  0
 43 45  4  0  0  0
 38 39  2  0  0  0
 49 48  1  0  0  0
 49 52  1  0  0  0
 50 49  1  0  0  0
 50 51  2  0  0  0
 52 53  1  0  0  0
 53 54  1  0  0  0
 48 54  1  0  0  0
 57 56  1  0  0  0
 56 59  1  0  0  0
 56 55  1  0  0  0
 57 58  2  0  0  0
 61 62  1  0  0  0
 61 64  1  0  0  0
 60 61  1  0  0  0
 64 65  1  0  0  0
 65 67  1  0  0  0
 65 66  1  0  0  0
 62 68  1  0  0  0
 62 63  2  0  0  0
 12  3  1  0  0  0
 17 14  1  0  0  0
 24 19  1  0  0  0
 28 26  1  0  0  0
 36 30  1  0  0  0
 48 38  1  0  0  0
 55 50  1  0  0  0
 57 60  1  0  0  0
  1 69  1  0  0  0
  1 70  1  0  0  0
  1 71  1  0  0  0
  2 72  1  0  0  0
  5 73  1  0  0  0
  5 74  1  0  0  0
  7 75  1  0  0  0
  8 76  1  0  0  0
  9 77  1  0  0  0
 10 78  1  0  0  0
 11 79  1  0  0  0
 12 80  1  0  0  0
 13 81  1  0  0  0
 16 82  1  0  0  0
 16 83  1  0  0  0
 16 84  1  0  0  0
 18 85  1  0  0  0
 21 86  1  0  0  0
 21 87  1  0  0  0
 22 88  1  0  0  0
 22 89  1  0  0  0
 23 90  1  0  0  0
 23 91  1  0  0  0
 24 92  1  0  0  0
 25 93  1  0  0  0
 25 94  1  0  0  0
 28 95  1  0  0  0
 29 96  1  0  0  0
 32 97  1  0  0  0
 32 98  1  0  0  0
 35 99  1  0  0  0
 35100  1  0  0  0
 36101  1  0  0  0
 37102  1  0  0  0
 40103  1  0  0  0
 40104  1  0  0  0
 42105  1  0  0  0
 43106  1  0  0  0
 44107  1  0  0  0
 45108  1  0  0  0
 47109  1  0  0  0
 49110  1  0  0  0
 52111  1  0  0  0
 52112  1  0  0  0
 53113  1  0  0  0
 53114  1  0  0  0
 54115  1  0  0  0
 54116  1  0  0  0
 55117  1  0  0  0
 56118  1  0  0  0
 59119  1  0  0  0
 59120  1  0  0  0
 59121  1  0  0  0
 60122  1  0  0  0
 61123  1  0  0  0
 64124  1  0  0  0
 64125  1  0  0  0
 65126  1  0  0  0
 66127  1  0  0  0
 66128  1  0  0  0
 66129  1  0  0  0
 67130  1  0  0  0
 67131  1  0  0  0
 67132  1  0  0  0
 68133  1  0  0  0
M  END
$$$$
