5kde_ligand
  -I-interpret- 

 39 43  0  0  0  0  0  0  0  0999 V2000
   82.9930  -70.5390  118.7680 C   0  0  0  0  0
   85.3080  -71.2300  117.5260 C   0  0  0  0  0
   85.6240  -71.1370  119.0570 C   0  0  0  0  0
   80.7090  -71.0860  118.7600 C   0  0  0  0  0
   82.7060  -69.3130  119.2830 N   0  0  0  0  0
   78.5220  -72.2910  117.6860 C   0  0  0  0  0
   78.8700  -73.0710  118.9960 C   0  0  0  0  0
   81.9980  -71.4290  118.5060 N   0  0  0  0  0
   79.6430  -71.9620  118.5160 N   0  0  0  0  0
   80.4350  -69.8670  119.2740 N   0  0  0  0  0
   84.3240  -70.8870  118.5100 N   0  0  0  0  0
   81.4170  -68.9700  119.5370 C   0  0  0  0  0
   81.0790  -67.6240  120.1060 C   0  0  0  0  0
   79.8880  -67.0190  120.2200 N   0  0  0  0  0
   79.9250  -65.8120  120.7780 C   0  0  0  0  0
   81.2600  -65.5940  121.0630 C   0  0  0  0  0
   81.9760  -66.7110  120.6500 C   0  0  0  0  0
   78.7370  -67.5660  119.8070 C   0  0  0  0  0
   78.2850  -67.4290  118.4860 C   0  0  0  0  0
   77.0950  -68.0050  118.0370 C   0  0  0  0  0
   76.3150  -68.7540  118.9130 C   0  0  0  0  0
   76.7340  -68.9140  120.2310 C   0  0  0  0  0
   77.9260  -68.3280  120.6630 C   0  0  0  0  0
   85.4525  -71.8946  116.6742 H   0  0  0  0  0
   85.6919  -70.8910  116.5638 H   0  0  0  0  0
   86.3484  -70.6975  119.7427 H   0  0  0  0  0
   86.1088  -71.7020  119.8532 H   0  0  0  0  0
   77.6760  -71.8179  117.1874 H   0  0  0  0  0
   78.2728  -72.4707  116.6402 H   0  0  0  0  0
   78.9956  -74.0901  119.3617 H   0  0  0  0  0
   78.3996  -73.4382  119.9081 H   0  0  0  0  0
   79.0867  -65.1420  120.9687 H   0  0  0  0  0
   81.6778  -64.7021  121.5299 H   0  0  0  0  0
   83.0538  -66.8479  120.7373 H   0  0  0  0  0
   78.8855  -66.8510  117.7836 H   0  0  0  0  0
   76.7778  -67.8684  117.0032 H   0  0  0  0  0
   75.3861  -69.2104  118.5709 H   0  0  0  0  0
   76.1310  -69.4974  120.9268 H   0  0  0  0  0
   78.2367  -68.4668  121.6985 H   0  0  0  0  0
  1  5  4  0  0  0
  8  1  4  0  0  0
  1 11  1  0  0  0
  3  2  1  0  0  0
 11  2  1  0  0  0
 11  3  1  0  0  0
  4  8  4  0  0  0
  9  4  1  0  0  0
  4 10  4  0  0  0
  5 12  4  0  0  0
  6  7  1  0  0  0
  6  9  1  0  0  0
  7  9  1  0  0  0
 10 12  4  0  0  0
 12 13  1  0  0  0
 13 14  4  0  0  0
 13 17  4  0  0  0
 14 15  4  0  0  0
 14 18  1  0  0  0
 15 16  4  0  0  0
 16 17  4  0  0  0
 18 19  4  0  0  0
 18 23  4  0  0  0
 19 20  4  0  0  0
 20 21  4  0  0  0
 21 22  4  0  0  0
 22 23  4  0  0  0
  2 24  1  0  0  0
  2 25  1  0  0  0
  3 26  1  0  0  0
  3 27  1  0  0  0
  6 28  1  0  0  0
  6 29  1  0  0  0
  7 30  1  0  0  0
  7 31  1  0  0  0
 15 32  1  0  0  0
 16 33  1  0  0  0
 17 34  1  0  0  0
 19 35  1  0  0  0
 20 36  1  0  0  0
 21 37  1  0  0  0
 22 38  1  0  0  0
 23 39  1  0  0  0
M  END
$$$$
