2cn0_ligand
  -I-interpret- 

 58 62  0  0  0  0  0  0  0  0999 V2000
   16.8640  -12.8170   22.5650 O   0  0  0  0  0
   17.5040  -12.5270   21.6090 C   0  0  0  0  0
   18.5480  -13.2810   21.2360 N   0  0  0  0  0
   18.9590  -14.5280   21.8740 C   0  0  0  0  0
   19.8660  -14.2790   23.0460 C   0  0  0  0  0
   21.2520  -14.3560   22.8990 C   0  0  0  0  0
   22.1040  -14.1210   23.9650 C   0  0  0  0  0
   21.5670  -13.7990   25.1980 C   0  0  0  0  0
   22.3660  -13.5660   26.2570 F   0  0  0  0  0
   20.1910  -13.7400   25.3730 C   0  0  0  0  0
   19.3530  -13.9740   24.3040 C   0  0  0  0  0
   19.1150  -12.8730   19.9570 C   0  0  0  0  0
   18.1010  -11.8300   19.4410 C   0  0  0  0  0
   17.1260  -12.3820   18.4150 C   0  0  0  0  0
   15.8050  -12.3240   19.0690 N   0  3  0  0  0
   14.7580  -12.0930   18.0530 C   0  0  0  0  0
   15.5070  -11.9040   16.7450 C   0  0  0  0  0
   16.9620  -11.6310   17.1050 C   0  0  0  0  0
   15.8980  -11.2230   20.0560 C   0  0  0  0  0
   14.7550  -11.1930   21.0130 C   0  0  0  0  0
   13.9990  -12.3070   21.3230 C   0  0  0  0  0
   12.9540  -12.2120   22.2370 C   0  0  0  0  0
   12.6250  -10.9950   22.8230 C   0  0  0  0  0
   13.3740   -9.8900   22.5150 C   0  0  0  0  0
   14.4290   -9.9880   21.6120 C   0  0  0  0  0
   11.4790  -10.9300   23.7820 C   0  0  0  0  0
   10.7000  -11.9880   24.0450 N   0  0  0  0  0
   11.1970   -9.8190   24.4400 N   0  0  0  0  0
   17.2840  -11.3920   20.6530 C   0  0  0  0  0
   20.4810  -12.2370   20.1260 C   0  0  0  0  0
   20.9580  -11.8790   18.8940 F   0  0  0  0  0
   20.4450  -11.0850   20.8570 F   0  0  0  0  0
   19.5003  -15.1268   21.1415 H   0  0  0  0  0
   18.0667  -15.0410   22.2328 H   0  0  0  0  0
   21.6723  -14.6063   21.9249 H   0  0  0  0  0
   23.1840  -14.1889   23.8339 H   0  0  0  0  0
   19.7744  -13.5092   26.3534 H   0  0  0  0  0
   18.2736  -13.9195   24.4454 H   0  0  0  0  0
   19.2648  -13.7148   19.2809 H   0  0  0  0  0
   18.6566  -11.0268   18.9569 H   0  0  0  0  0
   17.5200  -13.3592   18.1359 H   0  0  0  0  0
   15.5529  -13.1935   19.5390 H   0  0  0  0  0
   14.1470  -11.2236   18.2957 H   0  0  0  0  0
   14.0589  -12.9276   17.9991 H   0  0  0  0  0
   15.0872  -11.0753   16.1748 H   0  0  0  0  0
   15.4232  -12.7924   16.1191 H   0  0  0  0  0
   17.6602  -11.9597   16.3352 H   0  0  0  0  0
   17.1871  -10.5681   17.1922 H   0  0  0  0  0
   15.7988  -10.2302   19.6172 H   0  0  0  0  0
   14.2218  -13.2635   20.8501 H   0  0  0  0  0
   12.3852  -13.1047   22.4972 H   0  0  0  0  0
   13.1431   -8.9309   22.9785 H   0  0  0  0  0
   15.0103   -9.0978   21.3716 H   0  0  0  0  0
    9.9403  -11.9066   24.7208 H   0  0  0  0  0
   10.8666  -12.8748   23.5694 H   0  0  0  0  0
   11.7656   -8.9841   24.2984 H   0  0  0  0  0
   17.5111  -10.4739   21.1948 H   0  0  0  0  0
   21.1019  -12.9731   20.6366 H   0  0  0  0  0
  1  2  2  0  0  0
  2  3  1  0  0  0
  2 29  1  0  0  0
  3  4  1  0  0  0
  3 12  1  0  0  0
  4  5  1  0  0  0
  5  6  4  0  0  0
  5 11  4  0  0  0
  6  7  4  0  0  0
  7  8  4  0  0  0
  8  9  1  0  0  0
  8 10  4  0  0  0
 10 11  4  0  0  0
 12 13  1  0  0  0
 12 30  1  0  0  0
 13 14  1  0  0  0
 13 29  1  0  0  0
 14 15  1  0  0  0
 14 18  1  0  0  0
 15 16  1  0  0  0
 15 19  1  0  0  0
 16 17  1  0  0  0
 17 18  1  0  0  0
 19 20  1  0  0  0
 19 29  1  0  0  0
 20 21  4  0  0  0
 20 25  4  0  0  0
 21 22  4  0  0  0
 22 23  4  0  0  0
 23 24  4  0  0  0
 23 26  1  0  0  0
 24 25  4  0  0  0
 26 27  1  0  0  0
 26 28  2  0  0  0
 30 31  1  0  0  0
 30 32  1  0  0  0
  4 33  1  0  0  0
  4 34  1  0  0  0
  6 35  1  0  0  0
  7 36  1  0  0  0
 10 37  1  0  0  0
 11 38  1  0  0  0
 12 39  1  0  0  0
 13 40  1  0  0  0
 14 41  1  0  0  0
 15 42  1  0  0  0
 16 43  1  0  0  0
 16 44  1  0  0  0
 17 45  1  0  0  0
 17 46  1  0  0  0
 18 47  1  0  0  0
 18 48  1  0  0  0
 19 49  1  0  0  0
 21 50  1  0  0  0
 22 51  1  0  0  0
 24 52  1  0  0  0
 25 53  1  0  0  0
 27 54  1  0  0  0
 27 55  1  0  0  0
 28 56  1  0  0  0
 29 57  1  0  0  0
 30 58  1  0  0  0
M  END
$$$$
