5eh7_ligand
  -I-interpret- 

 20 21  0  0  0  0  0  0  0  0999 V2000
   15.4720    5.8950   15.3890 Cl  0  0  0  0  0
   15.6050    4.5890   14.2740 C   0  0  0  0  0
   15.1220    4.7590   13.0130 C   0  0  0  0  0
   14.3980    6.2670   12.5170 Cl  0  0  0  0  0
   15.2200    3.7150   12.1070 C   0  0  0  0  0
   15.8000    2.5150   12.4780 C   0  0  0  0  0
   16.2740    2.3400   13.7610 C   0  0  0  0  0
   16.8050    1.0670   14.0700 O   0  0  0  0  0
   17.3990    0.9040   15.3170 C   0  0  0  0  0
   16.3320    0.9650   16.3680 C   0  0  0  0  0
   15.1680    0.3040   16.3900 N   0  0  0  0  0
   14.5290    0.6890   17.5100 N   0  0  0  0  0
   15.2940    1.5450   18.1590 N   0  0  0  0  0
   16.4080    1.7430   17.4500 N   0  0  0  0  0
   16.2000    3.3970   14.6480 C   0  0  0  0  0
   14.8371    3.8402   11.0942 H   0  0  0  0  0
   15.8826    1.7049   11.7534 H   0  0  0  0  0
   18.1306    1.6943   15.4852 H   0  0  0  0  0
   17.9088   -0.0584   15.3618 H   0  0  0  0  0
   16.6138    3.2909   15.6508 H   0  0  0  0  0
  1  2  1  0  0  0
  2  3  4  0  0  0
  2 15  4  0  0  0
  3  4  1  0  0  0
  3  5  4  0  0  0
  5  6  4  0  0  0
  6  7  4  0  0  0
  7  8  1  0  0  0
  7 15  4  0  0  0
  8  9  1  0  0  0
  9 10  1  0  0  0
 10 11  4  0  0  0
 10 14  4  0  0  0
 11 12  4  0  0  0
 12 13  4  0  0  0
 13 14  4  0  0  0
  5 16  1  0  0  0
  6 17  1  0  0  0
  9 18  1  0  0  0
  9 19  1  0  0  0
 15 20  1  0  0  0
M  END
$$$$
