4j5d_ligand
  -I-interpret- 

 50 52  0  0  0  0  0  0  0  0999 V2000
    1.7840   16.5360   20.7500 C   0  0  0  0  0
    1.5920   16.0660   22.0540 C   0  0  0  0  0
    0.5070   15.2420   22.3560 C   0  0  0  0  0
    0.3190   14.7900   23.6030 N   0  0  0  0  0
   -0.3760   14.8870   21.3380 C   0  0  0  0  0
   -0.1810   15.3540   20.0380 C   0  0  0  0  0
    0.8970   16.1780   19.7280 C   0  0  0  0  0
    1.0830   16.6820   18.2770 C   0  0  0  0  0
    1.4320   18.1010   18.3730 N   0  0  0  0  0
    2.5580   18.6070   17.8790 C   0  0  0  0  0
    3.3450   17.9590   17.1850 O   0  0  0  0  0
    2.7190   19.9040   18.0490 N   0  0  0  0  0
    3.9250   20.5390   17.5380 C   0  0  0  0  0
    4.9860   20.5230   18.6530 C   0  0  0  0  0
    4.7490   20.0870   19.7850 O   0  0  0  0  0
    6.2150   20.8190   18.2850 N   0  0  0  0  0
    7.4100   20.6810   19.0830 C   0  0  0  0  0
    8.3620   21.7430   18.5360 C   0  0  0  0  0
    8.2000   21.0060   17.1840 C   0  0  0  0  0
    6.6280   21.1510   16.9290 C   0  0  0  0  0
    6.3550   22.6840   16.8320 C   0  0  0  0  0
    5.9710   23.5720   17.8530 C   0  0  0  0  0
    5.6920   24.9060   17.5630 C   0  0  0  0  0
    5.7000   25.3730   16.2570 C   0  0  0  0  0
    6.0090   24.5020   15.2250 C   0  0  0  0  0
    6.3070   23.1690   15.5050 C   0  0  0  0  0
    6.7050   22.0650   13.9970 Br  0  0  0  0  0
    2.6306   17.1858   20.5284 H   0  0  0  0  0
    2.2946   16.3454   22.8391 H   0  0  0  0  0
    0.9723   15.0476   24.3428 H   0  0  0  0  0
   -0.4774   14.1882   23.8127 H   0  0  0  0  0
   -1.2249   14.2400   21.5590 H   0  0  0  0  0
   -0.8828   15.0696   19.2540 H   0  0  0  0  0
    0.1722   16.5420   17.6948 H   0  0  0  0  0
    1.8651   16.1209   17.7655 H   0  0  0  0  0
    0.7805   18.7310   18.8410 H   0  0  0  0  0
    2.0089   20.4547   18.5316 H   0  0  0  0  0
    3.7106   21.5651   17.2394 H   0  0  0  0  0
    4.2912   19.9997   16.6644 H   0  0  0  0  0
    7.8334   19.6790   19.0136 H   0  0  0  0  0
    7.2096   20.8210   20.1452 H   0  0  0  0  0
    9.3344   21.9506   18.9825 H   0  0  0  0  0
    8.1829   22.8120   18.6509 H   0  0  0  0  0
    8.5452   19.9723   17.2061 H   0  0  0  0  0
    8.8123   21.4220   16.3839 H   0  0  0  0  0
    6.1989   20.6077   16.0871 H   0  0  0  0  0
    5.8910   23.2137   18.8793 H   0  0  0  0  0
    5.4635   25.5945   18.3766 H   0  0  0  0  0
    5.4653   26.4160   16.0445 H   0  0  0  0  0
    6.0192   24.8585   14.1950 H   0  0  0  0  0
  1  2  4  0  0  0
  1  7  4  0  0  0
  2  3  4  0  0  0
  3  4  1  0  0  0
  3  5  4  0  0  0
  5  6  4  0  0  0
  6  7  4  0  0  0
  7  8  1  0  0  0
  8  9  1  0  0  0
  9 10  1  0  0  0
 10 11  2  0  0  0
 10 12  1  0  0  0
 12 13  1  0  0  0
 13 14  1  0  0  0
 14 15  2  0  0  0
 14 16  1  0  0  0
 16 17  1  0  0  0
 16 20  1  0  0  0
 17 18  1  0  0  0
 18 19  1  0  0  0
 19 20  1  0  0  0
 20 21  1  0  0  0
 21 22  4  0  0  0
 21 26  4  0  0  0
 22 23  4  0  0  0
 23 24  4  0  0  0
 24 25  4  0  0  0
 25 26  4  0  0  0
 26 27  1  0  0  0
  1 28  1  0  0  0
  2 29  1  0  0  0
  4 30  1  0  0  0
  4 31  1  0  0  0
  5 32  1  0  0  0
  6 33  1  0  0  0
  8 34  1  0  0  0
  8 35  1  0  0  0
  9 36  1  0  0  0
 12 37  1  0  0  0
 13 38  1  0  0  0
 13 39  1  0  0  0
 17 40  1  0  0  0
 17 41  1  0  0  0
 18 42  1  0  0  0
 18 43  1  0  0  0
 19 44  1  0  0  0
 19 45  1  0  0  0
 20 46  1  0  0  0
 22 47  1  0  0  0
 23 48  1  0  0  0
 24 49  1  0  0  0
 25 50  1  0  0  0
M  END
$$$$
