3mww_ligand
  -I-interpret- 

 65 69  0  0  0  0  0  0  0  0999 V2000
  -24.1970  -17.1140  -30.7020 C   0  0  0  0  0
  -25.5640  -16.6820  -30.6390 C   0  0  0  0  0
  -25.9310  -15.5560  -29.8260 C   0  0  0  0  0
  -24.9300  -14.8660  -29.0860 C   0  0  0  0  0
  -23.5600  -15.3020  -29.1520 C   0  0  0  0  0
  -23.1990  -16.4180  -29.9560 C   0  0  0  0  0
  -27.1650  -14.9330  -29.5890 N   0  0  0  0  0
  -26.9680  -13.8530  -28.6980 C   0  0  0  0  0
  -25.5910  -13.7850  -28.3720 C   0  0  0  0  0
  -24.9180  -12.7520  -27.4310 C   0  0  0  0  0
  -24.4190  -13.3960  -26.1080 C   0  0  0  0  0
  -23.6980  -12.3820  -25.1970 C   0  0  0  0  0
  -22.5450  -11.6570  -25.9200 C   0  0  0  0  0
  -22.9880  -11.0190  -27.2470 C   0  0  0  0  0
  -23.7540  -11.9990  -28.1580 C   0  0  0  0  0
  -27.9990  -12.9520  -28.1970 C   0  0  0  0  0
  -28.8590  -12.1300  -28.9630 C   0  0  0  0  0
  -29.6600  -11.4590  -28.0620 C   0  0  0  0  0
  -29.3420  -11.8210  -26.7830 O   0  0  0  0  0
  -28.3300  -12.7310  -26.8730 C   0  0  0  0  0
  -23.8070  -18.3030  -31.5620 C   0  0  0  0  0
  -22.5830  -18.6480  -31.5900 O   0  0  0  0  0
  -24.7220  -18.9000  -32.2150 O   0  0  0  0  0
  -28.4550  -15.3630  -30.1920 C   0  0  0  0  0
  -28.7160  -14.6990  -31.5660 C   0  0  0  0  0
  -27.7790  -14.2250  -32.2290 O   0  0  0  0  0
  -30.0690  -14.6360  -32.0500 N   0  0  0  0  0
  -31.2100  -15.2150  -31.2750 C   0  0  0  0  0
  -32.4180  -14.2520  -31.1930 C   0  0  0  0  0
  -32.7500  -13.5820  -32.5500 C   0  0  0  0  0
  -31.5090  -12.9780  -33.2360 C   0  0  0  0  0
  -30.3530  -13.9900  -33.3570 C   0  0  0  0  0
  -33.8470  -12.4940  -32.3930 C   0  0  0  0  0
  -33.7240  -11.6300  -31.4640 O   0  0  0  0  0
  -34.8150  -12.5090  -33.2140 O   0  0  0  0  0
  -26.3271  -17.2105  -31.2104 H   0  0  0  0  0
  -22.7950  -14.7740  -28.5827 H   0  0  0  0  0
  -22.1593  -16.7421  -30.0026 H   0  0  0  0  0
  -25.6841  -12.0240  -27.1643 H   0  0  0  0  0
  -23.7106  -14.1844  -26.3625 H   0  0  0  0  0
  -25.2870  -13.7762  -25.5693 H   0  0  0  0  0
  -23.2762  -12.9278  -24.3530 H   0  0  0  0  0
  -24.4252  -11.6320  -24.8860 H   0  0  0  0  0
  -21.7730  -12.3935  -26.1430 H   0  0  0  0  0
  -22.1879  -10.8603  -25.2674 H   0  0  0  0  0
  -22.0914  -10.7014  -27.7793 H   0  0  0  0  0
  -23.6571  -10.1914  -27.0114 H   0  0  0  0  0
  -24.1964  -11.4160  -28.9658 H   0  0  0  0  0
  -23.0426  -12.7505  -28.5005 H   0  0  0  0  0
  -28.8838  -12.0439  -30.0493 H   0  0  0  0  0
  -30.4358  -10.7424  -28.3317 H   0  0  0  0  0
  -27.8505  -13.2151  -26.0222 H   0  0  0  0  0
  -25.5649  -18.4727  -32.0461 H   0  0  0  0  0
  -29.2578  -15.0667  -29.5168 H   0  0  0  0  0
  -28.4138  -16.4419  -30.3417 H   0  0  0  0  0
  -30.8638  -15.4082  -30.2596 H   0  0  0  0  0
  -31.5365  -16.1222  -31.7834 H   0  0  0  0  0
  -32.1661  -13.4623  -30.4852 H   0  0  0  0  0
  -33.2874  -14.8346  -30.8884 H   0  0  0  0  0
  -33.1277  -14.3782  -33.1915 H   0  0  0  0  0
  -31.1624  -12.1413  -32.6295 H   0  0  0  0  0
  -31.7956  -12.6718  -34.2421 H   0  0  0  0  0
  -30.6380  -14.7612  -34.0727 H   0  0  0  0  0
  -29.4589  -13.4605  -33.6860 H   0  0  0  0  0
  -32.9225  -11.8084  -30.9667 H   0  0  0  0  0
  1  2  4  0  0  0
  1  6  4  0  0  0
  1 21  1  0  0  0
  2  3  4  0  0  0
  3  4  4  0  0  0
  3  7  4  0  0  0
  4  5  4  0  0  0
  4  9  4  0  0  0
  5  6  4  0  0  0
  7  8  4  0  0  0
  7 24  1  0  0  0
  8  9  4  0  0  0
  8 16  1  0  0  0
  9 10  1  0  0  0
 10 11  1  0  0  0
 10 15  1  0  0  0
 11 12  1  0  0  0
 12 13  1  0  0  0
 13 14  1  0  0  0
 14 15  1  0  0  0
 16 17  4  0  0  0
 16 20  4  0  0  0
 17 18  4  0  0  0
 18 19  4  0  0  0
 19 20  4  0  0  0
 21 22  2  0  0  0
 21 23  1  0  0  0
 24 25  1  0  0  0
 25 26  2  0  0  0
 25 27  1  0  0  0
 27 28  1  0  0  0
 27 32  1  0  0  0
 28 29  1  0  0  0
 29 30  1  0  0  0
 30 31  1  0  0  0
 30 33  1  0  0  0
 31 32  1  0  0  0
 33 34  1  0  0  0
 33 35  2  0  0  0
  2 36  1  0  0  0
  5 37  1  0  0  0
  6 38  1  0  0  0
 10 39  1  0  0  0
 11 40  1  0  0  0
 11 41  1  0  0  0
 12 42  1  0  0  0
 12 43  1  0  0  0
 13 44  1  0  0  0
 13 45  1  0  0  0
 14 46  1  0  0  0
 14 47  1  0  0  0
 15 48  1  0  0  0
 15 49  1  0  0  0
 17 50  1  0  0  0
 18 51  1  0  0  0
 20 52  1  0  0  0
 23 53  1  0  0  0
 24 54  1  0  0  0
 24 55  1  0  0  0
 28 56  1  0  0  0
 28 57  1  0  0  0
 29 58  1  0  0  0
 29 59  1  0  0  0
 30 60  1  0  0  0
 31 61  1  0  0  0
 31 62  1  0  0  0
 32 63  1  0  0  0
 32 64  1  0  0  0
 34 65  1  0  0  0
M  END
$$$$
