5hz9_ligand
  -I-interpret- 

 33 35  0  0  0  0  0  0  0  0999 V2000
  -14.7580   48.4690  -40.6700 C   0  0  0  0  0
  -13.0990   48.3380  -39.0390 C   0  0  0  0  0
  -14.9900   50.4310  -42.1980 C   0  0  0  0  0
  -11.4290   50.1240  -38.6920 C   0  0  0  0  0
  -13.1000   52.7840  -40.1210 C   0  0  0  0  0
  -12.6330   54.0470  -40.4860 C   0  0  0  0  0
  -11.7840   54.1880  -41.5960 C   0  0  0  0  0
  -14.2870   49.7740  -41.0830 C   0  0  0  0  0
  -13.1960   50.3370  -40.4690 C   0  0  0  0  0
  -12.5630   49.6200  -39.3920 C   0  0  0  0  0
  -14.1850   47.7830  -39.6850 N   0  0  0  0  0
  -12.7040   51.6560  -40.8700 C   0  0  0  0  0
  -14.7530   50.3020  -43.4040 O   0  0  0  0  0
  -12.4810   47.5980  -37.9820 C   0  0  0  0  0
  -10.8600   49.3790  -37.6780 C   0  0  0  0  0
  -16.0360   51.2550  -41.8660 O   0  0  0  0  0
  -11.3880   48.1090  -37.3220 C   0  0  0  0  0
   -9.5040   49.9440  -36.8200 Cl  0  0  0  0  0
  -15.9480   47.9150  -41.4000 C   0  0  0  0  0
  -11.8540   51.7980  -41.9830 C   0  0  0  0  0
  -11.3910   53.0680  -42.3400 C   0  0  0  0  0
  -11.0115   51.0956  -38.9563 H   0  0  0  0  0
  -13.7648   52.6698  -39.2648 H   0  0  0  0  0
  -12.9270   54.9243  -39.9098 H   0  0  0  0  0
  -11.4277   55.1779  -41.8811 H   0  0  0  0  0
  -12.8787   46.6236  -37.6982 H   0  0  0  0  0
  -16.1301   51.2819  -40.9110 H   0  0  0  0  0
  -10.9234   47.5355  -36.5199 H   0  0  0  0  0
  -16.7958   48.5883  -41.2738 H   0  0  0  0  0
  -15.7113   47.8215  -42.4599 H   0  0  0  0  0
  -16.1974   46.9346  -40.9942 H   0  0  0  0  0
  -11.5587   50.9235  -42.5628 H   0  0  0  0  0
  -10.7257   53.1864  -43.1953 H   0  0  0  0  0
  8  1  4  0  0  0
  1 11  4  0  0  0
  1 19  1  0  0  0
 10  2  4  0  0  0
  2 11  4  0  0  0
  2 14  4  0  0  0
  8  3  1  0  0  0
  3 13  2  0  0  0
  3 16  1  0  0  0
 10  4  4  0  0  0
  4 15  4  0  0  0
  5  6  4  0  0  0
 12  5  4  0  0  0
  6  7  4  0  0  0
  7 21  4  0  0  0
  9  8  4  0  0  0
  9 10  4  0  0  0
  9 12  1  0  0  0
 12 20  4  0  0  0
 14 17  4  0  0  0
 15 17  4  0  0  0
 15 18  1  0  0  0
 20 21  4  0  0  0
  4 22  1  0  0  0
  5 23  1  0  0  0
  6 24  1  0  0  0
  7 25  1  0  0  0
 14 26  1  0  0  0
 16 27  1  0  0  0
 17 28  1  0  0  0
 19 29  1  0  0  0
 19 30  1  0  0  0
 19 31  1  0  0  0
 20 32  1  0  0  0
 21 33  1  0  0  0
M  END
$$$$
