#	Name:			4kb7_ligand
#	Creating user name:	wangrx
#	Creation time:		Wed Aug  4 17:49:51 2021

#	Modifying user name:	wangrx
#	Modification time:	Wed Aug  4 17:50:31 2021

@<TRIPOS>MOLECULE
4kb7_ligand
   69    74     1     0     0
SMALL
GAST_HUCK


@<TRIPOS>ATOM
      1 O27         6.2950   43.5230   55.2640 O.2       1 690        -0.1501 
      2 S24         6.2080   44.2960   54.0560 S.o2      1 690         0.0584 
      3 O26         4.8150   44.5100   53.7770 O.2       1 690        -0.1501 
      4 C25         6.9260   45.7600   54.3020 C.3       1 690         0.0788 
      5 N11         6.9440   43.4090   52.9070 N.am      1 690        -0.1835 
      6 C10         6.0230   42.9840   51.8990 C.ar      1 690         0.0615 
      7 C9          5.4220   41.7580   52.2010 C.ar      1 690        -0.0185 
      8 C8          4.5230   41.1970   51.3220 C.ar      1 690         0.1076 
      9 O7          3.8990   40.0510   51.5160 O.3       1 690        -0.2558 
     10 C28         5.7040   43.6440   50.6820 C.ar      1 690        -0.0306 
     11 C31         6.3270   44.9570   50.3200 C.3       1 690        -0.0149 
     12 C32         5.6900   45.8420   49.2440 C.3       1 690        -0.0417 
     13 C33         6.9500   45.0400   48.9290 C.3       1 690        -0.0417 
     14 C29         4.7830   43.0470   49.7990 C.ar      1 690        -0.0769 
     15 C30         4.2150   41.8290   50.1450 C.ar      1 690        -0.0105 
     16 C5          3.2290   40.8950   49.5430 C.2       1 690         0.0616 
     17 C3          2.6230   41.1750   48.2100 C.2       1 690         0.1818 
     18 N2          2.7240   40.2230   47.2770 N.am      1 690        -0.2944 
     19 C1          2.1850   40.3770   45.9380 C.3       1 690         0.0183 
     20 O4          2.0870   42.2480   47.9950 O.2       1 690        -0.4005 
     21 C6          3.0730   39.7310   50.4710 C.2       1 690         0.1385 
     22 C34         2.2130   38.5260   50.4190 C.ar      1 690         0.0156 
     23 C35         1.0520   38.5040   49.6500 C.ar      1 690        -0.0518 
     24 C36         0.2470   37.3680   49.6520 C.ar      1 690        -0.0267 
     25 C40         2.5440   37.4400   51.2200 C.ar      1 690        -0.0518 
     26 C39         1.7380   36.3100   51.2240 C.ar      1 690        -0.0267 
     27 C37         0.5910   36.2730   50.4380 C.ar      1 690         0.1336 
     28 F38        -0.1870   35.1800   50.4480 F         1 690        -0.1823 
     29 C12         8.2230   43.9370   52.3380 C.3       1 690         0.0549 
     30 C13         9.4110   43.1200   52.8370 C.3       1 690        -0.0337 
     31 C14        10.7220   43.3680   52.0760 C.3       1 690        -0.1070 
     32 O15        10.5460   43.8450   50.7290 O.3       1 690        -0.8431 
     33 B16        11.4120   44.9570   50.4360 B         1 690         3.0000 
     34 O17        12.3440   44.8620   49.2220 O.3       1 690        -0.4105 
     35 C18        12.0000   45.3170   51.7500 C.ar      1 690        -0.1874 
     36 C19        12.8300   46.3840   52.0740 C.ar      1 690        -0.1858 
     37 C20        13.2570   46.5060   53.4000 C.ar      1 690        -0.1687 
     38 C21        12.8480   45.5750   54.3630 C.ar      1 690        -0.1827 
     39 C22        12.0110   44.5150   54.0070 C.ar      1 690        -0.1762 
     40 C23        11.5900   44.4080   52.6840 C.ar      1 690        -0.1578 
     41 H1          7.9947   45.6127   54.5171 H         1 690         0.0487 
     42 H2          6.4468   46.2650   55.1537 H         1 690         0.0487 
     43 H3          6.8156   46.3789   53.3993 H         1 690         0.0487 
     44 H4          5.6639   41.2493   53.1272 H         1 690         0.0386 
     45 H5          6.8108   45.4114   51.1972 H         1 690         0.0420 
     46 H6          5.7422   46.9373   49.3305 H         1 690         0.0287 
     47 H7          4.7282   45.5551   48.7939 H         1 690         0.0287 
     48 H8          6.8958   44.1760   48.2504 H         1 690         0.0287 
     49 H9          7.9098   45.5582   48.7870 H         1 690         0.0287 
     50 H10         4.5223   43.5310   48.8647 H         1 690         0.0448 
     51 H11         3.1900   39.3697   47.5111 H         1 690         0.1829 
     52 H12         2.3892   39.4676   45.3538 H         1 690         0.0482 
     53 H13         2.6588   41.2410   45.4491 H         1 690         0.0482 
     54 H14         1.0986   40.5390   45.9964 H         1 690         0.0482 
     55 H15         0.7767   39.3662   49.0534 H         1 690         0.0619 
     56 H16        -0.6479   37.3368   49.0410 H         1 690         0.0607 
     57 H17         3.4314   37.4752   51.8416 H         1 690         0.0619 
     58 H18         2.0021   35.4573   51.8390 H         1 690         0.0607 
     59 H19         8.3502   44.9852   52.6463 H         1 690         0.0553 
     60 H20         8.1809   43.8802   51.2403 H         1 690         0.0553 
     61 H21         9.1572   42.0537   52.7447 H         1 690         0.0298 
     62 H22         9.5769   43.3672   53.8959 H         1 690         0.0298 
     63 H23        11.2654   42.4119   52.0523 H         1 690         0.0263 
     64 H25        11.8256   44.7447   48.4346 H         1 690         0.2052 
     65 H26        11.8256   44.7447   48.4346 H         1 690         0.2052 
     66 H28        13.1372   47.1005   51.3208 H         1 690        -0.0149 
     67 H29        13.9077   47.3252   53.6839 H         1 690         0.0333 
     68 H30        13.1824   45.6775   55.3890 H         1 690        -0.0146 
     69 H31        11.6949   43.7888   54.7472 H         1 690        -0.0190 
@<TRIPOS>BOND
     1    1    2 2    
     2    2    3 2    
     3    2    4 1    
     4    2    5 am   
     5    5    6 1    
     6    5   29 1    
     7    6    7 ar   
     8    6   10 ar   
     9    7    8 ar   
    10    8    9 1    
    11    8   15 ar   
    12    9   21 1    
    13   10   11 1    
    14   10   14 ar   
    15   11   12 1    
    16   11   13 1    
    17   12   13 1    
    18   14   15 ar   
    19   15   16 1    
    20   16   17 1    
    21   16   21 2    
    22   17   18 am   
    23   17   20 2    
    24   18   19 1    
    25   21   22 1    
    26   22   23 ar   
    27   22   25 ar   
    28   23   24 ar   
    29   24   27 ar   
    30   25   26 ar   
    31   26   27 ar   
    32   27   28 1    
    33   29   30 1    
    34   30   31 1    
    35   31   32 1    
    36   31   40 1    
    37   32   33 1    
    38   33   34 1    
    39   33   35 1    
    40   35   36 ar   
    41   35   40 ar   
    42   36   37 ar   
    43   37   38 ar   
    44   38   39 ar   
    45   39   40 ar   
    46    4   41 1    
    47    4   42 1    
    48    4   43 1    
    49    7   44 1    
    50   11   45 1    
    51   12   46 1    
    52   12   47 1    
    53   13   48 1    
    54   13   49 1    
    55   14   50 1    
    56   18   51 1    
    57   19   52 1    
    58   19   53 1    
    59   19   54 1    
    60   23   55 1    
    61   24   56 1    
    62   25   57 1    
    63   26   58 1    
    64   29   59 1    
    65   29   60 1    
    66   30   61 1    
    67   30   62 1    
    68   31   63 1    
    69   34   64 1    
    70   34   65 1    
    71   36   66 1    
    72   37   67 1    
    73   38   68 1    
    74   39   69 1    
@<TRIPOS>SUBSTRUCTURE
     1 690         1 PERM              0 ****  ****    0 ROOT 
