4kb7_ligand

Created by X-TOOL on Fri Nov 18 17:36:01 2016
 71 76  0  0  0  0  0  0  0  0999 V2000
    6.2950   43.5230   55.2640  O 0  0  0  1  0  1
    6.2080   44.2960   54.0560  S 0  0  0  1  0  4
    4.8150   44.5100   53.7770  O 0  0  0  1  0  1
    6.9260   45.7600   54.3020  C 0  0  0  4  0  4
    6.9440   43.4090   52.9070  N 0  0  0  1  0  3
    6.0230   42.9840   51.8990  C 0  0  0  1  0  3
    5.4220   41.7580   52.2010  C 0  0  0  2  0  3
    4.5230   41.1970   51.3220  C 0  0  0  1  0  3
    3.8990   40.0510   51.5160  O 0  0  0  1  0  2
    5.7040   43.6440   50.6820  C 0  0  0  1  0  3
    6.3270   44.9570   50.3200  C 0  0  0  2  0  4
    5.6900   45.8420   49.2440  C 0  0  0  3  0  4
    6.9500   45.0400   48.9290  C 0  0  0  3  0  4
    4.7830   43.0470   49.7990  C 0  0  0  2  0  3
    4.2150   41.8290   50.1450  C 0  0  0  1  0  3
    3.2290   40.8950   49.5430  C 0  0  0  1  0  3
    2.6230   41.1750   48.2100  C 0  0  0  1  0  3
    2.7240   40.2230   47.2770  N 0  0  0  2  0  3
    2.1850   40.3770   45.9380  C 0  0  0  4  0  4
    2.0870   42.2480   47.9950  O 0  0  0  1  0  1
    3.0730   39.7310   50.4710  C 0  0  0  1  0  3
    2.2130   38.5260   50.4190  C 0  0  0  1  0  3
    1.0520   38.5040   49.6500  C 0  0  0  2  0  3
    0.2470   37.3680   49.6520  C 0  0  0  2  0  3
    2.5440   37.4400   51.2200  C 0  0  0  2  0  3
    1.7380   36.3100   51.2240  C 0  0  0  2  0  3
    0.5910   36.2730   50.4380  C 0  0  0  1  0  3
   -0.1870   35.1800   50.4480  F 0  0  0  1  0  1
    8.2230   43.9370   52.3380  C 0  0  0  3  0  4
    9.4110   43.1200   52.8370  C 0  0  0  3  0  4
   10.7220   43.3680   52.0760  C 0  0  0  2  0  4
   10.5460   43.8450   50.7290  O 0  0  0  2  0  3
   11.4120   44.9570   50.4360  B 0  0  0  1  0  3
   12.3440   44.8620   49.2220  O 0  0  0  3  0  3
   12.0000   45.3170   51.7500  C 0  0  0  2  0  4
   12.8300   46.3840   52.0740  C 0  0  0  2  0  3
   13.2570   46.5060   53.4000  C 0  0  0  2  0  3
   12.8480   45.5750   54.3630  C 0  0  0  2  0  3
   12.0110   44.5150   54.0070  C 0  0  0  2  0  3
   11.5900   44.4080   52.6840  C 0  0  0  1  0  3
    7.9947   45.6127   54.5171  H 0  0  0  1  0  1
    6.4468   46.2650   55.1537  H 0  0  0  1  0  1
    6.8156   46.3789   53.3993  H 0  0  0  1  0  1
    5.6639   41.2493   53.1272  H 0  0  0  1  0  1
    6.8108   45.4114   51.1972  H 0  0  0  1  0  1
    5.7422   46.9373   49.3305  H 0  0  0  1  0  1
    4.7282   45.5551   48.7939  H 0  0  0  1  0  1
    6.8958   44.1760   48.2504  H 0  0  0  1  0  1
    7.9098   45.5582   48.7870  H 0  0  0  1  0  1
    4.5223   43.5310   48.8647  H 0  0  0  1  0  1
    3.1900   39.3697   47.5111  H 0  0  0  1  0  1
    2.3892   39.4676   45.3538  H 0  0  0  1  0  1
    2.6588   41.2410   45.4491  H 0  0  0  1  0  1
    1.0986   40.5390   45.9964  H 0  0  0  1  0  1
    0.7767   39.3662   49.0534  H 0  0  0  1  0  1
   -0.6479   37.3368   49.0410  H 0  0  0  1  0  1
    3.4314   37.4752   51.8416  H 0  0  0  1  0  1
    2.0021   35.4573   51.8390  H 0  0  0  1  0  1
    8.3502   44.9852   52.6463  H 0  0  0  1  0  1
    8.1809   43.8802   51.2403  H 0  0  0  1  0  1
    9.1572   42.0537   52.7447  H 0  0  0  1  0  1
    9.5769   43.3672   53.8959  H 0  0  0  1  0  1
   11.2654   42.4119   52.0523  H 0  0  0  1  0  1
   11.3967   43.9739   50.3262  H 0  0  0  1  0  1
   11.8256   44.7447   48.4346  H 0  0  0  1  0  1
   11.8256   44.7447   48.4346  H 0  0  0  1  0  1
   11.6678   45.2026   50.7245  H 0  0  0  1  0  1
   13.1372   47.1005   51.3208  H 0  0  0  1  0  1
   13.9077   47.3252   53.6839  H 0  0  0  1  0  1
   13.1824   45.6775   55.3890  H 0  0  0  1  0  1
   11.6949   43.7888   54.7472  H 0  0  0  1  0  1
  1  2  2  0  0  2
  2  3  2  0  0  2
  2  4  1  0  0  2
  2  5  1  0  0  2
  5  6  1  0  0  2
  5 29  1  0  0  2
  6  7  4  0  0  1
  6 10  4  0  0  1
  7  8  4  0  0  1
  8  9  1  0  0  1
  8 15  4  0  0  1
  9 21  1  0  0  1
 10 11  1  0  0  2
 10 14  4  0  0  1
 11 12  1  0  0  1
 11 13  1  0  0  1
 12 13  1  0  0  1
 14 15  4  0  0  1
 15 16  1  0  0  1
 16 17  1  0  0  2
 16 21  2  0  0  1
 17 18  1  0  0  2
 17 20  2  0  0  2
 18 19  1  0  0  2
 21 22  1  0  0  2
 22 23  4  0  0  1
 22 25  4  0  0  1
 23 24  4  0  0  1
 24 27  4  0  0  1
 25 26  4  0  0  1
 26 27  4  0  0  1
 27 28  1  0  0  2
 29 30  1  0  0  2
 30 31  1  0  0  2
 31 32  1  0  0  1
 31 40  1  0  0  1
 32 33  1  0  0  1
 33 34  1  0  0  2
 33 35  1  0  0  1
 35 36  4  0  0  1
 35 40  4  0  0  1
 36 37  4  0  0  1
 37 38  4  0  0  1
 38 39  4  0  0  1
 39 40  4  0  0  1
  4 41  1  0  0  2
  4 42  1  0  0  2
  4 43  1  0  0  2
  7 44  1  0  0  2
 11 45  1  0  0  2
 12 46  1  0  0  2
 12 47  1  0  0  2
 13 48  1  0  0  2
 13 49  1  0  0  2
 14 50  1  0  0  2
 18 51  1  0  0  2
 19 52  1  0  0  2
 19 53  1  0  0  2
 19 54  1  0  0  2
 23 55  1  0  0  2
 24 56  1  0  0  2
 25 57  1  0  0  2
 26 58  1  0  0  2
 29 59  1  0  0  2
 29 60  1  0  0  2
 30 61  1  0  0  2
 30 62  1  0  0  2
 31 63  1  0  0  2
 32 64  1  0  0  2
 34 65  1  0  0  2
 34 66  1  0  0  2
 35 67  1  0  0  2
 36 68  1  0  0  2
 37 69  1  0  0  2
 38 70  1  0  0  2
 39 71  1  0  0  2
M  END
> <MOLECULAR_FORMULA>
C29H31N2O6SFB

> <MOLECULAR_WEIGHT>
565.2

> <NUM_HB_ATOMS>
6  

> <NUM_ROTOR>
4  

> <XLOGP2>
5.16 

$$$$
