1o3b_ligand
  -I-interpret- 

 40 43  0  0  0  0  0  0  0  0999 V2000
   44.3240   -2.9170   26.5310 C   0  0  0  0  0
   44.7870   -1.5640   26.5240 C   0  0  0  0  0
   44.7780   -0.7470   27.6710 C   0  0  0  0  0
   44.3040   -1.3040   28.8230 C   0  0  0  0  0
   43.8610   -2.5680   28.8750 C   0  0  0  0  0
   43.8470   -3.4190   27.7680 C   0  0  0  0  0
   44.3460   -3.6970   25.3680 C   0  0  0  0  0
   44.1500   -4.9930   25.4240 N   0  0  0  0  0
   44.5590   -3.1040   24.2170 N   0  0  0  0  0
   44.1900   -0.8020   30.0110 N   0  0  0  0  0
   43.4640   -2.9130   30.0810 N   0  0  0  0  0
   43.6990   -1.7780   30.7160 C   0  0  0  0  0
   43.3550   -1.6750   32.0630 C   0  0  0  0  0
   43.0420   -2.8080   32.8140 C   0  0  0  0  0
   42.6950   -2.7250   34.1500 C   0  0  0  0  0
   42.6490   -1.4910   34.7670 C   0  0  0  0  0
   42.9520   -0.3070   34.0770 C   0  0  0  0  0
   43.3020   -0.4460   32.7150 C   0  0  0  0  0
   43.6250    0.6460   31.9490 O   0  0  0  0  0
   42.8910    0.9280   34.7500 C   0  0  0  0  0
   43.9520    1.8180   34.7220 C   0  0  0  0  0
   43.9300    3.0260   35.3780 C   0  0  0  0  0
   42.8160    3.3890   36.1030 C   0  0  0  0  0
   41.7270    2.5380   36.1640 C   0  0  0  0  0
   41.7680    1.3200   35.4940 C   0  0  0  0  0
   45.1634   -1.1468   25.5900 H   0  0  0  0  0
   45.1333    0.2830   27.6400 H   0  0  0  0  0
   43.4793   -4.4416   27.8527 H   0  0  0  0  0
   44.1624   -5.5481   24.5684 H   0  0  0  0  0
   44.5732   -3.6512   23.3563 H   0  0  0  0  0
   44.7104   -2.0959   24.1830 H   0  0  0  0  0
   43.0718   -3.7863   32.3343 H   0  0  0  0  0
   42.4592   -3.6284   34.7125 H   0  0  0  0  0
   42.3697   -1.4346   35.8191 H   0  0  0  0  0
   43.5597    1.4409   32.4833 H   0  0  0  0  0
   44.8433    1.5489   34.1551 H   0  0  0  0  0
   44.7900    3.6936   35.3248 H   0  0  0  0  0
   42.7928    4.3444   36.6272 H   0  0  0  0  0
   40.8419    2.8205   36.7339 H   0  0  0  0  0
   40.9069    0.6539   35.5482 H   0  0  0  0  0
  1  2  4  0  0  0
  1  6  4  0  0  0
  1  7  1  0  0  0
  2  3  4  0  0  0
  3  4  4  0  0  0
  4  5  4  0  0  0
  4 10  4  0  0  0
  5  6  4  0  0  0
  5 11  4  0  0  0
  7  8  2  0  0  0
  7  9  1  0  0  0
 10 12  4  0  0  0
 11 12  4  0  0  0
 12 13  1  0  0  0
 13 14  4  0  0  0
 13 18  4  0  0  0
 14 15  4  0  0  0
 15 16  4  0  0  0
 16 17  4  0  0  0
 17 18  4  0  0  0
 17 20  1  0  0  0
 18 19  1  0  0  0
 20 21  4  0  0  0
 20 25  4  0  0  0
 21 22  4  0  0  0
 22 23  4  0  0  0
 23 24  4  0  0  0
 24 25  4  0  0  0
  2 26  1  0  0  0
  3 27  1  0  0  0
  6 28  1  0  0  0
  8 29  1  0  0  0
  9 30  1  0  0  0
  9 31  1  0  0  0
 14 32  1  0  0  0
 15 33  1  0  0  0
 16 34  1  0  0  0
 19 35  1  0  0  0
 21 36  1  0  0  0
 22 37  1  0  0  0
 23 38  1  0  0  0
 24 39  1  0  0  0
 25 40  1  0  0  0
M  END
$$$$
