1oim_ligand
  -I-interpret- 

 25 25  0  0  0  0  0  0  0  0999 V2000
   -0.3660   10.9440   10.7940 C   0  0  0  0  0
    0.5220   11.6790    9.7710 C   0  0  0  0  0
    0.9600   12.8910   10.3390 O   0  0  0  0  0
   -0.1110   11.9170    8.3970 C   0  0  0  0  0
    1.0000   12.1960    7.5150 O   0  0  0  0  0
   -0.9790   10.6840    8.0220 C   0  0  0  0  0
   -1.3350   10.7820    6.6500 O   0  0  0  0  0
   -2.1680   10.6310    9.0120 C   0  0  0  0  0
   -1.7200   10.5370   10.4240 N   0  3  0  0  0
   -3.1220    9.4430    8.8140 C   0  0  0  0  0
   -2.4070    8.2240    8.9100 O   0  0  0  0  0
   -0.5077   11.6640   11.6000 H   0  0  0  0  0
    0.1575   10.0077   10.9875 H   0  0  0  0  0
    1.3595   11.0136    9.5613 H   0  0  0  0  0
    1.3523   12.7173   11.1978 H   0  0  0  0  0
   -0.8036   12.7571    8.3461 H   0  0  0  0  0
    1.4705   12.9711    7.8302 H   0  0  0  0  0
   -0.4519    9.7349    8.1192 H   0  0  0  0  0
   -0.5384   10.8088    6.1150 H   0  0  0  0  0
   -2.6900   11.5639    8.7993 H   0  0  0  0  0
   -2.3260   11.1860   10.9260 H   0  0  0  0  0
   -1.7512    9.5393   10.6340 H   0  0  0  0  0
   -3.5802    9.5125    7.8274 H   0  0  0  0  0
   -3.8908    9.4688    9.5862 H   0  0  0  0  0
   -3.0117    7.4889    8.7849 H   0  0  0  0  0
  1  2  1  0  0  0
  1  9  1  0  0  0
  2  3  1  0  0  0
  2  4  1  0  0  0
  4  5  1  0  0  0
  4  6  1  0  0  0
  6  7  1  0  0  0
  6  8  1  0  0  0
  8  9  1  0  0  0
  8 10  1  0  0  0
 10 11  1  0  0  0
  1 12  1  0  0  0
  1 13  1  0  0  0
  2 14  1  0  0  0
  3 15  1  0  0  0
  4 16  1  0  0  0
  5 17  1  0  0  0
  6 18  1  0  0  0
  7 19  1  0  0  0
  8 20  1  0  0  0
  9 21  1  0  0  0
  9 22  1  0  0  0
 10 23  1  0  0  0
 10 24  1  0  0  0
 11 25  1  0  0  0
M  END
$$$$
