4b14_ligand
  -I-interpret- 

 55 58  0  0  0  0  0  0  0  0999 V2000
   25.5030   41.9930   63.8030 C   0  0  0  0  0
   26.3190   40.7780   68.1080 N   0  3  0  0  0
   22.0240   42.1460   62.4870 O   0  0  0  0  0
   24.0760   41.8180   63.4030 C   0  0  0  0  0
   24.7130   39.3240   65.1470 O   0  0  0  0  0
   23.2470   42.6710   62.5790 C   0  0  0  0  0
   22.6350   44.6690   61.5770 O   0  0  0  0  0
   22.0470   40.9840   63.1660 C   0  0  0  0  0
   20.9350   40.0730   63.3620 C   0  0  0  0  0
   21.1500   38.9390   64.1180 C   0  0  0  0  0
   22.3800   38.6680   64.7400 C   0  0  0  0  0
   23.4660   39.5620   64.5560 C   0  0  0  0  0
   24.9390   38.8270   66.4830 C   0  0  0  0  0
   26.3830   38.5050   66.9500 C   0  0  0  0  0
   27.1260   39.7210   67.4840 C   0  0  0  0  0
   24.9130   40.9680   67.7230 C   0  0  0  0  0
   24.2180   39.6640   67.5090 C   0  0  0  0  0
   23.2780   40.7230   63.8040 C   0  0  0  0  0
   23.5360   43.9810   61.9530 C   0  0  0  0  0
   21.2370   48.6840   63.3420 C   0  0  0  0  0
   25.0160   45.7850   61.3960 C   0  0  0  0  0
   24.9490   46.6880   62.5870 C   0  0  0  0  0
   26.0570   46.9690   63.4060 C   0  0  0  0  0
   25.8970   47.7910   64.5230 C   0  0  0  0  0
   24.6610   48.3810   64.8340 C   0  0  0  0  0
   23.5830   48.0680   63.9770 C   0  0  0  0  0
   23.7260   47.2480   62.8780 C   0  0  0  0  0
   22.3550   48.5960   64.2320 O   0  0  0  0  0
   24.8860   44.4620   61.8410 O   0  0  0  0  0
   26.1277   42.0264   62.9104 H   0  0  0  0  0
   25.6116   42.9242   64.3591 H   0  0  0  0  0
   25.8084   41.1558   64.4306 H   0  0  0  0  0
   26.7766   41.6443   67.8241 H   0  0  0  0  0
   26.2766   40.5138   69.0923 H   0  0  0  0  0
   19.9580   40.2785   62.9247 H   0  0  0  0  0
   20.3341   38.2261   64.2372 H   0  0  0  0  0
   22.4990   37.7785   65.3587 H   0  0  0  0  0
   24.5115   37.8276   66.4023 H   0  0  0  0  0
   26.9345   38.1343   66.0860 H   0  0  0  0  0
   26.3139   37.7785   67.7596 H   0  0  0  0  0
   27.7823   39.3462   68.2694 H   0  0  0  0  0
   27.6007   40.1824   66.6180 H   0  0  0  0  0
   24.8855   41.5292   66.7890 H   0  0  0  0  0
   24.4054   41.4997   68.5278 H   0  0  0  0  0
   24.1996   39.1194   68.4530 H   0  0  0  0  0
   23.2078   39.8617   67.1505 H   0  0  0  0  0
   21.5147   49.2748   62.4691 H   0  0  0  0  0
   20.9457   47.6822   63.0265 H   0  0  0  0  0
   20.4024   49.1618   63.8552 H   0  0  0  0  0
   25.9675   45.9150   60.8805 H   0  0  0  0  0
   24.2143   46.0258   60.6978 H   0  0  0  0  0
   27.0343   46.5478   63.1703 H   0  0  0  0  0
   26.7534   47.9798   65.1704 H   0  0  0  0  0
   24.5403   49.0445   65.6903 H   0  0  0  0  0
   22.8681   47.0426   62.2378 H   0  0  0  0  0
  4  1  1  0  0  0
 15  2  1  0  0  0
 16  2  1  0  0  0
  6  3  4  0  0  0
  3  8  4  0  0  0
  6  4  4  0  0  0
  4 18  4  0  0  0
 12  5  1  0  0  0
  5 13  1  0  0  0
 19  6  1  0  0  0
 19  7  2  0  0  0
  8  9  4  0  0  0
 18  8  4  0  0  0
  9 10  4  0  0  0
 11 10  4  0  0  0
 12 11  4  0  0  0
 18 12  4  0  0  0
 13 14  1  0  0  0
 13 17  1  0  0  0
 14 15  1  0  0  0
 17 16  1  0  0  0
 29 19  1  0  0  0
 28 20  1  0  0  0
 22 21  1  0  0  0
 21 29  1  0  0  0
 22 23  4  0  0  0
 27 22  4  0  0  0
 24 23  4  0  0  0
 25 24  4  0  0  0
 26 25  4  0  0  0
 26 27  4  0  0  0
 26 28  1  0  0  0
  1 30  1  0  0  0
  1 31  1  0  0  0
  1 32  1  0  0  0
  2 33  1  0  0  0
  2 34  1  0  0  0
  9 35  1  0  0  0
 10 36  1  0  0  0
 11 37  1  0  0  0
 13 38  1  0  0  0
 14 39  1  0  0  0
 14 40  1  0  0  0
 15 41  1  0  0  0
 15 42  1  0  0  0
 16 43  1  0  0  0
 16 44  1  0  0  0
 17 45  1  0  0  0
 17 46  1  0  0  0
 20 47  1  0  0  0
 20 48  1  0  0  0
 20 49  1  0  0  0
 21 50  1  0  0  0
 21 51  1  0  0  0
 23 52  1  0  0  0
 24 53  1  0  0  0
 25 54  1  0  0  0
 27 55  1  0  0  0
M  END
$$$$
