2w9r_ligand
  -I-interpret- 

190190  0  0  0  0  0  0  0  0999 V2000
   18.5670    8.8870    1.1320 N   0  3  0  0  0
   18.2180    7.8270    2.1260 C   0  0  0  0  0
   17.1500    8.3720    3.0810 C   0  0  0  0  0
   16.8390    9.5700    3.0500 O   0  0  0  0  0
   19.4560    7.4100    2.9260 C   0  0  0  0  0
   20.6510    6.9550    2.0930 C   0  0  0  0  0
   21.8730    6.7290    2.9660 C   0  0  0  0  0
   20.2880    5.7020    1.2830 C   0  0  0  0  0
   16.5890    7.4850    3.8990 N   0  0  0  0  0
   15.5290    7.8560    4.8480 C   0  0  0  0  0
   16.0820    8.0000    6.2630 C   0  0  0  0  0
   16.6180    7.0460    6.8450 O   0  0  0  0  0
   14.3300    6.8630    4.8160 C   0  0  0  0  0
   13.2480    7.2610    5.8340 C   0  0  0  0  0
   13.7350    6.7980    3.4210 C   0  0  0  0  0
   15.9370    9.2060    6.8080 N   0  0  0  0  0
   16.3680    9.4970    8.1710 C   0  0  0  0  0
   15.3870    8.9020    9.1770 C   0  0  0  0  0
   14.1770    8.9150    8.9470 O   0  0  0  0  0
   16.4910   11.0080    8.3600 C   0  0  0  0  0
   17.1320   11.4280    9.6720 C   0  0  0  0  0
   17.4760   12.9040    9.6580 C   0  0  0  0  0
   17.7030   13.4190   11.0720 C   0  0  0  0  0
   18.2870   14.7870   11.0860 N   0  3  0  0  0
   15.9110    8.3830   10.2900 N   0  0  0  0  0
   15.0650    7.8110   11.3390 C   0  0  0  0  0
   14.3930    8.9200   12.1380 C   0  0  0  0  0
   14.9130   10.0360   12.2170 O   0  0  0  0  0
   15.8600    6.8770   12.2610 C   0  0  0  0  0
   16.6160    7.5880   13.2310 O   0  0  0  0  0
   13.2290    8.6150   12.7050 N   0  0  0  0  0
   12.5220    9.5670   13.5500 C   0  0  0  0  0
   13.3200    9.7780   14.8220 C   0  0  0  0  0
   13.9020    8.8340   15.3600 O   0  0  0  0  0
   11.1030    9.0820   13.8800 C   0  0  0  0  0
   10.2910   10.0920   14.7170 C   0  0  0  0  0
    8.8150   10.1490   14.2880 C   0  0  0  0  0
    8.0300   11.1710   15.1270 C   0  0  0  0  0
    6.5310   11.2220   14.6220 N   0  3  0  0  0
   13.3600   11.0290   15.2690 N   0  0  0  0  0
   13.9660   11.3950   16.5460 C   0  0  0  0  0
   13.2050   10.7650   17.7160 C   0  0  0  0  0
   12.0000   10.5020   17.6150 O   0  0  0  0  0
   14.0060   12.9100   16.6870 C   0  0  0  0  0
   13.9180   10.5110   18.8130 N   0  0  0  0  0
   13.3040    9.9820   20.0310 C   0  0  0  0  0
   12.9160   11.1130   20.9890 C   0  0  0  0  0
   13.7470   11.9620   21.3160 O   0  0  0  0  0
   14.2210    8.9350   20.7490 C   0  0  0  0  0
   13.6390    8.5480   22.0020 O   0  0  0  0  0
   15.6330    9.4860   20.9970 C   0  0  0  0  0
   11.6460   11.1210   21.4040 N   0  0  0  0  0
   11.1210   12.0580   22.4220 C   0  0  0  0  0
    9.8980   11.5380   23.1930 C   0  0  0  0  0
    8.9380   11.0480   22.5880 O   0  0  0  0  0
   10.8170   13.4460   21.8200 C   0  0  0  0  0
   10.0990   13.3770   20.4710 C   0  0  0  0  0
   10.5710   13.9440   19.4870 O   0  0  0  0  0
    8.9550   12.6970   20.4240 N   0  0  0  0  0
    9.9430   11.6500   24.5220 N   0  0  0  0  0
    8.8260   11.2530   25.3910 C   0  0  0  0  0
    8.7200   12.2090   26.5730 C   0  0  0  0  0
    9.4380   12.0520   27.5660 O   0  0  0  0  0
    9.0100    9.8110   25.8870 C   0  0  0  0  0
    7.8060    8.8720   26.0990 C   0  0  0  0  0
    6.7600    9.4280   27.0720 C   0  0  0  0  0
    7.1570    8.4760   24.7640 C   0  0  0  0  0
    7.8070   13.1790   26.4680 N   0  0  0  0  0
    7.7500   14.3120   27.3940 C   0  0  0  0  0
    9.1780   14.8360   27.5150 C   0  0  0  0  0
    9.7120   14.9610   28.6100 O   0  0  0  0  0
    7.1890   13.8750   28.7550 C   0  0  0  0  0
    6.7690   14.8820   29.8450 C   0  0  0  0  0
    7.9490   15.6630   30.3970 C   0  0  0  0  0
    5.6990   15.8390   29.3740 C   0  0  0  0  0
    9.7890   15.1220   26.3650 N   0  0  0  0  0
   11.2490   15.2860   26.2570 C   0  0  0  0  0
   12.0040   13.9600   26.4210 C   0  0  0  0  0
   12.9630   13.8500   27.1930 O   0  0  0  0  0
   11.7630   16.3250   27.2470 C   0  0  0  0  0
   12.0690   17.6640   26.6380 C   0  0  0  0  0
   11.1290   18.3290   25.8630 C   0  0  0  0  0
   13.2920   18.2820   26.8680 C   0  0  0  0  0
   11.4050   19.5660   25.3110 C   0  0  0  0  0
   13.5730   19.5200   26.3220 C   0  0  0  0  0
   12.6220   20.1590   25.5410 C   0  0  0  0  0
   12.8830   21.3990   24.9910 O   0  0  0  0  0
   17.7311    9.1507    0.6103 H   0  0  0  0  0
   18.9351    9.7026    1.6216 H   0  0  0  0  0
   19.2722    8.5286    0.4880 H   0  0  0  0  0
   17.8377    6.9533    1.5967 H   0  0  0  0  0
   19.1593    6.5571    3.5365 H   0  0  0  0  0
   19.7801    8.2912    3.4798 H   0  0  0  0  0
   20.9061    7.7467    1.3886 H   0  0  0  0  0
   21.6739    5.9158    3.6640 H   0  0  0  0  0
   22.7244    6.4693    2.3369 H   0  0  0  0  0
   22.0946    7.6402    3.5215 H   0  0  0  0  0
   21.1245    5.4328    0.6381 H   0  0  0  0  0
   20.0741    4.8793    1.9652 H   0  0  0  0  0
   19.4086    5.9076    0.6727 H   0  0  0  0  0
   16.9048    6.5156    3.8666 H   0  0  0  0  0
   15.1471    8.8259    4.5295 H   0  0  0  0  0
   14.7059    5.8770    5.0892 H   0  0  0  0  0
   13.6755    7.2575    6.8367 H   0  0  0  0  0
   12.8789    8.2592    5.5985 H   0  0  0  0  0
   12.4255    6.5474    5.7858 H   0  0  0  0  0
   13.3848    7.7884    3.1303 H   0  0  0  0  0
   14.4963    6.4596    2.7181 H   0  0  0  0  0
   12.8982    6.0995    3.4165 H   0  0  0  0  0
   15.5112    9.9499    6.2552 H   0  0  0  0  0
   17.3436    9.0425    8.3431 H   0  0  0  0  0
   15.4794   11.4138    8.3546 H   0  0  0  0  0
   17.1305   11.3789    7.5591 H   0  0  0  0  0
   18.0489   10.8558    9.8131 H   0  0  0  0  0
   16.4275   11.2400   10.4822 H   0  0  0  0  0
   16.6472   13.4540    9.2123 H   0  0  0  0  0
   18.3896   13.0467    9.0809 H   0  0  0  0  0
   18.4026   12.7470   11.5690 H   0  0  0  0  0
   16.7380   13.4575   11.5775 H   0  0  0  0  0
   18.4206   15.0885   12.0512 H   0  0  0  0  0
   19.1860   14.7765   10.6043 H   0  0  0  0  0
   17.6534   15.4307   10.6121 H   0  0  0  0  0
   16.9237    8.3851   10.4122 H   0  0  0  0  0
   14.2937    7.2101   10.8573 H   0  0  0  0  0
   16.5543    6.3058   11.6448 H   0  0  0  0  0
   15.1503    6.2392   12.7879 H   0  0  0  0  0
   17.0944    6.9644   13.7822 H   0  0  0  0  0
   12.8225    7.6934   12.5442 H   0  0  0  0  0
   12.4225   10.5100   13.0124 H   0  0  0  0  0
   11.1957    8.1679   14.4665 H   0  0  0  0  0
   10.5766    8.9382   12.9364 H   0  0  0  0  0
   10.7252   11.0809   14.5698 H   0  0  0  0  0
   10.3290    9.7763   15.7596 H   0  0  0  0  0
    8.3718    9.1642   14.4359 H   0  0  0  0  0
    8.7687   10.4497   13.2413 H   0  0  0  0  0
    8.4844   12.1561   15.0206 H   0  0  0  0  0
    8.0516   10.8753   16.1759 H   0  0  0  0  0
    6.0091   11.8996   15.1778 H   0  0  0  0  0
    6.5133   11.4997   13.6407 H   0  0  0  0  0
    6.1078   10.2995   14.7232 H   0  0  0  0  0
   12.9495   11.7655   14.6950 H   0  0  0  0  0
   14.9860   11.0112   16.5666 H   0  0  0  0  0
   14.5961   13.3338   15.8744 H   0  0  0  0  0
   12.9908   13.3045   16.6446 H   0  0  0  0  0
   14.4597   13.1728   17.6426 H   0  0  0  0  0
   14.9220   10.6908   18.8031 H   0  0  0  0  0
   12.3958    9.4612   19.7276 H   0  0  0  0  0
   14.3030    8.0700   20.0909 H   0  0  0  0  0
   14.2083    7.9067   22.4335 H   0  0  0  0  0
   16.0926    9.7466   20.0436 H   0  0  0  0  0
   15.5698   10.3739   21.6261 H   0  0  0  0  0
   16.2351    8.7272   21.4967 H   0  0  0  0  0
   11.0021   10.4431   20.9962 H   0  0  0  0  0
   11.9272   12.1492   23.1499 H   0  0  0  0  0
   11.7695   13.9515   21.6605 H   0  0  0  0  0
   10.1614   13.9701   22.5155 H   0  0  0  0  0
    8.4358   12.6322   19.5484 H   0  0  0  0  0
    8.5979   12.2409   21.2636 H   0  0  0  0  0
   10.7875   12.0267   24.9526 H   0  0  0  0  0
    7.9030   11.3001   24.8130 H   0  0  0  0  0
    9.4256    9.9311   26.8875 H   0  0  0  0  0
    9.5764    9.3316   25.0886 H   0  0  0  0  0
    8.2127    7.9750   26.5660 H   0  0  0  0  0
    7.2220    9.5917   28.0456 H   0  0  0  0  0
    6.3742   10.3724   26.6880 H   0  0  0  0  0
    5.9426    8.7138   27.1718 H   0  0  0  0  0
    6.8093    9.3724   24.2505 H   0  0  0  0  0
    7.8906    7.9616   24.1433 H   0  0  0  0  0
    6.3122    7.8140   24.9544 H   0  0  0  0  0
    7.1229   13.1283   25.7132 H   0  0  0  0  0
    7.0836   15.0938   27.0296 H   0  0  0  0  0
    8.0246   13.3449   29.2120 H   0  0  0  0  0
    6.2520   13.3832   28.4937 H   0  0  0  0  0
    6.3509   14.2754   30.6483 H   0  0  0  0  0
    8.6677   14.9710   30.8360 H   0  0  0  0  0
    8.4248   16.2191   29.5893 H   0  0  0  0  0
    7.5983   16.3574   31.1605 H   0  0  0  0  0
    6.0705   16.4059   28.5203 H   0  0  0  0  0
    4.8134   15.2757   29.0800 H   0  0  0  0  0
    5.4439   16.5235   30.1830 H   0  0  0  0  0
    9.2216   15.2319   25.5245 H   0  0  0  0  0
   11.4462   15.6438   25.2465 H   0  0  0  0  0
   11.6864   13.0930   25.8418 H   0  0  0  0  0
   12.6958   15.9402   27.6592 H   0  0  0  0  0
   10.9757   16.4813   27.9845 H   0  0  0  0  0
   10.1570   17.8682   25.6867 H   0  0  0  0  0
   14.0388   17.7843   27.4866 H   0  0  0  0  0
   10.6592   20.0689   24.6954 H   0  0  0  0  0
   14.5383   19.9922   26.5045 H   0  0  0  0  0
   13.7671   21.6784   25.2396 H   0  0  0  0  0
  1  2  1  0  0  0
  2  3  1  0  0  0
  2  5  1  0  0  0
  3  4  2  0  0  0
  3  9  1  0  0  0
  5  6  1  0  0  0
  6  7  1  0  0  0
  6  8  1  0  0  0
  9 10  1  0  0  0
 10 11  1  0  0  0
 10 13  1  0  0  0
 11 12  2  0  0  0
 11 16  1  0  0  0
 13 14  1  0  0  0
 13 15  1  0  0  0
 16 17  1  0  0  0
 17 18  1  0  0  0
 17 20  1  0  0  0
 18 19  2  0  0  0
 18 25  1  0  0  0
 20 21  1  0  0  0
 21 22  1  0  0  0
 22 23  1  0  0  0
 23 24  1  0  0  0
 25 26  1  0  0  0
 26 27  1  0  0  0
 26 29  1  0  0  0
 27 28  2  0  0  0
 27 31  1  0  0  0
 29 30  1  0  0  0
 31 32  1  0  0  0
 32 33  1  0  0  0
 32 35  1  0  0  0
 33 34  2  0  0  0
 33 40  1  0  0  0
 35 36  1  0  0  0
 36 37  1  0  0  0
 37 38  1  0  0  0
 38 39  1  0  0  0
 40 41  1  0  0  0
 41 42  1  0  0  0
 41 44  1  0  0  0
 42 43  2  0  0  0
 42 45  1  0  0  0
 45 46  1  0  0  0
 46 47  1  0  0  0
 46 49  1  0  0  0
 47 48  2  0  0  0
 47 52  1  0  0  0
 49 50  1  0  0  0
 49 51  1  0  0  0
 52 53  1  0  0  0
 53 54  1  0  0  0
 53 56  1  0  0  0
 54 55  2  0  0  0
 54 60  1  0  0  0
 56 57  1  0  0  0
 57 58  2  0  0  0
 57 59  1  0  0  0
 60 61  1  0  0  0
 61 62  1  0  0  0
 61 64  1  0  0  0
 62 63  2  0  0  0
 62 68  1  0  0  0
 64 65  1  0  0  0
 65 66  1  0  0  0
 65 67  1  0  0  0
 68 69  1  0  0  0
 69 70  1  0  0  0
 69 72  1  0  0  0
 70 71  2  0  0  0
 70 76  1  0  0  0
 72 73  1  0  0  0
 73 74  1  0  0  0
 73 75  1  0  0  0
 76 77  1  0  0  0
 77 78  1  0  0  0
 77 80  1  0  0  0
 78 79  2  0  0  0
 80 81  1  0  0  0
 81 82  4  0  0  0
 81 83  4  0  0  0
 82 84  4  0  0  0
 83 85  4  0  0  0
 84 86  4  0  0  0
 85 86  4  0  0  0
 86 87  1  0  0  0
  1 88  1  0  0  0
  1 89  1  0  0  0
  1 90  1  0  0  0
  2 91  1  0  0  0
  5 92  1  0  0  0
  5 93  1  0  0  0
  6 94  1  0  0  0
  7 95  1  0  0  0
  7 96  1  0  0  0
  7 97  1  0  0  0
  8 98  1  0  0  0
  8 99  1  0  0  0
  8100  1  0  0  0
  9101  1  0  0  0
 10102  1  0  0  0
 13103  1  0  0  0
 14104  1  0  0  0
 14105  1  0  0  0
 14106  1  0  0  0
 15107  1  0  0  0
 15108  1  0  0  0
 15109  1  0  0  0
 16110  1  0  0  0
 17111  1  0  0  0
 20112  1  0  0  0
 20113  1  0  0  0
 21114  1  0  0  0
 21115  1  0  0  0
 22116  1  0  0  0
 22117  1  0  0  0
 23118  1  0  0  0
 23119  1  0  0  0
 24120  1  0  0  0
 24121  1  0  0  0
 24122  1  0  0  0
 25123  1  0  0  0
 26124  1  0  0  0
 29125  1  0  0  0
 29126  1  0  0  0
 30127  1  0  0  0
 31128  1  0  0  0
 32129  1  0  0  0
 35130  1  0  0  0
 35131  1  0  0  0
 36132  1  0  0  0
 36133  1  0  0  0
 37134  1  0  0  0
 37135  1  0  0  0
 38136  1  0  0  0
 38137  1  0  0  0
 39138  1  0  0  0
 39139  1  0  0  0
 39140  1  0  0  0
 40141  1  0  0  0
 41142  1  0  0  0
 44143  1  0  0  0
 44144  1  0  0  0
 44145  1  0  0  0
 45146  1  0  0  0
 46147  1  0  0  0
 49148  1  0  0  0
 50149  1  0  0  0
 51150  1  0  0  0
 51151  1  0  0  0
 51152  1  0  0  0
 52153  1  0  0  0
 53154  1  0  0  0
 56155  1  0  0  0
 56156  1  0  0  0
 59157  1  0  0  0
 59158  1  0  0  0
 60159  1  0  0  0
 61160  1  0  0  0
 64161  1  0  0  0
 64162  1  0  0  0
 65163  1  0  0  0
 66164  1  0  0  0
 66165  1  0  0  0
 66166  1  0  0  0
 67167  1  0  0  0
 67168  1  0  0  0
 67169  1  0  0  0
 68170  1  0  0  0
 69171  1  0  0  0
 72172  1  0  0  0
 72173  1  0  0  0
 73174  1  0  0  0
 74175  1  0  0  0
 74176  1  0  0  0
 74177  1  0  0  0
 75178  1  0  0  0
 75179  1  0  0  0
 75180  1  0  0  0
 76181  1  0  0  0
 77182  1  0  0  0
 78183  1  0  0  0
 80184  1  0  0  0
 80185  1  0  0  0
 82186  1  0  0  0
 83187  1  0  0  0
 84188  1  0  0  0
 85189  1  0  0  0
 87190  1  0  0  0
M  END
$$$$
