1tft_ligand
  -I-interpret- 

 82 85  0  0  0  0  0  0  0  0999 V2000
   -1.0150  -13.2570    5.7930 C   0  0  0  0  0
   -2.4590  -13.6470    6.0690 C   0  0  0  0  0
    0.0440  -13.5960    6.6600 C   0  0  0  0  0
   -0.7420  -12.5250    4.6160 C   0  0  0  0  0
   -3.3250  -12.4570    5.8800 N   0  0  0  0  0
   -2.6650  -14.1840    7.5170 C   0  0  0  0  0
   -0.1760  -14.3720    7.9220 C   0  0  0  0  0
    1.3600  -13.2040    6.3520 C   0  0  0  0  0
    0.5740  -12.1370    4.3150 C   0  0  0  0  0
   -4.6010  -12.5420    5.5050 C   0  0  0  0  0
   -1.5230  -15.0810    7.9950 C   0  0  0  0  0
    1.6220  -12.4770    5.1800 C   0  0  0  0  0
   -5.3920  -11.2650    5.3430 C   0  0  0  0  0
   -5.1270  -13.6390    5.2950 O   0  0  0  0  0
   -6.5870  -11.4600    4.4750 N   0  0  0  0  0
   -5.8460  -10.7460    6.7150 C   0  0  0  0  0
   -6.6370  -11.8320    3.1780 C   0  0  0  0  0
   -7.7470  -11.1590    5.3150 C   0  0  0  0  0
   -7.3080  -10.3590    6.5270 C   0  0  0  0  0
   -7.9920  -11.9330    2.4890 C   0  0  0  0  0
   -5.6120  -12.0820    2.5280 O   0  0  0  0  0
   -7.8280  -11.6220    1.0530 N   0  0  0  0  0
   -8.6000  -13.3550    2.6470 C   0  0  0  0  0
   -8.3510  -10.5030    0.5400 C   0  0  0  0  0
   -9.9460  -13.2310    3.3590 C   0  0  0  0  0
   -7.6760  -14.2400    3.4850 C   0  0  0  0  0
   -8.8230  -14.0020    1.2820 C   0  0  0  0  0
   -8.1920  -10.2030   -0.9350 C   0  0  0  0  0
   -8.9640   -9.7140    1.2640 O   0  0  0  0  0
   -9.2620   -9.3020   -1.3700 N   0  3  0  0  0
   -6.8380   -9.5520   -1.1950 C   0  0  0  0  0
  -10.2120  -10.0410   -2.2000 C   0  0  0  0  0
   -8.0930  -10.6790    7.6910 O   0  0  0  0  0
   -8.6170   -9.4900    8.3020 C   0  0  0  0  0
   -9.9470   -9.4650    8.7420 C   0  0  0  0  0
  -10.4640   -8.3130    9.3460 C   0  0  0  0  0
   -9.6540   -7.1840    9.5130 C   0  0  0  0  0
   -8.3250   -7.2070    9.0750 C   0  0  0  0  0
   -7.8060   -8.3590    8.4720 C   0  0  0  0  0
   -2.7203  -14.4456    5.3747 H   0  0  0  0  0
   -1.5548  -12.2606    3.9396 H   0  0  0  0  0
   -2.9259  -11.5328    6.0444 H   0  0  0  0  0
   -3.5774  -14.7804    7.5214 H   0  0  0  0  0
   -2.7110  -13.3238    8.1848 H   0  0  0  0  0
   -0.1432  -13.6598    8.7465 H   0  0  0  0  0
    0.5945  -15.1419    7.9637 H   0  0  0  0  0
    2.1771  -13.4652    7.0244 H   0  0  0  0  0
    0.7800  -11.5704    3.4069 H   0  0  0  0  0
   -1.4834  -15.9580    7.3489 H   0  0  0  0  0
   -1.7118  -15.3507    9.0341 H   0  0  0  0  0
    2.6426  -12.1766    4.9427 H   0  0  0  0  0
   -4.7365  -10.5366    4.8657 H   0  0  0  0  0
   -5.2438   -9.8999    7.0461 H   0  0  0  0  0
   -5.7248  -11.5004    7.4923 H   0  0  0  0  0
   -8.2057  -12.0913    5.6446 H   0  0  0  0  0
   -8.4677  -10.5773    4.7402 H   0  0  0  0  0
   -7.4414   -9.2865    6.3850 H   0  0  0  0  0
   -8.6724  -11.2204    2.9552 H   0  0  0  0  0
   -7.3133  -12.2641    0.4504 H   0  0  0  0  0
   -9.7966  -12.7788    4.3395 H   0  0  0  0  0
  -10.6127  -12.6047    2.7663 H   0  0  0  0  0
  -10.3856  -14.2214    3.4774 H   0  0  0  0  0
   -6.7070  -14.3204    2.9924 H   0  0  0  0  0
   -7.5475  -13.7966    4.4724 H   0  0  0  0  0
   -8.1174  -15.2316    3.5853 H   0  0  0  0  0
   -9.5087  -13.3881    0.6980 H   0  0  0  0  0
   -7.8699  -14.0820    0.7592 H   0  0  0  0  0
   -9.2490  -14.9961    1.4178 H   0  0  0  0  0
   -8.2501  -11.1360   -1.4956 H   0  0  0  0  0
   -8.8624   -8.5348   -1.9106 H   0  0  0  0  0
   -9.7438   -8.9262   -0.5533 H   0  0  0  0  0
   -6.7692   -8.6218   -0.6309 H   0  0  0  0  0
   -6.0442  -10.2292   -0.8797 H   0  0  0  0  0
   -6.7360   -9.3413   -2.2596 H   0  0  0  0  0
   -9.6955  -10.4415   -3.0723 H   0  0  0  0  0
  -10.6382  -10.8601   -1.6207 H   0  0  0  0  0
  -11.0081   -9.3705   -2.5236 H   0  0  0  0  0
  -10.5796  -10.3434    8.6138 H   0  0  0  0  0
  -11.4992   -8.2952    9.6869 H   0  0  0  0  0
  -10.0578   -6.2877    9.9837 H   0  0  0  0  0
   -7.6938   -6.3277    9.2034 H   0  0  0  0  0
   -6.7698   -8.3767    8.1342 H   0  0  0  0  0
  1  2  1  0  0  0
  1  3  4  0  0  0
  1  4  4  0  0  0
  2  5  1  0  0  0
  2  6  1  0  0  0
  3  7  1  0  0  0
  3  8  4  0  0  0
  4  9  4  0  0  0
  5 10  1  0  0  0
  6 11  1  0  0  0
  7 11  1  0  0  0
  8 12  4  0  0  0
  9 12  4  0  0  0
 10 13  1  0  0  0
 10 14  2  0  0  0
 13 15  1  0  0  0
 13 16  1  0  0  0
 15 17  1  0  0  0
 15 18  1  0  0  0
 16 19  1  0  0  0
 17 20  1  0  0  0
 17 21  2  0  0  0
 18 19  1  0  0  0
 19 33  1  0  0  0
 20 22  1  0  0  0
 20 23  1  0  0  0
 22 24  1  0  0  0
 23 25  1  0  0  0
 23 26  1  0  0  0
 23 27  1  0  0  0
 24 28  1  0  0  0
 24 29  2  0  0  0
 28 30  1  0  0  0
 28 31  1  0  0  0
 30 32  1  0  0  0
 33 34  1  0  0  0
 34 35  4  0  0  0
 34 39  4  0  0  0
 35 36  4  0  0  0
 36 37  4  0  0  0
 37 38  4  0  0  0
 38 39  4  0  0  0
  2 40  1  0  0  0
  4 41  1  0  0  0
  5 42  1  0  0  0
  6 43  1  0  0  0
  6 44  1  0  0  0
  7 45  1  0  0  0
  7 46  1  0  0  0
  8 47  1  0  0  0
  9 48  1  0  0  0
 11 49  1  0  0  0
 11 50  1  0  0  0
 12 51  1  0  0  0
 13 52  1  0  0  0
 16 53  1  0  0  0
 16 54  1  0  0  0
 18 55  1  0  0  0
 18 56  1  0  0  0
 19 57  1  0  0  0
 20 58  1  0  0  0
 22 59  1  0  0  0
 25 60  1  0  0  0
 25 61  1  0  0  0
 25 62  1  0  0  0
 26 63  1  0  0  0
 26 64  1  0  0  0
 26 65  1  0  0  0
 27 66  1  0  0  0
 27 67  1  0  0  0
 27 68  1  0  0  0
 28 69  1  0  0  0
 30 70  1  0  0  0
 30 71  1  0  0  0
 31 72  1  0  0  0
 31 73  1  0  0  0
 31 74  1  0  0  0
 32 75  1  0  0  0
 32 76  1  0  0  0
 32 77  1  0  0  0
 35 78  1  0  0  0
 36 79  1  0  0  0
 37 80  1  0  0  0
 38 81  1  0  0  0
 39 82  1  0  0  0
M  END
$$$$
