2fah_ligand
  -I-interpret- 

 11 10  0  0  0  0  0  0  0  0999 V2000
   20.6440   47.5890    2.4790 C   0  0  0  0  0
   21.1060   48.0250    1.4000 O   0  0  0  0  0
   19.4400   47.3110    2.6570 O   0  0  0  0  0
   21.5890   47.3790    3.6350 C   0  0  0  0  0
   22.6750   46.4360    3.1960 C   0  0  0  0  0
   22.3550   45.2520    2.9600 O   0  0  0  0  0
   23.8420   46.8740    3.0830 O   0  0  0  0  0
   22.0509   48.1676    1.4922 H   0  0  0  0  0
   21.0510   46.9583    4.4845 H   0  0  0  0  0
   22.0230   48.3314    3.9394 H   0  0  0  0  0
   23.8567   47.8057    3.3140 H   0  0  0  0  0
  1  2  1  0  0  0
  1  3  2  0  0  0
  1  4  1  0  0  0
  4  5  1  0  0  0
  5  6  2  0  0  0
  5  7  1  0  0  0
  2  8  1  0  0  0
  4  9  1  0  0  0
  4 10  1  0  0  0
  7 11  1  0  0  0
M  END
$$$$
