2fum_ligand
  -I-interpret- 

 62 64  0  0  0  0  0  0  0  0999 V2000
   66.6340    9.8490  -22.9810 O   0  0  0  0  0
   65.7040   10.6410  -22.2080 C   0  0  0  0  0
   64.2580   10.3380  -22.6500 C   0  0  0  0  0
   64.2050   10.0110  -24.0970 N   0  3  0  0  0
   64.3500    8.5630  -24.3640 C   0  0  0  0  0
   63.0350    8.0410  -24.9550 C   0  0  0  0  0
   63.2090    6.6690  -25.4520 N   0  0  0  0  0
   62.8460    5.6090  -24.7280 C   0  0  0  0  0
   62.7140    5.6940  -23.3500 C   0  0  0  0  0
   62.3420    4.5890  -22.5940 C   0  0  0  0  0
   62.6050    4.3970  -25.3470 C   0  0  0  0  0
   62.7450    4.3240  -26.7240 C   0  0  0  0  0
   63.0770    5.3290  -27.3550 O   0  0  0  0  0
   62.5130    3.1200  -27.3730 C   0  0  0  0  0
   62.6510    3.0220  -28.7480 C   0  0  0  0  0
   63.0170    4.1010  -29.4660 O   0  0  0  0  0
   62.4040    1.8300  -29.4010 C   0  0  0  0  0
   62.0250    0.7210  -28.6570 C   0  0  0  0  0
   61.8870    0.8000  -27.2810 C   0  0  0  0  0
   61.5180   -0.2890  -26.5660 O   0  0  0  0  0
   62.1350    2.0010  -26.6440 C   0  0  0  0  0
   61.9970    2.0720  -25.2710 C   0  0  0  0  0
   61.6580    1.0480  -24.6820 O   0  0  0  0  0
   62.2330    3.2730  -24.5960 C   0  0  0  0  0
   62.0960    3.3760  -23.2050 C   0  0  0  0  0
   61.7410    2.3620  -22.4250 N   0  0  0  0  0
   60.4000    2.2990  -21.8470 C   0  0  0  0  0
   60.4630    1.2460  -20.7550 C   0  0  0  0  0
   59.1020    0.9350  -20.2950 N   0  3  0  0  0
   58.8450    1.4460  -18.9220 C   0  0  0  0  0
   58.9240    0.2940  -17.8890 C   0  0  0  0  0
   57.7900   -0.6030  -17.9610 O   0  0  0  0  0
   67.5306   10.0444  -22.6989 H   0  0  0  0  0
   65.9138   11.6985  -22.3688 H   0  0  0  0  0
   65.8150   10.3949  -21.1520 H   0  0  0  0  0
   63.6431   11.2191  -22.4666 H   0  0  0  0  0
   63.8897    9.4828  -22.0833 H   0  0  0  0  0
   64.9797   10.4918  -24.5542 H   0  0  0  0  0
   63.2939   10.3038  -24.4500 H   0  0  0  0  0
   64.5759    8.0354  -23.4374 H   0  0  0  0  0
   65.1657    8.3950  -25.0672 H   0  0  0  0  0
   62.7364    8.6844  -25.7827 H   0  0  0  0  0
   62.2697    8.0442  -24.1788 H   0  0  0  0  0
   63.6181    6.5234  -26.3749 H   0  0  0  0  0
   62.9054    6.6441  -22.8513 H   0  0  0  0  0
   62.2439    4.6806  -21.5123 H   0  0  0  0  0
   63.0659    3.8642  -30.3951 H   0  0  0  0  0
   62.5052    1.7613  -30.4841 H   0  0  0  0  0
   61.8333   -0.2253  -29.1628 H   0  0  0  0  0
   61.4712   -0.0585  -25.6353 H   0  0  0  0  0
   62.4112    1.6190  -22.2270 H   0  0  0  0  0
   59.6570    2.0408  -22.6015 H   0  0  0  0  0
   60.0977    3.2662  -21.4454 H   0  0  0  0  0
   61.0515    1.6242  -19.9191 H   0  0  0  0  0
   60.9290    0.3424  -21.1481 H   0  0  0  0  0
   58.9944   -0.0792  -20.2823 H   0  0  0  0  0
   58.4414    1.3830  -20.9300 H   0  0  0  0  0
   57.8471    1.8832  -18.8885 H   0  0  0  0  0
   59.5990    2.1937  -18.6761 H   0  0  0  0  0
   58.9354    0.7384  -16.8938 H   0  0  0  0  0
   59.8220   -0.2854  -18.1033 H   0  0  0  0  0
   57.8886   -1.2950  -17.3030 H   0  0  0  0  0
  1  2  1  0  0  0
  2  3  1  0  0  0
  3  4  1  0  0  0
  4  5  1  0  0  0
  5  6  1  0  0  0
  6  7  1  0  0  0
  7  8  1  0  0  0
  8  9  4  0  0  0
  8 11  4  0  0  0
  9 10  4  0  0  0
 10 25  4  0  0  0
 11 12  1  0  0  0
 11 24  4  0  0  0
 12 13  2  0  0  0
 12 14  1  0  0  0
 14 15  4  0  0  0
 14 21  4  0  0  0
 15 16  1  0  0  0
 15 17  4  0  0  0
 17 18  4  0  0  0
 18 19  4  0  0  0
 19 20  1  0  0  0
 19 21  4  0  0  0
 21 22  1  0  0  0
 22 23  2  0  0  0
 22 24  1  0  0  0
 24 25  4  0  0  0
 25 26  1  0  0  0
 26 27  1  0  0  0
 27 28  1  0  0  0
 28 29  1  0  0  0
 29 30  1  0  0  0
 30 31  1  0  0  0
 31 32  1  0  0  0
  1 33  1  0  0  0
  2 34  1  0  0  0
  2 35  1  0  0  0
  3 36  1  0  0  0
  3 37  1  0  0  0
  4 38  1  0  0  0
  4 39  1  0  0  0
  5 40  1  0  0  0
  5 41  1  0  0  0
  6 42  1  0  0  0
  6 43  1  0  0  0
  7 44  1  0  0  0
  9 45  1  0  0  0
 10 46  1  0  0  0
 16 47  1  0  0  0
 17 48  1  0  0  0
 18 49  1  0  0  0
 20 50  1  0  0  0
 26 51  1  0  0  0
 27 52  1  0  0  0
 27 53  1  0  0  0
 28 54  1  0  0  0
 28 55  1  0  0  0
 29 56  1  0  0  0
 29 57  1  0  0  0
 30 58  1  0  0  0
 30 59  1  0  0  0
 31 60  1  0  0  0
 31 61  1  0  0  0
 32 62  1  0  0  0
M  END
$$$$
