3l9n_ligand
  -I-interpret- 

 46 49  0  0  0  0  0  0  0  0999 V2000
   33.2850   19.8420   57.4660 C   0  0  0  0  0
   34.7850   12.6360   55.9320 N   0  0  0  0  0
   31.0860   17.6540   58.9400 S   0  0  0  0  0
   34.2570   18.7700   57.5560 C   0  0  0  0  0
   28.6840   17.3840   59.3000 N   0  0  0  0  0
   34.9850   18.6460   58.8070 C   0  0  0  0  0
   29.6000   22.2690   58.5680 N   0  3  0  0  0
   34.8130   19.5120   59.9510 C   0  0  0  0  0
   33.5410   12.1190   55.8610 N   0  0  0  0  0
   33.8510   20.5700   59.8560 C   0  0  0  0  0
   28.9930   16.2070   58.6980 N   0  0  0  0  0
   33.1040   20.7110   58.6180 C   0  0  0  0  0
   29.4300   19.6270   60.1750 N   0  0  0  0  0
   30.4600   20.6520   60.1920 C   0  0  0  0  0
   32.0450   21.8180   58.5330 C   0  0  0  0  0
   34.6460   13.8420   56.5680 C   0  0  0  0  0
   30.6360   21.2270   58.7690 C   0  0  0  0  0
   30.3580   13.8280   57.2290 C   0  0  0  0  0
   29.6280   18.3220   59.5400 C   0  0  0  0  0
   31.0830   12.7200   56.5520 C   0  0  0  0  0
   32.5250   12.8370   56.3860 C   0  0  0  0  0
   33.2650   14.0390   56.8860 C   0  0  0  0  0
   32.5200   15.0970   57.5440 C   0  0  0  0  0
   31.0550   15.0350   57.7380 C   0  0  0  0  0
   30.3390   16.1750   58.4130 C   0  0  0  0  0
   36.1800   17.3630   59.0120 C   0  0  0  0  0
   32.7037   19.9930   56.5564 H   0  0  0  0  0
   34.4333   18.0887   56.7236 H   0  0  0  0  0
   29.6951   22.6654   57.6330 H   0  0  0  0  0
   28.6750   21.8511   58.6689 H   0  0  0  0  0
   29.7198   23.0047   59.2643 H   0  0  0  0  0
   35.3976   19.3649   60.8592 H   0  0  0  0  0
   33.6842   21.2510   60.6906 H   0  0  0  0  0
   28.5348   19.8239   60.6225 H   0  0  0  0  0
   31.4012   20.2164   60.5273 H   0  0  0  0  0
   30.1672   21.4507   60.8735 H   0  0  0  0  0
   32.0808   22.2712   57.5423 H   0  0  0  0  0
   32.2502   22.5679   59.2969 H   0  0  0  0  0
   35.4547   14.5369   56.7944 H   0  0  0  0  0
   30.5235   20.4164   58.0490 H   0  0  0  0  0
   29.2781   13.7508   57.3556 H   0  0  0  0  0
   30.5484   11.8422   56.1891 H   0  0  0  0  0
   33.0607   15.9702   57.9089 H   0  0  0  0  0
   35.6951   16.3941   58.8924 H   0  0  0  0  0
   36.9628   17.4741   58.2617 H   0  0  0  0  0
   36.6173   17.4313   60.0081 H   0  0  0  0  0
  1  4  4  0  0  0
 12  1  4  0  0  0
  9  2  4  0  0  0
 16  2  4  0  0  0
  3 19  4  0  0  0
 25  3  4  0  0  0
  4  6  4  0  0  0
 11  5  4  0  0  0
  5 19  4  0  0  0
  8  6  4  0  0  0
 17  7  1  0  0  0
 10  8  4  0  0  0
 21  9  4  0  0  0
 12 10  4  0  0  0
 25 11  4  0  0  0
 15 12  1  0  0  0
 13 14  1  0  0  0
 19 13  1  0  0  0
 14 17  1  0  0  0
 17 15  1  0  0  0
 22 16  4  0  0  0
 18 20  4  0  0  0
 24 18  4  0  0  0
 20 21  4  0  0  0
 22 21  4  0  0  0
 23 22  4  0  0  0
 24 23  4  0  0  0
 24 25  1  0  0  0
  6 26  1  0  0  0
  1 27  1  0  0  0
  4 28  1  0  0  0
  7 29  1  0  0  0
  7 30  1  0  0  0
  7 31  1  0  0  0
  8 32  1  0  0  0
 10 33  1  0  0  0
 13 34  1  0  0  0
 14 35  1  0  0  0
 14 36  1  0  0  0
 15 37  1  0  0  0
 15 38  1  0  0  0
 16 39  1  0  0  0
 17 40  1  0  0  0
 18 41  1  0  0  0
 20 42  1  0  0  0
 23 43  1  0  0  0
 26 44  1  0  0  0
 26 45  1  0  0  0
 26 46  1  0  0  0
M  END
$$$$
