6np2_ligand
  -I-interpret- 

 73 75  0  0  0  0  0  0  0  0999 V2000
  108.9100  -17.8280   -7.6890 C   0  0  0  0  0
  112.6850  -14.8110   -5.6210 C   0  0  0  0  0
  112.6290  -12.6990   -8.2910 C   0  0  0  0  0
  107.4670  -18.1610   -7.3100 C   0  0  0  0  0
  112.9310  -16.2760   -5.2850 C   0  0  0  0  0
  112.7560  -11.2410   -7.8820 C   0  0  0  0  0
  106.7160  -18.5360   -8.5970 C   0  0  0  0  0
  111.5870  -16.9950   -5.2960 C   0  0  0  0  0
  111.3760  -10.5750   -7.8710 C   0  0  0  0  0
  107.5600  -19.4470   -9.4540 C   0  0  0  0  0
  110.8980  -16.8630   -6.6500 C   0  0  0  0  0
  110.6980  -10.7650   -9.2270 C   0  0  0  0  0
  108.8390  -19.6300   -9.2430 C   0  0  0  0  0
  110.7370  -15.4080   -7.0620 C   0  0  0  0  0
  110.7010  -12.2360   -9.6430 C   0  0  0  0  0
  109.6110  -20.5420  -10.1680 C   0  0  0  0  0
  112.0760  -14.6980   -7.0120 C   0  0  0  0  0
  109.2340  -10.3160   -9.1620 C   0  0  0  0  0
  110.6840   -8.7040   -6.4190 C   0  0  0  0  0
  113.9420  -14.0650   -5.5530 N   0  3  0  0  0
  107.4650  -19.2620   -6.3390 N   0  3  0  0  0
  111.7490  -18.4320   -5.0170 N   0  3  0  0  0
  111.5330   -9.1330   -7.5550 N   0  3  0  0  0
  110.9530  -19.9860  -10.3970 N   0  3  0  0  0
  109.6140  -17.4700   -6.4980 O   0  0  0  0  0
  113.2610  -11.1890   -6.5570 O   0  0  0  0  0
  111.4280   -9.9820  -10.1670 O   0  0  0  0  0
  109.5090  -18.9940   -8.2610 O   0  0  0  0  0
  110.2520  -15.3460   -8.3980 O   0  0  0  0  0
  112.0070  -12.8070   -9.5570 O   0  0  0  0  0
  111.8170  -13.3270   -7.3120 O   0  0  0  0  0
  108.9442  -17.0063   -8.4044 H   0  0  0  0  0
  111.9894  -14.3875   -4.8965 H   0  0  0  0  0
  113.6119  -13.1652   -8.3592 H   0  0  0  0  0
  106.9694  -17.3099   -6.8450 H   0  0  0  0  0
  113.3966  -16.3638   -4.3034 H   0  0  0  0  0
  113.6025  -16.7225   -6.0183 H   0  0  0  0  0
  113.4136  -10.7300   -8.5852 H   0  0  0  0  0
  106.4956  -17.6269   -9.1565 H   0  0  0  0  0
  105.7939  -19.0531   -8.3314 H   0  0  0  0  0
  110.9812  -16.5266   -4.5203 H   0  0  0  0  0
  110.7473  -11.0358   -7.1091 H   0  0  0  0  0
  107.0858  -19.9739  -10.2820 H   0  0  0  0  0
  111.4927  -17.3418   -7.4279 H   0  0  0  0  0
  110.0381  -14.9281   -6.3769 H   0  0  0  0  0
  110.3656  -12.3007  -10.6781 H   0  0  0  0  0
  110.0417  -12.7843   -8.9702 H   0  0  0  0  0
  109.0849  -20.6247  -11.1190 H   0  0  0  0  0
  109.6993  -21.5292   -9.7145 H   0  0  0  0  0
  112.7776  -15.1396   -7.7197 H   0  0  0  0  0
  108.7062  -10.9090   -8.4151 H   0  0  0  0  0
  109.1904   -9.2619   -8.8880 H   0  0  0  0  0
  108.7679  -10.4589  -10.1369 H   0  0  0  0  0
  109.6366   -8.8823   -6.6623 H   0  0  0  0  0
  110.9539   -9.2738   -5.5299 H   0  0  0  0  0
  110.8392   -7.6414   -6.2321 H   0  0  0  0  0
  114.3365  -14.1506   -4.6163 H   0  0  0  0  0
  114.5983  -14.4441   -6.2356 H   0  0  0  0  0
  113.7643  -13.0821   -5.7598 H   0  0  0  0  0
  107.9713  -18.9757   -5.5011 H   0  0  0  0  0
  106.5029  -19.4953   -6.0933 H   0  0  0  0  0
  107.9194  -20.0773   -6.7503 H   0  0  0  0  0
  112.2087  -18.5522   -4.1144 H   0  0  0  0  0
  110.8321  -18.8783   -4.9950 H   0  0  0  0  0
  112.3180  -18.8572   -5.7490 H   0  0  0  0  0
  111.2515   -8.5987   -8.3770 H   0  0  0  0  0
  112.5068   -8.9719   -7.2979 H   0  0  0  0  0
  111.4731  -20.6024  -11.0215 H   0  0  0  0  0
  110.8691  -19.0623  -10.8214 H   0  0  0  0  0
  111.4443  -19.9090   -9.5065 H   0  0  0  0  0
  114.1282  -11.5999   -6.5299 H   0  0  0  0  0
  111.0310  -10.0751  -11.0361 H   0  0  0  0  0
  110.1504  -14.4275   -8.6580 H   0  0  0  0  0
  1  4  1  0  0  0
 25  1  1  0  0  0
  1 28  1  0  0  0
  2  5  1  0  0  0
 17  2  1  0  0  0
  2 20  1  0  0  0
  3  6  1  0  0  0
  3 30  1  0  0  0
 31  3  1  0  0  0
  4  7  1  0  0  0
  4 21  1  0  0  0
  5  8  1  0  0  0
  6  9  1  0  0  0
  6 26  1  0  0  0
  7 10  1  0  0  0
 11  8  1  0  0  0
  8 22  1  0  0  0
  9 12  1  0  0  0
  9 23  1  0  0  0
 13 10  2  0  0  0
 14 11  1  0  0  0
 11 25  1  0  0  0
 15 12  1  0  0  0
 12 18  1  0  0  0
 12 27  1  0  0  0
 13 16  1  0  0  0
 28 13  1  0  0  0
 17 14  1  0  0  0
 14 29  1  0  0  0
 30 15  1  0  0  0
 16 24  1  0  0  0
 17 31  1  0  0  0
 23 19  1  0  0  0
  1 32  1  0  0  0
  2 33  1  0  0  0
  3 34  1  0  0  0
  4 35  1  0  0  0
  5 36  1  0  0  0
  5 37  1  0  0  0
  6 38  1  0  0  0
  7 39  1  0  0  0
  7 40  1  0  0  0
  8 41  1  0  0  0
  9 42  1  0  0  0
 10 43  1  0  0  0
 11 44  1  0  0  0
 14 45  1  0  0  0
 15 46  1  0  0  0
 15 47  1  0  0  0
 16 48  1  0  0  0
 16 49  1  0  0  0
 17 50  1  0  0  0
 18 51  1  0  0  0
 18 52  1  0  0  0
 18 53  1  0  0  0
 19 54  1  0  0  0
 19 55  1  0  0  0
 19 56  1  0  0  0
 20 57  1  0  0  0
 20 58  1  0  0  0
 20 59  1  0  0  0
 21 60  1  0  0  0
 21 61  1  0  0  0
 21 62  1  0  0  0
 22 63  1  0  0  0
 22 64  1  0  0  0
 22 65  1  0  0  0
 23 66  1  0  0  0
 23 67  1  0  0  0
 24 68  1  0  0  0
 24 69  1  0  0  0
 24 70  1  0  0  0
 26 71  1  0  0  0
 27 72  1  0  0  0
 29 73  1  0  0  0
M  END
$$$$
