1g37_ligand
  -I-interpret- 

 83 86  0  0  0  0  0  0  0  0999 V2000
   16.0210   18.4310   20.0150 N   0  0  0  0  0
   14.7580   18.3600   19.2090 C   0  0  0  0  0
   15.1760   18.4440   16.0870 O   0  0  0  0  0
   14.4860   19.0730   14.9610 C   0  0  0  0  0
   14.1900   18.1930   13.7360 C   0  0  0  0  0
   15.5880   19.2470   17.1070 C   0  0  0  0  0
   16.7200   19.6940   17.2110 O   0  0  0  0  0
   16.8810   17.3630   20.1200 C   0  0  0  0  0
   16.7540   16.3050   19.5070 O   0  0  0  0  0
   20.2980   16.5300   21.0110 C   0  0  0  0  0
   19.3970   15.4820   21.6280 C   0  0  0  0  0
   18.1720   16.2910   21.8980 N   0  0  0  0  0
   18.0410   17.5100   21.0870 C   0  0  0  0  0
   19.3980   17.5540   20.3790 C   0  0  0  0  0
   17.3820   14.7160   23.6320 C   0  0  0  0  0
   17.2250   15.9600   22.7880 C   0  0  0  0  0
   19.0400   12.6850   24.2360 S   0  0  0  0  0
   17.8020   11.9510   24.3410 O   0  0  0  0  0
   20.1800   12.1080   23.5450 O   0  0  0  0  0
   21.8750   13.8860   25.6030 C   0  0  0  0  0
   20.5830   14.1980   26.0280 C   0  0  0  0  0
   19.4980   13.1740   25.9540 C   0  0  0  0  0
   20.2990   15.4910   26.4360 C   0  0  0  0  0
   21.2850   16.4620   26.4110 C   0  0  0  0  0
   22.5640   16.1410   25.9790 C   0  0  0  0  0
   22.8570   14.8490   25.5780 C   0  0  0  0  0
   16.2280   16.6520   22.9480 O   0  0  0  0  0
   19.8110   14.9910   22.9910 C   0  0  0  0  0
   18.7180   14.1570   23.4830 N   0  0  0  0  0
   13.5250   18.9730   12.5980 C   0  0  0  0  0
   12.3370   18.2540   11.9660 C   0  0  0  0  0
   13.4960   18.2500   20.0950 C   0  0  0  0  0
   13.3300   16.7980   20.6550 C   0  0  0  0  0
   11.9690   16.6810   21.3770 C   0  0  0  0  0
   11.9170   17.7220   22.5360 C   0  0  0  0  0
   10.6560   17.5970   23.2900 N   0  3  0  0  0
   12.1120   19.1710   21.9750 C   0  0  0  0  0
   13.4740   19.2800   21.2530 C   0  0  0  0  0
   14.6250   19.5520   18.2000 C   0  0  0  0  0
   13.3100   19.6690   17.5310 O   0  0  0  0  0
   16.2492   19.2986   20.5004 H   0  0  0  0  0
   14.8318   17.4414   18.6270 H   0  0  0  0  0
   15.1541   19.8578   14.6063 H   0  0  0  0  0
   13.5136   19.3810   15.3453 H   0  0  0  0  0
   13.5052   17.4041   14.0471 H   0  0  0  0  0
   15.1382   17.8028   13.3661 H   0  0  0  0  0
   20.9611   16.0846   20.2693 H   0  0  0  0  0
   20.9366   16.9873   21.7668 H   0  0  0  0  0
   19.3496   14.6092   20.9768 H   0  0  0  0  0
   17.8267   18.4221   21.6440 H   0  0  0  0  0
   19.2720   17.3353   19.3186 H   0  0  0  0  0
   19.8371   18.5468   20.4769 H   0  0  0  0  0
   16.6521   13.9750   23.3060 H   0  0  0  0  0
   17.2249   14.9784   24.6782 H   0  0  0  0  0
   22.1084   12.8691   25.2877 H   0  0  0  0  0
   19.8643   12.2791   26.4572 H   0  0  0  0  0
   18.6107   13.6107   26.4124 H   0  0  0  0  0
   19.2956   15.7446   26.7779 H   0  0  0  0  0
   21.0568   17.4788   26.7306 H   0  0  0  0  0
   23.3389   16.9072   25.9554 H   0  0  0  0  0
   23.8629   14.5954   25.2434 H   0  0  0  0  0
   19.9978   15.8264   23.6658 H   0  0  0  0  0
   20.7396   14.4230   22.9349 H   0  0  0  0  0
   14.2738   19.1087   11.8177 H   0  0  0  0  0
   13.1516   19.9061   13.0200 H   0  0  0  0  0
   12.6682   17.3009   11.5537 H   0  0  0  0  0
   11.5749   18.0778   12.7251 H   0  0  0  0  0
   11.9222   18.8715   11.1693 H   0  0  0  0  0
   12.6499   18.4834   19.4486 H   0  0  0  0  0
   14.1352   16.5839   21.3578 H   0  0  0  0  0
   13.3693   16.0834   19.8329 H   0  0  0  0  0
   11.8530   15.6754   21.7812 H   0  0  0  0  0
   11.1612   16.8761   20.6717 H   0  0  0  0  0
   12.7344   17.5196   23.2281 H   0  0  0  0  0
   10.6415   18.2855   24.0425 H   0  0  0  0  0
    9.8685   17.7606   22.6627 H   0  0  0  0  0
   10.5888   16.6588   23.6846 H   0  0  0  0  0
   12.0864   19.8816   22.8011 H   0  0  0  0  0
   11.3127   19.3921   21.2677 H   0  0  0  0  0
   13.6085   20.2875   20.8593 H   0  0  0  0  0
   14.2847   19.0737   21.9518 H   0  0  0  0  0
   14.7874   20.4712   18.7628 H   0  0  0  0  0
   12.6359   19.8671   18.1852 H   0  0  0  0  0
  1  2  1  0  0  0
  8  1  1  0  0  0
  2 32  1  0  0  0
  2 39  1  0  0  0
  3  4  1  0  0  0
  6  3  1  0  0  0
  4  5  1  0  0  0
  5 30  1  0  0  0
  6  7  2  0  0  0
 39  6  1  0  0  0
  8  9  2  0  0  0
 13  8  1  0  0  0
 11 10  1  0  0  0
 14 10  1  0  0  0
 12 11  1  0  0  0
 11 28  1  0  0  0
 12 13  1  0  0  0
 16 12  1  0  0  0
 13 14  1  0  0  0
 15 16  1  0  0  0
 29 15  1  0  0  0
 16 27  2  0  0  0
 17 18  2  0  0  0
 17 19  2  0  0  0
 22 17  1  0  0  0
 17 29  1  0  0  0
 21 20  4  0  0  0
 20 26  4  0  0  0
 21 22  1  0  0  0
 21 23  4  0  0  0
 23 24  4  0  0  0
 24 25  4  0  0  0
 25 26  4  0  0  0
 28 29  1  0  0  0
 30 31  1  0  0  0
 32 33  1  0  0  0
 32 38  1  0  0  0
 33 34  1  0  0  0
 34 35  1  0  0  0
 35 36  1  0  0  0
 35 37  1  0  0  0
 37 38  1  0  0  0
 39 40  1  0  0  0
  1 41  1  0  0  0
  2 42  1  0  0  0
  4 43  1  0  0  0
  4 44  1  0  0  0
  5 45  1  0  0  0
  5 46  1  0  0  0
 10 47  1  0  0  0
 10 48  1  0  0  0
 11 49  1  0  0  0
 13 50  1  0  0  0
 14 51  1  0  0  0
 14 52  1  0  0  0
 15 53  1  0  0  0
 15 54  1  0  0  0
 20 55  1  0  0  0
 22 56  1  0  0  0
 22 57  1  0  0  0
 23 58  1  0  0  0
 24 59  1  0  0  0
 25 60  1  0  0  0
 26 61  1  0  0  0
 28 62  1  0  0  0
 28 63  1  0  0  0
 30 64  1  0  0  0
 30 65  1  0  0  0
 31 66  1  0  0  0
 31 67  1  0  0  0
 31 68  1  0  0  0
 32 69  1  0  0  0
 33 70  1  0  0  0
 33 71  1  0  0  0
 34 72  1  0  0  0
 34 73  1  0  0  0
 35 74  1  0  0  0
 36 75  1  0  0  0
 36 76  1  0  0  0
 36 77  1  0  0  0
 37 78  1  0  0  0
 37 79  1  0  0  0
 38 80  1  0  0  0
 38 81  1  0  0  0
 39 82  1  0  0  0
 40 83  1  0  0  0
M  END
$$$$
