3ppm_ligand
  -I-interpret- 

 46 48  0  0  0  0  0  0  0  0999 V2000
   32.5530  -38.9130    7.6590 N   0  0  0  0  0
   33.3950  -39.9450    7.8620 C   0  0  0  0  0
   32.9480  -41.0900    8.5190 C   0  0  0  0  0
   31.6140  -41.1470    8.9280 C   0  0  0  0  0
   30.7620  -40.0650    8.6830 C   0  0  0  0  0
   31.2820  -38.9480    8.0330 C   0  0  0  0  0
   34.7270  -39.8840    7.4470 C   0  0  0  0  0
   35.4270  -38.9000    6.8570 N   0  0  0  0  0
   36.6060  -39.2610    6.6730 N   0  0  0  0  0
   36.7190  -40.5270    7.0760 C   0  0  0  0  0
   35.5490  -40.9460    7.6310 O   0  0  0  0  0
   37.9700  -41.3810    7.1060 C   0  0  0  0  0
   39.3180  -40.7480    6.7250 C   0  0  0  0  0
   37.8830  -42.5650    7.4460 O   0  0  0  0  0
   40.4330  -41.7670    6.5250 C   0  0  0  0  0
   41.7410  -41.0350    6.1990 C   0  0  0  0  0
   42.8790  -42.0100    5.8940 C   0  0  0  0  0
   43.2100  -42.9790    7.0220 C   0  0  0  0  0
   44.3560  -43.8870    6.5650 C   0  0  0  0  0
   44.7420  -44.9100    7.6380 C   0  0  0  0  0
   44.9920  -46.2280    7.2710 C   0  0  0  0  0
   45.3480  -47.1690    8.2330 C   0  0  0  0  0
   45.4420  -46.7960    9.5690 C   0  0  0  0  0
   45.1830  -45.4810    9.9370 C   0  0  0  0  0
   44.8370  -44.5380    8.9720 C   0  0  0  0  0
   33.6249  -41.9228    8.7094 H   0  0  0  0  0
   31.2370  -42.0337    9.4376 H   0  0  0  0  0
   29.7174  -40.0951    8.9929 H   0  0  0  0  0
   30.6366  -38.0935    7.8298 H   0  0  0  0  0
   39.6156  -40.0932    7.5440 H   0  0  0  0  0
   39.1786  -40.2250    5.7789 H   0  0  0  0  0
   40.1739  -42.4327    5.7017 H   0  0  0  0  0
   40.5603  -42.3504    7.4369 H   0  0  0  0  0
   42.0246  -40.4391    7.0665 H   0  0  0  0  0
   41.5757  -40.4159    5.3173 H   0  0  0  0  0
   43.7720  -41.4096    5.7205 H   0  0  0  0  0
   42.5603  -42.6120    5.0431 H   0  0  0  0  0
   42.3337  -43.5803    7.2641 H   0  0  0  0  0
   43.5077  -42.4249    7.9122 H   0  0  0  0  0
   45.2255  -43.2618    6.3622 H   0  0  0  0  0
   44.0272  -44.4304    5.6791 H   0  0  0  0  0
   44.9088  -46.5254    6.2257 H   0  0  0  0  0
   45.5531  -48.1983    7.9388 H   0  0  0  0  0
   45.7176  -47.5317   10.3246 H   0  0  0  0  0
   45.2509  -45.1866   10.9843 H   0  0  0  0  0
   44.6406  -43.5066    9.2647 H   0  0  0  0  0
  1  2  4  0  0  0
  1  6  4  0  0  0
  2  3  4  0  0  0
  2  7  1  0  0  0
  3  4  4  0  0  0
  4  5  4  0  0  0
  5  6  4  0  0  0
  7  8  4  0  0  0
  7 11  4  0  0  0
  8  9  4  0  0  0
  9 10  4  0  0  0
 10 11  4  0  0  0
 10 12  1  0  0  0
 12 13  1  0  0  0
 12 14  2  0  0  0
 13 15  1  0  0  0
 15 16  1  0  0  0
 16 17  1  0  0  0
 17 18  1  0  0  0
 18 19  1  0  0  0
 19 20  1  0  0  0
 20 21  4  0  0  0
 20 25  4  0  0  0
 21 22  4  0  0  0
 22 23  4  0  0  0
 23 24  4  0  0  0
 24 25  4  0  0  0
  3 26  1  0  0  0
  4 27  1  0  0  0
  5 28  1  0  0  0
  6 29  1  0  0  0
 13 30  1  0  0  0
 13 31  1  0  0  0
 15 32  1  0  0  0
 15 33  1  0  0  0
 16 34  1  0  0  0
 16 35  1  0  0  0
 17 36  1  0  0  0
 17 37  1  0  0  0
 18 38  1  0  0  0
 18 39  1  0  0  0
 19 40  1  0  0  0
 19 41  1  0  0  0
 21 42  1  0  0  0
 22 43  1  0  0  0
 23 44  1  0  0  0
 24 45  1  0  0  0
 25 46  1  0  0  0
M  END
$$$$
