3pkb_ligand
  -I-interpret- 

 48 47  0  0  0  0  0  0  0  0999 V2000
   -3.7590  -43.1910    2.8600 N   0  0  0  0  0
  -10.7900  -43.9830    2.5320 O   0  0  0  0  0
   -0.9380  -43.6850    5.1000 N   0  0  0  0  0
   -6.8030  -44.4650    1.8180 O   0  0  0  0  0
   -8.7410  -42.7190    1.4440 O   0  0  0  0  0
   -4.8490  -43.6130    4.8310 O   0  0  0  0  0
   -2.0020  -41.8150    4.4420 O   0  0  0  0  0
   -6.5870  -41.5750    4.0780 O   0  0  0  0  0
   -9.1620  -46.1980    6.5320 C   0  0  0  0  0
   -9.2480  -45.7950    5.0640 C   0  0  0  0  0
   -9.6470  -44.6570    4.5690 C   0  0  0  0  0
   -9.5110  -44.3110    3.1020 C   0  0  0  0  0
   -8.5670  -43.2040    2.7960 C   0  0  0  0  0
   -7.1630  -43.6610    2.9970 C   0  0  0  0  0
   -6.0890  -42.5740    3.1320 C   0  0  0  0  0
   -7.7050  -46.4100    6.8840 C   0  0  0  0  0
   -9.7970  -45.1680    7.4940 C   0  0  0  0  0
   -9.9060  -47.4800    6.7620 C   0  0  0  0  0
   -4.8500  -43.2060    3.6490 C   0  0  0  0  0
   -2.5050  -43.8050    3.2500 C   0  0  0  0  0
   -1.8150  -42.9930    4.3050 C   0  0  0  0  0
   -5.8480  -40.3800    4.0530 C   0  0  0  0  0
   -3.8171  -42.7295    1.9522 H   0  0  0  0  0
  -10.6793  -43.7675    1.6031 H   0  0  0  0  0
   -0.4220  -43.1990    5.8334 H   0  0  0  0  0
   -0.8016  -44.6858    4.9580 H   0  0  0  0  0
   -5.9006  -44.7795    1.9099 H   0  0  0  0  0
   -8.1189  -42.0069    1.2781 H   0  0  0  0  0
   -8.9384  -46.5497    4.3411 H   0  0  0  0  0
  -10.0970  -43.9246    5.2392 H   0  0  0  0  0
   -9.0933  -45.2138    2.6564 H   0  0  0  0  0
   -8.7818  -42.3814    3.4781 H   0  0  0  0  0
   -7.1658  -44.1885    3.9508 H   0  0  0  0  0
   -5.8724  -42.0977    2.1758 H   0  0  0  0  0
   -7.2916  -47.1985    6.2551 H   0  0  0  0  0
   -7.1539  -45.4844    6.7176 H   0  0  0  0  0
   -7.6240  -46.6992    7.9318 H   0  0  0  0  0
   -9.2865  -44.2108    7.3879 H   0  0  0  0  0
  -10.8525  -45.0474    7.2499 H   0  0  0  0  0
   -9.6982  -45.5221    8.5201 H   0  0  0  0  0
  -10.9527  -47.3451    6.4893 H   0  0  0  0  0
   -9.4681  -48.2677    6.1490 H   0  0  0  0  0
   -9.8360  -47.7554    7.8143 H   0  0  0  0  0
   -1.8576  -43.8646    2.3751 H   0  0  0  0  0
   -2.7111  -44.7973    3.6512 H   0  0  0  0  0
   -4.8097  -40.5910    4.3088 H   0  0  0  0  0
   -5.8964  -39.9452    3.0547 H   0  0  0  0  0
   -6.2667  -39.6802    4.7762 H   0  0  0  0  0
  1 19  1  0  0  0
 20  1  1  0  0  0
 12  2  1  0  0  0
 21  3  1  0  0  0
 14  4  1  0  0  0
 13  5  1  0  0  0
 19  6  2  0  0  0
 21  7  2  0  0  0
 15  8  1  0  0  0
  8 22  1  0  0  0
 10  9  1  0  0  0
  9 16  1  0  0  0
  9 17  1  0  0  0
  9 18  1  0  0  0
 11 10  2  0  0  0
 12 11  1  0  0  0
 13 12  1  0  0  0
 14 13  1  0  0  0
 15 14  1  0  0  0
 19 15  1  0  0  0
 20 21  1  0  0  0
  1 23  1  0  0  0
  2 24  1  0  0  0
  3 25  1  0  0  0
  3 26  1  0  0  0
  4 27  1  0  0  0
  5 28  1  0  0  0
 10 29  1  0  0  0
 11 30  1  0  0  0
 12 31  1  0  0  0
 13 32  1  0  0  0
 14 33  1  0  0  0
 15 34  1  0  0  0
 16 35  1  0  0  0
 16 36  1  0  0  0
 16 37  1  0  0  0
 17 38  1  0  0  0
 17 39  1  0  0  0
 17 40  1  0  0  0
 18 41  1  0  0  0
 18 42  1  0  0  0
 18 43  1  0  0  0
 20 44  1  0  0  0
 20 45  1  0  0  0
 22 46  1  0  0  0
 22 47  1  0  0  0
 22 48  1  0  0  0
M  END
$$$$
