5n25_ligand
  -I-interpret- 

 26 27  0  0  0  0  0  0  0  0999 V2000
   -3.0920    3.1360   14.8860 C   0  0  0  0  0
   -5.1180    2.1910   15.7390 C   0  0  0  0  0
   -5.1440    4.3450   14.6890 C   0  0  0  0  0
   -5.4340    0.9990   18.0110 O   0  0  0  0  0
   -3.0010    5.4400   13.9270 C   0  0  0  0  0
   -1.9670    5.2630   13.0110 C   0  0  0  0  0
   -2.4010    7.7660   13.9500 C   0  0  0  0  0
   -5.8240    3.3100   15.3170 C   0  0  0  0  0
   -3.7620    4.2870   14.4800 C   0  0  0  0  0
   -1.4030    7.4770   13.0430 C   0  0  0  0  0
   -5.4720   -0.4930   16.0670 N   0  0  0  0  0
   -3.2080    6.7350   14.3920 C   0  0  0  0  0
   -5.9270    0.9190   16.6650 S   0  0  0  0  0
   -3.7540    2.0940   15.5100 C   0  0  0  0  0
   -7.3390    1.0450   16.4400 O   0  0  0  0  0
   -1.1720    6.2490   12.5710 N   0  0  0  0  0
   -2.0198    3.0540   14.7078 H   0  0  0  0  0
   -5.6985    5.2208   14.3519 H   0  0  0  0  0
   -1.7927    4.2579   12.6269 H   0  0  0  0  0
   -2.5497    8.7841   14.3098 H   0  0  0  0  0
   -6.9002    3.3751   15.4770 H   0  0  0  0  0
   -0.7702    8.2927   12.6933 H   0  0  0  0  0
   -4.9291   -1.1386   16.6404 H   0  0  0  0  0
   -5.7247   -0.7478   15.1122 H   0  0  0  0  0
   -4.0072    6.9363   15.1053 H   0  0  0  0  0
   -3.2073    1.2032   15.8194 H   0  0  0  0  0
  9  1  4  0  0  0
  1 14  4  0  0  0
  8  2  4  0  0  0
  2 13  1  0  0  0
 14  2  4  0  0  0
  3  8  4  0  0  0
  9  3  4  0  0  0
 13  4  2  0  0  0
  5  6  4  0  0  0
  5  9  1  0  0  0
 12  5  4  0  0  0
  6 16  4  0  0  0
  7 10  4  0  0  0
  7 12  4  0  0  0
 10 16  4  0  0  0
 13 11  1  0  0  0
 13 15  2  0  0  0
  1 17  1  0  0  0
  3 18  1  0  0  0
  6 19  1  0  0  0
  7 20  1  0  0  0
  8 21  1  0  0  0
 10 22  1  0  0  0
 11 23  1  0  0  0
 11 24  1  0  0  0
 12 25  1  0  0  0
 14 26  1  0  0  0
M  END
$$$$
