5alf_ligand
  -I-interpret- 

 47 49  0  0  0  0  0  0  0  0999 V2000
   10.7660    6.1090   21.8790 C   0  0  0  0  0
   10.2100    7.4500   21.4780 C   0  0  0  0  0
   11.1280    8.1470   20.4940 C   0  0  0  0  0
   11.3820    9.5740   20.8350 N   0  0  0  0  0
   10.2500   10.2520   21.5140 C   0  0  0  0  0
    9.4760   11.0950   20.5370 C   0  0  0  0  0
    8.4010   11.8140   21.3100 C   0  0  0  0  0
   12.9440    9.9300   21.4640 S   0  0  0  0  0
   12.8730   10.9820   22.4620 O   0  0  0  0  0
   13.6130    8.6940   21.8160 O   0  0  0  0  0
   13.8090   10.5980   20.0460 C   0  0  0  0  0
   13.9110   11.9710   19.8990 C   0  0  0  0  0
   14.5720   12.5420   18.8270 C   0  0  0  0  0
   15.1130   11.6300   17.9410 C   0  0  0  0  0
   15.0210   10.2580   18.0590 C   0  0  0  0  0
   14.3550    9.7060   19.1420 C   0  0  0  0  0
   15.6740    9.6470   17.0150 N   0  0  0  0  0
   16.1530   10.6020   16.2470 C   0  0  0  0  0
   15.8260   11.8100   16.7910 N   0  0  0  0  0
   16.9600   10.4510   15.0470 C   0  0  0  0  0
   17.4920   11.5440   14.3840 C   0  0  0  0  0
   18.3060   11.3920   13.2800 C   0  0  0  0  0
   18.5970   10.1290   12.8150 C   0  0  0  0  0
   18.0690    9.0280   13.4560 C   0  0  0  0  0
   17.2670    9.1910   14.5680 C   0  0  0  0  0
   10.8715    5.4815   20.9940 H   0  0  0  0  0
   11.7408    6.2465   22.3469 H   0  0  0  0  0
   10.0866    5.6319   22.5853 H   0  0  0  0  0
   10.1173    8.0706   22.3693 H   0  0  0  0  0
    9.2401    7.2987   21.0042 H   0  0  0  0  0
   10.6440    8.1226   19.5177 H   0  0  0  0  0
   12.0863    7.6281   20.5130 H   0  0  0  0  0
   10.6438   10.8948   22.3013 H   0  0  0  0  0
    9.5854    9.4965   21.9332 H   0  0  0  0  0
    9.0338   10.4698   19.7613 H   0  0  0  0  0
   10.1352   11.8107   20.0458 H   0  0  0  0  0
    7.7464   11.0833   21.7851 H   0  0  0  0  0
    8.8618   12.4412   22.0731 H   0  0  0  0  0
    7.8198   12.4358   20.6291 H   0  0  0  0  0
   13.4579   12.6195   20.6488 H   0  0  0  0  0
   14.6589   13.6201   18.6923 H   0  0  0  0  0
   14.2666    8.6276   19.2737 H   0  0  0  0  0
   17.2626   12.5475   14.7423 H   0  0  0  0  0
   18.7169   12.2681   12.7782 H   0  0  0  0  0
   19.2411   10.0002   11.9451 H   0  0  0  0  0
   18.2854    8.0266   13.0838 H   0  0  0  0  0
   16.8696    8.3124   15.0762 H   0  0  0  0  0
  1  2  1  0  0  0
  2  3  1  0  0  0
  3  4  1  0  0  0
  4  5  1  0  0  0
  4  8  1  0  0  0
  5  6  1  0  0  0
  6  7  1  0  0  0
  8  9  2  0  0  0
  8 10  2  0  0  0
  8 11  1  0  0  0
 11 12  4  0  0  0
 11 16  4  0  0  0
 12 13  4  0  0  0
 13 14  4  0  0  0
 14 15  4  0  0  0
 14 19  4  0  0  0
 15 16  4  0  0  0
 15 17  4  0  0  0
 17 18  4  0  0  0
 18 19  4  0  0  0
 18 20  1  0  0  0
 20 21  4  0  0  0
 20 25  4  0  0  0
 21 22  4  0  0  0
 22 23  4  0  0  0
 23 24  4  0  0  0
 24 25  4  0  0  0
  1 26  1  0  0  0
  1 27  1  0  0  0
  1 28  1  0  0  0
  2 29  1  0  0  0
  2 30  1  0  0  0
  3 31  1  0  0  0
  3 32  1  0  0  0
  5 33  1  0  0  0
  5 34  1  0  0  0
  6 35  1  0  0  0
  6 36  1  0  0  0
  7 37  1  0  0  0
  7 38  1  0  0  0
  7 39  1  0  0  0
 12 40  1  0  0  0
 13 41  1  0  0  0
 16 42  1  0  0  0
 21 43  1  0  0  0
 22 44  1  0  0  0
 23 45  1  0  0  0
 24 46  1  0  0  0
 25 47  1  0  0  0
M  END
$$$$
