3g3r_ligand
  -I-interpret- 

 19 18  0  0  0  0  0  0  0  0999 V2000
   13.4240   16.9860   15.7500 P   0  0  0  0  0
   13.4640   18.3830   15.2750 O   0  0  0  0  0
   13.9110   17.0400   17.2770 O   0  0  0  0  0
   14.4880   15.9260   15.2520 O   0  0  0  0  0
   11.5650   14.9580   14.8860 P   0  0  0  0  0
   10.0120   14.8930   15.1850 O   0  0  0  0  0
   12.0990   15.1990   13.5280 O   0  0  0  0  0
   11.8990   16.3360   15.7360 N   0  0  0  0  0
   12.5900   12.2090   14.9600 P   0  0  0  0  0
   13.4870   12.6320   13.7440 O   0  0  0  0  0
   11.5480   11.2950   14.2310 O   0  0  0  0  0
   12.0370   13.5780   15.5050 O   0  0  0  0  0
   13.2570   11.5830   16.1130 O   0  0  0  0  0
   13.9064   16.1532   17.6447 H   0  0  0  0  0
   14.3085   15.0769   15.6625 H   0  0  0  0  0
    9.8740   14.7288   16.1207 H   0  0  0  0  0
   11.1540   16.7942   16.2608 H   0  0  0  0  0
   12.9362   13.0250   13.0630 H   0  0  0  0  0
   11.1613   11.7760   13.4957 H   0  0  0  0  0
  1  2  2  0  0  0
  1  3  1  0  0  0
  1  4  1  0  0  0
  8  1  1  0  0  0
  5  6  1  0  0  0
  5  7  2  0  0  0
  5  8  1  0  0  0
 12  5  1  0  0  0
  9 10  1  0  0  0
  9 11  1  0  0  0
  9 12  1  0  0  0
  9 13  2  0  0  0
  3 14  1  0  0  0
  4 15  1  0  0  0
  6 16  1  0  0  0
  8 17  1  0  0  0
 10 18  1  0  0  0
 11 19  1  0  0  0
M  END
$$$$
