4i5c_ligand
  -I-interpret- 

 37 40  0  0  0  0  0  0  0  0999 V2000
   16.9340    2.7000    0.8260 C   0  0  0  0  0
   17.7230    1.6120    0.9920 C   0  0  0  0  0
   17.1230    0.5000    0.4520 N   0  0  0  0  0
   15.8970    0.8540   -0.0830 C   0  0  0  0  0
   15.7310    2.2500    0.1330 C   0  0  0  0  0
   14.5300    2.8750   -0.2970 C   0  0  0  0  0
   13.5410    2.0940   -0.9170 C   0  0  0  0  0
   13.7950    0.7150   -1.1020 C   0  0  0  0  0
   14.9290    0.1560   -0.6940 N   0  0  0  0  0
   12.4910    2.9120   -1.1910 N   0  0  0  0  0
   12.7080    4.1080   -0.7560 N   0  0  0  0  0
   14.0050    4.1420   -0.2280 N   0  0  0  0  0
   14.6350    5.2730    0.4650 C   0  0  0  0  0
   14.3930    5.0550    1.9890 C   0  0  0  0  0
   15.0090    6.1800    2.8150 C   0  0  0  0  0
   14.4010    7.5160    2.3370 C   0  0  0  0  0
   14.6630    7.6370    0.8800 N   0  0  0  0  0
   14.0510    6.6220    0.0060 C   0  0  0  0  0
   15.5320    8.5620    0.3730 C   0  0  0  0  0
   15.7550    8.6080   -0.8370 O   0  0  0  0  0
   16.1850    9.5720    1.2950 C   0  0  0  0  0
   17.2760   10.3050    0.6320 C   0  0  0  0  0
   18.1180   10.8680    0.1250 N   0  0  0  0  0
   17.1552    3.7175    1.1484 H   0  0  0  0  0
   18.6956    1.6176    1.4840 H   0  0  0  0  0
   13.0425    0.0962   -1.5909 H   0  0  0  0  0
   15.6998    5.3107    0.2352 H   0  0  0  0  0
   14.8582    4.1141    2.2829 H   0  0  0  0  0
   13.3184    5.0396    2.1708 H   0  0  0  0  0
   16.0911    6.1922    2.6844 H   0  0  0  0  0
   14.7963    6.0283    3.8732 H   0  0  0  0  0
   14.8516    8.3509    2.8736 H   0  0  0  0  0
   13.3288    7.5356    2.5321 H   0  0  0  0  0
   12.9638    6.6325    0.0840 H   0  0  0  0  0
   14.2718    6.8150   -1.0438 H   0  0  0  0  0
   16.6049    9.0340    2.1449 H   0  0  0  0  0
   15.4269   10.2937    1.5992 H   0  0  0  0  0
  1  2  4  0  0  0
  1  5  4  0  0  0
  2  3  4  0  0  0
  3  4  4  0  0  0
  4  5  4  0  0  0
  4  9  4  0  0  0
  5  6  4  0  0  0
  6  7  4  0  0  0
  6 12  4  0  0  0
  7  8  4  0  0  0
  7 10  4  0  0  0
  8  9  4  0  0  0
 10 11  4  0  0  0
 11 12  4  0  0  0
 12 13  1  0  0  0
 13 14  1  0  0  0
 13 18  1  0  0  0
 14 15  1  0  0  0
 15 16  1  0  0  0
 16 17  1  0  0  0
 17 18  1  0  0  0
 17 19  1  0  0  0
 19 20  2  0  0  0
 19 21  1  0  0  0
 21 22  1  0  0  0
 22 23  3  0  0  0
  1 24  1  0  0  0
  2 25  1  0  0  0
  8 26  1  0  0  0
 13 27  1  0  0  0
 14 28  1  0  0  0
 14 29  1  0  0  0
 15 30  1  0  0  0
 15 31  1  0  0  0
 16 32  1  0  0  0
 16 33  1  0  0  0
 18 34  1  0  0  0
 18 35  1  0  0  0
 21 36  1  0  0  0
 21 37  1  0  0  0
M  END
$$$$
