4qpa_ligand
  -I-interpret- 

 42 46  0  0  0  0  0  0  0  0999 V2000
    2.8380  -50.9470  -56.2270 C   0  0  0  0  0
    4.1790  -50.6160  -56.2850 C   0  0  0  0  0
    5.0020  -50.8930  -55.2100 C   0  0  0  0  0
    1.9420  -50.6540  -57.4000 C   0  0  0  0  0
    2.5460  -53.3720  -59.7000 C   0  0  0  0  0
    0.9240  -52.7960  -58.3310 N   0  0  0  0  0
    3.3150  -54.1450  -60.7100 C   0  0  0  0  0
    4.7970  -54.7330  -62.3740 C   0  0  0  0  0
    5.9270  -52.3060  -62.6320 C   0  0  0  0  0
    6.3360  -53.3900  -63.4130 C   0  0  0  0  0
    6.1910  -49.8900  -62.0190 C   0  0  0  0  0
    7.5850  -50.7990  -63.7530 C   0  0  0  0  0
    4.4840  -51.5040  -54.0830 C   0  0  0  0  0
    3.1440  -51.8360  -54.0270 C   0  0  0  0  0
    2.3210  -51.5600  -55.1020 C   0  0  0  0  0
    1.9440  -51.8420  -58.2560 N   0  0  0  0  0
    2.9340  -52.2120  -59.0980 C   0  0  0  0  0
    1.2770  -53.7120  -59.1920 C   0  0  0  0  0
    3.1560  -55.4540  -61.0190 C   0  0  0  0  0
    4.0340  -55.8140  -62.0040 N   0  0  0  0  0
    4.3820  -53.6370  -61.5840 C   0  0  0  0  0
    4.9600  -52.4530  -61.7350 N   0  0  0  0  0
    5.7660  -54.5690  -63.2670 N   0  0  0  0  0
    6.5750  -50.9830  -62.8040 C   0  0  0  0  0
    6.8190  -48.6770  -62.2100 C   0  0  0  0  0
    7.7680  -48.5460  -63.1170 N   0  0  0  0  0
    8.1600  -49.5520  -63.8760 C   0  0  0  0  0
    4.5860  -50.1379  -57.1760 H   0  0  0  0  0
    6.0590  -50.6299  -55.2505 H   0  0  0  0  0
    2.3027  -49.7848  -57.9500 H   0  0  0  0  0
    0.9308  -50.4266  -57.0624 H   0  0  0  0  0
    7.1310  -53.2596  -64.1472 H   0  0  0  0  0
    5.4078  -49.9957  -61.2683 H   0  0  0  0  0
    7.9117  -51.6258  -64.3837 H   0  0  0  0  0
    5.1345  -51.7243  -53.2366 H   0  0  0  0  0
    2.7369  -52.3148  -53.1364 H   0  0  0  0  0
    1.2646  -51.8257  -55.0625 H   0  0  0  0  0
    3.8709  -51.6805  -59.2652 H   0  0  0  0  0
    0.6910  -54.5882  -59.4696 H   0  0  0  0  0
    2.4338  -56.1229  -60.5510 H   0  0  0  0  0
    6.5283  -47.8179  -61.6054 H   0  0  0  0  0
    8.9497  -49.3947  -64.6107 H   0  0  0  0  0
  1  2  4  0  0  0
  4  1  1  0  0  0
  1 15  4  0  0  0
  2  3  4  0  0  0
  3 13  4  0  0  0
 16  4  1  0  0  0
  7  5  1  0  0  0
  5 17  4  0  0  0
  5 18  4  0  0  0
  6 16  4  0  0  0
 18  6  4  0  0  0
  7 19  4  0  0  0
 21  7  4  0  0  0
  8 20  4  0  0  0
  8 21  4  0  0  0
 23  8  4  0  0  0
 10  9  4  0  0  0
  9 22  4  0  0  0
  9 24  1  0  0  0
 10 23  4  0  0  0
 24 11  4  0  0  0
 11 25  4  0  0  0
 24 12  4  0  0  0
 12 27  4  0  0  0
 13 14  4  0  0  0
 14 15  4  0  0  0
 16 17  4  0  0  0
 19 20  4  0  0  0
 21 22  4  0  0  0
 25 26  4  0  0  0
 26 27  4  0  0  0
  2 28  1  0  0  0
  3 29  1  0  0  0
  4 30  1  0  0  0
  4 31  1  0  0  0
 10 32  1  0  0  0
 11 33  1  0  0  0
 12 34  1  0  0  0
 13 35  1  0  0  0
 14 36  1  0  0  0
 15 37  1  0  0  0
 17 38  1  0  0  0
 18 39  1  0  0  0
 19 40  1  0  0  0
 25 41  1  0  0  0
 27 42  1  0  0  0
M  END
$$$$
