6MIA_LIGAND
  -I-interpret- 

 31 34  0  0  0  0  0  0  0  0999 V2000
  -30.0010  -19.1240  -12.5860 O   0  0  0  0  0
  -29.7230  -19.1260  -13.7950 C   0  0  0  0  0
  -30.0910  -18.0540  -14.5850 N   0  0  0  0  0
  -30.7980  -16.9120  -13.9560 C   0  0  0  0  0
  -32.3100  -16.9350  -14.1690 C   0  0  0  0  0
  -32.9180  -16.8710  -15.3540 N   0  0  0  0  0
  -33.2130  -17.0150  -13.1880 N   0  0  0  0  0
  -34.4330  -17.0040  -13.7780 N   0  0  0  0  0
  -34.2460  -16.9170  -15.0940 N   0  0  0  0  0
  -29.0420  -20.2050  -14.4060 C   0  0  0  0  0
  -28.5560  -21.4170  -13.8380 C   0  0  0  0  0
  -28.6230  -21.9270  -12.3780 C   0  0  0  0  0
  -28.3140  -23.3830  -12.2230 C   0  0  0  0  0
  -27.1010  -23.8080  -13.0450 C   0  0  0  0  0
  -27.3080  -23.5900  -14.5090 C   0  0  0  0  0
  -27.9030  -22.2560  -14.8570 C   0  0  0  0  0
  -28.0210  -21.3700  -16.3330 S   0  0  0  0  0
  -28.7860  -20.0810  -15.8340 C   0  0  0  0  0
  -29.1780  -18.9940  -16.5080 N   0  0  0  0  0
  -29.8040  -18.0230  -15.9070 C   0  0  0  0  0
  -30.4176  -15.9997  -14.4154 H   0  0  0  0  0
  -30.6188  -16.9686  -12.8823 H   0  0  0  0  0
  -29.6452  -21.7761  -12.0309 H   0  0  0  0  0
  -27.8731  -21.3765  -11.8100 H   0  0  0  0  0
  -29.1759  -23.9509  -12.5735 H   0  0  0  0  0
  -28.0937  -23.5720  -11.1724 H   0  0  0  0  0
  -26.9354  -24.8727  -12.8803 H   0  0  0  0  0
  -26.2490  -23.2059  -12.7292 H   0  0  0  0  0
  -28.0079  -24.3524  -14.8510 H   0  0  0  0  0
  -26.3272  -23.6370  -14.9821 H   0  0  0  0  0
  -30.1078  -17.1536  -16.4901 H   0  0  0  0  0
  2  1  2  0  0  0
  3  2  1  0  0  0
  2 10  1  0  0  0
  3  4  1  0  0  0
 20  3  1  0  0  0
  4  5  1  0  0  0
  5  6  4  0  0  0
  5  7  4  0  0  0
  6  9  4  0  0  0
  7  8  4  0  0  0
  8  9  4  0  0  0
 10 11  4  0  0  0
 10 18  4  0  0  0
 11 12  1  0  0  0
 11 16  4  0  0  0
 12 13  1  0  0  0
 13 14  1  0  0  0
 14 15  1  0  0  0
 15 16  1  0  0  0
 16 17  4  0  0  0
 17 18  4  0  0  0
 18 19  1  0  0  0
 19 20  2  0  0  0
  4 21  1  0  0  0
  4 22  1  0  0  0
 12 23  1  0  0  0
 12 24  1  0  0  0
 13 25  1  0  0  0
 13 26  1  0  0  0
 14 27  1  0  0  0
 14 28  1  0  0  0
 15 29  1  0  0  0
 15 30  1  0  0  0
 20 31  1  0  0  0
M  END
$$$$
