4ayr_ligand
  -I-interpret- 

 25 25  0  0  0  0  0  0  0  0999 V2000
    4.3720   28.8010    2.8460 O   0  0  0  0  0
    4.2470   29.7620    1.7850 C   0  0  0  0  0
    2.7590   30.0870    1.5900 C   0  0  0  0  0
    2.5840   30.9180    0.4270 O   0  0  0  0  0
    2.1650   30.8680    2.6990 C   0  0  0  0  0
    2.9520   32.0610    3.0060 N   0  3  0  0  0
    4.4090   31.8670    3.2200 C   0  0  0  0  0
    5.0740   30.9970    2.1420 C   0  0  0  0  0
    5.4610   31.7690    0.8780 C   0  0  0  0  0
    6.2220   32.9530    1.1930 O   0  0  0  0  0
    0.8620   31.1980    2.4110 O   0  0  0  0  0
    3.8558   28.0205    2.6317 H   0  0  0  0  0
    4.6277   29.3703    0.8417 H   0  0  0  0  0
    2.2727   29.1143    1.5156 H   0  0  0  0  0
    2.9492   30.4726   -0.3410 H   0  0  0  0  0
    2.1749   30.2391    3.5892 H   0  0  0  0  0
    2.5851   32.4187    3.8879 H   0  0  0  0  0
    2.8676   32.6689    2.1913 H   0  0  0  0  0
    4.5358   31.3592    4.1761 H   0  0  0  0  0
    4.8797   32.8495    3.1856 H   0  0  0  0  0
    6.0023   30.6590    2.6026 H   0  0  0  0  0
    4.5479   32.0720    0.3657 H   0  0  0  0  0
    6.0746   31.1209    0.2522 H   0  0  0  0  0
    6.4478   33.4124    0.3808 H   0  0  0  0  0
    0.3671   30.3995    2.2133 H   0  0  0  0  0
  1  2  1  0  0  0
  2  3  1  0  0  0
  2  8  1  0  0  0
  3  4  1  0  0  0
  3  5  1  0  0  0
  5  6  1  0  0  0
  5 11  1  0  0  0
  6  7  1  0  0  0
  7  8  1  0  0  0
  8  9  1  0  0  0
  9 10  1  0  0  0
  1 12  1  0  0  0
  2 13  1  0  0  0
  3 14  1  0  0  0
  4 15  1  0  0  0
  5 16  1  0  0  0
  6 17  1  0  0  0
  6 18  1  0  0  0
  7 19  1  0  0  0
  7 20  1  0  0  0
  8 21  1  0  0  0
  9 22  1  0  0  0
  9 23  1  0  0  0
 10 24  1  0  0  0
 11 25  1  0  0  0
M  END
$$$$
