### 
### Created by X-TOOL on Mon Sep 10 21:12:57 2018
### 

@<TRIPOS>MOLECULE
3e0p_ligand
  108   113     1     0     0
SMALL
GAST_HUCK


@<TRIPOS>ATOM
      1 C10        16.9440   37.3940    4.7970 C.3       1 B3C         0.0162
      2 C12        17.1140   39.4580    3.6540 C.3       1 B3C         0.0633
      3 C21        20.6540   38.8760   -0.1320 C.ar      1 B3C        -0.0686
      4 C26        13.4400   41.5920    1.4340 C.2       1 B3C         0.3239
      5 C24        18.9010   39.8280   -2.0440 C.ar      1 B3C        -0.0603
      6 C23        19.9990   39.0910   -2.4630 C.ar      1 B3C        -0.0686
      7 C14        15.3170   38.9540    1.9770 C.2       1 B3C         0.2066
      8 C19        18.6740   40.0880   -0.6980 C.ar      1 B3C        -0.0428
      9 C18        17.4830   40.9050   -0.2370 C.3       1 B3C        -0.0149
     10 C17        16.3220   39.9670    0.0770 C.3       1 B3C        -0.0027
     11 C16        15.5030   40.2930    1.3030 C.3       1 B3C         0.1348
     12 C7         14.5390   37.0130    4.1410 C.2       1 B3C         0.2025
     13 C5         12.8330   35.3790    4.5630 C.3       1 B3C         0.0874
     14 C4         12.2970   34.4230    3.5150 C.3       1 B3C        -0.0244
     15 C3         11.8860   35.1630    2.2550 C.3       1 B3C        -0.0459
     16 C30        10.9680   43.9610    0.6130 C.ar      1 B3C        -0.0130
     17 C31        10.6990   45.1840    0.0140 C.ar      1 B3C        -0.0578
     18 C2         11.0660   34.2250    1.3430 C.3       1 B3C        -0.0126
     19 O          13.7890   37.8520    4.6120 O.2       1 B3C        -0.3945
     20 C          11.0570   34.9150   -0.0280 C.3       1 B3C        -0.0354
     21 O46        11.8890   34.1430    6.3470 O.3       1 B3C        -0.3657
     22 C45        12.9180   34.6700    5.9100 C.3       1 B3C         0.1710
     23 C47        13.4390   35.6840    6.8490 C.2       1 B3C         0.2162
     24 O51        12.6150   36.5350    7.4280 O.3       1 B3C        -0.2144
     25 C50        13.5420   37.3270    8.1410 C.ar      1 B3C         0.1416
     26 C52        13.2030   38.3920    8.9750 C.ar      1 B3C        -0.0302
     27 C53        14.2450   39.0510    9.6070 C.ar      1 B3C        -0.0741
     28 C54        15.5690   38.6620    9.4300 C.ar      1 B3C        -0.0768
     29 C55        15.8820   37.5840    8.6110 C.ar      1 B3C        -0.0622
     30 C49        14.8440   36.9080    7.9450 C.ar      1 B3C         0.0370
     31 N48        14.7790   35.8130    7.0890 N.2       1 B3C        -0.2984
     32 N6         14.1560   35.7390    4.0730 N.am      1 B3C        -0.2765
     33 C9         15.9160   37.3290    3.6500 C.3       1 B3C         0.1361
     34 N13        16.0570   38.6460    3.0250 N.am      1 B3C        -0.2473
     35 C11        17.9860   38.4290    4.3700 C.3       1 B3C         0.0857
     36 O36        18.8760   37.8870    3.3900 O.3       1 B3C        -0.3630
     37 C37        19.8960   37.0780    3.9360 C.3       1 B3C         0.0790
     38 C38        20.7410   36.3410    2.9320 C.ar      1 B3C        -0.0242
     39 C44        22.0820   36.6920    2.7750 C.ar      1 B3C        -0.0646
     40 C43        22.8690   35.9760    1.8670 C.ar      1 B3C        -0.0670
     41 C41        22.2820   34.9520    1.1260 C.ar      1 B3C        -0.0528
     42 C40        20.9610   34.6170    1.2880 C.ar      1 B3C        -0.0670
     43 C39        20.1950   35.3040    2.2080 C.ar      1 B3C        -0.0646
     44 O15        14.4820   38.1950    1.5370 O.2       1 B3C        -0.3942
     45 C22        20.8660   38.6330   -1.4800 C.ar      1 B3C        -0.0687
     46 C20        19.5530   39.6150    0.2640 C.ar      1 B3C        -0.0603
     47 N25        14.1960   40.6920    0.8110 N.am      1 B3C        -0.2409
     48 O27        13.7850   42.1640    2.4670 O.2       1 B3C        -0.3773
     49 O28        12.1490   41.9230    0.8950 O.3       1 B3C        -0.2506
     50 C29        12.0410   43.0730    0.0600 C.3       1 B3C         0.1113
     51 C35        10.2360   43.5490    1.7150 C.ar      1 B3C        -0.0578
     52 C34         9.2360   44.3710    2.2350 C.ar      1 B3C        -0.0685
     53 C33         8.9770   45.5990    1.6370 C.ar      1 B3C        -0.0687
     54 C32         9.7020   46.0020    0.5240 C.ar      1 B3C        -0.0685
     55 N          10.1190   36.0140   -0.0330 N.4       1 B3C         0.2185
     56 H1         17.4178   36.4119    4.9420 H         1 B3C         0.0338
     57 H2         16.4551   37.7068    5.7314 H         1 B3C         0.0338
     58 H3         16.6844   40.1738    4.3702 H         1 B3C         0.0550
     59 H4         17.6941   40.0026    2.8945 H         1 B3C         0.0550
     60 H5         21.3462   38.4896    0.6074 H         1 B3C         0.0599
     61 H6         18.2051   40.2093   -2.7825 H         1 B3C         0.0557
     62 H7         20.1726   38.8817   -3.5124 H         1 B3C         0.0599
     63 H8         17.1862   41.6040   -1.0328 H         1 B3C         0.0428
     64 H9         17.7530   41.4713    0.6665 H         1 B3C         0.0428
     65 H10        16.7358   38.9567    0.2110 H         1 B3C         0.0334
     66 H11        15.6438   39.9736   -0.7890 H         1 B3C         0.0334
     67 H12        15.9667   41.0493    1.9534 H         1 B3C         0.0801
     68 H13        12.1933   36.2695    4.6518 H         1 B3C         0.0616
     69 H14        11.4217   33.8969    3.9236 H         1 B3C         0.0290
     70 H15        13.0793   33.6921    3.2626 H         1 B3C         0.0290
     71 H16        12.7857   35.4992    1.7188 H         1 B3C         0.0268
     72 H17        11.2736   36.0354    2.5269 H         1 B3C         0.0268
     73 H18        11.2684   45.4998   -0.8527 H         1 B3C         0.0557
     74 H19        10.0410   34.1118    1.7259 H         1 B3C         0.0317
     75 H20        11.5435   33.2364    1.2754 H         1 B3C         0.0317
     76 H21        10.7654   34.1862   -0.7986 H         1 B3C         0.0813
     77 H22        12.0646   35.2976   -0.2478 H         1 B3C         0.0813
     78 H23        11.5886   33.4818    5.7346 H         1 B3C         0.2146
     79 H24        13.6601   33.8640    5.8121 H         1 B3C         0.0910
     80 H25        12.1714   38.6906    9.1221 H         1 B3C         0.0559
     81 H26        14.0231   39.8907   10.2556 H         1 B3C         0.0536
     82 H27        16.3614   39.2033    9.9342 H         1 B3C         0.0527
     83 H28        16.9117   37.2685    8.4872 H         1 B3C         0.0542
     84 H29        14.7654   35.0432    3.6927 H         1 B3C         0.1858
     85 H30        16.2016   36.5475    2.9305 H         1 B3C         0.0803
     86 H31        18.5381   38.8459    5.2252 H         1 B3C         0.0620
     87 H32        19.4235   36.3336    4.5937 H         1 B3C         0.0711
     88 H33        20.5599   37.7233    4.5300 H         1 B3C         0.0711
     89 H34        22.5078   37.5076    3.3482 H         1 B3C         0.0540
     90 H35        23.9191   36.2139    1.7416 H         1 B3C         0.0540
     91 C          23.1264   34.1867    0.1126 C.3       1 B3C        -0.0343
     92 H36        20.5230   33.8197    0.6985 H         1 B3C         0.0540
     93 H37        19.1585   35.0261    2.3616 H         1 B3C         0.0540
     94 H38        21.7401   38.0650   -1.7775 H         1 B3C         0.0559
     95 H39        19.3800   39.8216    1.3140 H         1 B3C         0.0557
     96 H40        13.8508   40.2737   -0.0292 H         1 B3C         0.1899
     97 H41        12.9992   43.6129    0.0459 H         1 B3C         0.0776
     98 H42        11.7782   42.7657   -0.9630 H         1 B3C         0.0776
     99 H43        10.4404   42.5880    2.1730 H         1 B3C         0.0557
    100 H44         8.6645   44.0542    3.0999 H         1 B3C         0.0599
    101 H45         8.2057   46.2444    2.0415 H         1 B3C         0.0559
    102 H46         9.4891   46.9553    0.0539 H         1 B3C         0.0599
    103 H47        10.1246   36.4564   -0.9387 H         1 B3C         0.1994
    104 H48        10.3843   36.6854    0.6705 H         1 B3C         0.1994
    105 H49         9.1937   35.6670    0.1657 H         1 B3C         0.1994
    106 H50        24.1519   34.5846    0.1149 H         1 B3C         0.0378
    107 H51        22.6902   34.3030   -0.8905 H         1 B3C         0.0378
    108 H52        23.1462   33.1205    0.3825 H         1 B3C         0.0378
@<TRIPOS>BOND
     1   33    1 1  
     2    1   35 1  
     3   34    2 1  
     4    2   35 1  
     5    3   45 ar 
     6   46    3 ar 
     7    4   47 am 
     8    4   48 2  
     9   49    4 1  
    10    5    6 ar 
    11    8    5 ar 
    12    6   45 ar 
    13   11    7 1  
    14    7   34 am 
    15    7   44 2  
    16    9    8 1  
    17    8   46 ar 
    18   10    9 1  
    19   11   10 1  
    20   47   11 1  
    21   12   19 2  
    22   12   32 am 
    23   33   12 1  
    24   13   14 1  
    25   13   22 1  
    26   32   13 1  
    27   14   15 1  
    28   15   18 1  
    29   16   17 ar 
    30   50   16 1  
    31   16   51 ar 
    32   17   54 ar 
    33   18   20 1  
    34   20   55 1  
    35   22   21 1  
    36   22   23 1  
    37   23   24 1  
    38   23   31 2  
    39   24   25 1  
    40   25   26 ar 
    41   30   25 ar 
    42   26   27 ar 
    43   28   27 ar 
    44   29   28 ar 
    45   30   29 ar 
    46   31   30 1  
    47   34   33 1  
    48   35   36 1  
    49   36   37 1  
    50   37   38 1  
    51   38   39 ar 
    52   38   43 ar 
    53   39   40 ar 
    54   40   41 ar 
    55   42   41 ar 
    56   43   42 ar 
    57   49   50 1  
    58   51   52 ar 
    59   52   53 ar 
    60   53   54 ar 
    61    1   56 1  
    62    1   57 1  
    63    2   58 1  
    64    2   59 1  
    65    3   60 1  
    66    5   61 1  
    67    6   62 1  
    68    9   63 1  
    69    9   64 1  
    70   10   65 1  
    71   10   66 1  
    72   11   67 1  
    73   13   68 1  
    74   14   69 1  
    75   14   70 1  
    76   15   71 1  
    77   15   72 1  
    78   17   73 1  
    79   18   74 1  
    80   18   75 1  
    81   20   76 1  
    82   20   77 1  
    83   21   78 1  
    84   22   79 1  
    85   26   80 1  
    86   27   81 1  
    87   28   82 1  
    88   29   83 1  
    89   32   84 1  
    90   33   85 1  
    91   35   86 1  
    92   37   87 1  
    93   37   88 1  
    94   39   89 1  
    95   40   90 1  
    96   41   91 1  
    97   42   92 1  
    98   43   93 1  
    99   45   94 1  
   100   46   95 1  
   101   47   96 1  
   102   50   97 1  
   103   50   98 1  
   104   51   99 1  
   105   52  100 1  
   106   53  101 1  
   107   54  102 1  
   108   55  103 1  
   109   55  104 1  
   110   55  105 1  
   111   91  106 1  
   112   91  107 1  
   113   91  108 1  
@<TRIPOS>SUBSTRUCTURE
     1 B3C         1

