3e0p_ligand
  -I-interpret- 

108113  0  0  0  0  0  0  0  0999 V2000
   16.9440   37.3940    4.7970 C   0  0  0  0  0
   17.1140   39.4580    3.6540 C   0  0  0  0  0
   20.6540   38.8760   -0.1320 C   0  0  0  0  0
   13.4400   41.5920    1.4340 C   0  0  0  0  0
   18.9010   39.8280   -2.0440 C   0  0  0  0  0
   19.9990   39.0910   -2.4630 C   0  0  0  0  0
   15.3170   38.9540    1.9770 C   0  0  0  0  0
   18.6740   40.0880   -0.6980 C   0  0  0  0  0
   17.4830   40.9050   -0.2370 C   0  0  0  0  0
   16.3220   39.9670    0.0770 C   0  0  0  0  0
   15.5030   40.2930    1.3030 C   0  0  0  0  0
   14.5390   37.0130    4.1410 C   0  0  0  0  0
   12.8330   35.3790    4.5630 C   0  0  0  0  0
   12.2970   34.4230    3.5150 C   0  0  0  0  0
   11.8860   35.1630    2.2550 C   0  0  0  0  0
   10.9680   43.9610    0.6130 C   0  0  0  0  0
   10.6990   45.1840    0.0140 C   0  0  0  0  0
   11.0660   34.2250    1.3430 C   0  0  0  0  0
   13.7890   37.8520    4.6120 O   0  0  0  0  0
   11.0570   34.9150   -0.0280 C   0  0  0  0  0
   11.8890   34.1430    6.3470 O   0  0  0  0  0
   12.9180   34.6700    5.9100 C   0  0  0  0  0
   13.4390   35.6840    6.8490 C   0  0  0  0  0
   12.6150   36.5350    7.4280 O   0  0  0  0  0
   13.5420   37.3270    8.1410 C   0  0  0  0  0
   13.2030   38.3920    8.9750 C   0  0  0  0  0
   14.2450   39.0510    9.6070 C   0  0  0  0  0
   15.5690   38.6620    9.4300 C   0  0  0  0  0
   15.8820   37.5840    8.6110 C   0  0  0  0  0
   14.8440   36.9080    7.9450 C   0  0  0  0  0
   14.7790   35.8130    7.0890 N   0  0  0  0  0
   14.1560   35.7390    4.0730 N   0  0  0  0  0
   15.9160   37.3290    3.6500 C   0  0  0  0  0
   16.0570   38.6460    3.0250 N   0  0  0  0  0
   17.9860   38.4290    4.3700 C   0  0  0  0  0
   18.8760   37.8870    3.3900 O   0  0  0  0  0
   19.8960   37.0780    3.9360 C   0  0  0  0  0
   20.7410   36.3410    2.9320 C   0  0  0  0  0
   22.0820   36.6920    2.7750 C   0  0  0  0  0
   22.8690   35.9760    1.8670 C   0  0  0  0  0
   22.2820   34.9520    1.1260 C   0  0  0  0  0
   20.9610   34.6170    1.2880 C   0  0  0  0  0
   20.1950   35.3040    2.2080 C   0  0  0  0  0
   14.4820   38.1950    1.5370 O   0  0  0  0  0
   20.8660   38.6330   -1.4800 C   0  0  0  0  0
   19.5530   39.6150    0.2640 C   0  0  0  0  0
   14.1960   40.6920    0.8110 N   0  0  0  0  0
   13.7850   42.1640    2.4670 O   0  0  0  0  0
   12.1490   41.9230    0.8950 O   0  0  0  0  0
   12.0410   43.0730    0.0600 C   0  0  0  0  0
   10.2360   43.5490    1.7150 C   0  0  0  0  0
    9.2360   44.3710    2.2350 C   0  0  0  0  0
    8.9770   45.5990    1.6370 C   0  0  0  0  0
    9.7020   46.0020    0.5240 C   0  0  0  0  0
   10.1190   36.0140   -0.0330 N   0  3  0  0  0
   23.1264   34.1867    0.1126 C   0  0  0  0  0
   17.4026   36.4208    4.9722 H   0  0  0  0  0
   16.4697   37.6756    5.7371 H   0  0  0  0  0
   16.7115   40.2073    4.3357 H   0  0  0  0  0
   17.6758   40.0438    2.9264 H   0  0  0  0  0
   21.3500   38.4875    0.6114 H   0  0  0  0  0
   18.2012   40.2114   -2.7866 H   0  0  0  0  0
   20.1735   38.8806   -3.5182 H   0  0  0  0  0
   17.1893   41.5995   -1.0241 H   0  0  0  0  0
   17.7501   41.4682    0.6572 H   0  0  0  0  0
   16.7665   38.9892    0.2629 H   0  0  0  0  0
   15.6390   40.0391   -0.7694 H   0  0  0  0  0
   15.9438   41.0521    1.9492 H   0  0  0  0  0
   12.2019   36.2552    4.7119 H   0  0  0  0  0
   11.4218   33.9163    3.9217 H   0  0  0  0  0
   13.0820   33.7112    3.2597 H   0  0  0  0  0
   12.7783   35.4937    1.7235 H   0  0  0  0  0
   11.2774   36.0259    2.5256 H   0  0  0  0  0
   11.2716   45.5015   -0.8575 H   0  0  0  0  0
   10.0568   34.0702    1.7247 H   0  0  0  0  0
   11.5027   33.2277    1.2911 H   0  0  0  0  0
   10.7602   34.1916   -0.7874 H   0  0  0  0  0
   12.0551   35.2993   -0.2384 H   0  0  0  0  0
   12.0757   33.7340    7.1952 H   0  0  0  0  0
   13.5611   33.7992    5.7829 H   0  0  0  0  0
   12.1657   38.6922    9.1229 H   0  0  0  0  0
   14.0219   39.8954   10.2592 H   0  0  0  0  0
   16.3658   39.2063    9.9370 H   0  0  0  0  0
   16.9174   37.2668    8.4865 H   0  0  0  0  0
   14.7776   35.0293    3.6851 H   0  0  0  0  0
   16.0899   36.5229    2.9373 H   0  0  0  0  0
   18.5866   38.7928    5.2037 H   0  0  0  0  0
   19.4011   36.3199    4.5430 H   0  0  0  0  0
   20.5665   37.7452    4.4777 H   0  0  0  0  0
   22.5102   37.5121    3.3514 H   0  0  0  0  0
   23.9249   36.2152    1.7409 H   0  0  0  0  0
   20.5205   33.8153    0.6952 H   0  0  0  0  0
   19.1528   35.0246    2.3624 H   0  0  0  0  0
   21.7449   38.0619   -1.7791 H   0  0  0  0  0
   19.3790   39.8227    1.3198 H   0  0  0  0  0
   13.8439   40.2653   -0.0460 H   0  0  0  0  0
   12.9910   43.6068    0.0362 H   0  0  0  0  0
   11.7888   42.7727   -0.9570 H   0  0  0  0  0
   10.4415   42.5827    2.1756 H   0  0  0  0  0
    8.6613   44.0524    3.1047 H   0  0  0  0  0
    8.2015   46.2480    2.0438 H   0  0  0  0  0
    9.4879   46.9605    0.0513 H   0  0  0  0  0
   10.1255   36.4608   -0.9499 H   0  0  0  0  0
    9.1832   35.6616    0.1682 H   0  0  0  0  0
   10.3885   36.6927    0.6792 H   0  0  0  0  0
   23.5086   34.8796   -0.6371 H   0  0  0  0  0
   23.9606   33.7073    0.6249 H   0  0  0  0  0
   22.5115   33.4282   -0.3718 H   0  0  0  0  0
 33  1  1  0  0  0
  1 35  1  0  0  0
 34  2  1  0  0  0
  2 35  1  0  0  0
  3 45  4  0  0  0
 46  3  4  0  0  0
  4 47  1  0  0  0
  4 48  2  0  0  0
 49  4  1  0  0  0
  5  6  4  0  0  0
  8  5  4  0  0  0
  6 45  4  0  0  0
 11  7  1  0  0  0
  7 34  1  0  0  0
  7 44  2  0  0  0
  9  8  1  0  0  0
  8 46  4  0  0  0
 10  9  1  0  0  0
 11 10  1  0  0  0
 47 11  1  0  0  0
 12 19  2  0  0  0
 12 32  1  0  0  0
 33 12  1  0  0  0
 13 14  1  0  0  0
 13 22  1  0  0  0
 32 13  1  0  0  0
 14 15  1  0  0  0
 15 18  1  0  0  0
 16 17  4  0  0  0
 50 16  1  0  0  0
 16 51  4  0  0  0
 17 54  4  0  0  0
 18 20  1  0  0  0
 20 55  1  0  0  0
 22 21  1  0  0  0
 22 23  1  0  0  0
 23 24  4  0  0  0
 23 31  4  0  0  0
 24 25  4  0  0  0
 25 26  4  0  0  0
 30 25  4  0  0  0
 26 27  4  0  0  0
 28 27  4  0  0  0
 29 28  4  0  0  0
 30 29  4  0  0  0
 31 30  4  0  0  0
 34 33  1  0  0  0
 35 36  1  0  0  0
 36 37  1  0  0  0
 37 38  1  0  0  0
 38 39  4  0  0  0
 38 43  4  0  0  0
 39 40  4  0  0  0
 40 41  4  0  0  0
 42 41  4  0  0  0
 43 42  4  0  0  0
 49 50  1  0  0  0
 51 52  4  0  0  0
 52 53  4  0  0  0
 53 54  4  0  0  0
 41 56  1  0  0  0
  1 57  1  0  0  0
  1 58  1  0  0  0
  2 59  1  0  0  0
  2 60  1  0  0  0
  3 61  1  0  0  0
  5 62  1  0  0  0
  6 63  1  0  0  0
  9 64  1  0  0  0
  9 65  1  0  0  0
 10 66  1  0  0  0
 10 67  1  0  0  0
 11 68  1  0  0  0
 13 69  1  0  0  0
 14 70  1  0  0  0
 14 71  1  0  0  0
 15 72  1  0  0  0
 15 73  1  0  0  0
 17 74  1  0  0  0
 18 75  1  0  0  0
 18 76  1  0  0  0
 20 77  1  0  0  0
 20 78  1  0  0  0
 21 79  1  0  0  0
 22 80  1  0  0  0
 26 81  1  0  0  0
 27 82  1  0  0  0
 28 83  1  0  0  0
 29 84  1  0  0  0
 32 85  1  0  0  0
 33 86  1  0  0  0
 35 87  1  0  0  0
 37 88  1  0  0  0
 37 89  1  0  0  0
 39 90  1  0  0  0
 40 91  1  0  0  0
 42 92  1  0  0  0
 43 93  1  0  0  0
 45 94  1  0  0  0
 46 95  1  0  0  0
 47 96  1  0  0  0
 50 97  1  0  0  0
 50 98  1  0  0  0
 51 99  1  0  0  0
 52100  1  0  0  0
 53101  1  0  0  0
 54102  1  0  0  0
 55103  1  0  0  0
 55104  1  0  0  0
 55105  1  0  0  0
 56106  1  0  0  0
 56107  1  0  0  0
 56108  1  0  0  0
M  END
$$$$
