4jhz_ligand
  -I-interpret- 

 65 68  0  0  0  0  0  0  0  0999 V2000
   83.9630  -33.7690  161.5390 C   0  0  0  0  0
   84.7740  -33.8210  162.6950 O   0  0  0  0  0
   84.4510  -32.8640  163.6770 C   0  0  0  0  0
   83.9420  -33.6420  164.9070 C   0  0  0  0  0
   83.7460  -32.8480  166.1950 C   0  0  0  0  0
   85.0870  -32.1600  166.4720 C   0  0  0  0  0
   84.9330  -31.2760  167.5710 O   0  0  0  0  0
   86.1470  -30.7110  168.0460 C   0  0  0  0  0
   85.5190  -31.2560  165.2830 C   0  0  0  0  0
   85.7330  -32.0210  163.9640 C   0  0  0  0  0
   85.9770  -31.1930  162.7660 N   0  0  0  0  0
   86.6220  -29.9930  162.5390 C   0  0  0  0  0
   87.1530  -29.3960  163.5390 O   0  0  0  0  0
   86.7480  -29.3630  161.1980 C   0  0  0  0  0
   86.3450  -30.3290  160.0230 N   0  3  0  0  0
   87.4850  -30.6600  158.9890 C   0  0  0  0  0
   87.0880  -31.7630  158.0730 C   0  0  0  0  0
   85.0660  -29.8850  159.2620 C   0  0  0  0  0
   84.5640  -31.0320  158.4500 C   0  0  0  0  0
   85.6580  -31.5320  157.3810 N   0  3  0  0  0
   85.2080  -32.7260  156.4130 C   0  0  0  0  0
   84.8590  -34.0980  156.9960 C   0  0  0  0  0
   85.6150  -35.2720  156.6960 C   0  0  0  0  0
   85.2530  -36.5030  157.2410 C   0  0  0  0  0
   85.8270  -37.7470  157.0970 O   0  0  0  0  0
   85.2140  -38.6420  158.0570 C   0  0  0  0  0
   84.0200  -37.9480  158.4810 O   0  0  0  0  0
   84.1520  -36.6500  158.0900 C   0  0  0  0  0
   83.3930  -35.5310  158.4010 C   0  0  0  0  0
   83.7660  -34.2850  157.8400 C   0  0  0  0  0
   82.9231  -33.9382  161.8184 H   0  0  0  0  0
   84.0603  -32.7888  161.0723 H   0  0  0  0  0
   84.2822  -34.5400  160.8378 H   0  0  0  0  0
   83.6714  -32.1672  163.3691 H   0  0  0  0  0
   84.7089  -34.3843  165.1283 H   0  0  0  0  0
   82.9553  -34.0170  164.6350 H   0  0  0  0  0
   83.4568  -33.4982  167.0206 H   0  0  0  0  0
   82.9414  -32.1199  166.0925 H   0  0  0  0  0
   85.8211  -32.9459  166.6497 H   0  0  0  0  0
   86.8150  -31.5088  168.3707 H   0  0  0  0  0
   86.6199  -30.1430  167.2448 H   0  0  0  0  0
   85.9342  -30.0492  168.8856 H   0  0  0  0  0
   86.4718  -30.8000  165.5517 H   0  0  0  0  0
   84.7175  -30.5368  165.1145 H   0  0  0  0  0
   86.6369  -32.6094  164.1215 H   0  0  0  0  0
   85.5811  -31.5972  161.9173 H   0  0  0  0  0
   87.7934  -29.0883  161.0576 H   0  0  0  0  0
   86.0741  -28.5068  161.1693 H   0  0  0  0  0
   86.1482  -31.1947  160.5253 H   0  0  0  0  0
   88.3714  -30.9723  159.5411 H   0  0  0  0  0
   87.6787  -29.7688  158.3921 H   0  0  0  0  0
   87.0231  -32.6755  158.6657 H   0  0  0  0  0
   87.8330  -31.8155  157.2791 H   0  0  0  0  0
   85.2994  -29.0448  158.6080 H   0  0  0  0  0
   84.3017  -29.5758  159.9750 H   0  0  0  0  0
   83.6781  -30.7046  157.9058 H   0  0  0  0  0
   84.3422  -31.8585  159.1252 H   0  0  0  0  0
   85.7517  -30.7575  156.7239 H   0  0  0  0  0
   86.0807  -32.9112  155.7867 H   0  0  0  0  0
   84.2776  -32.3766  155.9655 H   0  0  0  0  0
   86.4805  -35.2051  156.0368 H   0  0  0  0  0
   85.8778  -38.8642  158.8925 H   0  0  0  0  0
   84.9898  -39.6168  157.6239 H   0  0  0  0  0
   82.5296  -35.6089  159.0618 H   0  0  0  0  0
   83.1575  -33.4144  158.0848 H   0  0  0  0  0
  1  2  1  0  0  0
  2  3  1  0  0  0
  3  4  1  0  0  0
  3 10  1  0  0  0
  4  5  1  0  0  0
  5  6  1  0  0  0
  6  7  1  0  0  0
  6  9  1  0  0  0
  7  8  1  0  0  0
  9 10  1  0  0  0
 10 11  1  0  0  0
 11 12  1  0  0  0
 12 13  2  0  0  0
 12 14  1  0  0  0
 14 15  1  0  0  0
 15 16  1  0  0  0
 15 18  1  0  0  0
 16 17  1  0  0  0
 17 20  1  0  0  0
 18 19  1  0  0  0
 19 20  1  0  0  0
 20 21  1  0  0  0
 21 22  1  0  0  0
 22 23  4  0  0  0
 22 30  4  0  0  0
 23 24  4  0  0  0
 24 25  1  0  0  0
 24 28  4  0  0  0
 25 26  1  0  0  0
 26 27  1  0  0  0
 27 28  1  0  0  0
 28 29  4  0  0  0
 29 30  4  0  0  0
  1 31  1  0  0  0
  1 32  1  0  0  0
  1 33  1  0  0  0
  3 34  1  0  0  0
  4 35  1  0  0  0
  4 36  1  0  0  0
  5 37  1  0  0  0
  5 38  1  0  0  0
  6 39  1  0  0  0
  8 40  1  0  0  0
  8 41  1  0  0  0
  8 42  1  0  0  0
  9 43  1  0  0  0
  9 44  1  0  0  0
 10 45  1  0  0  0
 11 46  1  0  0  0
 14 47  1  0  0  0
 14 48  1  0  0  0
 15 49  1  0  0  0
 16 50  1  0  0  0
 16 51  1  0  0  0
 17 52  1  0  0  0
 17 53  1  0  0  0
 18 54  1  0  0  0
 18 55  1  0  0  0
 19 56  1  0  0  0
 19 57  1  0  0  0
 20 58  1  0  0  0
 21 59  1  0  0  0
 21 60  1  0  0  0
 23 61  1  0  0  0
 26 62  1  0  0  0
 26 63  1  0  0  0
 29 64  1  0  0  0
 30 65  1  0  0  0
M  END
$$$$
