5h9r_ligand
  -I-interpret- 

 60 63  0  0  0  0  0  0  0  0999 V2000
   -2.7030  -10.2710    0.7810 S   0  0  0  0  0
   -0.2340   -9.2150    1.3200 C   0  0  0  0  0
    0.5560   -7.9500    1.6420 C   0  0  0  0  0
   -1.4520   -6.6030    1.0560 C   0  0  0  0  0
   -2.0090   -5.4260    0.2590 C   0  0  0  0  0
    6.3150   -8.8110   -2.2990 C   0  0  0  0  0
   -1.7350   -8.9440    1.4280 C   0  0  0  0  0
   -4.3730   -9.7820    1.0480 C   0  0  0  0  0
   -2.1170   -7.8040    0.6590 O   0  0  0  0  0
   -4.8620  -10.4330    2.2260 O   0  0  0  0  0
   -6.1510   -9.9320    2.5840 C   0  0  0  0  0
   -6.5630  -10.5130    3.9300 C   0  0  0  0  0
   -3.4060   -5.2750    0.5270 O   0  0  0  0  0
   -5.6900   -9.9960    4.9420 O   0  0  0  0  0
    0.0420   -6.7710    0.8280 C   0  0  0  0  0
   -7.1530  -10.2950    1.4940 C   0  0  0  0  0
    0.3170   -6.9930   -0.5660 O   0  0  0  0  0
   -7.2130  -11.7210    1.3780 O   0  0  0  0  0
   -6.7010   -9.6750    0.1750 C   0  0  0  0  0
   -7.5640  -10.0250   -0.9160 O   0  0  0  0  0
   -5.2770  -10.1030   -0.1410 C   0  0  0  0  0
    0.1450  -10.2500    2.2400 O   0  0  0  0  0
   -4.8690   -9.3510   -1.2870 O   0  0  0  0  0
    2.0080   -8.1210    1.3760 N   0  0  0  0  0
    2.8200   -7.9430    2.4950 N   0  0  0  0  0
    4.1300   -8.1400    2.0300 N   0  0  0  0  0
    4.0760   -8.4170    0.7070 C   0  0  0  0  0
    2.7450   -8.4000    0.2900 C   0  0  0  0  0
    5.2750   -8.6780   -0.1400 C   0  0  0  0  0
    5.1890   -8.5720   -1.5190 C   0  0  0  0  0
    7.5240   -9.1410   -1.7110 C   0  0  0  0  0
    7.6190   -9.2350   -0.3240 C   0  0  0  0  0
    6.4920   -9.0000    0.4580 C   0  0  0  0  0
    6.2410   -8.7280   -3.6380 F   0  0  0  0  0
   -0.0131   -9.5305    0.3003 H   0  0  0  0  0
    0.4161   -7.7550    2.7053 H   0  0  0  0  0
   -1.6217   -6.4026    2.1139 H   0  0  0  0  0
   -1.8649   -5.6119   -0.8053 H   0  0  0  0  0
   -1.4863   -4.5149    0.5501 H   0  0  0  0  0
   -1.9158   -8.8019    2.4935 H   0  0  0  0  0
   -4.3907   -8.6991    1.1713 H   0  0  0  0  0
   -6.1224   -8.8462    2.6755 H   0  0  0  0  0
   -6.4919  -11.6003    3.9007 H   0  0  0  0  0
   -7.5930  -10.2348    4.1530 H   0  0  0  0  0
   -3.7491   -4.5336    0.0228 H   0  0  0  0  0
   -5.9419  -10.3568    5.7952 H   0  0  0  0  0
    0.5475   -5.8589    1.1452 H   0  0  0  0  0
   -8.1429   -9.9134    1.7442 H   0  0  0  0  0
    1.2630   -7.0968   -0.6918 H   0  0  0  0  0
   -7.8422  -11.9590    0.6931 H   0  0  0  0  0
   -6.7462   -8.5927    0.2959 H   0  0  0  0  0
   -7.2420   -9.6143   -1.7217 H   0  0  0  0  0
   -5.2141  -11.1737   -0.3355 H   0  0  0  0  0
    1.0881  -10.4133    2.1654 H   0  0  0  0  0
   -5.4435   -9.5606   -2.0270 H   0  0  0  0  0
    2.3760   -8.5784   -0.7200 H   0  0  0  0  0
    4.2435   -8.3027   -1.9898 H   0  0  0  0  0
    8.4003   -9.3270   -2.3320 H   0  0  0  0  0
    8.5691   -9.4907    0.1451 H   0  0  0  0  0
    6.5615   -9.0681    1.5436 H   0  0  0  0  0
  7  1  1  0  0  0
  1  8  1  0  0  0
  3  2  1  0  0  0
  2  7  1  0  0  0
  2 22  1  0  0  0
  3 15  1  0  0  0
 24  3  1  0  0  0
  4  5  1  0  0  0
  4  9  1  0  0  0
 15  4  1  0  0  0
  5 13  1  0  0  0
 30  6  4  0  0  0
  6 31  4  0  0  0
  6 34  1  0  0  0
  7  9  1  0  0  0
  8 10  1  0  0  0
  8 21  1  0  0  0
 10 11  1  0  0  0
 11 12  1  0  0  0
 11 16  1  0  0  0
 12 14  1  0  0  0
 15 17  1  0  0  0
 16 18  1  0  0  0
 19 16  1  0  0  0
 19 20  1  0  0  0
 21 19  1  0  0  0
 21 23  1  0  0  0
 24 25  4  0  0  0
 28 24  4  0  0  0
 26 25  4  0  0  0
 27 26  4  0  0  0
 27 28  4  0  0  0
 29 27  1  0  0  0
 29 30  4  0  0  0
 29 33  4  0  0  0
 31 32  4  0  0  0
 32 33  4  0  0  0
  2 35  1  0  0  0
  3 36  1  0  0  0
  4 37  1  0  0  0
  5 38  1  0  0  0
  5 39  1  0  0  0
  7 40  1  0  0  0
  8 41  1  0  0  0
 11 42  1  0  0  0
 12 43  1  0  0  0
 12 44  1  0  0  0
 13 45  1  0  0  0
 14 46  1  0  0  0
 15 47  1  0  0  0
 16 48  1  0  0  0
 17 49  1  0  0  0
 18 50  1  0  0  0
 19 51  1  0  0  0
 20 52  1  0  0  0
 21 53  1  0  0  0
 22 54  1  0  0  0
 23 55  1  0  0  0
 28 56  1  0  0  0
 30 57  1  0  0  0
 31 58  1  0  0  0
 32 59  1  0  0  0
 33 60  1  0  0  0
M  END
$$$$
