3fvg_ligand
  -I-interpret- 

 36 37  0  0  0  0  0  0  0  0999 V2000
   -3.5700   16.3350   18.5940 O   0  0  0  0  0
   -4.0510   15.2950   18.0960 C   0  0  0  0  0
   -3.3750   14.4550   17.4540 O   0  0  0  0  0
   -5.5160   15.0580   18.2710 C   0  0  0  0  0
   -5.8850   13.7700   17.6760 N   0  3  0  0  0
   -5.8450   15.1520   19.7660 C   0  0  0  0  0
   -7.3390   15.3630   20.0200 C   0  0  0  0  0
   -7.6640   15.3370   21.5210 C   0  0  0  0  0
   -7.7960   16.6740   19.4120 C   0  0  0  0  0
   -7.0560   17.6760   19.5190 O   0  0  0  0  0
   -8.8990   16.6870   18.8260 O   0  0  0  0  0
   -8.0860   14.2750   19.4980 O   0  0  0  0  0
   -8.1160   13.2510   20.4910 C   0  0  0  0  0
   -8.3840   14.0250   21.7770 C   0  0  0  0  0
   -9.1100   12.1450   20.1290 C   0  0  0  0  0
  -10.5400   12.5740   20.4150 C   0  0  0  0  0
  -10.6390   13.1670   21.8200 C   0  0  0  0  0
   -9.7840   14.3090   21.9660 O   0  0  0  0  0
   -3.9462   13.7394   17.1655 H   0  0  0  0  0
   -6.1060   15.8138   17.7526 H   0  0  0  0  0
   -5.6413   13.7721   16.6855 H   0  0  0  0  0
   -5.3804   13.0209   18.1499 H   0  0  0  0  0
   -6.8891   13.6240   17.7800 H   0  0  0  0  0
   -5.3082   16.0069   20.1772 H   0  0  0  0  0
   -5.5514   14.2136   20.2364 H   0  0  0  0  0
   -8.2852   16.1872   21.8029 H   0  0  0  0  0
   -6.7566   15.4103   22.1204 H   0  0  0  0  0
   -6.2635   17.4367   20.0051 H   0  0  0  0  0
   -7.1958   12.6758   20.5929 H   0  0  0  0  0
   -8.0621   13.4709   22.6587 H   0  0  0  0  0
   -8.8845   11.2646   20.7308 H   0  0  0  0  0
   -9.0181   11.9301   19.0644 H   0  0  0  0  0
  -11.1947   11.7053   20.3463 H   0  0  0  0  0
  -10.8400   13.3274   19.6867 H   0  0  0  0  0
  -10.3299   12.4083   22.5390 H   0  0  0  0  0
  -11.6686   13.4806   21.9921 H   0  0  0  0  0
  1  2  2  0  0  0
  2  3  1  0  0  0
  2  4  1  0  0  0
  4  5  1  0  0  0
  4  6  1  0  0  0
  6  7  1  0  0  0
  7  8  1  0  0  0
  7  9  1  0  0  0
  7 12  1  0  0  0
  8 14  1  0  0  0
  9 10  1  0  0  0
  9 11  2  0  0  0
 12 13  1  0  0  0
 13 14  1  0  0  0
 13 15  1  0  0  0
 14 18  1  0  0  0
 15 16  1  0  0  0
 16 17  1  0  0  0
 17 18  1  0  0  0
  3 19  1  0  0  0
  4 20  1  0  0  0
  5 21  1  0  0  0
  5 22  1  0  0  0
  5 23  1  0  0  0
  6 24  1  0  0  0
  6 25  1  0  0  0
  8 26  1  0  0  0
  8 27  1  0  0  0
 10 28  1  0  0  0
 13 29  1  0  0  0
 14 30  1  0  0  0
 15 31  1  0  0  0
 15 32  1  0  0  0
 16 33  1  0  0  0
 16 34  1  0  0  0
 17 35  1  0  0  0
 17 36  1  0  0  0
M  END
$$$$
