5zma_ligand
  -I-interpret- 

 35 37  0  0  0  0  0  0  0  0999 V2000
    6.7600   77.5670   57.2010 C   0  0  0  0  0
   -2.5390   85.4850   56.6240 C   0  0  0  0  0
    6.5450   80.2630   57.7000 C   0  0  0  0  0
    7.3770   81.1560   57.0660 C   0  0  0  0  0
   -0.4820   83.6640   57.0520 C   0  0  0  0  0
    6.5970   82.2340   56.6330 C   0  0  0  0  0
    5.2900   81.9570   57.0140 C   0  0  0  0  0
    4.0780   82.7250   56.8460 C   0  0  0  0  0
    0.6200   82.6830   57.2840 C   0  0  0  0  0
   -1.7990   83.2860   57.2780 C   0  0  0  0  0
   -2.7860   84.2070   57.0560 C   0  0  0  0  0
    7.3790   76.4010   57.3760 N   0  0  0  0  0
    6.0360   77.9070   56.1370 N   0  0  0  0  0
    5.9380   76.9900   55.1730 C   0  0  0  0  0
    2.9460   82.2740   57.2320 N   0  0  0  0  0
    7.2500   75.5110   56.3910 C   0  0  0  0  0
   -1.2260   85.8520   56.4020 C   0  0  0  0  0
   -0.2010   84.9520   56.6120 C   0  0  0  0  0
    6.5320   75.7620   55.2560 C   0  0  0  0  0
   -4.0750   83.8380   57.2770 F   0  0  0  0  0
    1.8710   83.1180   57.0230 N   0  0  0  0  0
    5.2410   80.7240   57.6560 O   0  0  0  0  0
    0.3900   81.5460   57.6860 O   0  0  0  0  0
    6.9170   78.7530   58.5010 S   0  0  0  0  0
   -3.3542   86.1899   56.4608 H   0  0  0  0  0
    8.4521   81.0440   56.9258 H   0  0  0  0  0
    6.9466   83.1185   56.1006 H   0  0  0  0  0
    4.1299   83.7092   56.3805 H   0  0  0  0  0
   -2.0403   82.2808   57.6236 H   0  0  0  0  0
    5.3594   77.2305   54.2811 H   0  0  0  0  0
    7.7382   74.5421   56.4960 H   0  0  0  0  0
   -0.9975   86.8608   56.0581 H   0  0  0  0  0
    0.8314   85.2521   56.4323 H   0  0  0  0  0
    6.4381   75.0231   54.4602 H   0  0  0  0  0
    2.0224   84.0642   56.6735 H   0  0  0  0  0
  1 12  4  0  0  0
  1 13  4  0  0  0
 24  1  1  0  0  0
 11  2  4  0  0  0
  2 17  4  0  0  0
  3  4  4  0  0  0
 22  3  4  0  0  0
  3 24  1  0  0  0
  6  4  4  0  0  0
  9  5  1  0  0  0
  5 10  4  0  0  0
  5 18  4  0  0  0
  7  6  4  0  0  0
  8  7  1  0  0  0
  7 22  4  0  0  0
 15  8  2  0  0  0
 21  9  1  0  0  0
  9 23  2  0  0  0
 10 11  4  0  0  0
 11 20  1  0  0  0
 12 16  4  0  0  0
 13 14  4  0  0  0
 14 19  4  0  0  0
 15 21  1  0  0  0
 16 19  4  0  0  0
 17 18  4  0  0  0
  2 25  1  0  0  0
  4 26  1  0  0  0
  6 27  1  0  0  0
  8 28  1  0  0  0
 10 29  1  0  0  0
 14 30  1  0  0  0
 16 31  1  0  0  0
 17 32  1  0  0  0
 18 33  1  0  0  0
 19 34  1  0  0  0
 21 35  1  0  0  0
M  END
$$$$
