5vzy_ligand
  -I-interpret- 

205208  0  0  0  0  0  0  0  0999 V2000
   38.6470   47.8700   -6.5090 N   0  3  0  0  0
   39.5540   46.9330   -7.1620 C   0  0  0  0  0
   40.5500   46.3330   -6.1720 C   0  0  0  0  0
   40.9620   45.1810   -6.3140 O   0  0  0  0  0
   40.3190   47.6200   -8.2980 C   0  0  0  0  0
   39.4440   48.3320   -9.2830 C   0  0  0  0  0
   38.9770   47.7340  -10.4340 N   0  0  0  0  0
   38.9650   49.5990   -9.2970 C   0  0  0  0  0
   38.2420   48.5990  -11.1100 C   0  0  0  0  0
   38.2190   49.7380  -10.4420 N   0  0  0  0  0
   40.9290   47.1160   -5.1670 N   0  0  0  0  0
   42.0230   46.7390   -4.2780 C   0  0  0  0  0
   41.6120   46.6590   -2.8120 C   0  0  0  0  0
   42.4470   46.4040   -1.9440 O   0  0  0  0  0
   43.1750   47.7340   -4.4260 C   0  0  0  0  0
   43.4190   48.1680   -5.8380 C   0  0  0  0  0
   44.3340   47.5490   -6.6590 N   0  0  0  0  0
   42.8600   49.1600   -6.5720 C   0  0  0  0  0
   44.3320   48.1410   -7.8410 C   0  0  0  0  0
   43.4470   49.1190   -7.8150 N   0  0  0  0  0
   40.3310   46.8840   -2.5370 N   0  0  0  0  0
   39.8340   46.8650   -1.1660 C   0  0  0  0  0
   39.8070   45.4520   -0.5860 C   0  0  0  0  0
   39.2850   44.5250   -1.2020 O   0  0  0  0  0
   38.4360   47.4850   -1.0940 C   0  0  0  0  0
   37.6260   47.0350    0.1120 C   0  0  0  0  0
   36.9530   48.1830    0.8310 C   0  0  0  0  0
   35.7550   48.4180    0.6700 O   0  0  0  0  0
   37.7190   48.9010    1.6420 N   0  0  0  0  0
   40.3780   45.2970    0.6050 N   0  0  0  0  0
   40.3290   44.0280    1.3160 C   0  0  0  0  0
   39.6160   44.1960    2.6510 C   0  0  0  0  0
   40.0020   45.0260    3.4750 O   0  0  0  0  0
   41.7340   43.4720    1.5360 C   0  0  0  0  0
   41.8590   41.9950    1.2140 C   0  0  0  0  0
   40.9850   41.1490    2.1090 C   0  0  0  0  0
   40.9050   39.7240    1.6060 C   0  0  0  0  0
   40.2030   38.8600    2.5830 N   0  3  0  0  0
   38.5730   43.4040    2.8610 N   0  0  0  0  0
   37.7960   43.4850    4.0890 C   0  0  0  0  0
   38.1900   42.4100    5.0890 C   0  0  0  0  0
   38.5340   41.2880    4.7120 O   0  0  0  0  0
   36.3000   43.3660    3.7840 C   0  0  0  0  0
   35.6590   44.4940    2.9810 C   0  0  0  0  0
   34.2690   44.0870    2.5300 C   0  0  0  0  0
   35.6030   45.7610    3.8140 C   0  0  0  0  0
   38.1460   42.7640    6.3670 N   0  0  0  0  0
   38.1280   41.7570    7.4140 C   0  0  0  0  0
   36.7060   41.2060    7.4410 C   0  0  0  0  0
   35.8250   41.7430    8.1160 O   0  0  0  0  0
   38.5340   42.3250    8.7840 C   0  0  0  0  0
   38.4420   41.2490    9.8450 C   0  0  0  0  0
   39.9470   42.8840    8.7220 C   0  0  0  0  0
   36.4900   40.1430    6.6730 N   0  0  0  0  0
   35.1510   39.6350    6.3990 C   0  0  0  0  0
   34.6580   38.6690    7.4710 C   0  0  0  0  0
   33.6150   38.8880    8.0840 O   0  0  0  0  0
   35.1310   38.9510    5.0320 C   0  0  0  0  0
   33.7560   38.6870    4.5090 C   0  0  0  0  0
   33.0800   39.6570    3.7910 C   0  0  0  0  0
   33.1420   37.4690    4.7240 C   0  0  0  0  0
   31.8160   39.4170    3.3030 C   0  0  0  0  0
   31.8810   37.2260    4.2360 C   0  0  0  0  0
   31.2180   38.2010    3.5240 C   0  0  0  0  0
   35.4080   37.5930    7.6850 N   0  0  0  0  0
   35.0530   36.6180    8.7060 C   0  0  0  0  0
   35.4140   37.1600   10.0800 C   0  0  0  0  0
   36.5440   37.5970   10.3060 O   0  0  0  0  0
   35.7530   35.2830    8.4500 C   0  0  0  0  0
   35.4650   34.7020    7.0950 C   0  0  0  0  0
   36.4570   34.6210    6.1340 C   0  0  0  0  0
   34.1970   34.2500    6.7790 C   0  0  0  0  0
   36.1920   34.0890    4.8870 C   0  0  0  0  0
   33.9240   33.7200    5.5300 C   0  0  0  0  0
   34.9240   33.6390    4.5850 C   0  0  0  0  0
   34.4470   37.1260   10.9940 N   0  0  0  0  0
   34.6070   37.7100   12.3230 C   0  0  0  0  0
   35.7910   37.1180   13.0870 C   0  0  0  0  0
   36.3620   37.7730   13.9600 O   0  0  0  0  0
   33.3260   37.5350   13.1210 C   0  0  0  0  0
   36.1630   35.8890   12.7390 N   0  0  0  0  0
   37.2630   35.1780   13.3880 C   0  0  0  0  0
   38.5870   35.9360   13.2900 C   0  0  0  0  0
   39.5160   35.6830   14.0580 O   0  0  0  0  0
   37.4210   33.7840   12.7750 C   0  0  0  0  0
   37.9650   33.8000   11.3550 C   0  0  0  0  0
   37.6370   32.5400   10.5800 C   0  0  0  0  0
   38.4130   32.1860    9.6680 O   0  0  0  0  0
   36.5960   31.9150   10.8700 O   0  0  0  0  0
   38.6660   36.8620   12.3400 N   0  0  0  0  0
   39.8610   37.6700   12.1520 C   0  0  0  0  0
   39.7450   38.9890   12.9140 C   0  0  0  0  0
   39.9980   40.0550   12.3560 O   0  0  0  0  0
   40.0940   37.9300   10.6620 C   0  0  0  0  0
   40.1890   36.6470    9.8530 C   0  0  0  0  0
   39.6260   36.6000    8.7370 O   0  0  0  0  0
   40.8290   35.6860   10.3310 O   0  0  0  0  0
   39.3740   38.8850   14.1920 N   0  0  0  0  0
   39.0950   40.0200   15.0840 C   0  0  0  0  0
   38.4110   41.1880   14.3770 C   0  0  0  0  0
   37.1980   41.1680   14.1570 O   0  0  0  0  0
   40.3820   40.5440   15.7800 C   0  0  0  0  0
   41.2310   39.3840   16.2900 C   0  0  0  0  0
   41.1870   41.4480   14.8530 C   0  0  0  0  0
   39.0600   42.1720   14.0140 O   0  0  0  0  0
   38.1494   47.3921   -5.7578 H   0  0  0  0  0
   39.1831   48.6471   -6.1228 H   0  0  0  0  0
   37.9765   48.2238   -7.1913 H   0  0  0  0  0
   38.9433   46.1281   -7.5709 H   0  0  0  0  0
   40.8518   46.8417   -8.8443 H   0  0  0  0  0
   40.9673   48.3688   -7.8429 H   0  0  0  0  0
   39.1390   50.3649   -8.5412 H   0  0  0  0  0
   37.7399   48.4055  -12.0579 H   0  0  0  0  0
   40.4442   48.0003   -5.0138 H   0  0  0  0  0
   42.3340   45.7379   -4.5767 H   0  0  0  0  0
   44.0806   47.2379   -4.0768 H   0  0  0  0  0
   42.9128   48.6232   -3.8528 H   0  0  0  0  0
   42.0912   49.8579   -6.2404 H   0  0  0  0  0
   44.9555   47.8676   -8.6922 H   0  0  0  0  0
   39.6822   47.0739   -3.3008 H   0  0  0  0  0
   40.5240   47.4579   -0.5656 H   0  0  0  0  0
   37.8942   47.1692   -1.9855 H   0  0  0  0  0
   38.5630   48.5647   -1.0156 H   0  0  0  0  0
   38.3106   46.5584    0.8136 H   0  0  0  0  0
   36.8459   46.3618   -0.2434 H   0  0  0  0  0
   37.3195   49.6825    2.1617 H   0  0  0  0  0
   38.7074   48.6715    1.7458 H   0  0  0  0  0
   40.8624   46.0872    1.0308 H   0  0  0  0  0
   39.7714   43.3183    0.7048 H   0  0  0  0  0
   41.9741   43.5981    2.5917 H   0  0  0  0  0
   42.4070   44.0104    0.8687 H   0  0  0  0  0
   42.8962   41.6976    1.3683 H   0  0  0  0  0
   41.5424   41.8416    0.1823 H   0  0  0  0  0
   39.9807   41.5726    2.1162 H   0  0  0  0  0
   41.4161   41.1412    3.1101 H   0  0  0  0  0
   41.9167   39.3440    1.4641 H   0  0  0  0  0
   40.3523   39.7134    0.6666 H   0  0  0  0  0
   40.1612   37.9064    2.2233 H   0  0  0  0  0
   40.7094   38.8688    3.4683 H   0  0  0  0  0
   39.2566   39.2118    2.7278 H   0  0  0  0  0
   38.3101   42.7243    2.1473 H   0  0  0  0  0
   38.0086   44.4569    4.5343 H   0  0  0  0  0
   35.7996   43.3713    4.7524 H   0  0  0  0  0
   36.1935   42.4702    3.1722 H   0  0  0  0  0
   36.2651   44.6902    2.0965 H   0  0  0  0  0
   34.3373   43.1962    1.9056 H   0  0  0  0  0
   33.6529   43.8736    3.4035 H   0  0  0  0  0
   33.8215   44.8998    1.9580 H   0  0  0  0  0
   35.0111   45.5787    4.7110 H   0  0  0  0  0
   36.6142   46.0529    4.0975 H   0  0  0  0  0
   35.1436   46.5584    3.2298 H   0  0  0  0  0
   38.1246   43.7527    6.6168 H   0  0  0  0  0
   38.8587   40.9757    7.2046 H   0  0  0  0  0
   37.8496   43.1320    9.0455 H   0  0  0  0  0
   37.4173   40.8816    9.9002 H   0  0  0  0  0
   39.1104   40.4277    9.5866 H   0  0  0  0  0
   38.7323   41.6658   10.8094 H   0  0  0  0  0
   40.6391   42.0888    8.4451 H   0  0  0  0  0
   39.9893   43.6796    7.9781 H   0  0  0  0  0
   40.2217   43.2829    9.6985 H   0  0  0  0  0
   37.2907   39.6648    6.2599 H   0  0  0  0  0
   34.4730   40.4885    6.4029 H   0  0  0  0  0
   35.6266   37.9867    5.1440 H   0  0  0  0  0
   35.6239   39.6201    4.3267 H   0  0  0  0  0
   33.5537   40.6218    3.6098 H   0  0  0  0  0
   33.6625   36.6934    5.2859 H   0  0  0  0  0
   31.2908   40.1903    2.7424 H   0  0  0  0  0
   31.4051   36.2614    4.4123 H   0  0  0  0  0
   30.2181   38.0071    3.1358 H   0  0  0  0  0
   36.2473   37.4477    7.1239 H   0  0  0  0  0
   33.9779   36.4427    8.6661 H   0  0  0  0  0
   35.3872   34.5747    9.1934 H   0  0  0  0  0
   36.8268   35.4611    8.5073 H   0  0  0  0  0
   37.4598   34.9813    6.3636 H   0  0  0  0  0
   33.4026   34.3119    7.5228 H   0  0  0  0  0
   36.9850   34.0249    4.1419 H   0  0  0  0  0
   32.9200   33.3673    5.2941 H   0  0  0  0  0
   34.7130   33.2201    3.6011 H   0  0  0  0  0
   33.5626   36.6760   10.7578 H   0  0  0  0  0
   34.8163   38.7711   12.1877 H   0  0  0  0  0
   32.5064   38.0341   12.6041 H   0  0  0  0  0
   33.1024   36.4726   13.2185 H   0  0  0  0  0
   33.4534   37.9731   14.1109 H   0  0  0  0  0
   35.6581   35.4220   11.9857 H   0  0  0  0  0
   37.0108   35.0946   14.4451 H   0  0  0  0  0
   36.4313   33.3287   12.7402 H   0  0  0  0  0
   38.1333   33.2354   13.3912 H   0  0  0  0  0
   39.0504   33.8785   11.4165 H   0  0  0  0  0
   37.5054   34.6394   10.8332 H   0  0  0  0  0
   39.1457   32.8040    9.6150 H   0  0  0  0  0
   37.8658   37.0104   11.7251 H   0  0  0  0  0
   40.7157   37.1219   12.5484 H   0  0  0  0  0
   41.0392   38.4629   10.5582 H   0  0  0  0  0
   39.2466   38.5025   10.2848 H   0  0  0  0  0
   39.1937   37.4392    8.5623 H   0  0  0  0  0
   39.2766   37.9464   14.5793 H   0  0  0  0  0
   38.4091   39.6228   15.8323 H   0  0  0  0  0
   40.0772   41.1439   16.6375 H   0  0  0  0  0
   40.6541   38.8015   17.0083 H   0  0  0  0  0
   41.5173   38.7489   15.4517 H   0  0  0  0  0
   42.1262   39.7755   16.7732 H   0  0  0  0  0
   41.4773   40.8883   13.9638 H   0  0  0  0  0
   40.5773   42.3036   14.5624 H   0  0  0  0  0
   42.0799   41.7961   15.3723 H   0  0  0  0  0
   39.9827   42.0499   14.2492 H   0  0  0  0  0
  1  2  1  0  0  0
  2  3  1  0  0  0
  2  5  1  0  0  0
  3  4  2  0  0  0
  3 11  1  0  0  0
  5  6  1  0  0  0
  6  7  4  0  0  0
  6  8  4  0  0  0
  7  9  4  0  0  0
  8 10  4  0  0  0
  9 10  4  0  0  0
 11 12  1  0  0  0
 12 13  1  0  0  0
 12 15  1  0  0  0
 13 14  2  0  0  0
 13 21  1  0  0  0
 15 16  1  0  0  0
 16 17  4  0  0  0
 16 18  4  0  0  0
 17 19  4  0  0  0
 18 20  4  0  0  0
 19 20  4  0  0  0
 21 22  1  0  0  0
 22 23  1  0  0  0
 22 25  1  0  0  0
 23 24  2  0  0  0
 23 30  1  0  0  0
 25 26  1  0  0  0
 26 27  1  0  0  0
 27 28  2  0  0  0
 27 29  1  0  0  0
 30 31  1  0  0  0
 31 32  1  0  0  0
 31 34  1  0  0  0
 32 33  2  0  0  0
 32 39  1  0  0  0
 34 35  1  0  0  0
 35 36  1  0  0  0
 36 37  1  0  0  0
 37 38  1  0  0  0
 39 40  1  0  0  0
 40 41  1  0  0  0
 40 43  1  0  0  0
 41 42  2  0  0  0
 41 47  1  0  0  0
 43 44  1  0  0  0
 44 45  1  0  0  0
 44 46  1  0  0  0
 47 48  1  0  0  0
 48 49  1  0  0  0
 48 51  1  0  0  0
 49 50  2  0  0  0
 49 54  1  0  0  0
 51 52  1  0  0  0
 51 53  1  0  0  0
 54 55  1  0  0  0
 55 56  1  0  0  0
 55 58  1  0  0  0
 56 57  2  0  0  0
 56 65  1  0  0  0
 58 59  1  0  0  0
 59 60  4  0  0  0
 59 61  4  0  0  0
 60 62  4  0  0  0
 61 63  4  0  0  0
 62 64  4  0  0  0
 63 64  4  0  0  0
 65 66  1  0  0  0
 66 67  1  0  0  0
 66 69  1  0  0  0
 67 68  2  0  0  0
 67 76  1  0  0  0
 69 70  1  0  0  0
 70 71  4  0  0  0
 70 72  4  0  0  0
 71 73  4  0  0  0
 72 74  4  0  0  0
 73 75  4  0  0  0
 74 75  4  0  0  0
 76 77  1  0  0  0
 77 78  1  0  0  0
 77 80  1  0  0  0
 78 79  2  0  0  0
 78 81  1  0  0  0
 81 82  1  0  0  0
 82 83  1  0  0  0
 82 85  1  0  0  0
 83 84  2  0  0  0
 83 90  1  0  0  0
 85 86  1  0  0  0
 86 87  1  0  0  0
 87 88  1  0  0  0
 87 89  2  0  0  0
 90 91  1  0  0  0
 91 92  1  0  0  0
 91 94  1  0  0  0
 92 93  2  0  0  0
 92 98  1  0  0  0
 94 95  1  0  0  0
 95 96  1  0  0  0
 95 97  2  0  0  0
 98 99  1  0  0  0
 99100  1  0  0  0
 99102  1  0  0  0
100101  2  0  0  0
100105  1  0  0  0
102103  1  0  0  0
102104  1  0  0  0
  1106  1  0  0  0
  1107  1  0  0  0
  1108  1  0  0  0
  2109  1  0  0  0
  5110  1  0  0  0
  5111  1  0  0  0
  8112  1  0  0  0
  9113  1  0  0  0
 11114  1  0  0  0
 12115  1  0  0  0
 15116  1  0  0  0
 15117  1  0  0  0
 18118  1  0  0  0
 19119  1  0  0  0
 21120  1  0  0  0
 22121  1  0  0  0
 25122  1  0  0  0
 25123  1  0  0  0
 26124  1  0  0  0
 26125  1  0  0  0
 29126  1  0  0  0
 29127  1  0  0  0
 30128  1  0  0  0
 31129  1  0  0  0
 34130  1  0  0  0
 34131  1  0  0  0
 35132  1  0  0  0
 35133  1  0  0  0
 36134  1  0  0  0
 36135  1  0  0  0
 37136  1  0  0  0
 37137  1  0  0  0
 38138  1  0  0  0
 38139  1  0  0  0
 38140  1  0  0  0
 39141  1  0  0  0
 40142  1  0  0  0
 43143  1  0  0  0
 43144  1  0  0  0
 44145  1  0  0  0
 45146  1  0  0  0
 45147  1  0  0  0
 45148  1  0  0  0
 46149  1  0  0  0
 46150  1  0  0  0
 46151  1  0  0  0
 47152  1  0  0  0
 48153  1  0  0  0
 51154  1  0  0  0
 52155  1  0  0  0
 52156  1  0  0  0
 52157  1  0  0  0
 53158  1  0  0  0
 53159  1  0  0  0
 53160  1  0  0  0
 54161  1  0  0  0
 55162  1  0  0  0
 58163  1  0  0  0
 58164  1  0  0  0
 60165  1  0  0  0
 61166  1  0  0  0
 62167  1  0  0  0
 63168  1  0  0  0
 64169  1  0  0  0
 65170  1  0  0  0
 66171  1  0  0  0
 69172  1  0  0  0
 69173  1  0  0  0
 71174  1  0  0  0
 72175  1  0  0  0
 73176  1  0  0  0
 74177  1  0  0  0
 75178  1  0  0  0
 76179  1  0  0  0
 77180  1  0  0  0
 80181  1  0  0  0
 80182  1  0  0  0
 80183  1  0  0  0
 81184  1  0  0  0
 82185  1  0  0  0
 85186  1  0  0  0
 85187  1  0  0  0
 86188  1  0  0  0
 86189  1  0  0  0
 88190  1  0  0  0
 90191  1  0  0  0
 91192  1  0  0  0
 94193  1  0  0  0
 94194  1  0  0  0
 96195  1  0  0  0
 98196  1  0  0  0
 99197  1  0  0  0
102198  1  0  0  0
103199  1  0  0  0
103200  1  0  0  0
103201  1  0  0  0
104202  1  0  0  0
104203  1  0  0  0
104204  1  0  0  0
105205  1  0  0  0
M  END
$$$$
