### 
### Created by X-TOOL on Mon Sep 10 21:13:33 2018
### 

@<TRIPOS>MOLECULE
5vzy_ligand
  204   207     1     0     0
SMALL
GAST_HUCK


@<TRIPOS>ATOM
      1 N          38.6470   47.8700   -6.5090 N.4       1 HIS         0.2390
      2 CA         39.5540   46.9330   -7.1620 C.3       1 HIS         0.0708
      3 C          40.5500   46.3330   -6.1720 C.2       1 HIS         0.2283
      4 O          40.9620   45.1810   -6.3140 O.2       1 HIS        -0.3906
      5 CB         40.3190   47.6200   -8.2980 C.3       1 HIS         0.0347
      6 CG         39.4440   48.3320   -9.2830 C.2       1 HIS         0.0005
      7 ND1        38.9770   47.7340  -10.4340 N.2       1 HIS        -0.3251
      8 CD2        38.9650   49.5990   -9.2970 C.2       1 HIS         0.0293
      9 CE1        38.2420   48.5990  -11.1100 C.2       1 HIS         0.0907
     10 NE2        38.2190   49.7380  -10.4420 N.pl3     1 HIS        -0.2752
     11 N          40.9290   47.1160   -5.1670 N.am      1 HIS        -0.2596
     12 CA         42.0230   46.7390   -4.2780 C.3       1 HIS         0.1370
     13 C          41.6120   46.6590   -2.8120 C.2       1 HIS         0.2054
     14 O          42.4470   46.4040   -1.9440 O.2       1 HIS        -0.3942
     15 CB         43.1750   47.7340   -4.4260 C.3       1 HIS         0.0145
     16 CG         43.4190   48.1680   -5.8380 C.2       1 HIS        -0.0027
     17 ND1        44.3340   47.5490   -6.6590 N.2       1 HIS        -0.3252
     18 CD2        42.8600   49.1600   -6.5720 C.2       1 HIS         0.0291
     19 CE1        44.3320   48.1410   -7.8410 C.2       1 HIS         0.0907
     20 NE2        43.4470   49.1190   -7.8150 N.pl3     1 HIS        -0.2752
     21 N          40.3310   46.8840   -2.5370 N.am      1 GLN        -0.2635
     22 CA         39.8340   46.8650   -1.1660 C.3       1 GLN         0.1330
     23 C          39.8070   45.4520   -0.5860 C.2       1 GLN         0.2040
     24 O          39.2850   44.5250   -1.2020 O.2       1 GLN        -0.3944
     25 CB         38.4360   47.4850   -1.0940 C.3       1 GLN         0.0045
     26 CG         37.6260   47.0350    0.1120 C.3       1 GLN         0.0412
     27 CD         36.9530   48.1830    0.8310 C.2       1 GLN         0.1737
     28 OE1        35.7550   48.4180    0.6700 O.2       1 GLN        -0.3973
     29 NE2        37.7190   48.9010    1.6420 N.am      1 GLN        -0.3009
     30 N          40.3780   45.2970    0.6050 N.am      1 LYS        -0.2637
     31 CA         40.3290   44.0280    1.3160 C.3       1 LYS         0.1310
     32 C          39.6160   44.1960    2.6510 C.2       1 LYS         0.2039
     33 O          40.0020   45.0260    3.4750 O.2       1 LYS        -0.3944
     34 CB         41.7340   43.4720    1.5360 C.3       1 LYS        -0.0122
     35 CG         41.8590   41.9950    1.2140 C.3       1 LYS        -0.0440
     36 CD         40.9850   41.1490    2.1090 C.3       1 LYS        -0.0124
     37 CE         40.9050   39.7240    1.6060 C.3       1 LYS        -0.0354
     38 NZ         40.2030   38.8600    2.5830 N.4       1 LYS         0.2185
     39 N          38.5730   43.4040    2.8610 N.am      1 LEU        -0.2637
     40 CA         37.7960   43.4850    4.0890 C.3       1 LEU         0.1312
     41 C          38.1900   42.4100    5.0890 C.2       1 LEU         0.2039
     42 O          38.5340   41.2880    4.7120 O.2       1 LEU        -0.3944
     43 CB         36.3000   43.3660    3.7840 C.3       1 LEU        -0.0101
     44 CG         35.6590   44.4940    2.9810 C.3       1 LEU        -0.0425
     45 CD1        34.2690   44.0870    2.5300 C.3       1 LEU        -0.0625
     46 CD2        35.6030   45.7610    3.8140 C.3       1 LEU        -0.0625
     47 N          38.1460   42.7640    6.3670 N.am      1 VAL        -0.2635
     48 CA         38.1280   41.7570    7.4140 C.3       1 VAL         0.1333
     49 C          36.7060   41.2060    7.4410 C.2       1 VAL         0.2043
     50 O          35.8250   41.7430    8.1160 O.2       1 VAL        -0.3944
     51 CB         38.5340   42.3250    8.7840 C.3       1 VAL        -0.0063
     52 CG1        38.4420   41.2490    9.8450 C.3       1 VAL        -0.0584
     53 CG2        39.9470   42.8840    8.7220 C.3       1 VAL        -0.0584
     54 N          36.4900   40.1430    6.6730 N.am      1 PHE        -0.2619
     55 CA         35.1510   39.6350    6.3990 C.3       1 PHE         0.1404
     56 C          34.6580   38.6690    7.4710 C.2       1 PHE         0.2061
     57 O          33.6150   38.8880    8.0840 O.2       1 PHE        -0.3942
     58 CB         35.1310   38.9510    5.0320 C.3       1 PHE         0.0214
     59 CG         33.7560   38.6870    4.5090 C.ar      1 PHE        -0.0386
     60 CD1        33.0800   39.6570    3.7910 C.ar      1 PHE        -0.0601
     61 CD2        33.1420   37.4690    4.7240 C.ar      1 PHE        -0.0601
     62 CE1        31.8160   39.4170    3.3030 C.ar      1 PHE        -0.0686
     63 CE2        31.8810   37.2260    4.2360 C.ar      1 PHE        -0.0686
     64 CZ         31.2180   38.2010    3.5240 C.ar      1 PHE        -0.0687
     65 N          35.4080   37.5930    7.6850 N.am      1 PHE        -0.2618
     66 CA         35.0530   36.6180    8.7060 C.3       1 PHE         0.1404
     67 C          35.4140   37.1600   10.0800 C.2       1 PHE         0.2059
     68 O          36.5440   37.5970   10.3060 O.2       1 PHE        -0.3942
     69 CB         35.7530   35.2830    8.4500 C.3       1 PHE         0.0214
     70 CG         35.4650   34.7020    7.0950 C.ar      1 PHE        -0.0386
     71 CD1        36.4570   34.6210    6.1340 C.ar      1 PHE        -0.0601
     72 CD2        34.1970   34.2500    6.7790 C.ar      1 PHE        -0.0601
     73 CE1        36.1920   34.0890    4.8870 C.ar      1 PHE        -0.0686
     74 CE2        33.9240   33.7200    5.5300 C.ar      1 PHE        -0.0686
     75 CZ         34.9240   33.6390    4.5850 C.ar      1 PHE        -0.0687
     76 N          34.4470   37.1260   10.9940 N.am      1 ALA        -0.2639
     77 CA         34.6070   37.7100   12.3230 C.3       1 ALA         0.1282
     78 C          35.7910   37.1180   13.0870 C.2       1 ALA         0.2036
     79 O          36.3620   37.7730   13.9600 O.2       1 ALA        -0.3944
     80 CB         33.3260   37.5350   13.1210 C.3       1 ALA        -0.0244
     81 N          36.1630   35.8890   12.7390 N.am      1 GLU        -0.2636
     82 CA         37.2630   35.1780   13.3880 C.3       1 GLU         0.1325
     83 C          38.5870   35.9360   13.2900 C.2       1 GLU         0.2041
     84 O          39.5160   35.6830   14.0580 O.2       1 GLU        -0.3944
     85 CB         37.4210   33.7840   12.7750 C.3       1 GLU        -0.0008
     86 CG         37.9650   33.8000   11.3550 C.3       1 GLU         0.0044
     87 CD         37.6370   32.5400   10.5800 C.2       1 GLU         0.0350
     88 OE1        38.4130   32.1860    9.6680 O.co2     1 GLU        -0.5690
     89 OE2        36.5960   31.9150   10.8700 O.co2     1 GLU        -0.5690
     90 N          38.6660   36.8620   12.3400 N.am      1 ASP        -0.2622
     91 CA         39.8610   37.6700   12.1520 C.3       1 ASP         0.1423
     92 C          39.7450   38.9890   12.9140 C.2       1 ASP         0.2051
     93 O          39.9980   40.0550   12.3560 O.2       1 ASP        -0.3943
     94 CB         40.0940   37.9300   10.6620 C.3       1 ASP         0.0406
     95 CG         40.1890   36.6470    9.8530 C.2       1 ASP         0.0393
     96 OD1        39.6260   36.6000    8.7370 O.co2     1 ASP        -0.5688
     97 OD2        40.8290   35.6860   10.3310 O.co2     1 ASP        -0.5688
     98 N          39.3740   38.8850   14.1920 N.am      1 VAL        -0.2691
     99 CA         39.0950   40.0200   15.0840 C.3       1 VAL         0.0967
    100 C          38.4110   41.1880   14.3770 C.2       1 VAL         0.0603
    101 O          37.1980   41.1680   14.1570 O.co2     1 VAL        -0.5666
    102 CB         40.3820   40.5440   15.7800 C.3       1 VAL        -0.0118
    103 CG1        41.2310   39.3840   16.2900 C.3       1 VAL        -0.0590
    104 CG2        41.1870   41.4480   14.8530 C.3       1 VAL        -0.0590
    105 OXT        39.0600   42.1720   14.0140 O.co2     1 VAL        -0.5666
    106 H1         38.0053   48.2459   -7.1894 H         1 HIS         0.2016
    107 H2         39.1787   48.6211   -6.0978 H         1 HIS         0.2016
    108 H3         38.1301   47.3906   -5.7886 H         1 HIS         0.2016
    109 H4         38.9533   46.1161   -7.5883 H         1 HIS         0.1116
    110 H5         40.8953   46.8546   -8.8384 H         1 HIS         0.0453
    111 H6         41.0087   48.3538   -7.8554 H         1 HIS         0.0453
    112 H7         39.1388   50.3642   -8.5419 H         1 HIS         0.0729
    113 H8         37.7404   48.4056  -12.0571 H         1 HIS         0.1199
    114 H9         37.7222   50.5922  -10.7325 H         1 HIS         0.2361
    115 H10        40.4537   47.9829   -5.0168 H         1 HIS         0.1886
    116 H11        42.3772   45.7437   -4.5843 H         1 HIS         0.0817
    117 H12        44.0925   47.2621   -4.0445 H         1 HIS         0.0420
    118 H13        42.9435   48.6251   -3.8241 H         1 HIS         0.0420
    119 H14        42.0919   49.8573   -6.2407 H         1 HIS         0.0729
    120 H15        44.9549   47.8678   -8.6915 H         1 HIS         0.1199
    121 H16        43.2305   49.7503   -8.5995 H         1 HIS         0.2361
    122 H17        39.6949   47.0702   -3.2858 H         1 GLN         0.1883
    123 H18        40.5141   47.4726   -0.5510 H         1 GLN         0.0801
    124 H19        37.8857   47.2063   -2.0048 H         1 GLN         0.0337
    125 H20        38.5436   48.5789   -1.0508 H         1 GLN         0.0337
    126 H21        38.2996   46.5260    0.8171 H         1 GLN         0.0504
    127 H22        36.8516   46.3317   -0.2280 H         1 GLN         0.0504
    128 H23        37.3294   49.6728    2.1445 H         1 GLN         0.1814
    129 H24        38.6860   48.6704    1.7508 H         1 GLN         0.1814
    130 H25        40.8529   46.0717    1.0225 H         1 LYS         0.1883
    131 H26        39.7627   43.3097    0.7051 H         1 LYS         0.0800
    132 H27        42.0064   43.6223    2.5911 H         1 LYS         0.0312
    133 H28        42.4328   44.0283    0.8940 H         1 LYS         0.0312
    134 H29        42.9071   41.6890    1.3478 H         1 LYS         0.0269
    135 H30        41.5602   41.8323    0.1680 H         1 LYS         0.0269
    136 H31        39.9727   41.5787    2.1323 H         1 LYS         0.0317
    137 H32        41.4064   41.1478    3.1251 H         1 LYS         0.0317
    138 H33        41.9235   39.3387    1.4505 H         1 LYS         0.0813
    139 H34        40.3574   39.7084    0.6521 H         1 LYS         0.0813
    140 H35        40.1611   37.9173    2.2286 H         1 LYS         0.1994
    141 H36        39.2675   39.2067    2.7269 H         1 LYS         0.1994
    142 H37        40.7026   38.8679    3.4584 H         1 LYS         0.1994
    143 H38        38.3152   42.7376    2.1613 H         1 LEU         0.1883
    144 H39        37.9840   44.4674    4.5468 H         1 LEU         0.0800
    145 H40        35.7704   43.3026    4.7460 H         1 LEU         0.0315
    146 H41        36.1505   42.4330    3.2209 H         1 LEU         0.0315
    147 H42        36.2745   44.6870    2.0900 H         1 LEU         0.0298
    148 H43        33.8163   44.9065    1.9525 H         1 LEU         0.0232
    149 H44        33.6462   43.8714    3.4107 H         1 LEU         0.0232
    150 H45        34.3365   43.1881    1.8997 H         1 LEU         0.0232
    151 H46        36.6198   46.0374    4.1298 H         1 LEU         0.0232
    152 H47        34.9774   45.5885    4.7022 H         1 LEU         0.0232
    153 H48        35.1713   46.5756    3.2139 H         1 LEU         0.0232
    154 H49        38.1250   43.7333    6.6119 H         1 VAL         0.1883
    155 H50        38.8297   40.9506    7.1544 H         1 VAL         0.0802
    156 H51        37.8434   43.1398    9.0471 H         1 VAL         0.0343
    157 H52        38.7348   41.6684   10.8189 H         1 VAL         0.0234
    158 H53        39.1162   40.4195    9.5854 H         1 VAL         0.0234
    159 H54        37.4082   40.8774    9.9017 H         1 VAL         0.0234
    160 H55        39.9992   43.6638    7.9479 H         1 VAL         0.0234
    161 H56        40.6508   42.0753    8.4758 H         1 VAL         0.0234
    162 H57        40.2130   43.3173    9.6974 H         1 VAL         0.0234
    163 H58        37.2750   39.6742    6.2680 H         1 PHE         0.1885
    164 H59        34.4614   40.4916    6.3717 H         1 PHE         0.0823
    165 H60        35.6598   37.9902    5.1173 H         1 PHE         0.0474
    166 H61        35.6571   39.5967    4.3135 H         1 PHE         0.0474
    167 H62        33.5511   40.6165    3.6108 H         1 PHE         0.0557
    168 H63        33.6596   36.6977    5.2828 H         1 PHE         0.0557
    169 H64        31.2937   40.1861    2.7455 H         1 PHE         0.0599
    170 H65        31.4077   36.2667    4.4113 H         1 PHE         0.0599
    171 H66        30.2236   38.0082    3.1379 H         1 PHE         0.0559
    172 H67        36.2309   37.4506    7.1349 H         1 PHE         0.1885
    173 H68        33.9662   36.4521    8.6690 H         1 PHE         0.0823
    174 H69        35.4212   34.5644    9.2139 H         1 PHE         0.0474
    175 H70        36.8385   35.4371    8.5385 H         1 PHE         0.0474
    176 H71        37.4543   34.9793    6.3624 H         1 PHE         0.0557
    177 H72        33.4070   34.3115    7.5187 H         1 PHE         0.0557
    178 H73        36.9807   34.0253    4.1460 H         1 PHE         0.0599
    179 H74        32.9255   33.3692    5.2954 H         1 PHE         0.0599
    180 H75        34.7142   33.2224    3.6065 H         1 PHE         0.0559
    181 H76        33.5800   36.6848   10.7624 H         1 ALA         0.1883
    182 H77        34.7924   38.7870   12.1981 H         1 ALA         0.0797
    183 H78        33.4533   37.9768   14.1203 H         1 ALA         0.0277
    184 H79        33.0993   36.4632   13.2202 H         1 ALA         0.0277
    185 H80        32.4980   38.0383   12.6004 H         1 ALA         0.0277
    186 H81        35.6680   35.4312   12.0005 H         1 GLU         0.1883
    187 H82        37.0128   35.0652   14.4532 H         1 GLU         0.0801
    188 H83        36.4355   33.2954   12.7641 H         1 GLU         0.0330
    189 H84        38.1111   33.2035   13.4049 H         1 GLU         0.0330
    190 H85        39.0587   33.9088   11.4000 H         1 GLU         0.0433
    191 H86        37.5324   34.6606   10.8238 H         1 GLU         0.0433
    192 H87        37.8815   37.0075   11.7371 H         1 ASP         0.1884
    193 H88        40.7236   37.1143   12.5485 H         1 ASP         0.0819
    194 H89        41.0330   38.4908   10.5448 H         1 ASP         0.0478
    195 H90        39.2577   38.5300   10.2740 H         1 ASP         0.0478
    196 H91        39.2785   37.9648   14.5718 H         1 VAL         0.1875
    197 H92        38.4117   39.6557   15.8653 H         1 VAL         0.0729
    198 H93        40.0740   41.1442   16.6488 H         1 VAL         0.0336
    199 H94        42.1348   39.7779   16.7779 H         1 VAL         0.0234
    200 H95        41.5207   38.7423   15.4449 H         1 VAL         0.0234
    201 H96        40.6499   38.7953   17.0151 H         1 VAL         0.0234
    202 H97        40.5502   42.2734   14.5019 H         1 VAL         0.0234
    203 H98        41.5414   40.8656   13.9897 H         1 VAL         0.0234
    204 H99        42.0501   41.8573   15.3985 H         1 VAL         0.0234
@<TRIPOS>BOND
     1    1    2 1  
     2    2    3 1  
     3    2    5 1  
     4    3    4 2  
     5    3   11 am 
     6    5    6 1  
     7    6    7 1  
     8    6    8 2  
     9    7    9 2  
    10    8   10 1  
    11    9   10 1  
    12   11   12 1  
    13   12   13 1  
    14   12   15 1  
    15   13   14 2  
    16   13   21 am 
    17   15   16 1  
    18   16   17 1  
    19   16   18 2  
    20   17   19 2  
    21   18   20 1  
    22   19   20 1  
    23   21   22 1  
    24   22   23 1  
    25   22   25 1  
    26   23   24 2  
    27   23   30 am 
    28   25   26 1  
    29   26   27 1  
    30   27   28 2  
    31   27   29 am 
    32   30   31 1  
    33   31   32 1  
    34   31   34 1  
    35   32   33 2  
    36   32   39 am 
    37   34   35 1  
    38   35   36 1  
    39   36   37 1  
    40   37   38 1  
    41   39   40 1  
    42   40   41 1  
    43   40   43 1  
    44   41   42 2  
    45   41   47 am 
    46   43   44 1  
    47   44   45 1  
    48   44   46 1  
    49   47   48 1  
    50   48   49 1  
    51   48   51 1  
    52   49   50 2  
    53   49   54 am 
    54   51   52 1  
    55   51   53 1  
    56   54   55 1  
    57   55   56 1  
    58   55   58 1  
    59   56   57 2  
    60   56   65 am 
    61   58   59 1  
    62   59   60 ar 
    63   59   61 ar 
    64   60   62 ar 
    65   61   63 ar 
    66   62   64 ar 
    67   63   64 ar 
    68   65   66 1  
    69   66   67 1  
    70   66   69 1  
    71   67   68 2  
    72   67   76 am 
    73   69   70 1  
    74   70   71 ar 
    75   70   72 ar 
    76   71   73 ar 
    77   72   74 ar 
    78   73   75 ar 
    79   74   75 ar 
    80   76   77 1  
    81   77   78 1  
    82   77   80 1  
    83   78   79 2  
    84   78   81 am 
    85   81   82 1  
    86   82   83 1  
    87   82   85 1  
    88   83   84 2  
    89   83   90 am 
    90   85   86 1  
    91   86   87 1  
    92   87   88 ar 
    93   87   89 ar 
    94   90   91 1  
    95   91   92 1  
    96   91   94 1  
    97   92   93 2  
    98   92   98 am 
    99   94   95 1  
   100   95   96 ar 
   101   95   97 ar 
   102   98   99 1  
   103   99  100 1  
   104   99  102 1  
   105  100  101 ar 
   106  100  105 ar 
   107  102  103 1  
   108  102  104 1  
   109    1  106 1  
   110    1  107 1  
   111    1  108 1  
   112    2  109 1  
   113    5  110 1  
   114    5  111 1  
   115    8  112 1  
   116    9  113 1  
   117   10  114 1  
   118   11  115 1  
   119   12  116 1  
   120   15  117 1  
   121   15  118 1  
   122   18  119 1  
   123   19  120 1  
   124   20  121 1  
   125   21  122 1  
   126   22  123 1  
   127   25  124 1  
   128   25  125 1  
   129   26  126 1  
   130   26  127 1  
   131   29  128 1  
   132   29  129 1  
   133   30  130 1  
   134   31  131 1  
   135   34  132 1  
   136   34  133 1  
   137   35  134 1  
   138   35  135 1  
   139   36  136 1  
   140   36  137 1  
   141   37  138 1  
   142   37  139 1  
   143   38  140 1  
   144   38  141 1  
   145   38  142 1  
   146   39  143 1  
   147   40  144 1  
   148   43  145 1  
   149   43  146 1  
   150   44  147 1  
   151   45  148 1  
   152   45  149 1  
   153   45  150 1  
   154   46  151 1  
   155   46  152 1  
   156   46  153 1  
   157   47  154 1  
   158   48  155 1  
   159   51  156 1  
   160   52  157 1  
   161   52  158 1  
   162   52  159 1  
   163   53  160 1  
   164   53  161 1  
   165   53  162 1  
   166   54  163 1  
   167   55  164 1  
   168   58  165 1  
   169   58  166 1  
   170   60  167 1  
   171   61  168 1  
   172   62  169 1  
   173   63  170 1  
   174   64  171 1  
   175   65  172 1  
   176   66  173 1  
   177   69  174 1  
   178   69  175 1  
   179   71  176 1  
   180   72  177 1  
   181   73  178 1  
   182   74  179 1  
   183   75  180 1  
   184   76  181 1  
   185   77  182 1  
   186   80  183 1  
   187   80  184 1  
   188   80  185 1  
   189   81  186 1  
   190   82  187 1  
   191   85  188 1  
   192   85  189 1  
   193   86  190 1  
   194   86  191 1  
   195   90  192 1  
   196   91  193 1  
   197   94  194 1  
   198   94  195 1  
   199   98  196 1  
   200   99  197 1  
   201  102  198 1  
   202  103  199 1  
   203  103  200 1  
   204  103  201 1  
   205  104  202 1  
   206  104  203 1  
   207  104  204 1  
@<TRIPOS>SUBSTRUCTURE
     1 HIS         1

