6drx_ligand
  -I-interpret- 

 51 54  0  0  0  0  0  0  0  0999 V2000
  -16.3470  -19.7510    9.1640 C   0  0  0  0  0
  -17.5280  -18.8220   13.5210 C   0  0  0  0  0
  -20.7450  -18.4740    5.4270 C   0  0  0  0  0
  -21.1780  -17.1350    9.1920 C   0  0  0  0  0
  -23.7220  -13.7830    9.8170 C   0  0  0  0  0
  -22.9480  -14.9290    9.6700 C   0  0  0  0  0
  -23.9960  -12.9980    8.7010 C   0  0  0  0  0
  -22.8980  -13.6630    5.4900 C   0  0  0  0  0
  -16.5840  -18.7340   10.2420 C   0  0  0  0  0
  -17.1800  -19.7920   12.3940 C   0  0  0  0  0
  -21.5930  -15.7920    5.8150 C   0  0  0  0  0
  -20.8660  -18.9520    7.7010 C   0  0  0  0  0
  -18.9830  -19.1390   10.7960 C   0  0  0  0  0
  -21.6970  -16.3780    8.1410 C   0  0  0  0  0
  -22.3740  -14.6880    6.1380 C   0  0  0  0  0
  -22.4750  -15.2580    8.4050 C   0  0  0  0  0
  -23.5230  -13.3440    7.4980 C   0  0  0  0  0
  -22.7800  -14.4600    7.3920 C   0  0  0  0  0
  -20.7420  -18.4560    9.1290 C   0  0  0  0  0
  -21.7390  -16.9100    6.8540 C   0  0  0  0  0
  -19.3540  -18.5480    9.5170 N   0  0  0  0  0
  -23.5840  -12.8510    6.2640 N   0  0  0  0  0
  -20.6730  -17.9060    6.6920 N   0  3  0  0  0
  -17.5730  -19.2250   11.1550 N   0  0  0  0  0
  -19.8560  -19.5580   11.5620 O   0  0  0  0  0
  -15.9970  -20.6803    9.6135 H   0  0  0  0  0
  -17.2781  -19.9335    8.6274 H   0  0  0  0  0
  -15.5944  -19.3752    8.4709 H   0  0  0  0  0
  -17.0009  -17.8809   13.3644 H   0  0  0  0  0
  -18.6030  -18.6416   13.5244 H   0  0  0  0  0
  -17.2277  -19.2536   14.4758 H   0  0  0  0  0
  -19.9666  -19.2302    5.3248 H   0  0  0  0  0
  -21.7227  -18.9368    5.2930 H   0  0  0  0  0
  -20.6020  -17.6994    4.6736 H   0  0  0  0  0
  -21.1066  -16.6419   10.1615 H   0  0  0  0  0
  -24.1100  -13.5025   10.7962 H   0  0  0  0  0
  -22.7167  -15.5572   10.5302 H   0  0  0  0  0
  -24.5992  -12.0964    8.8074 H   0  0  0  0  0
  -22.7739  -13.5057    4.4186 H   0  0  0  0  0
  -16.9344  -17.8046    9.7931 H   0  0  0  0  0
  -15.6533  -18.5513   10.7792 H   0  0  0  0  0
  -17.7038  -20.7355   12.5478 H   0  0  0  0  0
  -16.1058  -19.9767   12.3881 H   0  0  0  0  0
  -20.5490  -15.4797    5.7895 H   0  0  0  0  0
  -21.9209  -16.1750    4.8486 H   0  0  0  0  0
  -21.8775  -19.3392    7.5782 H   0  0  0  0  0
  -20.0871  -19.6989    7.5477 H   0  0  0  0  0
  -21.3514  -19.0564    9.8044 H   0  0  0  0  0
  -22.7012  -17.3987    6.7007 H   0  0  0  0  0
  -18.6287  -18.1970    8.8916 H   0  0  0  0  0
  -19.7619  -17.4614    6.8046 H   0  0  0  0  0
  9  1  1  0  0  0
 10  2  1  0  0  0
 23  3  1  0  0  0
  4 14  2  0  0  0
 19  4  1  0  0  0
  6  5  4  0  0  0
  5  7  4  0  0  0
 16  6  4  0  0  0
 17  7  4  0  0  0
 15  8  4  0  0  0
  8 22  4  0  0  0
 24  9  1  0  0  0
 24 10  1  0  0  0
 11 15  1  0  0  0
 20 11  1  0  0  0
 19 12  1  0  0  0
 12 23  1  0  0  0
 21 13  1  0  0  0
 13 24  1  0  0  0
 13 25  2  0  0  0
 14 16  1  0  0  0
 14 20  1  0  0  0
 18 15  4  0  0  0
 16 18  4  0  0  0
 18 17  4  0  0  0
 17 22  4  0  0  0
 19 21  1  0  0  0
 20 23  1  0  0  0
  1 26  1  0  0  0
  1 27  1  0  0  0
  1 28  1  0  0  0
  2 29  1  0  0  0
  2 30  1  0  0  0
  2 31  1  0  0  0
  3 32  1  0  0  0
  3 33  1  0  0  0
  3 34  1  0  0  0
  4 35  1  0  0  0
  5 36  1  0  0  0
  6 37  1  0  0  0
  7 38  1  0  0  0
  8 39  1  0  0  0
  9 40  1  0  0  0
  9 41  1  0  0  0
 10 42  1  0  0  0
 10 43  1  0  0  0
 11 44  1  0  0  0
 11 45  1  0  0  0
 12 46  1  0  0  0
 12 47  1  0  0  0
 19 48  1  0  0  0
 20 49  1  0  0  0
 21 50  1  0  0  0
 23 51  1  0  0  0
M  END
$$$$
