4h81_ligand
  -I-interpret- 

 21 21  0  0  0  0  0  0  0  0999 V2000
   -8.0110  -30.2200   15.0790 Cl  0  0  0  0  0
   -8.7870  -31.6470   14.4940 C   0  0  0  0  0
   -8.1370  -32.0140   13.2040 C   0  0  0  0  0
   -7.1240  -32.7590   13.2160 O   0  0  0  0  0
   -8.6180  -31.5700   12.1160 O   0  0  0  0  0
   -8.7110  -32.7540   15.5020 C   0  0  0  0  0
   -9.1550  -32.4170   16.8930 C   0  0  0  0  0
   -8.3500  -32.7150   17.9810 C   0  0  0  0  0
   -8.7460  -32.4010   19.2740 C   0  0  0  0  0
   -9.9600  -31.7690   19.4810 C   0  0  0  0  0
  -10.7670  -31.4700   18.3930 C   0  0  0  0  0
  -10.3680  -31.7870   17.1000 C   0  0  0  0  0
   -9.8493  -31.4676   14.3287 H   0  0  0  0  0
   -9.3840  -31.0232   12.3056 H   0  0  0  0  0
   -7.6578  -33.0247   15.5768 H   0  0  0  0  0
   -9.3860  -33.5334   15.1484 H   0  0  0  0  0
   -7.3896  -33.2043   17.8188 H   0  0  0  0  0
   -8.1056  -32.6503   20.1201 H   0  0  0  0  0
  -10.2791  -31.5085   20.4902 H   0  0  0  0  0
  -11.7271  -30.9798   18.5544 H   0  0  0  0  0
  -11.0084  -31.5401   16.2532 H   0  0  0  0  0
  1  2  1  0  0  0
  2  3  1  0  0  0
  2  6  1  0  0  0
  3  4  2  0  0  0
  3  5  1  0  0  0
  6  7  1  0  0  0
  7  8  4  0  0  0
  7 12  4  0  0  0
  8  9  4  0  0  0
  9 10  4  0  0  0
 10 11  4  0  0  0
 11 12  4  0  0  0
  2 13  1  0  0  0
  5 14  1  0  0  0
  6 15  1  0  0  0
  6 16  1  0  0  0
  8 17  1  0  0  0
  9 18  1  0  0  0
 10 19  1  0  0  0
 11 20  1  0  0  0
 12 21  1  0  0  0
M  END
$$$$
