1zpb_ligand
  -I-interpret- 

 66 66  0  0  0  0  0  0  0  0999 V2000
   11.3020   51.0770   25.3530 C   0  0  0  0  0
   11.6400   51.1450   23.8490 C   0  0  0  0  0
   11.6440   52.3670   26.1200 C   0  0  0  0  0
    9.9060   50.8660   25.4720 O   0  0  0  0  0
   10.4880   53.6040   26.4470 S   0  0  0  0  0
   11.7440   54.4510   27.2370 C   0  0  0  0  0
   12.9470   53.7600   27.2050 C   0  0  0  0  0
   12.8480   52.5450   26.5420 N   0  0  0  0  0
   11.2840   49.8310   23.1240 C   0  0  0  0  0
   11.1950   50.0540   21.6050 C   0  0  0  0  0
   13.0570   51.3430   23.6730 N   0  0  0  0  0
   13.6230   52.4290   23.1640 C   0  0  0  0  0
   15.1480   52.3870   23.0880 C   0  0  0  0  0
   15.8060   52.9700   24.3630 C   0  0  0  0  0
   15.6240   54.4930   24.5370 C   0  0  0  0  0
   17.3010   52.6320   24.3700 C   0  0  0  0  0
   15.6190   53.0870   21.8790 N   0  0  0  0  0
   15.3090   52.7060   20.6210 C   0  0  0  0  0
   15.9040   53.5390   19.4790 C   0  0  0  0  0
   16.8670   52.6720   18.6370 C   0  0  0  0  0
   17.3410   53.3200   17.3110 C   0  0  0  0  0
   18.2670   52.3300   16.6000 C   0  0  0  0  0
   18.1270   54.6240   17.5380 C   0  0  0  0  0
   14.5860   51.7260   20.3690 O   0  0  0  0  0
   12.9780   53.4090   22.7770 O   0  0  0  0  0
   11.4190   48.7530   20.8380 C   0  0  0  0  0
   11.3110   49.0400   19.4040 N   0  0  0  0  0
   11.0380   48.1540   18.4290 C   0  0  0  0  0
   10.8330   46.8600   18.7200 N   0  0  0  0  0
   10.9710   48.5790   17.1610 N   0  0  0  0  0
   11.8987   50.2728   25.7834 H   0  0  0  0  0
   11.0607   51.9694   23.4333 H   0  0  0  0  0
    9.6633   50.0652   25.0014 H   0  0  0  0  0
   11.6150   55.4235   27.7121 H   0  0  0  0  0
   13.8692   54.1312   27.6520 H   0  0  0  0  0
   10.3174   49.4802   23.4855 H   0  0  0  0  0
   12.0621   49.0951   23.3268 H   0  0  0  0  0
   11.9674   50.7656   21.3134 H   0  0  0  0  0
   10.1996   50.4293   21.3676 H   0  0  0  0  0
   13.6751   50.5856   23.9639 H   0  0  0  0  0
   15.4502   51.3416   23.0250 H   0  0  0  0  0
   15.2907   52.5059   25.2039 H   0  0  0  0  0
   16.0668   55.0101   23.6858 H   0  0  0  0  0
   14.5608   54.7266   24.5927 H   0  0  0  0  0
   16.1164   54.8139   25.4550 H   0  0  0  0  0
   17.4275   51.5494   24.3588 H   0  0  0  0  0
   17.7739   53.0635   23.4878 H   0  0  0  0  0
   17.7610   53.0436   25.2684 H   0  0  0  0  0
   16.2137   53.9069   21.9997 H   0  0  0  0  0
   16.4544   54.3810   19.8989 H   0  0  0  0  0
   15.0973   53.9006   18.8414 H   0  0  0  0  0
   16.3224   51.7669   18.3682 H   0  0  0  0  0
   17.7575   52.5100   19.2443 H   0  0  0  0  0
   16.4552   53.5581   16.7221 H   0  0  0  0  0
   19.1231   52.1123   17.2386 H   0  0  0  0  0
   17.7222   51.4087   16.3939 H   0  0  0  0  0
   18.6127   52.7665   15.6630 H   0  0  0  0  0
   17.4926   55.3438   18.0552 H   0  0  0  0  0
   19.0090   54.4144   18.1431 H   0  0  0  0  0
   18.4340   55.0339   16.5758 H   0  0  0  0  0
   10.6724   48.0140   21.1288 H   0  0  0  0  0
   12.4058   48.3498   21.0655 H   0  0  0  0  0
   11.4574   50.0078   19.1171 H   0  0  0  0  0
   10.6253   46.1962   17.9739 H   0  0  0  0  0
   10.8849   46.5403   19.6872 H   0  0  0  0  0
   11.1261   49.5636   16.9442 H   0  0  0  0  0
  1  2  1  0  0  0
  1  3  1  0  0  0
  1  4  1  0  0  0
  2  9  1  0  0  0
  2 11  1  0  0  0
  3  5  4  0  0  0
  3  8  4  0  0  0
  5  6  4  0  0  0
  6  7  4  0  0  0
  7  8  4  0  0  0
  9 10  1  0  0  0
 10 26  1  0  0  0
 11 12  1  0  0  0
 12 13  1  0  0  0
 12 25  2  0  0  0
 13 14  1  0  0  0
 13 17  1  0  0  0
 14 15  1  0  0  0
 14 16  1  0  0  0
 17 18  1  0  0  0
 18 19  1  0  0  0
 18 24  2  0  0  0
 19 20  1  0  0  0
 20 21  1  0  0  0
 21 22  1  0  0  0
 21 23  1  0  0  0
 26 27  1  0  0  0
 27 28  1  0  0  0
 28 29  1  0  0  0
 28 30  2  0  0  0
  1 31  1  0  0  0
  2 32  1  0  0  0
  4 33  1  0  0  0
  6 34  1  0  0  0
  7 35  1  0  0  0
  9 36  1  0  0  0
  9 37  1  0  0  0
 10 38  1  0  0  0
 10 39  1  0  0  0
 11 40  1  0  0  0
 13 41  1  0  0  0
 14 42  1  0  0  0
 15 43  1  0  0  0
 15 44  1  0  0  0
 15 45  1  0  0  0
 16 46  1  0  0  0
 16 47  1  0  0  0
 16 48  1  0  0  0
 17 49  1  0  0  0
 19 50  1  0  0  0
 19 51  1  0  0  0
 20 52  1  0  0  0
 20 53  1  0  0  0
 21 54  1  0  0  0
 22 55  1  0  0  0
 22 56  1  0  0  0
 22 57  1  0  0  0
 23 58  1  0  0  0
 23 59  1  0  0  0
 23 60  1  0  0  0
 26 61  1  0  0  0
 26 62  1  0  0  0
 27 63  1  0  0  0
 29 64  1  0  0  0
 29 65  1  0  0  0
 30 66  1  0  0  0
M  END
$$$$
