4cjp_ligand
  -I-interpret- 

 52 54  0  0  0  0  0  0  0  0999 V2000
   -9.8980   48.3000    5.0110 C   0  0  0  0  0
   -9.2760   47.8700    3.8610 C   0  0  0  0  0
  -11.2020   44.0440   -2.3050 C   0  0  0  0  0
  -12.0900   44.1100   -3.3540 C   0  0  0  0  0
  -10.9430   49.1890    4.9010 C   0  0  0  0  0
  -10.7880   49.2440    2.6450 C   0  0  0  0  0
   -9.7390   48.3560    2.6630 C   0  0  0  0  0
  -12.7980   44.9810   -0.7730 C   0  0  0  0  0
  -11.5300   44.4720   -1.0280 C   0  0  0  0  0
  -13.3330   44.6140   -3.0880 C   0  0  0  0  0
  -13.6700   45.0340   -1.8380 C   0  0  0  0  0
   -9.0990   47.9240    1.4180 C   0  0  0  0  0
  -13.2740   45.4610    0.5580 C   0  0  0  0  0
  -15.4140   44.9730   -3.0560 C   0  0  0  0  0
   -7.4470   42.4300   -0.1920 C   0  0  0  0  0
   -6.7620   43.0700    2.0720 C   0  0  0  0  0
  -10.4800   44.3300    0.0350 C   0  0  0  0  0
   -8.1230   44.6530    0.7790 C   0  0  0  0  0
   -9.2630   46.4260   -0.5020 C   0  0  0  0  0
   -7.8720   43.1780    1.0510 C   0  0  0  0  0
   -9.1320   44.9280   -0.3200 C   0  0  0  0  0
  -11.4080   49.6780    3.7480 N   0  0  0  0  0
   -9.8500   47.0610    0.6570 N   0  0  0  0  0
  -14.3880   45.0330    0.9680 O   0  0  0  0  0
   -7.9830   48.3380    1.1530 O   0  0  0  0  0
  -12.5480   46.2780    1.1810 O   0  0  0  0  0
  -14.3490   44.7440   -3.9940 O   0  0  0  0  0
  -14.9580   45.4890   -1.7930 O   0  0  0  0  0
   -9.5701   47.9442    5.9877 H   0  0  0  0  0
   -8.4437   47.1672    3.8999 H   0  0  0  0  0
  -10.2053   43.6409   -2.4845 H   0  0  0  0  0
  -11.8145   43.7750   -4.3540 H   0  0  0  0  0
  -11.4261   49.5178    5.8211 H   0  0  0  0  0
  -11.1333   49.6146    1.6798 H   0  0  0  0  0
  -15.8972   44.0147   -2.8655 H   0  0  0  0  0
  -16.0839   45.7140   -3.4923 H   0  0  0  0  0
   -6.5317   42.8722   -0.5855 H   0  0  0  0  0
   -7.2684   41.3842    0.0581 H   0  0  0  0  0
   -8.2355   42.4961   -0.9417 H   0  0  0  0  0
   -6.5878   42.0202    2.3077 H   0  0  0  0  0
   -5.8511   43.5082    1.6642 H   0  0  0  0  0
   -7.0498   43.6041    2.9775 H   0  0  0  0  0
  -10.3232   43.2618    0.1847 H   0  0  0  0  0
  -10.8429   44.8654    0.9124 H   0  0  0  0  0
   -7.1750   45.0834    0.4563 H   0  0  0  0  0
   -8.5260   45.0822    1.6963 H   0  0  0  0  0
   -9.9119   46.6107   -1.3581 H   0  0  0  0  0
   -8.2659   46.8406   -0.6505 H   0  0  0  0  0
   -8.8025   42.7362    1.4076 H   0  0  0  0  0
   -8.7888   44.4704   -1.2478 H   0  0  0  0  0
  -10.8195   46.8687    0.9090 H   0  0  0  0  0
  -14.7520   44.4223    0.3229 H   0  0  0  0  0
  2  1  4  0  0  0
  1  5  4  0  0  0
  7  2  4  0  0  0
  3  4  4  0  0  0
  9  3  4  0  0  0
  4 10  4  0  0  0
 22  5  4  0  0  0
  7  6  4  0  0  0
  6 22  4  0  0  0
 12  7  1  0  0  0
  9  8  4  0  0  0
  8 11  4  0  0  0
  8 13  1  0  0  0
 17  9  1  0  0  0
 11 10  4  0  0  0
 10 27  1  0  0  0
 11 28  1  0  0  0
 23 12  1  0  0  0
 12 25  2  0  0  0
 13 24  1  0  0  0
 13 26  2  0  0  0
 14 27  1  0  0  0
 28 14  1  0  0  0
 20 15  1  0  0  0
 20 16  1  0  0  0
 21 17  1  0  0  0
 18 20  1  0  0  0
 21 18  1  0  0  0
 19 21  1  0  0  0
 19 23  1  0  0  0
  1 29  1  0  0  0
  2 30  1  0  0  0
  3 31  1  0  0  0
  4 32  1  0  0  0
  5 33  1  0  0  0
  6 34  1  0  0  0
 14 35  1  0  0  0
 14 36  1  0  0  0
 15 37  1  0  0  0
 15 38  1  0  0  0
 15 39  1  0  0  0
 16 40  1  0  0  0
 16 41  1  0  0  0
 16 42  1  0  0  0
 17 43  1  0  0  0
 17 44  1  0  0  0
 18 45  1  0  0  0
 18 46  1  0  0  0
 19 47  1  0  0  0
 19 48  1  0  0  0
 20 49  1  0  0  0
 21 50  1  0  0  0
 23 51  1  0  0  0
 24 52  1  0  0  0
M  END
$$$$
