4u5u_ligand
  -I-interpret- 

 49 50  0  0  0  0  0  0  0  0999 V2000
   -0.9830   29.9830   13.0820 C   0  0  0  0  0
   -0.0290   34.3250   10.6340 C   0  0  0  0  0
    0.4640   33.7400   11.7940 C   0  0  0  0  0
    0.0130   32.4740   12.1990 C   0  0  0  0  0
    0.6040   31.8030   13.2640 C   0  0  0  0  0
    0.1410   30.5520   13.6730 C   0  0  0  0  0
    0.4100   35.5910   10.2500 C   0  0  0  0  0
    1.2730   36.3430   11.0480 C   0  0  0  0  0
    1.7290   35.7960   12.2380 C   0  0  0  0  0
    1.2960   34.5120   12.6030 C   0  0  0  0  0
    2.6020   36.4320   13.1480 C   0  0  0  0  0
   -1.6250   30.6750   12.0520 N   0  0  0  0  0
   -1.1310   31.9230   11.6230 C   0  0  0  0  0
    3.6420   37.4750   12.8700 N   0  3  0  0  0
    3.4100   38.8820   12.3960 C   0  0  0  0  0
    2.2540   39.5630   13.1660 C   0  0  0  0  0
    1.3830   40.2000   12.5670 O   0  0  0  0  0
    2.3050   39.4490   14.4930 N   0  0  0  0  0
    3.2310   39.2150   10.9010 C   0  0  0  0  0
    4.5280   38.8820   10.1600 C   0  0  0  0  0
    4.4100   39.3270    8.7000 C   0  0  0  0  0
    4.1750   40.8490    8.6740 C   0  0  0  0  0
    5.2780   41.5900    9.3130 N   0  3  0  0  0
   -1.3558   29.0149   13.4166 H   0  0  0  0  0
   -0.7595   33.7936   10.0240 H   0  0  0  0  0
    1.4426   32.2618   13.7878 H   0  0  0  0  0
    0.6651   30.0149   14.4635 H   0  0  0  0  0
    0.0699   36.0048    9.3007 H   0  0  0  0  0
    1.5831   37.3421   10.7417 H   0  0  0  0  0
    1.6237   34.1017   13.5582 H   0  0  0  0  0
    3.2281   35.5934   13.4526 H   0  0  0  0  0
    1.8933   37.0030   13.7479 H   0  0  0  0  0
   -1.6494   32.4641   10.8314 H   0  0  0  0  0
    4.1271   37.0691   12.0698 H   0  0  0  0  0
    4.0221   37.6356   13.8028 H   0  0  0  0  0
    4.4031   39.2744   12.6149 H   0  0  0  0  0
    1.5980   39.9029   15.0714 H   0  0  0  0  0
    3.0510   38.9079   14.9301 H   0  0  0  0  0
    3.0016   40.2742   10.7844 H   0  0  0  0  0
    2.4101   38.6284   10.4886 H   0  0  0  0  0
    4.7032   37.8069   10.1992 H   0  0  0  0  0
    5.3606   39.4031   10.6326 H   0  0  0  0  0
    3.5780   38.8126    8.2191 H   0  0  0  0  0
    5.3243   39.0812    8.1598 H   0  0  0  0  0
    3.2583   41.0615    9.2241 H   0  0  0  0  0
    4.1100   41.1658    7.6331 H   0  0  0  0  0
    5.0818   42.5902    9.2736 H   0  0  0  0  0
    5.3637   41.2972   10.2863 H   0  0  0  0  0
    6.1488   41.3934    8.8196 H   0  0  0  0  0
  6  1  4  0  0  0
  1 12  4  0  0  0
  3  2  4  0  0  0
  2  7  4  0  0  0
  4  3  1  0  0  0
  3 10  4  0  0  0
  5  4  4  0  0  0
  4 13  4  0  0  0
  5  6  4  0  0  0
  7  8  4  0  0  0
  8  9  4  0  0  0
  9 10  4  0  0  0
  9 11  1  0  0  0
 11 14  1  0  0  0
 12 13  4  0  0  0
 14 15  1  0  0  0
 15 16  1  0  0  0
 15 19  1  0  0  0
 16 17  2  0  0  0
 16 18  1  0  0  0
 19 20  1  0  0  0
 20 21  1  0  0  0
 21 22  1  0  0  0
 22 23  1  0  0  0
  1 24  1  0  0  0
  2 25  1  0  0  0
  5 26  1  0  0  0
  6 27  1  0  0  0
  7 28  1  0  0  0
  8 29  1  0  0  0
 10 30  1  0  0  0
 11 31  1  0  0  0
 11 32  1  0  0  0
 13 33  1  0  0  0
 14 34  1  0  0  0
 14 35  1  0  0  0
 15 36  1  0  0  0
 18 37  1  0  0  0
 18 38  1  0  0  0
 19 39  1  0  0  0
 19 40  1  0  0  0
 20 41  1  0  0  0
 20 42  1  0  0  0
 21 43  1  0  0  0
 21 44  1  0  0  0
 22 45  1  0  0  0
 22 46  1  0  0  0
 23 47  1  0  0  0
 23 48  1  0  0  0
 23 49  1  0  0  0
M  END
$$$$
