2qwf_ligand
  -I-interpret- 

 47 47  0  0  0  0  0  0  0  0999 V2000
   23.6310   19.8290   64.8900 C   0  0  0  0  0
   24.2200   20.8930   65.1410 O   0  0  0  0  0
   22.4040   19.6700   65.1150 O   0  0  0  0  0
   24.4300   18.8790   64.2200 C   0  0  0  0  0
   23.9670   17.6970   63.9260 C   0  0  0  0  0
   24.5920   16.7300   62.8210 C   0  0  0  0  0
   25.9830   16.8760   62.7860 C   0  0  0  0  0
   26.5920   16.1770   61.6790 N   0  0  0  0  0
   27.0770   14.9490   61.8370 C   0  0  0  0  0
   27.0570   14.3540   62.9160 O   0  0  0  0  0
   27.5700   14.2900   60.5590 C   0  0  0  0  0
   26.2770   18.3670   62.8270 C   0  0  0  0  0
   25.7390   18.9350   63.9840 O   0  0  0  0  0
   27.7810   18.4030   62.9220 C   0  0  0  0  0
   28.3290   18.0560   63.9760 O   0  0  0  0  0
   28.4790   18.7320   61.8210 N   0  0  0  0  0
   27.9820   19.0860   60.4800 C   0  0  0  0  0
   29.9520   18.6900   62.0060 C   0  0  0  0  0
   30.4490   17.2880   62.4430 C   0  0  0  0  0
   31.9450   17.1210   62.3240 C   0  0  0  0  0
   24.2360   15.2910   62.9360 N   0  0  0  0  0
   23.8620   14.3350   61.9870 C   0  0  0  0  0
   23.8420   14.6590   60.6990 N   0  0  0  0  0
   23.6180   13.0700   62.3570 N   0  0  0  0  0
   22.1439   18.7839   64.8528 H   0  0  0  0  0
   23.0924   17.3444   64.4726 H   0  0  0  0  0
   24.1358   17.0535   61.8854 H   0  0  0  0  0
   26.4426   16.4004   63.6524 H   0  0  0  0  0
   26.6507   16.6296   60.7668 H   0  0  0  0  0
   28.6084   13.9841   60.6867 H   0  0  0  0  0
   26.9563   13.4156   60.3425 H   0  0  0  0  0
   27.4976   14.9994   59.7346 H   0  0  0  0  0
   25.8643   18.9087   61.9759 H   0  0  0  0  0
   27.4060   18.2535   60.0759 H   0  0  0  0  0
   27.3465   19.9687   60.5508 H   0  0  0  0  0
   28.8271   19.2967   59.8246 H   0  0  0  0  0
   30.2155   19.4017   62.7884 H   0  0  0  0  0
   30.4202   18.9331   61.0522 H   0  0  0  0  0
   29.9822   16.5536   61.7866 H   0  0  0  0  0
   30.1853   17.1573   63.4925 H   0  0  0  0  0
   32.2442   17.2674   61.2862 H   0  0  0  0  0
   32.4428   17.8578   62.9544 H   0  0  0  0  0
   32.2240   16.1177   62.6459 H   0  0  0  0  0
   24.2714   14.9326   63.8903 H   0  0  0  0  0
   24.0988   15.6017   60.4062 H   0  0  0  0  0
   23.4182   12.3616   61.6508 H   0  0  0  0  0
   23.6321   12.8158   63.3447 H   0  0  0  0  0
  1  4  1  0  0  0
  1  3  1  0  0  0
  1  2  2  0  0  0
  4 13  1  0  0  0
  4  5  2  0  0  0
  5  6  1  0  0  0
  6 21  1  0  0  0
  6  7  1  0  0  0
  7 12  1  0  0  0
  7  8  1  0  0  0
  8  9  1  0  0  0
  9 11  1  0  0  0
  9 10  2  0  0  0
 12 14  1  0  0  0
 12 13  1  0  0  0
 14 16  1  0  0  0
 14 15  2  0  0  0
 16 18  1  0  0  0
 16 17  1  0  0  0
 18 19  1  0  0  0
 19 20  1  0  0  0
 21 22  1  0  0  0
 22 24  1  0  0  0
 22 23  2  0  0  0
  3 25  1  0  0  0
  5 26  1  0  0  0
  6 27  1  0  0  0
  7 28  1  0  0  0
  8 29  1  0  0  0
 11 30  1  0  0  0
 11 31  1  0  0  0
 11 32  1  0  0  0
 12 33  1  0  0  0
 17 34  1  0  0  0
 17 35  1  0  0  0
 17 36  1  0  0  0
 18 37  1  0  0  0
 18 38  1  0  0  0
 19 39  1  0  0  0
 19 40  1  0  0  0
 20 41  1  0  0  0
 20 42  1  0  0  0
 20 43  1  0  0  0
 21 44  1  0  0  0
 23 45  1  0  0  0
 24 46  1  0  0  0
 24 47  1  0  0  0
M  END
$$$$
