4y24_ligand
  -I-interpret- 

 75 80  0  0  0  0  0  0  0  0999 V2000
   23.1410   -0.7340  -17.7280 C   0  0  0  0  0
   23.4480   -2.0810  -17.1170 C   0  0  0  0  0
   22.6120   -3.1740  -17.6690 C   0  0  0  0  0
   21.1970   -2.9030  -17.7470 C   0  0  0  0  0
   20.9320   -1.5700  -18.3710 C   0  0  0  0  0
   19.5110   -1.2780  -18.2440 C   0  0  0  0  0
   23.2460   -6.4840  -16.8280 N   0  0  0  0  0
   22.5110    7.8200  -13.3790 C   0  0  0  0  0
   21.4040    8.3880  -12.8320 C   0  0  0  0  0
   21.4940    9.1290  -11.6190 C   0  0  0  0  0
   23.3000    2.0830  -17.6060 C   0  0  0  0  0
   23.9380    0.6040  -16.9330 S   0  0  0  0  0
   21.7150   -0.5080  -17.7610 O   0  0  0  0  0
   24.2880    2.5070  -18.6020 O   0  0  0  0  0
   23.9610    3.7450  -19.2530 C   0  0  0  0  0
   25.0440    3.9980  -20.2280 C   0  0  0  0  0
   19.1950   -0.0050  -18.5660 O   0  0  0  0  0
   24.6880    3.3880  -21.4190 O   0  0  0  0  0
   23.7900    4.8790  -18.2990 C   0  0  0  0  0
   20.7310   -2.9330  -16.4470 O   0  0  0  0  0
   25.0390    5.2110  -17.6940 O   0  0  0  0  0
   22.8910    4.5000  -17.2050 C   0  0  0  0  0
   22.9930    3.1390  -16.6090 C   0  0  0  0  0
   21.6950    2.7950  -16.1460 O   0  0  0  0  0
   24.7930   -2.3920  -17.2440 O   0  0  0  0  0
   22.5510    5.6030  -16.2890 N   0  0  0  0  0
   23.1220    5.9260  -15.0940 C   0  0  0  0  0
   22.3960    7.0240  -14.6500 C   0  0  0  0  0
   21.4780    7.2340  -15.5800 N   0  0  0  0  0
   21.6170    6.3830  -16.5120 N   0  0  0  0  0
   22.8240   -4.4230  -16.9630 N   0  0  0  0  0
   23.0850   -5.5140  -17.6090 N   0  0  0  0  0
   23.1250   -6.0940  -15.5780 C   0  0  0  0  0
   22.8440   -4.6850  -15.6810 C   0  0  0  0  0
   22.7360    9.2400  -10.9760 C   0  0  0  0  0
   23.8110    8.6590  -11.5300 C   0  0  0  0  0
   23.7240    7.9250  -12.7460 C   0  0  0  0  0
   23.2880   -7.0420  -14.3920 C   0  0  0  0  0
   23.9170   -8.2720  -14.6320 C   0  0  0  0  0
   24.1090   -9.2040  -13.6180 C   0  0  0  0  0
   23.6900   -8.9090  -12.3690 C   0  0  0  0  0
   23.0920   -7.7090  -12.1240 C   0  0  0  0  0
   22.9030   -6.7580  -13.1520 C   0  0  0  0  0
   20.4710    9.7000  -11.0380 F   0  0  0  0  0
   22.6600   -7.4410  -10.8910 F   0  0  0  0  0
   23.5392   -0.7704  -18.7420 H   0  0  0  0  0
   23.2005   -1.9959  -16.0589 H   0  0  0  0  0
   22.9584   -3.2557  -18.6993 H   0  0  0  0  0
   20.6929   -3.6402  -18.3719 H   0  0  0  0  0
   21.2269   -1.6151  -19.4194 H   0  0  0  0  0
   19.2357   -1.4313  -17.2005 H   0  0  0  0  0
   18.9777   -1.9335  -18.9325 H   0  0  0  0  0
   20.4389    8.2754  -13.3260 H   0  0  0  0  0
   22.3210    1.9026  -18.0499 H   0  0  0  0  0
   22.9937    3.6656  -19.7491 H   0  0  0  0  0
   25.9872    3.5932  -19.8612 H   0  0  0  0  0
   25.1791    5.0694  -20.3758 H   0  0  0  0  0
   18.2494    0.1247  -18.4628 H   0  0  0  0  0
   25.3760    3.5371  -22.0717 H   0  0  0  0  0
   23.3878    5.7186  -18.8659 H   0  0  0  0  0
   20.9098   -3.7949  -16.0640 H   0  0  0  0  0
   24.9135    5.9412  -17.0836 H   0  0  0  0  0
   21.9749    4.3106  -17.7645 H   0  0  0  0  0
   23.7781    3.1792  -15.8539 H   0  0  0  0  0
   21.4115    3.4338  -15.4878 H   0  0  0  0  0
   25.3212   -1.6763  -16.8829 H   0  0  0  0  0
   23.9591    5.4339  -14.5988 H   0  0  0  0  0
   22.6819   -3.9837  -14.8624 H   0  0  0  0  0
   22.8263    9.7905  -10.0396 H   0  0  0  0  0
   24.7777    8.7518  -11.0350 H   0  0  0  0  0
   24.6100    7.4520  -13.1694 H   0  0  0  0  0
   24.2643   -8.5035  -15.6389 H   0  0  0  0  0
   24.5908  -10.1588  -13.8285 H   0  0  0  0  0
   23.8292   -9.6268  -11.5606 H   0  0  0  0  0
   22.4432   -5.7952  -12.9289 H   0  0  0  0  0
  2  1  1  0  0  0
  1 12  1  0  0  0
  1 13  1  0  0  0
  3  2  1  0  0  0
  2 25  1  0  0  0
  3  4  1  0  0  0
 31  3  1  0  0  0
  4  5  1  0  0  0
  4 20  1  0  0  0
  5  6  1  0  0  0
  5 13  1  0  0  0
  6 17  1  0  0  0
 32  7  4  0  0  0
  7 33  4  0  0  0
  8  9  4  0  0  0
 28  8  1  0  0  0
  8 37  4  0  0  0
  9 10  4  0  0  0
 10 35  4  0  0  0
 10 44  1  0  0  0
 12 11  1  0  0  0
 11 14  1  0  0  0
 11 23  1  0  0  0
 14 15  1  0  0  0
 15 16  1  0  0  0
 15 19  1  0  0  0
 16 18  1  0  0  0
 19 21  1  0  0  0
 22 19  1  0  0  0
 23 22  1  0  0  0
 22 26  1  0  0  0
 23 24  1  0  0  0
 26 27  4  0  0  0
 26 30  4  0  0  0
 27 28  4  0  0  0
 29 28  4  0  0  0
 30 29  4  0  0  0
 31 32  4  0  0  0
 31 34  4  0  0  0
 33 34  4  0  0  0
 33 38  1  0  0  0
 35 36  4  0  0  0
 36 37  4  0  0  0
 38 39  4  0  0  0
 38 43  4  0  0  0
 39 40  4  0  0  0
 40 41  4  0  0  0
 41 42  4  0  0  0
 42 43  4  0  0  0
 42 45  1  0  0  0
  1 46  1  0  0  0
  2 47  1  0  0  0
  3 48  1  0  0  0
  4 49  1  0  0  0
  5 50  1  0  0  0
  6 51  1  0  0  0
  6 52  1  0  0  0
  9 53  1  0  0  0
 11 54  1  0  0  0
 15 55  1  0  0  0
 16 56  1  0  0  0
 16 57  1  0  0  0
 17 58  1  0  0  0
 18 59  1  0  0  0
 19 60  1  0  0  0
 20 61  1  0  0  0
 21 62  1  0  0  0
 22 63  1  0  0  0
 23 64  1  0  0  0
 24 65  1  0  0  0
 25 66  1  0  0  0
 27 67  1  0  0  0
 34 68  1  0  0  0
 35 69  1  0  0  0
 36 70  1  0  0  0
 37 71  1  0  0  0
 39 72  1  0  0  0
 40 73  1  0  0  0
 41 74  1  0  0  0
 43 75  1  0  0  0
M  END
$$$$
