5nf9_ligand
  -I-interpret- 

 68 70  0  0  0  0  0  0  0  0999 V2000
   27.0040  -12.6120   -2.3550 O   0  0  0  0  0
   27.4210  -11.5110   -2.0100 C   0  0  0  0  0
   28.8710  -11.1370   -2.1240 C   0  0  0  0  0
   26.6130  -10.5660   -1.5040 N   0  0  0  0  0
   25.2040  -10.7430   -1.3030 C   0  0  0  0  0
   24.8400   -9.8420   -0.0960 C   0  0  0  0  0
   25.5050  -10.3600    1.0850 N   0  0  0  0  0
   26.6580   -9.8950    1.5970 C   0  0  0  0  0
   27.1270  -10.4270    2.9390 C   0  0  0  0  0
   26.7040  -11.6530    3.5280 C   0  0  0  0  0
   27.1560  -11.9810    4.8290 C   0  0  0  0  0
   28.0180  -11.0780    5.5060 C   0  0  0  0  0
   28.4380   -9.8700    4.8980 C   0  0  0  0  0
   29.2890   -8.9850    5.5150 O   0  0  0  0  0
   29.4300   -7.6010    5.1720 C   0  0  0  0  0
   27.9820   -9.5550    3.6290 C   0  0  0  0  0
   27.2590   -8.9700    1.0750 O   0  0  0  0  0
   24.4710  -10.2870   -2.4520 O   0  0  0  0  0
   23.0630  -10.4800   -2.3050 C   0  0  0  0  0
   22.4420  -10.1140   -3.6600 C   0  0  0  0  0
   22.6220   -8.7100   -4.0180 O   0  0  0  0  0
   22.6120   -9.5450   -1.1570 C   0  0  0  0  0
   23.3530   -9.8850    0.1270 C   0  0  0  0  0
   23.0270   -9.0380    1.2490 O   0  0  0  0  0
   21.2450   -9.7230   -0.9340 O   0  0  0  0  0
   20.5030   -8.5660   -1.3500 C   0  0  0  0  0
   19.0720   -9.0000   -1.3250 C   0  0  0  0  0
   18.8030  -10.0030   -2.3280 O   0  0  0  0  0
   18.1970   -7.7860   -1.6300 C   0  0  0  0  0
   16.8290   -8.1510   -1.5050 O   0  0  0  0  0
   18.5290   -6.6300   -0.7080 C   0  0  0  0  0
   18.1230   -6.9660    0.6410 O   0  0  0  0  0
   19.9990   -6.2750   -0.8310 C   0  0  0  0  0
   20.8090   -7.4240   -0.4970 O   0  0  0  0  0
   20.4650   -5.1130    0.0560 C   0  0  0  0  0
   21.8380   -4.9880   -0.2400 O   0  0  0  0  0
   29.4700  -11.8232   -1.5253 H   0  0  0  0  0
   29.1799  -11.1987   -3.1675 H   0  0  0  0  0
   29.0118  -10.1187   -1.7616 H   0  0  0  0  0
   27.0254   -9.6691   -1.2473 H   0  0  0  0  0
   24.9602  -11.7925   -1.1380 H   0  0  0  0  0
   25.1532   -8.8162   -0.2904 H   0  0  0  0  0
   25.0610  -11.1417    1.5668 H   0  0  0  0  0
   26.0424  -12.3283    2.9854 H   0  0  0  0  0
   26.8471  -12.9123    5.3037 H   0  0  0  0  0
   28.3625  -11.3191    6.5116 H   0  0  0  0  0
   29.7520   -7.5162    4.1341 H   0  0  0  0  0
   28.4718   -7.0971    5.2988 H   0  0  0  0  0
   30.1731   -7.1405    5.8231 H   0  0  0  0  0
   28.2906   -8.6199    3.1615 H   0  0  0  0  0
   22.7620  -11.4964   -2.0513 H   0  0  0  0  0
   21.3704  -10.3018   -3.5925 H   0  0  0  0  0
   22.9382  -10.7144   -4.4225 H   0  0  0  0  0
   22.2142   -8.5436   -4.8710 H   0  0  0  0  0
   22.8281   -8.5147   -1.4398 H   0  0  0  0  0
   23.0227  -10.8912    0.3848 H   0  0  0  0  0
   23.5332   -9.3158    2.0159 H   0  0  0  0  0
   20.7611   -8.2156   -2.3494 H   0  0  0  0  0
   18.8589   -9.4210   -0.3424 H   0  0  0  0  0
   17.8785  -10.2580   -2.2841 H   0  0  0  0  0
   18.3912   -7.4569   -2.6508 H   0  0  0  0  0
   16.2770   -7.3893   -1.6963 H   0  0  0  0  0
   17.9765   -5.7346   -0.9928 H   0  0  0  0  0
   18.3318   -6.2357    1.2281 H   0  0  0  0  0
   20.1207   -5.9587   -1.8670 H   0  0  0  0  0
   20.2859   -5.3031    1.1142 H   0  0  0  0  0
   19.9138   -4.1940   -0.1433 H   0  0  0  0  0
   22.2125   -4.2730    0.2798 H   0  0  0  0  0
  1  2  2  0  0  0
  2  3  1  0  0  0
  2  4  1  0  0  0
  4  5  1  0  0  0
  5  6  1  0  0  0
  5 18  1  0  0  0
  6  7  1  0  0  0
  6 23  1  0  0  0
  7  8  1  0  0  0
  8  9  1  0  0  0
  8 17  2  0  0  0
  9 10  4  0  0  0
  9 16  4  0  0  0
 10 11  4  0  0  0
 11 12  4  0  0  0
 12 13  4  0  0  0
 13 14  1  0  0  0
 13 16  4  0  0  0
 14 15  1  0  0  0
 18 19  1  0  0  0
 19 20  1  0  0  0
 19 22  1  0  0  0
 20 21  1  0  0  0
 22 23  1  0  0  0
 22 25  1  0  0  0
 23 24  1  0  0  0
 25 26  1  0  0  0
 26 27  1  0  0  0
 26 34  1  0  0  0
 27 28  1  0  0  0
 27 29  1  0  0  0
 29 30  1  0  0  0
 29 31  1  0  0  0
 31 32  1  0  0  0
 31 33  1  0  0  0
 33 34  1  0  0  0
 33 35  1  0  0  0
 35 36  1  0  0  0
  3 37  1  0  0  0
  3 38  1  0  0  0
  3 39  1  0  0  0
  4 40  1  0  0  0
  5 41  1  0  0  0
  6 42  1  0  0  0
  7 43  1  0  0  0
 10 44  1  0  0  0
 11 45  1  0  0  0
 12 46  1  0  0  0
 15 47  1  0  0  0
 15 48  1  0  0  0
 15 49  1  0  0  0
 16 50  1  0  0  0
 19 51  1  0  0  0
 20 52  1  0  0  0
 20 53  1  0  0  0
 21 54  1  0  0  0
 22 55  1  0  0  0
 23 56  1  0  0  0
 24 57  1  0  0  0
 26 58  1  0  0  0
 27 59  1  0  0  0
 28 60  1  0  0  0
 29 61  1  0  0  0
 30 62  1  0  0  0
 31 63  1  0  0  0
 32 64  1  0  0  0
 33 65  1  0  0  0
 35 66  1  0  0  0
 35 67  1  0  0  0
 36 68  1  0  0  0
M  END
$$$$
