6b1k_ligand
  -I-interpret- 

 37 40  0  0  0  0  0  0  0  0999 V2000
  -17.0430  -18.3660   20.2230 C   0  0  0  0  0
  -17.5880  -17.3360   19.4780 C   0  0  0  0  0
  -18.2030  -17.6550   18.2720 C   0  0  0  0  0
  -19.4960  -14.7950   16.4950 N   0  0  0  0  0
  -18.7680  -16.6200   17.3980 C   0  0  0  0  0
  -18.8580  -15.2670   17.5880 C   0  0  0  0  0
  -19.8040  -15.8120   15.6500 N   0  0  0  0  0
  -19.8580  -13.4560   16.1700 C   0  0  0  0  0
  -19.8960  -13.0480   14.8460 C   0  0  0  0  0
  -20.2020  -11.7330   14.5380 C   0  0  0  0  0
  -20.4590  -10.8240   15.5560 C   0  0  0  0  0
  -19.3480  -16.9150   16.1960 N   0  0  0  0  0
  -20.4270  -11.2370   16.8800 C   0  0  0  0  0
  -20.1370  -12.5520   17.1840 C   0  0  0  0  0
  -17.7610  -19.9070   18.5480 C   0  0  0  0  0
  -18.2970  -18.9130   17.8140 N   0  0  0  0  0
  -17.3100  -22.2730   18.7570 N   0  0  0  0  0
  -17.3910  -23.6370   18.2380 C   0  0  0  0  0
  -20.7520   -9.5240   15.2890 O   0  0  0  0  0
  -16.6790  -22.0350   19.9550 C   0  0  0  0  0
  -17.8880  -21.2610   17.9880 C   0  0  0  0  0
  -16.5660  -20.8150   20.4700 C   0  0  0  0  0
  -17.1130  -19.6870   19.7710 C   0  0  0  0  0
  -18.4720  -21.5350   16.9560 O   0  0  0  0  0
  -16.5541  -18.1455   21.1719 H   0  0  0  0  0
  -17.5370  -16.3043   19.8259 H   0  0  0  0  0
  -18.4927  -14.6932   18.4397 H   0  0  0  0  0
  -19.6854  -13.7608   14.0487 H   0  0  0  0  0
  -20.2411  -11.4116   13.4972 H   0  0  0  0  0
  -20.6305  -10.5242   17.6791 H   0  0  0  0  0
  -20.1273  -12.8805   18.2233 H   0  0  0  0  0
  -16.3845  -24.0290   18.0916 H   0  0  0  0  0
  -17.9266  -24.2643   18.9506 H   0  0  0  0  0
  -17.9221  -23.6313   17.2861 H   0  0  0  0  0
  -20.8977   -9.0542   16.1134 H   0  0  0  0  0
  -16.2560  -22.8774   20.5023 H   0  0  0  0  0
  -16.0578  -20.6710   21.4235 H   0  0  0  0  0
  1  2  4  0  0  0
 23  1  4  0  0  0
  3  2  4  0  0  0
  3  5  1  0  0  0
 16  3  4  0  0  0
  6  4  4  0  0  0
  7  4  4  0  0  0
  4  8  1  0  0  0
  5  6  4  0  0  0
  5 12  4  0  0  0
 12  7  4  0  0  0
  8  9  4  0  0  0
  8 14  4  0  0  0
  9 10  4  0  0  0
 10 11  4  0  0  0
 13 11  4  0  0  0
 11 19  1  0  0  0
 14 13  4  0  0  0
 15 16  4  0  0  0
 21 15  1  0  0  0
 15 23  4  0  0  0
 17 18  1  0  0  0
 17 20  1  0  0  0
 17 21  1  0  0  0
 20 22  2  0  0  0
 21 24  2  0  0  0
 22 23  1  0  0  0
  1 25  1  0  0  0
  2 26  1  0  0  0
  6 27  1  0  0  0
  9 28  1  0  0  0
 10 29  1  0  0  0
 13 30  1  0  0  0
 14 31  1  0  0  0
 18 32  1  0  0  0
 18 33  1  0  0  0
 18 34  1  0  0  0
 19 35  1  0  0  0
 20 36  1  0  0  0
 22 37  1  0  0  0
M  END
$$$$
