5q11_ligand
  -I-interpret- 

 57 60  0  0  0  0  0  0  0  0999 V2000
  -11.9060   40.8520   -6.0450 N   0  0  0  0  0
  -11.8700   41.6760   -7.2840 C   0  0  0  0  0
  -10.7890   39.0320   -4.6530 C   0  0  0  0  0
  -14.3970   40.5740   -5.6590 C   0  0  0  0  0
  -13.1210   42.5000   -4.5640 C   0  0  0  0  0
  -12.1280   40.8340   -8.5480 C   0  0  0  0  0
  -15.5020   40.6990   -4.5940 C   0  0  0  0  0
  -10.6310   43.3870   -8.7040 C   0  0  0  0  0
  -10.5700   40.7420   -2.6220 C   0  0  0  0  0
  -10.9200   36.6160   -5.6680 C   0  0  0  0  0
  -15.6100   42.1280   -4.0720 C   0  0  0  0  0
  -10.8090   42.5020   -9.9260 C   0  0  0  0  0
  -11.4780   41.0470   -1.6010 C   0  0  0  0  0
  -10.4990   43.2020   -1.3400 C   0  0  0  0  0
  -10.8060   37.6650   -4.6250 C   0  0  0  0  0
  -10.6900   37.2380   -3.3530 O   0  0  0  0  0
  -10.5900   38.3610   -2.4930 N   0  0  0  0  0
  -10.6460   39.4150   -3.2710 C   0  0  0  0  0
  -11.4450   42.2740   -0.9610 C   0  0  0  0  0
  -10.4530   44.7330   -0.5450 Cl  0  0  0  0  0
   -9.5840   42.9460   -2.3370 C   0  0  0  0  0
   -9.6210   41.7220   -2.9720 C   0  0  0  0  0
   -8.4600   41.4520   -4.2080 Cl  0  0  0  0  0
  -10.8880   39.9450   -5.8520 C   0  0  0  0  0
   -9.9580   39.7920   -6.6660 O   0  0  0  0  0
  -13.0420   41.0740   -5.1170 C   0  0  0  0  0
  -14.2450   42.6240   -3.5120 C   0  0  0  0  0
  -10.6050   42.5560   -7.4140 C   0  0  0  0  0
  -12.1030   41.6940   -9.8260 C   0  0  0  0  0
  -12.6981   42.3783   -7.1886 H   0  0  0  0  0
  -14.6732   41.1820   -6.5205 H   0  0  0  0  0
  -14.2959   39.5242   -5.9344 H   0  0  0  0  0
  -13.3348   43.1827   -5.3864 H   0  0  0  0  0
  -12.1702   42.7447   -4.0905 H   0  0  0  0  0
  -13.1151   40.3801   -8.4607 H   0  0  0  0  0
  -11.3411   40.0837   -8.6254 H   0  0  0  0  0
  -15.2553   40.0426   -3.7595 H   0  0  0  0  0
  -16.4538   40.4226   -5.0476 H   0  0  0  0  0
  -11.4696   44.0815   -8.6530 H   0  0  0  0  0
   -9.6832   43.9177   -8.7945 H   0  0  0  0  0
  -11.8633   36.7362   -6.2008 H   0  0  0  0  0
  -10.0907   36.7107   -6.3689 H   0  0  0  0  0
  -10.8895   35.6331   -5.1978 H   0  0  0  0  0
  -16.3461   42.1514   -3.2685 H   0  0  0  0  0
  -15.9069   42.7786   -4.8946 H   0  0  0  0  0
   -9.9672   41.8122   -9.9865 H   0  0  0  0  0
  -10.8559   43.1330  -10.8136 H   0  0  0  0  0
  -12.2221   40.3073   -1.3056 H   0  0  0  0  0
  -12.1572   42.5031   -0.1683 H   0  0  0  0  0
   -8.8450   43.6960   -2.6188 H   0  0  0  0  0
  -12.8138   40.4385   -4.2613 H   0  0  0  0  0
  -14.3460   43.6741   -3.2377 H   0  0  0  0  0
  -13.9813   42.0088   -2.6517 H   0  0  0  0  0
   -9.7314   41.9047   -7.4394 H   0  0  0  0  0
  -10.5685   43.2374   -6.5640 H   0  0  0  0  0
  -12.9436   42.3872   -9.7945 H   0  0  0  0  0
  -12.1673   41.0332  -10.6904 H   0  0  0  0  0
  1  2  1  0  0  0
 24  1  1  0  0  0
  1 26  1  0  0  0
  2  6  1  0  0  0
  2 28  1  0  0  0
  3 15  4  0  0  0
 18  3  4  0  0  0
  3 24  1  0  0  0
  4  7  1  0  0  0
 26  4  1  0  0  0
 26  5  1  0  0  0
  5 27  1  0  0  0
  6 29  1  0  0  0
  7 11  1  0  0  0
  8 12  1  0  0  0
 28  8  1  0  0  0
  9 13  4  0  0  0
  9 18  1  0  0  0
  9 22  4  0  0  0
 15 10  1  0  0  0
 11 27  1  0  0  0
 12 29  1  0  0  0
 13 19  4  0  0  0
 19 14  4  0  0  0
 14 20  1  0  0  0
 14 21  4  0  0  0
 15 16  4  0  0  0
 16 17  4  0  0  0
 17 18  4  0  0  0
 21 22  4  0  0  0
 22 23  1  0  0  0
 24 25  2  0  0  0
  2 30  1  0  0  0
  4 31  1  0  0  0
  4 32  1  0  0  0
  5 33  1  0  0  0
  5 34  1  0  0  0
  6 35  1  0  0  0
  6 36  1  0  0  0
  7 37  1  0  0  0
  7 38  1  0  0  0
  8 39  1  0  0  0
  8 40  1  0  0  0
 10 41  1  0  0  0
 10 42  1  0  0  0
 10 43  1  0  0  0
 11 44  1  0  0  0
 11 45  1  0  0  0
 12 46  1  0  0  0
 12 47  1  0  0  0
 13 48  1  0  0  0
 19 49  1  0  0  0
 21 50  1  0  0  0
 26 51  1  0  0  0
 27 52  1  0  0  0
 27 53  1  0  0  0
 28 54  1  0  0  0
 28 55  1  0  0  0
 29 56  1  0  0  0
 29 57  1  0  0  0
M  END
$$$$
