### 
### Created by X-TOOL on Mon Sep 10 21:13:28 2018
### 

@<TRIPOS>MOLECULE
5teg_ligand
  168   168     1     0     0
SMALL
GAST_HUCK


@<TRIPOS>ATOM
      1 N         -15.5880   12.7410  -11.2160 N.4       1 LYS         0.2379
      2 CA        -15.2490   13.1550   -9.8620 C.3       1 LYS         0.0650
      3 C         -14.2980   12.1210   -9.2840 C.2       1 LYS         0.2267
      4 O         -14.6000   10.9290   -9.2880 O.2       1 LYS        -0.3907
      5 CB        -16.5070   13.2920   -8.9940 C.3       1 LYS         0.0080
      6 CG        -16.3640   14.3100   -7.8740 C.3       1 LYS        -0.0410
      7 CD        -15.8920   13.6790   -6.5710 C.3       1 LYS        -0.0123
      8 CE        -15.0040   14.6160   -5.7950 C.3       1 LYS        -0.0354
      9 NZ        -14.4310   13.9520   -4.5940 N.4       1 LYS         0.2185
     10 N         -13.1480   12.5790   -8.8240 N.am      1 ARG        -0.2610
     11 CA        -12.0830   11.7090   -8.3390 C.3       1 ARG         0.1312
     12 C         -12.1440   11.5110   -6.8370 C.2       1 ARG         0.2040
     13 O         -12.4940   12.4370   -6.1130 O.2       1 ARG        -0.3944
     14 CB        -10.7430   12.3400   -8.7310 C.3       1 ARG        -0.0092
     15 CG        -10.4630   12.3190  -10.2240 C.3       1 ARG        -0.0156
     16 CD         -9.2970   13.2300  -10.5800 C.3       1 ARG         0.0627
     17 NE         -8.1070   12.8780   -9.8000 N.pl3     1 ARG        -0.2723
     18 CZ         -7.3200   11.8380  -10.0640 C.cat     1 ARG         0.2882
     19 NH1        -7.5220   11.1010  -11.1560 N.pl3     1 ARG        -0.2849
     20 NH2        -6.3500   11.5020   -9.2210 N.pl3     1 ARG        -0.2849
     21 N         -11.7390   10.3200   -6.3660 N.am      1 HIS        -0.2619
     22 CA        -11.5890   10.1040   -4.9210 C.3       1 HIS         0.1421
     23 C         -10.0970   10.1500   -4.6080 C.2       1 HIS         0.2060
     24 O          -9.2610   10.1150   -5.5200 O.2       1 HIS        -0.3942
     25 CB        -12.2040    8.7600   -4.4490 C.3       1 HIS         0.0427
     26 CG        -11.4480    7.5540   -4.9240 C.2       1 HIS         0.0561
     27 ND1       -10.3380    7.0630   -4.2350 N.pl3     1 HIS        -0.2623
     28 CD2       -11.6810    6.7440   -5.9820 C.2       1 HIS        -0.0276
     29 CE1        -9.8990    6.0250   -4.9380 C.2       1 HIS         0.0875
     30 NE2       -10.6750    5.7960   -5.9960 N.2       1 HIS        -0.3437
     31 N          -9.7720   10.1240   -3.3380 N.am      1 ARG        -0.2636
     32 CA         -8.4020   10.0850   -2.8790 C.3       1 ARG         0.1311
     33 C          -8.2250    8.8630   -1.9990 C.2       1 ARG         0.2039
     34 O          -9.1650    8.0600   -1.8090 O.2       1 ARG        -0.3944
     35 CB         -8.0890   11.3680   -2.0850 C.3       1 ARG        -0.0092
     36 CG         -8.0770   12.6010   -2.9570 C.3       1 ARG        -0.0156
     37 CD         -7.9030   13.8190   -2.0590 C.3       1 ARG         0.0627
     38 NE         -7.6880   15.0510   -2.8080 N.pl3     1 ARG        -0.2723
     39 CZ         -8.1400   16.2360   -2.4140 C.cat     1 ARG         0.2882
     40 NH1        -8.8810   16.3410   -1.3140 N.pl3     1 ARG        -0.2849
     41 NH2        -7.8800   17.3220   -3.1290 N.pl3     1 ARG        -0.2849
     42 N          -7.0040    8.6890   -1.5110 N.am      1 NLE        -0.2637
     43 CA         -6.6780    7.7260   -0.4750 C.3       1 NLE         0.1310
     44 C          -5.9950    8.5800    0.6030 C.2       1 NLE         0.2039
     45 O          -5.2140    9.4890    0.2680 O.2       1 NLE        -0.3944
     46 CB         -5.7350    6.6200   -0.8960 C.3       1 NLE        -0.0124
     47 CG         -6.3980    5.7300   -2.0040 C.3       1 NLE        -0.0491
     48 CD         -5.2470    4.9350   -2.6220 C.3       1 NLE        -0.0557
     49 CE         -5.6060    4.1680   -3.8680 C.3       1 NLE        -0.0653
     50 N          -6.3280    8.3540    1.8820 N.am      1 VAL        -0.2635
     51 CA         -5.7660    9.1730    2.9570 C.3       1 VAL         0.1332
     52 C          -5.3710    8.2800    4.0890 C.2       1 VAL         0.2041
     53 O          -6.1890    7.4560    4.5280 O.2       1 VAL        -0.3944
     54 CB         -6.8230   10.2010    3.4450 C.3       1 VAL        -0.0063
     55 CG1        -6.2750   11.0630    4.5720 C.3       1 VAL        -0.0584
     56 CG2        -7.3210   11.0970    2.3150 C.3       1 VAL        -0.0584
     57 N          -4.1320    8.4590    4.6090 N.am      1 LEU        -0.2637
     58 CA         -3.6860    7.7320    5.7990 C.3       1 LEU         0.1312
     59 C          -4.1780    8.5820    6.9840 C.2       1 LEU         0.2033
     60 O          -3.7200    9.6940    7.1940 O.2       1 LEU        -0.3944
     61 CB         -2.1620    7.5810    5.8260 C.3       1 LEU        -0.0101
     62 CG         -1.6100    6.8230    7.0370 C.3       1 LEU        -0.0425
     63 CD1        -2.1370    5.3950    7.0990 C.3       1 LEU        -0.0625
     64 CD2        -0.0970    6.8860    7.0810 C.3       1 LEU        -0.0625
     65 N          -5.1660    8.0800    7.6890 N.am      1 ARG        -0.2695
     66 CA         -5.8040    8.8420    8.7710 C.3       1 ARG         0.0945
     67 C          -5.0950    8.7240   10.0950 C.2       1 ARG         0.0601
     68 O          -4.5570    7.6690   10.3860 O.co2     1 ARG        -0.5666
     69 CB         -7.2750    8.4400    8.8840 C.3       1 ARG        -0.0148
     70 CG         -8.0370    8.6510    7.5880 C.3       1 ARG        -0.0162
     71 CD         -9.3470    7.9080    7.6090 C.3       1 ARG         0.0627
     72 NE         -9.1350    6.4640    7.6200 N.pl3     1 ARG        -0.2723
     73 CZ        -10.1230    5.5860    7.5870 C.cat     1 ARG         0.2882
     74 NH1       -11.3890    5.9980    7.5370 N.pl3     1 ARG        -0.2849
     75 NH2        -9.8620    4.2830    7.5960 N.pl3     1 ARG        -0.2849
     76 OXT        -5.0760    9.6860   10.8440 O.co2     1 ARG        -0.5666
     77 H1        -16.2200   13.4118  -11.6241 H         1 LYS         0.2015
     78 H2        -16.0302   11.8356  -11.1898 H         1 LYS         0.2015
     79 H3        -14.7486   12.6890  -11.7716 H         1 LYS         0.2015
     80 H4        -14.7425   14.1307   -9.8992 H         1 LYS         0.1098
     81 H5        -16.7299   12.3119   -8.5471 H         1 LYS         0.0346
     82 H6        -17.3432   13.5996   -9.6391 H         1 LYS         0.0346
     83 H7        -17.3409   14.7855   -7.7023 H         1 LYS         0.0270
     84 H8        -15.6337   15.0730   -8.1815 H         1 LYS         0.0270
     85 H9        -15.3299   12.7618   -6.8008 H         1 LYS         0.0317
     86 H10       -16.7694   13.4273   -5.9571 H         1 LYS         0.0317
     87 H11       -15.5955   15.4863   -5.4745 H         1 LYS         0.0813
     88 H12       -14.1821   14.9505   -6.4451 H         1 LYS         0.0813
     89 H13       -13.8434   14.6037   -4.0980 H         1 LYS         0.1994
     90 H14       -13.8830   13.1557   -4.8796 H         1 LYS         0.1994
     91 H15       -15.1782   13.6466   -3.9903 H         1 LYS         0.1994
     92 H16       -13.0007   13.5680   -8.8075 H         1 ARG         0.1884
     93 H17       -12.1779   10.7263   -8.8240 H         1 ARG         0.0800
     94 H18        -9.9390   11.7895   -8.2206 H         1 ARG         0.0313
     95 H19       -10.7419   13.3870   -8.3937 H         1 ARG         0.0313
     96 H20       -11.3604   12.6586  -10.7619 H         1 ARG         0.0301
     97 H21       -10.2202   11.2903  -10.5288 H         1 ARG         0.0301
     98 H22        -9.5744   14.2724  -10.3646 H         1 ARG         0.0689
     99 H23        -9.0706   13.1247  -11.6513 H         1 ARG         0.0689
    100 H24        -7.8643   13.4740   -8.9958 H         1 ARG         0.2642
    101 H25        -6.9097   10.2971  -11.3553 H         1 ARG         0.2615
    102 H26        -8.2904   11.3353  -11.8006 H         1 ARG         0.2615
    103 H27        -6.1857   12.0649   -8.3742 H         1 ARG         0.2615
    104 H28        -5.7622   10.6785   -9.4141 H         1 ARG         0.2615
    105 H29       -11.5384    9.5758   -7.0031 H         1 HIS         0.1885
    106 H30       -12.0968   10.9200   -4.3860 H         1 HIS         0.0824
    107 H31       -13.2343    8.6965   -4.8290 H         1 HIS         0.0491
    108 H32       -12.2176    8.7509   -3.3491 H         1 HIS         0.0491
    109 H33        -9.9400    7.4309   -3.3591 H         1 HIS         0.2386
    110 H34       -12.5053    6.8237   -6.6891 H         1 HIS         0.0324
    111 H35        -9.0186    5.4373   -4.6824 H         1 HIS         0.1149
    112 H36       -10.5042   10.1315   -2.6570 H         1 ARG         0.1883
    113 H37        -7.7238   10.0172   -3.7423 H         1 ARG         0.0800
    114 H38        -7.1006   11.2592   -1.6148 H         1 ARG         0.0313
    115 H39        -8.8541   11.4954   -1.3050 H         1 ARG         0.0313
    116 H40        -9.0265   12.6770   -3.5072 H         1 ARG         0.0301
    117 H41        -7.2427   12.5433   -3.6716 H         1 ARG         0.0301
    118 H42        -7.0355   13.6508   -1.4039 H         1 ARG         0.0689
    119 H43        -8.8087   13.9349   -1.4456 H         1 ARG         0.0689
    120 H44        -7.1575   14.9997   -3.6894 H         1 ARG         0.2642
    121 H45        -9.2288   17.2627   -1.0133 H         1 ARG         0.2615
    122 H46        -9.1069   15.5006   -0.7631 H         1 ARG         0.2615
    123 H47        -7.3074   17.2519   -3.9823 H         1 ARG         0.2615
    124 H48        -8.2507   18.2357   -2.8311 H         1 ARG         0.2615
    125 H49        -6.2651    9.2541   -1.8781 H         1 NLE         0.1883
    126 H50        -7.6021    7.2708   -0.0893 H         1 NLE         0.0800
    127 H51        -5.4968    5.9946   -0.0230 H         1 NLE         0.0312
    128 H52        -4.8099    7.0636   -1.2927 H         1 NLE         0.0312
    129 H53        -6.8841    6.3590   -2.7643 H         1 NLE         0.0267
    130 H54        -7.1409    5.0511   -1.5600 H         1 NLE         0.0267
    131 H55        -4.8848    4.2175   -1.8711 H         1 NLE         0.0263
    132 H56        -4.4411    5.6398   -2.8744 H         1 NLE         0.0263
    133 H57        -4.7193    3.6314   -4.2365 H         1 NLE         0.0230
    134 H58        -5.9585    4.8674   -4.6403 H         1 NLE         0.0230
    135 H59        -6.4022    3.4451   -3.6370 H         1 NLE         0.0230
    136 H60        -6.9674    7.6178    2.1039 H         1 VAL         0.1883
    137 H61        -4.8805    9.7096    2.5855 H         1 VAL         0.0802
    138 H62        -7.6828    9.6354    3.8333 H         1 VAL         0.0343
    139 H63        -7.0457   11.7786    4.8942 H         1 VAL         0.0234
    140 H64        -5.3905   11.6120    4.2169 H         1 VAL         0.0234
    141 H65        -5.9926   10.4218    5.4200 H         1 VAL         0.0234
    142 H66        -7.7172   10.4733    1.5001 H         1 VAL         0.0234
    143 H67        -6.4880   11.7080    1.9372 H         1 VAL         0.0234
    144 H68        -8.1169   11.7556    2.6929 H         1 VAL         0.0234
    145 H69        -3.5070    9.1037    4.1688 H         1 LEU         0.1883
    146 H70        -4.1452    6.7329    5.8287 H         1 LEU         0.0800
    147 H71        -1.7188    8.5878    5.8222 H         1 LEU         0.0315
    148 H72        -1.8559    7.0421    4.9172 H         1 LEU         0.0315
    149 H73        -1.9786    7.3380    7.9364 H         1 LEU         0.0298
    150 H74        -1.7177    4.8874    7.9802 H         1 LEU         0.0232
    151 H75        -1.8394    4.8544    6.1884 H         1 LEU         0.0232
    152 H76        -3.2343    5.4120    7.1732 H         1 LEU         0.0232
    153 H77         0.2278    7.9359    7.0335 H         1 LEU         0.0232
    154 H78         0.3180    6.3347    6.2244 H         1 LEU         0.0232
    155 H79         0.2618    6.4333    8.0171 H         1 LEU         0.0232
    156 H80        -5.4918    7.1570    7.4844 H         1 ARG         0.1875
    157 H81        -5.7698    9.9036    8.4851 H         1 ARG         0.0726
    158 H82        -7.7463    9.0448    9.6727 H         1 ARG         0.0307
    159 H83        -7.3299    7.3756    9.1560 H         1 ARG         0.0307
    160 H84        -7.4283    8.2845    6.7483 H         1 ARG         0.0301
    161 H85        -8.2341    9.7252    7.4566 H         1 ARG         0.0301
    162 H86        -9.9273    8.1785    6.7145 H         1 ARG         0.0689
    163 H87        -9.9079    8.1951    8.5107 H         1 ARG         0.0689
    164 H88        -8.1678    6.1115    7.6552 H         1 ARG         0.2642
    165 H89       -12.1542    5.3090    7.5115 H         1 ARG         0.2615
    166 H90       -11.6026    7.0055    7.5239 H         1 ARG         0.2615
    167 H91        -8.8869    3.9533    7.6345 H         1 ARG         0.2615
    168 H92       -10.6348    3.6027    7.5645 H         1 ARG         0.2615
@<TRIPOS>BOND
     1    1    2 1  
     2    2    3 1  
     3    2    5 1  
     4    3    4 2  
     5    3   10 am 
     6    5    6 1  
     7    6    7 1  
     8    7    8 1  
     9    8    9 1  
    10   10   11 1  
    11   11   12 1  
    12   11   14 1  
    13   12   13 2  
    14   12   21 am 
    15   14   15 1  
    16   15   16 1  
    17   16   17 1  
    18   17   18 ar 
    19   18   19 ar 
    20   18   20 ar 
    21   21   22 1  
    22   22   23 1  
    23   22   25 1  
    24   23   24 2  
    25   23   31 am 
    26   25   26 1  
    27   26   27 1  
    28   26   28 2  
    29   27   29 1  
    30   28   30 1  
    31   29   30 2  
    32   31   32 1  
    33   32   33 1  
    34   32   35 1  
    35   33   34 2  
    36   33   42 am 
    37   35   36 1  
    38   36   37 1  
    39   37   38 1  
    40   38   39 ar 
    41   39   40 ar 
    42   39   41 ar 
    43   42   43 1  
    44   43   44 1  
    45   43   46 1  
    46   44   45 2  
    47   44   50 am 
    48   46   47 1  
    49   47   48 1  
    50   48   49 1  
    51   50   51 1  
    52   51   52 1  
    53   51   54 1  
    54   52   53 2  
    55   52   57 am 
    56   54   55 1  
    57   54   56 1  
    58   57   58 1  
    59   58   59 1  
    60   58   61 1  
    61   59   60 2  
    62   59   65 am 
    63   61   62 1  
    64   62   63 1  
    65   62   64 1  
    66   65   66 1  
    67   66   67 1  
    68   66   69 1  
    69   67   68 ar 
    70   67   76 ar 
    71   69   70 1  
    72   70   71 1  
    73   71   72 1  
    74   72   73 ar 
    75   73   74 ar 
    76   73   75 ar 
    77    1   77 1  
    78    1   78 1  
    79    1   79 1  
    80    2   80 1  
    81    5   81 1  
    82    5   82 1  
    83    6   83 1  
    84    6   84 1  
    85    7   85 1  
    86    7   86 1  
    87    8   87 1  
    88    8   88 1  
    89    9   89 1  
    90    9   90 1  
    91    9   91 1  
    92   10   92 1  
    93   11   93 1  
    94   14   94 1  
    95   14   95 1  
    96   15   96 1  
    97   15   97 1  
    98   16   98 1  
    99   16   99 1  
   100   17  100 1  
   101   19  101 1  
   102   19  102 1  
   103   20  103 1  
   104   20  104 1  
   105   21  105 1  
   106   22  106 1  
   107   25  107 1  
   108   25  108 1  
   109   27  109 1  
   110   28  110 1  
   111   29  111 1  
   112   31  112 1  
   113   32  113 1  
   114   35  114 1  
   115   35  115 1  
   116   36  116 1  
   117   36  117 1  
   118   37  118 1  
   119   37  119 1  
   120   38  120 1  
   121   40  121 1  
   122   40  122 1  
   123   41  123 1  
   124   41  124 1  
   125   42  125 1  
   126   43  126 1  
   127   46  127 1  
   128   46  128 1  
   129   47  129 1  
   130   47  130 1  
   131   48  131 1  
   132   48  132 1  
   133   49  133 1  
   134   49  134 1  
   135   49  135 1  
   136   50  136 1  
   137   51  137 1  
   138   54  138 1  
   139   55  139 1  
   140   55  140 1  
   141   55  141 1  
   142   56  142 1  
   143   56  143 1  
   144   56  144 1  
   145   57  145 1  
   146   58  146 1  
   147   61  147 1  
   148   61  148 1  
   149   62  149 1  
   150   63  150 1  
   151   63  151 1  
   152   63  152 1  
   153   64  153 1  
   154   64  154 1  
   155   64  155 1  
   156   65  156 1  
   157   66  157 1  
   158   69  158 1  
   159   69  159 1  
   160   70  160 1  
   161   70  161 1  
   162   71  162 1  
   163   71  163 1  
   164   72  164 1  
   165   74  165 1  
   166   74  166 1  
   167   75  167 1  
   168   75  168 1  
@<TRIPOS>SUBSTRUCTURE
     1 LYS         1

