5teg_ligand
  -I-interpret- 

165165  0  0  0  0  0  0  0  0999 V2000
  -15.5880   12.7410  -11.2160 N   0  3  0  0  0
  -15.2490   13.1550   -9.8620 C   0  0  0  0  0
  -14.2980   12.1210   -9.2840 C   0  0  0  0  0
  -14.6000   10.9290   -9.2880 O   0  0  0  0  0
  -16.5070   13.2920   -8.9940 C   0  0  0  0  0
  -16.3640   14.3100   -7.8740 C   0  0  0  0  0
  -15.8920   13.6790   -6.5710 C   0  0  0  0  0
  -15.0040   14.6160   -5.7950 C   0  0  0  0  0
  -14.4310   13.9520   -4.5940 N   0  3  0  0  0
  -13.1480   12.5790   -8.8240 N   0  0  0  0  0
  -12.0830   11.7090   -8.3390 C   0  0  0  0  0
  -12.1440   11.5110   -6.8370 C   0  0  0  0  0
  -12.4940   12.4370   -6.1130 O   0  0  0  0  0
  -10.7430   12.3400   -8.7310 C   0  0  0  0  0
  -10.4630   12.3190  -10.2240 C   0  0  0  0  0
   -9.2970   13.2300  -10.5800 C   0  0  0  0  0
   -8.1070   12.8780   -9.8000 N   0  0  0  0  0
   -7.3200   11.8380  -10.0640 C   0  0  0  0  0
   -7.5220   11.1010  -11.1560 N   0  0  0  0  0
   -6.3500   11.5020   -9.2210 N   0  0  0  0  0
  -11.7390   10.3200   -6.3660 N   0  0  0  0  0
  -11.5890   10.1040   -4.9210 C   0  0  0  0  0
  -10.0970   10.1500   -4.6080 C   0  0  0  0  0
   -9.2610   10.1150   -5.5200 O   0  0  0  0  0
  -12.2040    8.7600   -4.4490 C   0  0  0  0  0
  -11.4480    7.5540   -4.9240 C   0  0  0  0  0
  -10.3380    7.0630   -4.2350 N   0  0  0  0  0
  -11.6810    6.7440   -5.9820 C   0  0  0  0  0
   -9.8990    6.0250   -4.9380 C   0  0  0  0  0
  -10.6750    5.7960   -5.9960 N   0  0  0  0  0
   -9.7720   10.1240   -3.3380 N   0  0  0  0  0
   -8.4020   10.0850   -2.8790 C   0  0  0  0  0
   -8.2250    8.8630   -1.9990 C   0  0  0  0  0
   -9.1650    8.0600   -1.8090 O   0  0  0  0  0
   -8.0890   11.3680   -2.0850 C   0  0  0  0  0
   -8.0770   12.6010   -2.9570 C   0  0  0  0  0
   -7.9030   13.8190   -2.0590 C   0  0  0  0  0
   -7.6880   15.0510   -2.8080 N   0  0  0  0  0
   -8.1400   16.2360   -2.4140 C   0  0  0  0  0
   -8.8810   16.3410   -1.3140 N   0  0  0  0  0
   -7.8800   17.3220   -3.1290 N   0  0  0  0  0
   -7.0040    8.6890   -1.5110 N   0  0  0  0  0
   -6.6780    7.7260   -0.4750 C   0  0  0  0  0
   -5.9950    8.5800    0.6030 C   0  0  0  0  0
   -5.2140    9.4890    0.2680 O   0  0  0  0  0
   -5.7350    6.6200   -0.8960 C   0  0  0  0  0
   -6.3980    5.7300   -2.0040 C   0  0  0  0  0
   -5.2470    4.9350   -2.6220 C   0  0  0  0  0
   -5.6060    4.1680   -3.8680 C   0  0  0  0  0
   -6.3280    8.3540    1.8820 N   0  0  0  0  0
   -5.7660    9.1730    2.9570 C   0  0  0  0  0
   -5.3710    8.2800    4.0890 C   0  0  0  0  0
   -6.1890    7.4560    4.5280 O   0  0  0  0  0
   -6.8230   10.2010    3.4450 C   0  0  0  0  0
   -6.2750   11.0630    4.5720 C   0  0  0  0  0
   -7.3210   11.0970    2.3150 C   0  0  0  0  0
   -4.1320    8.4590    4.6090 N   0  0  0  0  0
   -3.6860    7.7320    5.7990 C   0  0  0  0  0
   -4.1780    8.5820    6.9840 C   0  0  0  0  0
   -3.7200    9.6940    7.1940 O   0  0  0  0  0
   -2.1620    7.5810    5.8260 C   0  0  0  0  0
   -1.6100    6.8230    7.0370 C   0  0  0  0  0
   -2.1370    5.3950    7.0990 C   0  0  0  0  0
   -0.0970    6.8860    7.0810 C   0  0  0  0  0
   -5.1660    8.0800    7.6890 N   0  0  0  0  0
   -5.8040    8.8420    8.7710 C   0  0  0  0  0
   -5.0950    8.7240   10.0950 C   0  0  0  0  0
   -4.5570    7.6690   10.3860 O   0  0  0  0  0
   -7.2750    8.4400    8.8840 C   0  0  0  0  0
   -8.0370    8.6510    7.5880 C   0  0  0  0  0
   -9.3470    7.9080    7.6090 C   0  0  0  0  0
   -9.1350    6.4640    7.6200 N   0  0  0  0  0
  -10.1230    5.5860    7.5870 C   0  0  0  0  0
  -11.3890    5.9980    7.5370 N   0  0  0  0  0
   -9.8620    4.2830    7.5960 N   0  0  0  0  0
   -5.0760    9.6860   10.8440 O   0  0  0  0  0
  -14.7347   12.6583  -11.7687 H   0  0  0  0  0
  -16.0635   11.8391  -11.1855 H   0  0  0  0  0
  -16.2025   13.4365  -11.6391 H   0  0  0  0  0
  -14.7717   14.1348   -9.8800 H   0  0  0  0  0
  -16.6938   12.3221   -8.5329 H   0  0  0  0  0
  -17.3163   13.6293   -9.6415 H   0  0  0  0  0
  -17.3428   14.7558   -7.6971 H   0  0  0  0  0
  -15.6205   15.0458   -8.1806 H   0  0  0  0  0
  -15.3226   12.7804   -6.8085 H   0  0  0  0  0
  -16.7662   13.4478   -5.9624 H   0  0  0  0  0
  -15.6013   15.4670   -5.4677 H   0  0  0  0  0
  -14.1840   14.9298   -6.4410 H   0  0  0  0  0
  -13.8366   14.6124   -4.0929 H   0  0  0  0  0
  -15.1880   13.6434   -3.9839 H   0  0  0  0  0
  -13.8768   13.1464   -4.8843 H   0  0  0  0  0
  -12.9978   13.5877   -8.8072 H   0  0  0  0  0
  -12.1997   10.7237   -8.7904 H   0  0  0  0  0
   -9.9582   11.7589   -8.2468 H   0  0  0  0  0
  -10.7754   13.3850   -8.4229 H   0  0  0  0  0
  -11.3512   12.6706  -10.7489 H   0  0  0  0  0
  -10.2090   11.2999  -10.5154 H   0  0  0  0  0
   -9.5735   14.2601  -10.3552 H   0  0  0  0  0
   -9.0704   13.1141  -11.6399 H   0  0  0  0  0
   -7.8667   13.4682   -9.0036 H   0  0  0  0  0
   -6.9344   10.2874  -11.3381 H   0  0  0  0  0
   -8.2642   11.3506  -11.8096 H   0  0  0  0  0
   -6.2062   12.0419   -8.3676 H   0  0  0  0  0
  -11.5344    9.5609   -7.0159 H   0  0  0  0  0
  -12.1313   10.8828   -4.3848 H   0  0  0  0  0
  -13.2108    8.6983   -4.8620 H   0  0  0  0  0
  -12.1784    8.7536   -3.3593 H   0  0  0  0  0
  -12.5061    6.8237   -6.6898 H   0  0  0  0  0
   -9.0177    5.4368   -4.6822 H   0  0  0  0  0
  -10.5189   10.1316   -2.6434 H   0  0  0  0  0
   -7.7184   10.0266   -3.7260 H   0  0  0  0  0
   -7.0975   11.2576   -1.6458 H   0  0  0  0  0
   -8.8677   11.4960   -1.3332 H   0  0  0  0  0
   -9.0120   12.6759   -3.5121 H   0  0  0  0  0
   -7.2578   12.5445   -3.6738 H   0  0  0  0  0
   -7.0242   13.6505   -1.4366 H   0  0  0  0  0
   -8.8180   13.9379   -1.4788 H   0  0  0  0  0
   -7.1626   15.0002   -3.6808 H   0  0  0  0  0
   -9.2431   17.2506   -1.0279 H   0  0  0  0  0
   -9.0870   15.5119   -0.7567 H   0  0  0  0  0
   -7.3308   17.2493   -3.9854 H   0  0  0  0  0
   -6.2504    9.2654   -1.8855 H   0  0  0  0  0
   -7.5820    7.2022   -0.1643 H   0  0  0  0  0
   -5.5071    5.9984   -0.0301 H   0  0  0  0  0
   -4.8228    7.0635   -1.2951 H   0  0  0  0  0
   -6.9148    6.3345   -2.7494 H   0  0  0  0  0
   -7.1624    5.0735   -1.5883 H   0  0  0  0  0
   -4.9338    4.2020   -1.8785 H   0  0  0  0  0
   -4.4801    5.6563   -2.9044 H   0  0  0  0  0
   -6.3950    3.4521   -3.6377 H   0  0  0  0  0
   -5.9552    4.8621   -4.6324 H   0  0  0  0  0
   -4.7266    3.6368   -4.2321 H   0  0  0  0  0
   -6.9801    7.6031    2.1083 H   0  0  0  0  0
   -4.8933    9.7128    2.5896 H   0  0  0  0  0
   -7.6671    9.6196    3.8159 H   0  0  0  0  0
   -5.9955   10.4265    5.4116 H   0  0  0  0  0
   -5.3986   11.6064    4.2188 H   0  0  0  0  0
   -7.0396   11.7716    4.8904 H   0  0  0  0  0
   -6.4808   11.6488    1.8935 H   0  0  0  0  0
   -7.7788   10.4820    1.5402 H   0  0  0  0  0
   -8.0579   11.7981    2.7068 H   0  0  0  0  0
   -3.4945    9.1166    4.1600 H   0  0  0  0  0
   -4.0820    6.7168    5.8260 H   0  0  0  0  0
   -1.7460    8.5876    5.8676 H   0  0  0  0  0
   -1.8863    7.0063    4.9418 H   0  0  0  0  0
   -1.9741    7.3223    7.9349 H   0  0  0  0  0
   -3.2244    5.4132    7.1725 H   0  0  0  0  0
   -1.8415    4.8605    6.1962 H   0  0  0  0  0
   -1.7209    4.8931    7.9725 H   0  0  0  0  0
    0.3105    6.4380    6.1747 H   0  0  0  0  0
    0.2202    7.9267    7.1477 H   0  0  0  0  0
    0.2630    6.3385    7.9521 H   0  0  0  0  0
   -5.4983    7.1385    7.4803 H   0  0  0  0  0
   -5.7339    9.8969    8.5057 H   0  0  0  0  0
   -4.6820    7.0397    9.6719 H   0  0  0  0  0
   -7.7359    9.0633    9.6502 H   0  0  0  0  0
   -7.3156    7.3786    9.1288 H   0  0  0  0  0
   -7.4339    8.2757    6.7612 H   0  0  0  0  0
   -8.2392    9.7155    7.4691 H   0  0  0  0  0
   -9.9099    8.1701    6.7131 H   0  0  0  0  0
   -9.8905    8.1866    8.5118 H   0  0  0  0  0
   -8.1772    6.1149    7.6549 H   0  0  0  0  0
  -12.1465    5.3157    7.5061 H   0  0  0  0  0
  -11.6007    6.9958    7.5296 H   0  0  0  0  0
   -8.8962    3.9565    7.6285 H   0  0  0  0  0
  1  2  1  0  0  0
  2  3  1  0  0  0
  2  5  1  0  0  0
  3  4  2  0  0  0
  3 10  1  0  0  0
  5  6  1  0  0  0
  6  7  1  0  0  0
  7  8  1  0  0  0
  8  9  1  0  0  0
 10 11  1  0  0  0
 11 12  1  0  0  0
 11 14  1  0  0  0
 12 13  2  0  0  0
 12 21  1  0  0  0
 14 15  1  0  0  0
 15 16  1  0  0  0
 16 17  1  0  0  0
 17 18  1  0  0  0
 18 19  1  0  0  0
 18 20  2  0  0  0
 21 22  1  0  0  0
 22 23  1  0  0  0
 22 25  1  0  0  0
 23 24  2  0  0  0
 23 31  1  0  0  0
 25 26  1  0  0  0
 26 27  4  0  0  0
 26 28  4  0  0  0
 27 29  4  0  0  0
 28 30  4  0  0  0
 29 30  4  0  0  0
 31 32  1  0  0  0
 32 33  1  0  0  0
 32 35  1  0  0  0
 33 34  2  0  0  0
 33 42  1  0  0  0
 35 36  1  0  0  0
 36 37  1  0  0  0
 37 38  1  0  0  0
 38 39  1  0  0  0
 39 40  1  0  0  0
 39 41  2  0  0  0
 42 43  1  0  0  0
 43 44  1  0  0  0
 43 46  1  0  0  0
 44 45  2  0  0  0
 44 50  1  0  0  0
 46 47  1  0  0  0
 47 48  1  0  0  0
 48 49  1  0  0  0
 50 51  1  0  0  0
 51 52  1  0  0  0
 51 54  1  0  0  0
 52 53  2  0  0  0
 52 57  1  0  0  0
 54 55  1  0  0  0
 54 56  1  0  0  0
 57 58  1  0  0  0
 58 59  1  0  0  0
 58 61  1  0  0  0
 59 60  2  0  0  0
 59 65  1  0  0  0
 61 62  1  0  0  0
 62 63  1  0  0  0
 62 64  1  0  0  0
 65 66  1  0  0  0
 66 67  1  0  0  0
 66 69  1  0  0  0
 67 68  1  0  0  0
 67 76  2  0  0  0
 69 70  1  0  0  0
 70 71  1  0  0  0
 71 72  1  0  0  0
 72 73  1  0  0  0
 73 74  1  0  0  0
 73 75  2  0  0  0
  1 77  1  0  0  0
  1 78  1  0  0  0
  1 79  1  0  0  0
  2 80  1  0  0  0
  5 81  1  0  0  0
  5 82  1  0  0  0
  6 83  1  0  0  0
  6 84  1  0  0  0
  7 85  1  0  0  0
  7 86  1  0  0  0
  8 87  1  0  0  0
  8 88  1  0  0  0
  9 89  1  0  0  0
  9 90  1  0  0  0
  9 91  1  0  0  0
 10 92  1  0  0  0
 11 93  1  0  0  0
 14 94  1  0  0  0
 14 95  1  0  0  0
 15 96  1  0  0  0
 15 97  1  0  0  0
 16 98  1  0  0  0
 16 99  1  0  0  0
 17100  1  0  0  0
 19101  1  0  0  0
 19102  1  0  0  0
 20103  1  0  0  0
 21104  1  0  0  0
 22105  1  0  0  0
 25106  1  0  0  0
 25107  1  0  0  0
 28108  1  0  0  0
 29109  1  0  0  0
 31110  1  0  0  0
 32111  1  0  0  0
 35112  1  0  0  0
 35113  1  0  0  0
 36114  1  0  0  0
 36115  1  0  0  0
 37116  1  0  0  0
 37117  1  0  0  0
 38118  1  0  0  0
 40119  1  0  0  0
 40120  1  0  0  0
 41121  1  0  0  0
 42122  1  0  0  0
 43123  1  0  0  0
 46124  1  0  0  0
 46125  1  0  0  0
 47126  1  0  0  0
 47127  1  0  0  0
 48128  1  0  0  0
 48129  1  0  0  0
 49130  1  0  0  0
 49131  1  0  0  0
 49132  1  0  0  0
 50133  1  0  0  0
 51134  1  0  0  0
 54135  1  0  0  0
 55136  1  0  0  0
 55137  1  0  0  0
 55138  1  0  0  0
 56139  1  0  0  0
 56140  1  0  0  0
 56141  1  0  0  0
 57142  1  0  0  0
 58143  1  0  0  0
 61144  1  0  0  0
 61145  1  0  0  0
 62146  1  0  0  0
 63147  1  0  0  0
 63148  1  0  0  0
 63149  1  0  0  0
 64150  1  0  0  0
 64151  1  0  0  0
 64152  1  0  0  0
 65153  1  0  0  0
 66154  1  0  0  0
 68155  1  0  0  0
 69156  1  0  0  0
 69157  1  0  0  0
 70158  1  0  0  0
 70159  1  0  0  0
 71160  1  0  0  0
 71161  1  0  0  0
 72162  1  0  0  0
 74163  1  0  0  0
 74164  1  0  0  0
 75165  1  0  0  0
M  END
$$$$
