6nfn_ligand
  -I-interpret- 

 41 43  0  0  0  0  0  0  0  0999 V2000
   74.0490   44.7780   86.2430 C   0  0  0  0  0
   74.0860   46.2800   85.9980 C   0  0  0  0  0
   73.2920   46.6340   84.7370 C   0  0  0  0  0
   73.6520   45.6890   83.6000 C   0  0  0  0  0
   73.6490   44.2350   84.0630 C   0  0  0  0  0
   72.3470   43.8400   84.7890 C   0  0  0  0  0
   72.6510   44.1100   86.2820 C   0  0  0  0  0
   72.9430   48.9790   85.0100 C   0  0  0  0  0
   73.2060   50.3100   84.4100 C   0  0  0  0  0
   72.6970   51.4590   84.9980 C   0  0  0  0  0
   72.9490   52.6980   84.4350 C   0  0  0  0  0
   73.7020   52.7970   83.2870 C   0  0  0  0  0
   74.2080   51.6620   82.6950 C   0  0  0  0  0
   73.9610   50.4190   83.2520 C   0  0  0  0  0
   75.5240   46.7840   85.9400 C   0  0  0  0  0
   74.9760   42.6940   85.4190 C   0  0  0  0  0
   74.6850   44.0950   85.1010 N   0  3  0  0  0
   73.5750   47.9950   84.3450 O   0  0  0  0  0
   72.2280   48.7940   85.9610 O   0  0  0  0  0
   75.7860   47.8080   86.5210 O   0  0  0  0  0
   76.3500   46.1370   85.3410 O   0  0  0  0  0
   74.5271   44.6789   87.2175 H   0  0  0  0  0
   73.6075   46.7881   86.8352 H   0  0  0  0  0
   72.2289   46.5332   84.9554 H   0  0  0  0  0
   74.6526   45.9378   83.2466 H   0  0  0  0  0
   72.9114   45.8019   82.8083 H   0  0  0  0  0
   73.7909   43.6212   83.1735 H   0  0  0  0  0
   72.0716   42.8014   84.6057 H   0  0  0  0  0
   71.4880   44.4092   84.4338 H   0  0  0  0  0
   71.8978   44.7380   86.7578 H   0  0  0  0  0
   72.6352   43.2024   86.8854 H   0  0  0  0  0
   72.0974   51.3857   85.9053 H   0  0  0  0  0
   72.5499   53.5983   84.9022 H   0  0  0  0  0
   73.8977   53.7746   82.8465 H   0  0  0  0  0
   74.8042   51.7421   81.7860 H   0  0  0  0  0
   74.3615   49.5226   82.7786 H   0  0  0  0  0
   74.0695   42.2092   85.7814 H   0  0  0  0  0
   75.3281   42.1847   84.5219 H   0  0  0  0  0
   75.7460   42.6500   86.1893 H   0  0  0  0  0
   75.5886   44.4789   84.8242 H   0  0  0  0  0
   75.9311   45.3645   84.9545 H   0  0  0  0  0
  2  1  1  0  0  0
  1  7  1  0  0  0
  1 17  1  0  0  0
  3  2  1  0  0  0
  2 15  1  0  0  0
  3  4  1  0  0  0
 18  3  1  0  0  0
  4  5  1  0  0  0
  5  6  1  0  0  0
  5 17  1  0  0  0
  6  7  1  0  0  0
  8  9  1  0  0  0
  8 18  1  0  0  0
  8 19  2  0  0  0
  9 10  4  0  0  0
  9 14  4  0  0  0
 10 11  4  0  0  0
 11 12  4  0  0  0
 12 13  4  0  0  0
 13 14  4  0  0  0
 15 20  2  0  0  0
 15 21  1  0  0  0
 17 16  1  0  0  0
  1 22  1  0  0  0
  2 23  1  0  0  0
  3 24  1  0  0  0
  4 25  1  0  0  0
  4 26  1  0  0  0
  5 27  1  0  0  0
  6 28  1  0  0  0
  6 29  1  0  0  0
  7 30  1  0  0  0
  7 31  1  0  0  0
 10 32  1  0  0  0
 11 33  1  0  0  0
 12 34  1  0  0  0
 13 35  1  0  0  0
 14 36  1  0  0  0
 16 37  1  0  0  0
 16 38  1  0  0  0
 16 39  1  0  0  0
 17 40  1  0  0  0
 21 41  1  0  0  0
M  END
$$$$
