5g1p_ligand
  -I-interpret- 

 12 11  0  0  0  0  0  0  0  0999 V2000
    9.1300   43.1320   90.3260 N   0  0  0  0  0
    8.1470   43.3240   89.4410 C   0  0  0  0  0
    7.1450   42.6160   89.4270 O   0  0  0  0  0
    8.3090   44.4090   88.4700 O   0  0  0  0  0
    7.0960   44.8670   87.5170 P   0  0  0  0  0
    6.5640   43.5400   87.0270 O   0  0  0  0  0
    7.6270   45.5910   86.2930 O   0  0  0  0  0
    6.3140   45.7010   88.5320 O   0  0  0  0  0
    9.0584   42.3814   91.0129 H   0  0  0  0  0
    9.9518   43.7361   90.3145 H   0  0  0  0  0
    7.9781   46.4452   86.5551 H   0  0  0  0  0
    6.8002   46.5058   88.7256 H   0  0  0  0  0
  1  2  1  0  0  0
  2  3  2  0  0  0
  2  4  1  0  0  0
  4  5  1  0  0  0
  5  6  2  0  0  0
  5  7  1  0  0  0
  5  8  1  0  0  0
  1  9  1  0  0  0
  1 10  1  0  0  0
  7 11  1  0  0  0
  8 12  1  0  0  0
M  END
$$$$
