### 
### Created by X-TOOL on Mon Sep 10 21:13:29 2018
### 

@<TRIPOS>MOLECULE
5g1p_ligand
   10     9     1     0     0
SMALL
GAST_HUCK


@<TRIPOS>ATOM
      1 N           9.1300   43.1320   90.3260 N.am      1 CP         -0.2728
      2 C           8.1470   43.3240   89.4410 C.2       1 CP          0.3462
      3 O           7.1450   42.6160   89.4270 O.2       1 CP         -0.3726
      4 O4P         8.3090   44.4090   88.4700 O.3       1 CP         -0.1567
      5 P           7.0960   44.8670   87.5170 P.3       1 CP          0.2381
      6 O1P         6.5640   43.5400   87.0270 O.co2     1 CP         -0.5497
      7 O2P         7.6270   45.5910   86.2930 O.co2     1 CP         -0.5497
      8 O3P         6.3140   45.7010   88.5320 O.co2     1 CP         -0.5497
      9 H1          9.0561   42.4013   91.0047 H         1 CP          0.1834
     10 H2          9.9394   43.7190   90.3094 H         1 CP          0.1834
@<TRIPOS>BOND
     1    1    2 am 
     2    2    3 2  
     3    2    4 1  
     4    4    5 1  
     5    5    6 ar 
     6    5    7 ar 
     7    5    8 ar 
     8    1    9 1  
     9    1   10 1  
@<TRIPOS>SUBSTRUCTURE
     1 CP          1

