4ajo_ligand
  -I-interpret- 

 62 64  0  0  0  0  0  0  0  0999 V2000
   15.3580  -14.2740    8.4560 C   0  0  0  0  0
   13.2060  -13.9100    7.5280 C   0  0  0  0  0
   14.7790  -14.8430    9.5740 C   0  0  0  0  0
   12.6260  -14.4780    8.6470 C   0  0  0  0  0
   21.7010   -5.7230    1.1620 C   0  0  0  0  0
   20.4310   -5.7000    1.7080 C   0  0  0  0  0
   19.6040   -7.0820   -0.0800 C   0  0  0  0  0
   14.5800  -13.8050    7.4140 C   0  0  0  0  0
   13.4050  -14.9540    9.6860 C   0  0  0  0  0
   21.9390   -6.4250   -0.0200 C   0  0  0  0  0
   19.3810   -6.3650    1.0900 C   0  0  0  0  0
   20.8770   -7.0970   -0.6250 C   0  0  0  0  0
   23.0280   -7.2700   -1.7670 C   0  0  0  0  0
   17.2660   -7.4210    1.8220 C   0  0  0  0  0
   14.9260   -9.8850    4.2060 C   0  0  0  0  0
   12.4210  -17.7980    9.6530 C   0  0  0  0  0
   11.1010  -17.2890   11.7480 C   0  0  0  0  0
   24.1820   -7.5520   -2.6740 C   0  0  0  0  0
   15.2250  -13.1910    6.1940 C   0  0  0  0  0
   12.7810  -15.6040   10.8930 C   0  0  0  0  0
   16.0660   -7.1840    2.7080 C   0  0  0  0  0
   15.1300  -11.3500    4.4860 C   0  0  0  0  0
   14.7670  -11.7820    5.8920 C   0  0  0  0  0
   14.9640   -8.1790    2.4470 C   0  0  0  0  0
   11.7870  -16.7230   10.5220 C   0  0  0  0  0
   23.1580   -6.5350   -0.6870 N   0  0  0  0  0
   18.0790   -6.3490    1.6570 N   0  0  0  0  0
   15.2960   -9.4880    2.9920 N   0  0  0  0  0
   17.4630   -8.5130    1.2930 O   0  0  0  0  0
   14.4220   -9.1320    5.0380 O   0  0  0  0  0
   11.9530  -18.0930    8.5640 O   0  0  0  0  0
   10.1770  -16.6750   12.2530 O   0  0  0  0  0
   13.4880  -18.3420   10.1480 O   0  0  0  0  0
   11.5570  -18.4210   12.2040 O   0  0  0  0  0
   21.4350   -7.8790   -2.0760 S   0  0  0  0  0
   16.4433  -14.1938    8.3947 H   0  0  0  0  0
   12.5707  -13.5394    6.7236 H   0  0  0  0  0
   15.4147  -15.2099   10.3799 H   0  0  0  0  0
   11.5404  -14.5517    8.7113 H   0  0  0  0  0
   22.5160   -5.1929    1.6548 H   0  0  0  0  0
   20.2523   -5.1536    2.6341 H   0  0  0  0  0
   18.7896   -7.6239   -0.5609 H   0  0  0  0  0
   24.5750   -6.6125   -3.0627 H   0  0  0  0  0
   24.9620   -8.0708   -2.1168 H   0  0  0  0  0
   23.8476   -8.1776   -3.5016 H   0  0  0  0  0
   14.9486  -13.8086    5.3395 H   0  0  0  0  0
   16.2970  -13.1460    6.3858 H   0  0  0  0  0
   12.2316  -14.8369   11.4387 H   0  0  0  0  0
   13.5814  -16.0505   11.4830 H   0  0  0  0  0
   15.6802   -6.1863    2.4986 H   0  0  0  0  0
   16.3826   -7.2912    3.7455 H   0  0  0  0  0
   16.1930  -11.5529    4.3561 H   0  0  0  0  0
   14.4758  -11.8970    3.8071 H   0  0  0  0  0
   15.2612  -11.1079    6.5917 H   0  0  0  0  0
   13.6815  -11.7512    5.9862 H   0  0  0  0  0
   14.8298   -8.2747    1.3695 H   0  0  0  0  0
   14.0529   -7.8230    2.9278 H   0  0  0  0  0
   11.0082  -16.2688    9.9095 H   0  0  0  0  0
   17.7221   -5.4460    1.9694 H   0  0  0  0  0
   15.8382  -10.1310    2.4150 H   0  0  0  0  0
   13.6706  -17.9597   11.0095 H   0  0  0  0  0
   12.2826  -18.7187   11.6504 H   0  0  0  0  0
  1  3  4  0  0  0
  8  1  4  0  0  0
  2  4  4  0  0  0
  8  2  4  0  0  0
  3  9  4  0  0  0
  4  9  4  0  0  0
  6  5  4  0  0  0
  5 10  4  0  0  0
 11  6  4  0  0  0
 11  7  4  0  0  0
  7 12  4  0  0  0
 19  8  1  0  0  0
  9 20  1  0  0  0
 12 10  4  0  0  0
 10 26  4  0  0  0
 27 11  1  0  0  0
 12 35  4  0  0  0
 13 18  1  0  0  0
 13 26  4  0  0  0
 35 13  4  0  0  0
 21 14  1  0  0  0
 14 27  1  0  0  0
 14 29  2  0  0  0
 15 22  1  0  0  0
 28 15  1  0  0  0
 15 30  2  0  0  0
 25 16  1  0  0  0
 16 31  2  0  0  0
 16 33  1  0  0  0
 25 17  1  0  0  0
 17 32  2  0  0  0
 17 34  1  0  0  0
 23 19  1  0  0  0
 20 25  1  0  0  0
 24 21  1  0  0  0
 22 23  1  0  0  0
 24 28  1  0  0  0
  1 36  1  0  0  0
  2 37  1  0  0  0
  3 38  1  0  0  0
  4 39  1  0  0  0
  5 40  1  0  0  0
  6 41  1  0  0  0
  7 42  1  0  0  0
 18 43  1  0  0  0
 18 44  1  0  0  0
 18 45  1  0  0  0
 19 46  1  0  0  0
 19 47  1  0  0  0
 20 48  1  0  0  0
 20 49  1  0  0  0
 21 50  1  0  0  0
 21 51  1  0  0  0
 22 52  1  0  0  0
 22 53  1  0  0  0
 23 54  1  0  0  0
 23 55  1  0  0  0
 24 56  1  0  0  0
 24 57  1  0  0  0
 25 58  1  0  0  0
 27 59  1  0  0  0
 28 60  1  0  0  0
 33 61  1  0  0  0
 34 62  1  0  0  0
M  END
$$$$
