1rdn_ligand
  -I-interpret- 

 30 30  0  0  0  0  0  0  0  0999 V2000
    2.3560   46.6760   -0.1570 C   0  0  0  0  0
    2.6330   45.5650    0.8730 C   0  0  0  0  0
    3.2130   46.1620    2.1560 C   0  0  0  0  0
    4.4390   46.9740    1.8190 C   0  0  0  0  0
    4.1110   48.0510    0.7740 C   0  0  0  0  0
    5.3690   48.7940    0.3360 C   0  0  0  0  0
    1.2540   43.5570    1.0170 C   0  0  0  0  0
   -0.1100   43.0150    1.4250 C   0  0  0  0  0
    1.4030   44.8610    1.1940 N   0  0  0  0  0
    1.2970   47.4780    0.2890 O   0  0  0  0  0
    3.5730   45.1240    3.0580 O   0  0  0  0  0
    4.9360   47.5780    2.9980 O   0  0  0  0  0
    3.5370   47.4400   -0.4030 O   0  0  0  0  0
    5.1100   49.6890   -0.7340 O   0  0  0  0  0
    2.1390   42.8500    0.5360 O   0  0  0  0  0
    2.0635   46.2265   -1.1059 H   0  0  0  0  0
    3.3510   44.8690    0.4391 H   0  0  0  0  0
    2.4621   46.7988    2.6238 H   0  0  0  0  0
    5.1958   46.3127    1.3970 H   0  0  0  0  0
    3.4102   48.7472    1.2347 H   0  0  0  0  0
    6.0993   48.0591   -0.0026 H   0  0  0  0  0
    5.7367   49.3723    1.1836 H   0  0  0  0  0
   -0.6030   42.5825    0.5543 H   0  0  0  0  0
    0.0188   42.2485    2.1892 H   0  0  0  0  0
   -0.7184   43.8275    1.8223 H   0  0  0  0  0
    0.6202   45.3945    1.5722 H   0  0  0  0  0
    0.5243   46.9294    0.4426 H   0  0  0  0  0
    2.7947   44.6054    3.2744 H   0  0  0  0  0
    5.1378   46.8974    3.6443 H   0  0  0  0  0
    5.9233   50.1358   -0.9800 H   0  0  0  0  0
  1 13  1  0  0  0
  1 10  1  0  0  0
  1  2  1  0  0  0
  2  9  1  0  0  0
  2  3  1  0  0  0
  3 11  1  0  0  0
  3  4  1  0  0  0
  4 12  1  0  0  0
  4  5  1  0  0  0
  5 13  1  0  0  0
  5  6  1  0  0  0
  6 14  1  0  0  0
  9  7  1  0  0  0
  7 15  2  0  0  0
  7  8  1  0  0  0
  1 16  1  0  0  0
  2 17  1  0  0  0
  3 18  1  0  0  0
  4 19  1  0  0  0
  5 20  1  0  0  0
  6 21  1  0  0  0
  6 22  1  0  0  0
  8 23  1  0  0  0
  8 24  1  0  0  0
  8 25  1  0  0  0
  9 26  1  0  0  0
 10 27  1  0  0  0
 11 28  1  0  0  0
 12 29  1  0  0  0
 14 30  1  0  0  0
M  END
$$$$
