3oq5_ligand
  -I-interpret- 

 29 28  0  0  0  0  0  0  0  0999 V2000
   27.8520   11.8810   26.0450 N   0  3  0  0  0
   29.1470   11.5920   26.7280 C   0  0  0  0  0
   29.2980   10.0880   26.9250 C   0  0  0  0  0
   28.0680    9.3690   26.3860 C   0  0  0  0  0
   28.2450    7.8570   26.4850 C   0  0  0  0  0
   26.9020    7.1370   26.5050 C   0  0  0  0  0
   27.0470    5.6970   26.5740 N   0  3  0  0  0
   25.8770    4.8780   26.8260 C   0  0  0  0  0
   30.3100   12.1610   25.9630 C   0  0  0  0  0
   31.4090   11.6090   25.9360 O   0  0  0  0  0
   30.1536   13.2385   25.3288 O   0  0  0  0  0
   27.0861   11.4826   26.5882 H   0  0  0  0  0
   27.7271   12.8904   25.9687 H   0  0  0  0  0
   27.8607   11.4668   25.1129 H   0  0  0  0  0
   29.1416   12.0758   27.7047 H   0  0  0  0  0
   29.4030    9.8733   27.9885 H   0  0  0  0  0
   30.1811    9.7418   26.3881 H   0  0  0  0  0
   27.9296    9.6411   25.3396 H   0  0  0  0  0
   27.1998    9.6628   26.9760 H   0  0  0  0  0
   28.7714    7.6312   27.4124 H   0  0  0  0  0
   28.8056    7.5175   25.6141 H   0  0  0  0  0
   26.3764    7.3787   25.5812 H   0  0  0  0  0
   26.3579    7.4636   27.3912 H   0  0  0  0  0
   27.6566    5.5345   27.3755 H   0  0  0  0  0
   27.3624    5.4219   25.6438 H   0  0  0  0  0
   25.4424    5.1535   27.7869 H   0  0  0  0  0
   25.1448    5.0395   26.0349 H   0  0  0  0  0
   26.1676    3.8276   26.8449 H   0  0  0  0  0
   29.2519   13.5476   25.4428 H   0  0  0  0  0
  1  2  1  0  0  0
  2  3  1  0  0  0
  2  9  1  0  0  0
  3  4  1  0  0  0
  4  5  1  0  0  0
  5  6  1  0  0  0
  6  7  1  0  0  0
  7  8  1  0  0  0
  9 10  2  0  0  0
  9 11  1  0  0  0
  1 12  1  0  0  0
  1 13  1  0  0  0
  1 14  1  0  0  0
  2 15  1  0  0  0
  3 16  1  0  0  0
  3 17  1  0  0  0
  4 18  1  0  0  0
  4 19  1  0  0  0
  5 20  1  0  0  0
  5 21  1  0  0  0
  6 22  1  0  0  0
  6 23  1  0  0  0
  7 24  1  0  0  0
  7 25  1  0  0  0
  8 26  1  0  0  0
  8 27  1  0  0  0
  8 28  1  0  0  0
 11 29  1  0  0  0
M  END
$$$$
