2x6w_ligand
  -I-interpret- 

140145  0  0  0  0  0  0  0  0999 V2000
    6.0240  -16.1530   28.3260 C   0  0  0  0  0
    5.6450  -15.3830   27.0580 C   0  0  0  0  0
    6.7980  -15.2990   26.0610 C   0  0  0  0  0
    7.3760  -16.6780   25.8710 C   0  0  0  0  0
    7.8090  -17.2560   27.2160 C   0  0  0  0  0
    8.3900  -18.6460   27.0350 C   0  0  0  0  0
    4.5280  -16.0260   26.5100 O   0  0  0  0  0
    6.3610  -14.7610   24.8240 O   0  0  0  0  0
    8.4940  -16.5410   25.0150 O   0  0  0  0  0
    6.6790  -17.3830   28.0670 O   0  0  0  0  0
    7.2420  -12.8190   32.4430 C   0  0  0  0  0
    5.8190  -12.2970   32.4430 C   0  0  0  0  0
    4.9260  -13.5550   32.5200 C   0  0  0  0  0
    5.2890  -14.4990   31.3700 C   0  0  0  0  0
    6.7900  -14.8240   31.4200 C   0  0  0  0  0
    7.3390  -15.7100   30.3050 C   0  0  0  0  0
    5.6020  -11.4680   33.5400 O   0  0  0  0  0
    3.5520  -13.1910   32.4740 O   0  0  0  0  0
    4.5070  -15.6650   31.5160 O   0  0  0  0  0
    7.5460  -13.6200   31.3270 O   0  0  0  0  0
    6.8670  -15.3120   29.0710 O   0  0  0  0  0
    9.4390  -13.7540   36.6340 C   0  0  0  0  0
    9.0040  -14.9370   35.7610 C   0  0  0  0  0
    9.4910  -14.7470   34.3300 C   0  0  0  0  0
    9.0510  -13.3800   33.7940 C   0  0  0  0  0
    9.5820  -12.3040   34.7650 C   0  0  0  0  0
    9.2450  -10.8730   34.3540 C   0  0  0  0  0
    9.3800  -16.1450   36.3570 O   0  0  0  0  0
    9.0080  -15.7940   33.5290 O   0  0  0  0  0
    7.7090  -13.2770   33.6860 O   0  0  0  0  0
    9.0980  -12.5090   36.0820 O   0  0  0  0  0
    9.8120  -10.6270   33.0880 O   0  0  0  0  0
    9.8350  -16.8090   33.2110 C   0  0  0  0  0
    9.0010  -18.0410   32.8470 C   0  0  0  0  0
    9.8470  -19.1610   32.2240 C   0  0  0  0  0
   10.8540  -18.6180   31.2290 C   0  0  0  0  0
   11.5770  -17.3820   31.7750 C   0  0  0  0  0
   12.5830  -16.7760   30.7930 C   0  0  0  0  0
    7.0660  -18.4680   34.2680 C   0  0  0  0  0
    6.5470  -19.0240   35.5750 C   0  0  0  0  0
    8.3620  -18.5410   34.0420 N   0  0  0  0  0
    8.9930  -20.1120   31.6010 O   0  0  0  0  0
   11.8240  -19.6130   30.9100 O   0  0  0  0  0
   10.6360  -16.3710   32.1250 O   0  0  0  0  0
   11.9110  -16.3150   29.6330 O   0  0  0  0  0
    6.3210  -17.9820   33.4360 O   0  0  0  0  0
   13.5020  -12.2130   38.7310 C   0  0  0  0  0
   12.6980  -12.6710   37.5180 C   0  0  0  0  0
   11.3460  -13.1980   37.9820 C   0  0  0  0  0
   11.5400  -14.1960   39.1230 C   0  0  0  0  0
   12.3220  -13.5560   40.2710 C   0  0  0  0  0
   12.5900  -14.5510   41.3930 C   0  0  0  0  0
   13.1880  -11.6630   35.3310 C   0  0  0  0  0
   13.0750  -10.4420   34.4540 C   0  0  0  0  0
   13.5870  -13.1220   39.8000 O   0  0  0  0  0
   10.8490  -13.8460   36.8030 O   0  0  0  0  0
   10.2690  -14.6380   39.5690 O   0  0  0  0  0
   12.4880  -13.9250   42.6540 O   0  0  0  0  0
   13.7400  -12.6810   34.8930 O   0  0  0  0  0
   12.6250  -11.5830   36.5420 N   0  0  0  0  0
   13.0210  -11.0130   39.2860 O   0  0  0  0  0
   11.2780  -13.8830   43.2750 C   0  0  0  0  0
   11.2750  -13.0110   44.5260 C   0  0  0  0  0
   12.2460  -13.6530   45.5260 C   0  0  0  0  0
   11.8700  -15.1060   45.7850 C   0  0  0  0  0
   11.6710  -15.8990   44.5030 C   0  0  0  0  0
   11.1210  -17.3010   44.7750 C   0  0  0  0  0
   11.6030  -11.6770   44.2150 O   0  0  0  0  0
   12.3090  -12.9180   46.7380 O   0  0  0  0  0
   12.9040  -15.7240   46.5180 O   0  0  0  0  0
   10.7920  -15.1780   43.6360 O   0  0  0  0  0
    9.8960  -17.2550   45.4720 O   0  0  0  0  0
    5.1125  -16.4146   28.8635 H   0  0  0  0  0
    5.4107  -14.3475   27.3049 H   0  0  0  0  0
    7.5664  -14.6317   26.4513 H   0  0  0  0  0
    6.6378  -17.3550   25.4411 H   0  0  0  0  0
    8.5537  -16.5856   27.6450 H   0  0  0  0  0
    8.6826  -19.0454   28.0061 H   0  0  0  0  0
    7.6400  -19.2960   26.5843 H   0  0  0  0  0
    9.2633  -18.5916   26.3850 H   0  0  0  0  0
    3.8264  -16.0594   27.1644 H   0  0  0  0  0
    5.9973  -13.8843   24.9682 H   0  0  0  0  0
    8.2088  -16.1771   24.1737 H   0  0  0  0  0
    7.8663  -11.9376   32.2963 H   0  0  0  0  0
    5.6023  -11.7010   31.5565 H   0  0  0  0  0
    5.0973  -14.0701   33.4652 H   0  0  0  0  0
    5.0863  -14.0396   30.4026 H   0  0  0  0  0
    6.8883  -15.3650   32.3612 H   0  0  0  0  0
    7.0167  -16.7355   30.4858 H   0  0  0  0  0
    8.4262  -15.6317   30.3027 H   0  0  0  0  0
    4.6973  -11.1474   33.5234 H   0  0  0  0  0
    3.0107  -13.9823   32.5227 H   0  0  0  0  0
    4.7132  -16.2781   30.8067 H   0  0  0  0  0
    8.9143  -13.8112   37.5877 H   0  0  0  0  0
    7.9170  -14.9775   35.6909 H   0  0  0  0  0
   10.5805  -14.7715   34.3081 H   0  0  0  0  0
    9.4560  -13.2478   32.7907 H   0  0  0  0  0
   10.6654  -12.4185   34.7286 H   0  0  0  0  0
    9.6470  -10.1712   35.0848 H   0  0  0  0  0
    8.1637  -10.7433   34.3093 H   0  0  0  0  0
    9.1015  -16.8756   35.8000 H   0  0  0  0  0
    9.6079   -9.7292   32.8162 H   0  0  0  0  0
   10.4798  -17.0889   34.0441 H   0  0  0  0  0
    8.2647  -17.7353   32.1037 H   0  0  0  0  0
   10.4110  -19.6455   33.0210 H   0  0  0  0  0
   10.3002  -18.3349   30.3339 H   0  0  0  0  0
   12.1288  -17.7292   32.6486 H   0  0  0  0  0
   13.3091  -17.5374   30.5080 H   0  0  0  0  0
   13.0899  -15.9376   31.2707 H   0  0  0  0  0
    6.0414  -18.2334   36.1295 H   0  0  0  0  0
    5.8450  -19.8326   35.3712 H   0  0  0  0  0
    7.3817  -19.4054   36.1631 H   0  0  0  0  0
    8.9491  -18.9766   34.7533 H   0  0  0  0  0
    9.5240  -20.8110   31.2124 H   0  0  0  0  0
   12.4534  -19.2544   30.2800 H   0  0  0  0  0
   12.5494  -15.9371   29.0237 H   0  0  0  0  0
   14.4923  -12.0980   38.2902 H   0  0  0  0  0
   13.1853  -13.4996   37.0041 H   0  0  0  0  0
   10.6720  -12.4321   38.3655 H   0  0  0  0  0
   12.1155  -15.0496   38.7650 H   0  0  0  0  0
   11.7199  -12.7282   40.6455 H   0  0  0  0  0
   13.5991  -14.9467   41.2779 H   0  0  0  0  0
   11.8514  -15.3507   41.3371 H   0  0  0  0  0
   14.0725  -10.1058   34.1712 H   0  0  0  0  0
   12.5065  -10.6912   33.5580 H   0  0  0  0  0
   12.5645   -9.6493   35.0010 H   0  0  0  0  0
   10.3833  -15.2657   40.2863 H   0  0  0  0  0
   12.1254  -10.7304   36.7949 H   0  0  0  0  0
   13.5610  -10.7725   40.0424 H   0  0  0  0  0
   10.6163  -13.4418   42.5296 H   0  0  0  0  0
   10.2816  -12.9617   44.9720 H   0  0  0  0  0
   13.2412  -13.6320   45.0820 H   0  0  0  0  0
   10.9275  -15.0996   46.3325 H   0  0  0  0  0
   12.6426  -16.0254   44.0255 H   0  0  0  0  0
   11.8440  -17.8406   45.3868 H   0  0  0  0  0
   10.9532  -17.7955   43.8182 H   0  0  0  0  0
   11.5940  -11.1509   45.0180 H   0  0  0  0  0
   12.9234  -13.3459   47.3388 H   0  0  0  0  0
   12.6728  -16.6407   46.6846 H   0  0  0  0  0
    9.5821  -18.1493   45.6245 H   0  0  0  0  0
  1  2  1  0  0  0
  1 10  1  0  0  0
 21  1  1  0  0  0
  2  3  1  0  0  0
  2  7  1  0  0  0
  3  4  1  0  0  0
  3  8  1  0  0  0
  5  4  1  0  0  0
  4  9  1  0  0  0
  5  6  1  0  0  0
 10  5  1  0  0  0
 11 12  1  0  0  0
 11 20  1  0  0  0
 30 11  1  0  0  0
 12 13  1  0  0  0
 12 17  1  0  0  0
 13 14  1  0  0  0
 13 18  1  0  0  0
 15 14  1  0  0  0
 14 19  1  0  0  0
 15 16  1  0  0  0
 20 15  1  0  0  0
 16 21  1  0  0  0
 22 23  1  0  0  0
 22 31  1  0  0  0
 56 22  1  0  0  0
 23 24  1  0  0  0
 23 28  1  0  0  0
 24 25  1  0  0  0
 24 29  1  0  0  0
 26 25  1  0  0  0
 25 30  1  0  0  0
 26 27  1  0  0  0
 31 26  1  0  0  0
 27 32  1  0  0  0
 29 33  1  0  0  0
 33 34  1  0  0  0
 33 44  1  0  0  0
 34 35  1  0  0  0
 34 41  1  0  0  0
 35 36  1  0  0  0
 35 42  1  0  0  0
 37 36  1  0  0  0
 36 43  1  0  0  0
 37 38  1  0  0  0
 44 37  1  0  0  0
 38 45  1  0  0  0
 39 40  1  0  0  0
 41 39  1  0  0  0
 39 46  2  0  0  0
 48 47  1  0  0  0
 47 55  1  0  0  0
 47 61  1  0  0  0
 48 49  1  0  0  0
 60 48  1  0  0  0
 49 50  1  0  0  0
 49 56  1  0  0  0
 50 51  1  0  0  0
 50 57  1  0  0  0
 51 52  1  0  0  0
 55 51  1  0  0  0
 52 58  1  0  0  0
 53 54  1  0  0  0
 53 59  2  0  0  0
 53 60  1  0  0  0
 58 62  1  0  0  0
 62 63  1  0  0  0
 62 71  1  0  0  0
 63 64  1  0  0  0
 63 68  1  0  0  0
 64 65  1  0  0  0
 64 69  1  0  0  0
 65 66  1  0  0  0
 65 70  1  0  0  0
 66 67  1  0  0  0
 66 71  1  0  0  0
 67 72  1  0  0  0
  1 73  1  0  0  0
  2 74  1  0  0  0
  3 75  1  0  0  0
  4 76  1  0  0  0
  5 77  1  0  0  0
  6 78  1  0  0  0
  6 79  1  0  0  0
  6 80  1  0  0  0
  7 81  1  0  0  0
  8 82  1  0  0  0
  9 83  1  0  0  0
 11 84  1  0  0  0
 12 85  1  0  0  0
 13 86  1  0  0  0
 14 87  1  0  0  0
 15 88  1  0  0  0
 16 89  1  0  0  0
 16 90  1  0  0  0
 17 91  1  0  0  0
 18 92  1  0  0  0
 19 93  1  0  0  0
 22 94  1  0  0  0
 23 95  1  0  0  0
 24 96  1  0  0  0
 25 97  1  0  0  0
 26 98  1  0  0  0
 27 99  1  0  0  0
 27100  1  0  0  0
 28101  1  0  0  0
 32102  1  0  0  0
 33103  1  0  0  0
 34104  1  0  0  0
 35105  1  0  0  0
 36106  1  0  0  0
 37107  1  0  0  0
 38108  1  0  0  0
 38109  1  0  0  0
 40110  1  0  0  0
 40111  1  0  0  0
 40112  1  0  0  0
 41113  1  0  0  0
 42114  1  0  0  0
 43115  1  0  0  0
 45116  1  0  0  0
 47117  1  0  0  0
 48118  1  0  0  0
 49119  1  0  0  0
 50120  1  0  0  0
 51121  1  0  0  0
 52122  1  0  0  0
 52123  1  0  0  0
 54124  1  0  0  0
 54125  1  0  0  0
 54126  1  0  0  0
 57127  1  0  0  0
 60128  1  0  0  0
 61129  1  0  0  0
 62130  1  0  0  0
 63131  1  0  0  0
 64132  1  0  0  0
 65133  1  0  0  0
 66134  1  0  0  0
 67135  1  0  0  0
 67136  1  0  0  0
 68137  1  0  0  0
 69138  1  0  0  0
 70139  1  0  0  0
 72140  1  0  0  0
M  END
$$$$
