### 
### Created by X-TOOL on Sun Sep  9 21:51:24 2018
### 

@<TRIPOS>MOLECULE
2x6w_ligand
  140   145     1     0     0
SMALL
GAST_HUCK


@<TRIPOS>ATOM
      1 C1          6.0240  -16.1530   28.3260 C.3       1 NON         0.1879
      2 C2          5.6450  -15.3830   27.0580 C.3       1 NON         0.1341
      3 C3          6.7980  -15.2990   26.0610 C.3       1 NON         0.1140
      4 C4          7.3760  -16.6780   25.8710 C.3       1 NON         0.1095
      5 C5          7.8090  -17.2560   27.2160 C.3       1 NON         0.0873
      6 C6          8.3900  -18.6460   27.0350 C.3       1 NON        -0.0361
      7 O2          4.5280  -16.0260   26.5100 O.3       1 NON        -0.3841
      8 O3          6.3610  -14.7610   24.8240 O.3       1 NON        -0.3864
      9 O4          8.4940  -16.5410   25.0150 O.3       1 NON        -0.3866
     10 O5          6.6790  -17.3830   28.0670 O.3       1 NON        -0.3431
     11 C1          7.2420  -12.8190   32.4430 C.3       1 NON         0.1884
     12 C2          5.8190  -12.2970   32.4430 C.3       1 NON         0.1341
     13 C3          4.9260  -13.5550   32.5200 C.3       1 NON         0.1141
     14 C4          5.2890  -14.4990   31.3700 C.3       1 NON         0.1119
     15 C5          6.7900  -14.8240   31.4200 C.3       1 NON         0.1134
     16 C6          7.3390  -15.7100   30.3050 C.3       1 NON         0.0796
     17 O2          5.6020  -11.4680   33.5400 O.3       1 NON        -0.3841
     18 O3          3.5520  -13.1910   32.4740 O.3       1 NON        -0.3864
     19 O4          4.5070  -15.6650   31.5160 O.3       1 NON        -0.3865
     20 O5          7.5460  -13.6200   31.3270 O.3       1 NON        -0.3405
     21 O6          6.8670  -15.3120   29.0710 O.3       1 NON        -0.3461
     22 C1          9.4390  -13.7540   36.6340 C.3       1 NON         0.1884
     23 C2          9.0040  -14.9370   35.7610 C.3       1 NON         0.1345
     24 C3          9.4910  -14.7470   34.3300 C.3       1 NON         0.1209
     25 C4          9.0510  -13.3800   33.7940 C.3       1 NON         0.1188
     26 C5          9.5820  -12.3040   34.7650 C.3       1 NON         0.1134
     27 C6          9.2450  -10.8730   34.3540 C.3       1 NON         0.0730
     28 O2          9.3800  -16.1450   36.3570 O.3       1 NON        -0.3841
     29 O3          9.0080  -15.7940   33.5290 O.3       1 NON        -0.3403
     30 O4          7.7090  -13.2770   33.6860 O.3       1 NON        -0.3401
     31 O5          9.0980  -12.5090   36.0820 O.3       1 NON        -0.3405
     32 O6          9.8120  -10.6270   33.0880 O.3       1 NON        -0.3924
     33 C1          9.8350  -16.8090   33.2110 C.3       1 NON         0.1854
     34 C2          9.0010  -18.0410   32.8470 C.3       1 NON         0.1210
     35 C3          9.8470  -19.1610   32.2240 C.3       1 NON         0.1111
     36 C4         10.8540  -18.6180   31.2290 C.3       1 NON         0.1116
     37 C5         11.5770  -17.3820   31.7750 C.3       1 NON         0.1130
     38 C6         12.5830  -16.7760   30.7930 C.3       1 NON         0.0730
     39 C7          7.0660  -18.4680   34.2680 C.2       1 NON         0.1733
     40 C8          6.5470  -19.0240   35.5750 C.3       1 NON         0.0257
     41 N2          8.3620  -18.5410   34.0420 N.am      1 NON        -0.2766
     42 O3          8.9930  -20.1120   31.6010 O.3       1 NON        -0.3867
     43 O4         11.8240  -19.6130   30.9100 O.3       1 NON        -0.3865
     44 O5         10.6360  -16.3710   32.1250 O.3       1 NON        -0.3408
     45 O6         11.9110  -16.3150   29.6330 O.3       1 NON        -0.3924
     46 O7          6.3210  -17.9820   33.4360 O.2       1 NON        -0.3974
     47 C1         13.5020  -12.2130   38.7310 C.3       1 NON         0.1823
     48 C2         12.6980  -12.6710   37.5180 C.3       1 NON         0.1211
     49 C3         11.3460  -13.1980   37.9820 C.3       1 NON         0.1176
     50 C4         11.5400  -14.1960   39.1230 C.3       1 NON         0.1120
     51 C5         12.3220  -13.5560   40.2710 C.3       1 NON         0.1134
     52 C6         12.5900  -14.5510   41.3930 C.3       1 NON         0.0796
     53 C7         13.1880  -11.6630   35.3310 C.2       1 NON         0.1733
     54 C8         13.0750  -10.4420   34.4540 C.3       1 NON         0.0257
     55 O          13.5870  -13.1220   39.8000 O.3       1 NON        -0.3409
     56 O3         10.8490  -13.8460   36.8030 O.3       1 NON        -0.3403
     57 O4         10.2690  -14.6380   39.5690 O.3       1 NON        -0.3865
     58 O6         12.4880  -13.9250   42.6540 O.3       1 NON        -0.3460
     59 O7         13.7400  -12.6810   34.8930 O.2       1 NON        -0.3974
     60 N2         12.6250  -11.5830   36.5420 N.am      1 NON        -0.2766
     61 O1L        13.0210  -11.0130   39.2860 O.3       1 NON        -0.3651
     62 C1         11.2780  -13.8830   43.2750 C.3       1 NON         0.1880
     63 C2         11.2750  -13.0110   44.5260 C.3       1 NON         0.1341
     64 C3         12.2460  -13.6530   45.5260 C.3       1 NON         0.1141
     65 C4         11.8700  -15.1060   45.7850 C.3       1 NON         0.1119
     66 C5         11.6710  -15.8990   44.5030 C.3       1 NON         0.1130
     67 C6         11.1210  -17.3010   44.7750 C.3       1 NON         0.0730
     68 O2         11.6030  -11.6770   44.2150 O.3       1 NON        -0.3841
     69 O3         12.3090  -12.9180   46.7380 O.3       1 NON        -0.3864
     70 O4         12.9040  -15.7240   46.5180 O.3       1 NON        -0.3865
     71 O5         10.7920  -15.1780   43.6360 O.3       1 NON        -0.3405
     72 O6          9.8960  -17.2550   45.4720 O.3       1 NON        -0.3924
     73 H1          5.1102  -16.3635   28.9010 H         1 NON         0.0937
     74 H2          5.3648  -14.3564   27.3367 H         1 NON         0.0671
     75 H3          7.5766  -14.6397   26.4721 H         1 NON         0.0648
     76 H4          6.6281  -17.3410   25.4117 H         1 NON         0.0646
     77 H5          8.5569  -16.5934   27.6760 H         1 NON         0.0621
     78 H6          8.6959  -19.0457   28.0131 H         1 NON         0.0255
     79 H7          9.2649  -18.5941   26.3703 H         1 NON         0.0255
     80 H8          7.6304  -19.3059   26.5905 H         1 NON         0.0255
     81 H9          3.8337  -16.0591   27.1576 H         1 NON         0.2101
     82 H10         6.0011  -13.8935   24.9667 H         1 NON         0.2100
     83 H11         8.2117  -16.1809   24.1825 H         1 NON         0.2100
     84 H12         7.8450  -11.9148   32.2736 H         1 NON         0.0938
     85 H13         5.6147  -11.7379   31.5180 H         1 NON         0.0671
     86 H14         5.1179  -14.0699   33.4729 H         1 NON         0.0648
     87 H15         5.0573  -14.0200   30.4073 H         1 NON         0.0647
     88 H16         6.9884  -15.3160   32.3836 H         1 NON         0.0647
     89 H17         7.0303  -16.7497   30.4885 H         1 NON         0.0587
     90 H18         8.4372  -15.6479   30.3057 H         1 NON         0.0587
     91 H19         5.8066  -11.9408   34.3382 H         1 NON         0.2101
     92 H20         3.3693  -12.7515   31.6518 H         1 NON         0.2100
     93 H21         4.7010  -16.0724   32.3520 H         1 NON         0.2100
     94 H22         8.9489  -13.8402   37.6150 H         1 NON         0.0938
     95 H23         7.9047  -14.9339   35.7223 H         1 NON         0.0671
     96 H24        10.5904  -14.7825   34.3240 H         1 NON         0.0651
     97 H25         9.4943  -13.2269   32.7990 H         1 NON         0.0651
     98 H26        10.6778  -12.3979   34.7825 H         1 NON         0.0647
     99 H27         9.6596  -10.1681   35.0897 H         1 NON         0.0584
    100 H28         8.1533  -10.7490   34.3021 H         1 NON         0.0584
    101 H29         9.0367  -16.1805   37.2421 H         1 NON         0.2101
    102 H30         9.6100   -9.7385   32.8190 H         1 NON         0.2095
    103 H31        10.4804  -17.0521   34.0679 H         1 NON         0.0935
    104 H32         8.2303  -17.7407   32.1219 H         1 NON         0.0633
    105 H33        10.4009  -19.6641   33.0303 H         1 NON         0.0645
    106 H34        10.3171  -18.3358   30.3114 H         1 NON         0.0647
    107 H35        12.1229  -17.6866   32.6801 H         1 NON         0.0647
    108 H36        13.3195  -17.5415   30.5072 H         1 NON         0.0584
    109 H37        13.0990  -15.9323   31.2745 H         1 NON         0.0584
    110 H38         5.4558  -18.8933   35.6215 H         1 NON         0.0467
    111 H39         7.0164  -18.4886   36.4134 H         1 NON         0.0467
    112 H40         6.7912  -20.0945   35.6408 H         1 NON         0.0467
    113 H41         8.9376  -18.9680   34.7394 H         1 NON         0.1857
    114 H42         8.3696  -20.4412   32.2378 H         1 NON         0.2100
    115 H43        12.4214  -19.2726   30.2544 H         1 NON         0.2100
    116 H44        11.4660  -17.0433   29.2157 H         1 NON         0.2095
    117 H45        14.5251  -12.0353   38.3681 H         1 NON         0.0932
    118 H46        13.2317  -13.5061   37.0408 H         1 NON         0.0633
    119 H47        10.6803  -12.3839   38.3045 H         1 NON         0.0649
    120 H48        12.1083  -15.0605   38.7494 H         1 NON         0.0647
    121 H49        11.7512  -12.7013   40.6629 H         1 NON         0.0647
    122 H50        13.6034  -14.9623   41.2757 H         1 NON         0.0587
    123 H51        11.8542  -15.3666   41.3349 H         1 NON         0.0587
    124 H52        12.5600   -9.6413   35.0050 H         1 NON         0.0467
    125 H53        12.5014  -10.6921   33.5493 H         1 NON         0.0467
    126 H54        14.0811  -10.1017   34.1679 H         1 NON         0.0467
    127 H55        10.3828  -15.2802   40.2598 H         1 NON         0.2100
    128 H56        12.1352  -10.7472   36.7899 H         1 NON         0.1857
    129 H57        13.6268  -10.7079   39.9513 H         1 NON         0.2126
    130 H58        10.5676  -13.4446   42.5586 H         1 NON         0.0937
    131 H59        10.2660  -13.0162   44.9640 H         1 NON         0.0671
    132 H60        13.2492  -13.6397   45.0750 H         1 NON         0.0648
    133 H61        10.9374  -15.1302   46.3678 H         1 NON         0.0647
    134 H62        12.6467  -16.0049   44.0063 H         1 NON         0.0647
    135 H63        11.8525  -17.8603   45.3767 H         1 NON         0.0584
    136 H64        10.9658  -17.8154   43.8152 H         1 NON         0.0584
    137 H65        10.9709  -11.3330   43.5949 H         1 NON         0.2101
    138 H66        11.4611  -12.9414   47.1657 H         1 NON         0.2100
    139 H67        13.0476  -15.2454   47.3260 H         1 NON         0.2100
    140 H68        10.0232  -16.8164   46.3051 H         1 NON         0.2095
@<TRIPOS>BOND
     1    1    2 1  
     2    1   10 1  
     3   21    1 1  
     4    2    3 1  
     5    2    7 1  
     6    3    4 1  
     7    3    8 1  
     8    5    4 1  
     9    4    9 1  
    10    5    6 1  
    11   10    5 1  
    12   11   12 1  
    13   11   20 1  
    14   30   11 1  
    15   12   13 1  
    16   12   17 1  
    17   13   14 1  
    18   13   18 1  
    19   15   14 1  
    20   14   19 1  
    21   15   16 1  
    22   20   15 1  
    23   16   21 1  
    24   22   23 1  
    25   22   31 1  
    26   56   22 1  
    27   23   24 1  
    28   23   28 1  
    29   24   25 1  
    30   24   29 1  
    31   26   25 1  
    32   25   30 1  
    33   26   27 1  
    34   31   26 1  
    35   27   32 1  
    36   29   33 1  
    37   33   34 1  
    38   33   44 1  
    39   34   35 1  
    40   34   41 1  
    41   35   36 1  
    42   35   42 1  
    43   37   36 1  
    44   36   43 1  
    45   37   38 1  
    46   44   37 1  
    47   38   45 1  
    48   39   40 1  
    49   41   39 am 
    50   39   46 2  
    51   48   47 1  
    52   47   55 1  
    53   47   61 1  
    54   48   49 1  
    55   60   48 1  
    56   49   50 1  
    57   49   56 1  
    58   50   51 1  
    59   50   57 1  
    60   51   52 1  
    61   55   51 1  
    62   52   58 1  
    63   53   54 1  
    64   53   59 2  
    65   53   60 am 
    66   58   62 1  
    67   62   63 1  
    68   62   71 1  
    69   63   64 1  
    70   63   68 1  
    71   64   65 1  
    72   64   69 1  
    73   65   66 1  
    74   65   70 1  
    75   66   67 1  
    76   66   71 1  
    77   67   72 1  
    78    1   73 1  
    79    2   74 1  
    80    3   75 1  
    81    4   76 1  
    82    5   77 1  
    83    6   78 1  
    84    6   79 1  
    85    6   80 1  
    86    7   81 1  
    87    8   82 1  
    88    9   83 1  
    89   11   84 1  
    90   12   85 1  
    91   13   86 1  
    92   14   87 1  
    93   15   88 1  
    94   16   89 1  
    95   16   90 1  
    96   17   91 1  
    97   18   92 1  
    98   19   93 1  
    99   22   94 1  
   100   23   95 1  
   101   24   96 1  
   102   25   97 1  
   103   26   98 1  
   104   27   99 1  
   105   27  100 1  
   106   28  101 1  
   107   32  102 1  
   108   33  103 1  
   109   34  104 1  
   110   35  105 1  
   111   36  106 1  
   112   37  107 1  
   113   38  108 1  
   114   38  109 1  
   115   40  110 1  
   116   40  111 1  
   117   40  112 1  
   118   41  113 1  
   119   42  114 1  
   120   43  115 1  
   121   45  116 1  
   122   47  117 1  
   123   48  118 1  
   124   49  119 1  
   125   50  120 1  
   126   51  121 1  
   127   52  122 1  
   128   52  123 1  
   129   54  124 1  
   130   54  125 1  
   131   54  126 1  
   132   57  127 1  
   133   60  128 1  
   134   61  129 1  
   135   62  130 1  
   136   63  131 1  
   137   64  132 1  
   138   65  133 1  
   139   66  134 1  
   140   67  135 1  
   141   67  136 1  
   142   68  137 1  
   143   69  138 1  
   144   70  139 1  
   145   72  140 1  
@<TRIPOS>SUBSTRUCTURE
     1 NON         1

