3b7r_ligand
  -I-interpret- 

 57 58  0  0  0  0  0  0  0  0999 V2000
   32.8250    2.6140    0.8130 C   0  0  0  0  0
   34.2170    2.3640    1.4430 C   0  0  0  0  0
   34.1820    1.3220    2.4450 N   0  3  0  0  0
   34.9260    3.8990    2.2280 P   0  0  0  0  0
   36.3960    3.6750    2.6340 O   0  0  0  0  0
   34.0400    4.0820    3.5170 O   0  0  0  0  0
   34.5310    5.3200    1.1620 C   0  0  0  0  0
   34.7190    6.6990    1.7610 C   0  0  0  0  0
   34.4030    7.6590    0.6470 C   0  0  0  0  0
   35.0260    7.5960   -0.3910 O   0  0  0  0  0
   33.1880    8.2850    0.7060 N   0  0  0  0  0
   32.6930    9.0770   -0.3730 C   0  0  0  0  0
   31.4260    9.8110    0.0460 C   0  0  0  0  0
   33.7680   10.1380   -0.7670 C   0  0  0  0  0
   33.9410   10.2050   -2.0880 O   0  0  0  0  0
   34.3970   10.8460    0.0160 O   0  0  0  0  0
   36.1370    7.0320    2.2490 C   0  0  0  0  0
   36.2480    8.4320    2.8160 C   0  0  0  0  0
   36.3890    9.5610    1.9820 C   0  0  0  0  0
   36.3110   10.8720    2.4490 C   0  0  0  0  0
   36.1590   11.0730    3.8250 C   0  0  0  0  0
   35.9600    9.9610    4.6360 C   0  0  0  0  0
   36.0170    8.6500    4.1580 C   0  0  0  0  0
   36.0680   12.4610    4.3410 C   0  0  0  0  0
   35.2070   12.7980    5.4030 C   0  0  0  0  0
   35.1200   14.1300    5.8460 C   0  0  0  0  0
   35.8640   15.1660    5.2190 C   0  0  0  0  0
   36.7050   14.8250    4.1400 C   0  0  0  0  0
   36.7770   13.5090    3.6730 C   0  0  0  0  0
   32.1328    2.9488    1.5856 H   0  0  0  0  0
   32.9088    3.3798    0.0419 H   0  0  0  0  0
   32.4568    1.6888    0.3696 H   0  0  0  0  0
   34.8535    2.0542    0.6141 H   0  0  0  0  0
   33.7964    0.4711    2.0356 H   0  0  0  0  0
   35.1286    1.1413    2.7791 H   0  0  0  0  0
   33.5963    1.6212    3.2246 H   0  0  0  0  0
   33.1260    4.2211    3.2586 H   0  0  0  0  0
   33.4685    5.2359    0.9339 H   0  0  0  0  0
   35.2217    5.2632    0.3207 H   0  0  0  0  0
   34.0832    6.7585    2.6444 H   0  0  0  0  0
   32.6189    8.1826    1.5463 H   0  0  0  0  0
   32.4728    8.4210   -1.2152 H   0  0  0  0  0
   30.6652    9.0851    0.3330 H   0  0  0  0  0
   31.6473   10.4611    0.8924 H   0  0  0  0  0
   31.0619   10.4102   -0.7886 H   0  0  0  0  0
   33.3590    9.5743   -2.5182 H   0  0  0  0  0
   36.8093    6.9636    1.3938 H   0  0  0  0  0
   36.3910    6.3291    3.0424 H   0  0  0  0  0
   36.5679    9.4000    0.9189 H   0  0  0  0  0
   36.3668   11.7163    1.7618 H   0  0  0  0  0
   35.7498   10.1200    5.6937 H   0  0  0  0  0
   35.8805    7.8089    4.8377 H   0  0  0  0  0
   34.6067   12.0250    5.8827 H   0  0  0  0  0
   34.4695   14.3724    6.6863 H   0  0  0  0  0
   35.7864   16.1973    5.5633 H   0  0  0  0  0
   37.3075   15.5981    3.6632 H   0  0  0  0  0
   37.3780   13.2797    2.7931 H   0  0  0  0  0
  1  2  1  0  0  0
  2  3  1  0  0  0
  2  4  1  0  0  0
  4  5  2  0  0  0
  4  6  1  0  0  0
  4  7  1  0  0  0
  7  8  1  0  0  0
  8  9  1  0  0  0
  8 17  1  0  0  0
  9 10  2  0  0  0
  9 11  1  0  0  0
 11 12  1  0  0  0
 12 13  1  0  0  0
 12 14  1  0  0  0
 14 15  1  0  0  0
 14 16  2  0  0  0
 17 18  1  0  0  0
 18 19  4  0  0  0
 18 23  4  0  0  0
 19 20  4  0  0  0
 20 21  4  0  0  0
 21 22  4  0  0  0
 21 24  1  0  0  0
 22 23  4  0  0  0
 24 25  4  0  0  0
 24 29  4  0  0  0
 25 26  4  0  0  0
 26 27  4  0  0  0
 27 28  4  0  0  0
 28 29  4  0  0  0
  1 30  1  0  0  0
  1 31  1  0  0  0
  1 32  1  0  0  0
  2 33  1  0  0  0
  3 34  1  0  0  0
  3 35  1  0  0  0
  3 36  1  0  0  0
  6 37  1  0  0  0
  7 38  1  0  0  0
  7 39  1  0  0  0
  8 40  1  0  0  0
 11 41  1  0  0  0
 12 42  1  0  0  0
 13 43  1  0  0  0
 13 44  1  0  0  0
 13 45  1  0  0  0
 15 46  1  0  0  0
 17 47  1  0  0  0
 17 48  1  0  0  0
 19 49  1  0  0  0
 20 50  1  0  0  0
 22 51  1  0  0  0
 23 52  1  0  0  0
 25 53  1  0  0  0
 26 54  1  0  0  0
 27 55  1  0  0  0
 28 56  1  0  0  0
 29 57  1  0  0  0
M  END
$$$$
