2nn1_ligand
  -I-interpret- 

 26 26  0  0  0  0  0  0  0  0999 V2000
  -17.2850   -0.1480  -19.5040 C   0  0  0  0  0
  -17.8840    1.1500  -19.6590 C   0  0  0  0  0
  -18.4910    1.7660  -18.5530 C   0  0  0  0  0
  -18.5120    1.1130  -17.2980 C   0  0  0  0  0
  -17.8940   -0.1620  -17.1970 C   0  0  0  0  0
  -17.2860   -0.7990  -18.2620 C   0  0  0  0  0
  -16.5200   -0.9610  -20.8420 S   0  0  0  0  0
  -16.1010    0.0900  -21.7320 O   0  0  0  0  0
  -17.4980   -1.9070  -21.3580 O   0  0  0  0  0
  -15.2840   -1.7440  -20.2100 N   0  0  0  0  0
  -19.1420    1.7170  -16.1040 C   0  0  0  0  0
  -18.1470    1.4970  -14.9570 C   0  0  0  0  0
  -18.3600    2.0250  -13.5650 C   0  0  0  0  0
  -19.0640    3.0400  -13.3820 O   0  0  0  0  0
  -17.8010    1.4650  -12.5880 O   0  0  0  0  0
  -17.8670    1.6513  -20.6267 H   0  0  0  0  0
  -18.9473    2.7499  -18.6615 H   0  0  0  0  0
  -17.8996   -0.6639  -16.2294 H   0  0  0  0  0
  -16.8214   -1.7775  -18.1403 H   0  0  0  0  0
  -14.3310   -1.4752  -20.4546 H   0  0  0  0  0
  -15.4460   -2.5139  -19.5609 H   0  0  0  0  0
  -20.1071    1.2588  -15.8878 H   0  0  0  0  0
  -19.3481    2.7766  -16.2551 H   0  0  0  0  0
  -17.2625    2.0386  -15.2922 H   0  0  0  0  0
  -18.1703    0.4164  -14.8158 H   0  0  0  0  0
  -17.3019    0.7059  -12.8983 H   0  0  0  0  0
  1  2  4  0  0  0
  1  6  4  0  0  0
  1  7  1  0  0  0
  2  3  4  0  0  0
  3  4  4  0  0  0
  4  5  4  0  0  0
  4 11  1  0  0  0
  5  6  4  0  0  0
  7  8  2  0  0  0
  7  9  2  0  0  0
  7 10  1  0  0  0
 11 12  1  0  0  0
 12 13  1  0  0  0
 13 14  2  0  0  0
 13 15  1  0  0  0
  2 16  1  0  0  0
  3 17  1  0  0  0
  5 18  1  0  0  0
  6 19  1  0  0  0
 10 20  1  0  0  0
 10 21  1  0  0  0
 11 22  1  0  0  0
 11 23  1  0  0  0
 12 24  1  0  0  0
 12 25  1  0  0  0
 15 26  1  0  0  0
M  END
$$$$
