6mey_ligand
  -I-interpret- 

 35 37  0  0  0  0  0  0  0  0999 V2000
   43.7320   23.1270   27.2190 C   0  0  0  0  0
   44.8950   25.2940   26.5970 C   0  0  0  0  0
   42.6910   22.4560   28.1050 C   0  0  0  0  0
   40.5660   23.6700   27.5390 C   0  0  0  0  0
   40.6100   23.1990   26.2320 C   0  0  0  0  0
   39.5380   23.4260   25.3820 C   0  0  0  0  0
   38.4220   24.1140   25.8280 C   0  0  0  0  0
   38.3760   24.5760   27.1330 C   0  0  0  0  0
   39.4490   24.3550   27.9820 C   0  0  0  0  0
   43.4180   22.0040   29.3650 C   0  0  0  0  0
   43.5730   20.6540   29.6340 C   0  0  0  0  0
   44.2430   20.2580   30.7790 C   0  0  0  0  0
   44.7580   21.2050   31.6540 C   0  0  0  0  0
   44.6070   22.5540   31.3810 C   0  0  0  0  0
   43.9380   22.9530   30.2370 C   0  0  0  0  0
   43.9170   24.5530   27.3670 N   0  0  0  0  0
   45.5850   24.8560   25.5580 N   0  0  0  0  0
   46.4040   25.8610   25.1320 N   0  0  0  0  0
   46.1940   26.9220   25.9620 N   0  0  0  0  0
   45.2490   26.5350   26.8620 N   0  0  0  0  0
   41.6770   23.4300   28.4550 N   0  0  0  0  0
   44.3730   22.4920   26.4480 O   0  0  0  0  0
   42.2152   21.6138   27.6026 H   0  0  0  0  0
   41.4839   22.6532   25.8764 H   0  0  0  0  0
   39.5741   23.0604   24.3558 H   0  0  0  0  0
   37.5832   24.2912   25.1549 H   0  0  0  0  0
   37.4975   25.1124   27.4916 H   0  0  0  0  0
   39.4123   24.7240   29.0070 H   0  0  0  0  0
   43.1701   19.9083   28.9486 H   0  0  0  0  0
   44.3669   19.1968   30.9947 H   0  0  0  0  0
   45.2811   20.8866   32.5557 H   0  0  0  0  0
   45.0136   23.2992   32.0647 H   0  0  0  0  0
   43.8186   24.0144   30.0194 H   0  0  0  0  0
   43.3373   25.0562   28.0386 H   0  0  0  0  0
   41.7389   23.9437   29.3340 H   0  0  0  0  0
  3  1  1  0  0  0
  1 16  1  0  0  0
  1 22  2  0  0  0
 16  2  1  0  0  0
  2 17  4  0  0  0
  2 20  4  0  0  0
  3 10  1  0  0  0
 21  3  1  0  0  0
  4  5  4  0  0  0
  4  9  4  0  0  0
  4 21  1  0  0  0
  5  6  4  0  0  0
  6  7  4  0  0  0
  7  8  4  0  0  0
  8  9  4  0  0  0
 10 11  4  0  0  0
 10 15  4  0  0  0
 11 12  4  0  0  0
 12 13  4  0  0  0
 13 14  4  0  0  0
 14 15  4  0  0  0
 17 18  4  0  0  0
 18 19  4  0  0  0
 19 20  4  0  0  0
  3 23  1  0  0  0
  5 24  1  0  0  0
  6 25  1  0  0  0
  7 26  1  0  0  0
  8 27  1  0  0  0
  9 28  1  0  0  0
 11 29  1  0  0  0
 12 30  1  0  0  0
 13 31  1  0  0  0
 14 32  1  0  0  0
 15 33  1  0  0  0
 16 34  1  0  0  0
 21 35  1  0  0  0
M  END
$$$$
