3duy_ligand
  -I-interpret- 

 82 81  0  0  0  0  0  0  0  0999 V2000
   23.9040    4.8680   16.1720 S   0  0  0  0  0
   25.4990    5.0830   17.0310 C   0  0  0  0  0
   26.5190    5.8000   16.1070 C   0  0  0  0  0
   27.9370    5.9450   16.7470 C   0  0  0  0  0
   27.9500    7.0180   17.7500 N   0  0  0  0  0
   27.7520    6.8110   19.0820 C   0  0  0  0  0
   27.5450    5.7110   19.5890 O   0  0  0  0  0
   27.7930    8.0430   19.9580 C   0  0  0  0  0
   29.0150    8.0950   20.9190 C   0  0  0  0  0
   30.3870    8.4210   20.2540 C   0  0  0  0  0
   31.5580    7.8190   21.0780 C   0  0  0  0  0
   30.5880    9.9570   20.1720 C   0  0  0  0  0
   29.0190    6.2190   15.7180 C   0  0  0  0  0
   28.7180    6.5750   14.5780 O   0  0  0  0  0
   30.3100    6.0520   16.1160 N   0  0  0  0  0
   31.4620    6.2870   15.2300 C   0  0  0  0  0
   32.0930    4.9250   14.8010 C   0  0  0  0  0
   32.7860    4.3010   15.8980 O   0  0  0  0  0
   31.1290    3.9220   14.0810 C   0  0  0  0  0
   31.7960    2.9880   13.0270 C   0  0  0  0  0
   30.9660    1.6830   12.9020 C   0  0  0  0  0
   31.8860    3.6190   11.6490 C   0  0  0  0  0
   30.9540    4.2930   11.2260 O   0  0  0  0  0
   33.0170    3.3960   10.9450 N   0  0  0  0  0
   33.2180    3.9330    9.6050 C   0  0  0  0  0
   34.4680    3.3380    8.9220 C   0  0  0  0  0
   34.4180    3.5570    7.3930 C   0  0  0  0  0
   34.7520    5.0090    6.9950 C   0  0  0  0  0
   32.4500    7.3220   15.8550 C   0  0  0  0  0
   31.8260    8.7150   16.2030 C   0  0  0  0  0
   31.4770    9.5620   14.9450 C   0  0  0  0  0
   32.8010    9.5140   17.1150 C   0  0  0  0  0
   22.7940    4.7770   17.6100 C   0  0  0  0  0
   25.8921    4.1027   17.3003 H   0  0  0  0  0
   25.3425    5.6882   17.9239 H   0  0  0  0  0
   26.1402    6.8038   15.9145 H   0  0  0  0  0
   26.6250    5.1987   15.2041 H   0  0  0  0  0
   28.1546    4.9876   17.2204 H   0  0  0  0  0
   28.1168    7.9724   17.4312 H   0  0  0  0  0
   26.8955    8.0303   20.5764 H   0  0  0  0  0
   27.8638    8.9073   19.2976 H   0  0  0  0  0
   29.1106    7.0984   21.3499 H   0  0  0  0  0
   28.8165    8.9002   21.6264 H   0  0  0  0  0
   30.3831    7.9860   19.2546 H   0  0  0  0  0
   31.5464    8.2389   22.0838 H   0  0  0  0  0
   31.4427    6.7365   21.1335 H   0  0  0  0  0
   32.5038    8.0606   20.5929 H   0  0  0  0  0
   29.7877   10.3956   19.5760 H   0  0  0  0  0
   30.5675   10.3790   21.1768 H   0  0  0  0  0
   31.5495   10.1719   19.7058 H   0  0  0  0  0
   30.4877    5.7496   17.0738 H   0  0  0  0  0
   31.1374    6.7580   14.3021 H   0  0  0  0  0
   32.8134    5.1944   14.0287 H   0  0  0  0  0
   33.1624    3.4679   15.6049 H   0  0  0  0  0
   30.3992    4.5262   13.5420 H   0  0  0  0  0
   30.7214    3.2732   14.8562 H   0  0  0  0  0
   32.8098    2.7929   13.3767 H   0  0  0  0  0
   30.9342    1.1802   13.8686 H   0  0  0  0  0
   29.9523    1.9276   12.5848 H   0  0  0  0  0
   31.4305    1.0277   12.1652 H   0  0  0  0  0
   33.7558    2.8324   11.3656 H   0  0  0  0  0
   33.3568    5.0109    9.6881 H   0  0  0  0  0
   32.3469    3.6768    9.0020 H   0  0  0  0  0
   34.5002    2.2669    9.1218 H   0  0  0  0  0
   35.3537    3.8345    9.3184 H   0  0  0  0  0
   33.4051    3.3393    7.0544 H   0  0  0  0  0
   35.1596    2.9029    6.9345 H   0  0  0  0  0
   34.0322    5.6854    7.4559 H   0  0  0  0  0
   35.7565    5.2565    7.3381 H   0  0  0  0  0
   34.7025    5.1077    5.9106 H   0  0  0  0  0
   33.2246    7.5039   15.1100 H   0  0  0  0  0
   32.7995    6.8928   16.7940 H   0  0  0  0  0
   30.8886    8.5184   16.7232 H   0  0  0  0  0
   32.3833    9.7418   14.3667 H   0  0  0  0  0
   30.7553    9.0209   14.3330 H   0  0  0  0  0
   31.0488   10.5145   15.2572 H   0  0  0  0  0
   32.9757    8.9559   18.0349 H   0  0  0  0  0
   33.7464    9.6614   16.5929 H   0  0  0  0  0
   32.3616   10.4825   17.3540 H   0  0  0  0  0
   23.0811    3.9322   18.2361 H   0  0  0  0  0
   22.8703    5.6997   18.1852 H   0  0  0  0  0
   21.7677    4.6447   17.2674 H   0  0  0  0  0
  1  2  1  0  0  0
  1 33  1  0  0  0
  2  3  1  0  0  0
  3  4  1  0  0  0
  4  5  1  0  0  0
  4 13  1  0  0  0
  5  6  1  0  0  0
  6  7  2  0  0  0
  6  8  1  0  0  0
  8  9  1  0  0  0
  9 10  1  0  0  0
 10 11  1  0  0  0
 10 12  1  0  0  0
 13 14  2  0  0  0
 13 15  1  0  0  0
 15 16  1  0  0  0
 16 17  1  0  0  0
 16 29  1  0  0  0
 17 18  1  0  0  0
 17 19  1  0  0  0
 19 20  1  0  0  0
 20 21  1  0  0  0
 20 22  1  0  0  0
 22 23  2  0  0  0
 22 24  1  0  0  0
 24 25  1  0  0  0
 25 26  1  0  0  0
 26 27  1  0  0  0
 27 28  1  0  0  0
 29 30  1  0  0  0
 30 31  1  0  0  0
 30 32  1  0  0  0
  2 34  1  0  0  0
  2 35  1  0  0  0
  3 36  1  0  0  0
  3 37  1  0  0  0
  4 38  1  0  0  0
  5 39  1  0  0  0
  8 40  1  0  0  0
  8 41  1  0  0  0
  9 42  1  0  0  0
  9 43  1  0  0  0
 10 44  1  0  0  0
 11 45  1  0  0  0
 11 46  1  0  0  0
 11 47  1  0  0  0
 12 48  1  0  0  0
 12 49  1  0  0  0
 12 50  1  0  0  0
 15 51  1  0  0  0
 16 52  1  0  0  0
 17 53  1  0  0  0
 18 54  1  0  0  0
 19 55  1  0  0  0
 19 56  1  0  0  0
 20 57  1  0  0  0
 21 58  1  0  0  0
 21 59  1  0  0  0
 21 60  1  0  0  0
 24 61  1  0  0  0
 25 62  1  0  0  0
 25 63  1  0  0  0
 26 64  1  0  0  0
 26 65  1  0  0  0
 27 66  1  0  0  0
 27 67  1  0  0  0
 28 68  1  0  0  0
 28 69  1  0  0  0
 28 70  1  0  0  0
 29 71  1  0  0  0
 29 72  1  0  0  0
 30 73  1  0  0  0
 31 74  1  0  0  0
 31 75  1  0  0  0
 31 76  1  0  0  0
 32 77  1  0  0  0
 32 78  1  0  0  0
 32 79  1  0  0  0
 33 80  1  0  0  0
 33 81  1  0  0  0
 33 82  1  0  0  0
M  END
$$$$
