4q4i_ligand
  -I-interpret- 

 72 71  0  0  0  0  0  0  0  0999 V2000
   56.2360  -19.7120   37.5560 N   0  3  0  0  0
   55.2230  -19.0470   36.7670 C   0  0  0  0  0
   53.8700  -19.6930   37.0090 C   0  0  0  0  0
   53.0910  -19.0420   38.1760 C   0  0  0  0  0
   52.0960  -20.0520   38.7420 C   0  0  0  0  0
   52.2820  -17.7650   37.8090 C   0  0  0  0  0
   55.5730  -19.0090   35.2790 C   0  0  0  0  0
   56.9760  -19.0730   35.0810 O   0  0  0  0  0
   55.1260  -17.7080   34.6980 C   0  0  0  0  0
   55.7350  -16.6800   34.9610 O   0  0  0  0  0
   54.0340  -17.7250   33.9360 N   0  0  0  0  0
   53.4570  -16.5130   33.3410 C   0  0  0  0  0
   52.0380  -16.5690   33.8160 C   0  0  0  0  0
   51.4080  -17.6390   33.8090 O   0  0  0  0  0
   53.6810  -16.6110   31.8360 C   0  0  0  0  0
   52.6660  -15.8270   31.0200 C   0  0  0  0  0
   55.1070  -16.1450   31.4880 C   0  0  0  0  0
   51.5290  -15.4460   34.3160 N   0  0  0  0  0
   50.1820  -15.4620   34.8880 C   0  0  0  0  0
   49.0410  -15.3590   33.9360 C   0  0  0  0  0
   48.0970  -16.1150   34.0880 O   0  0  0  0  0
   50.0200  -14.3110   35.9020 C   0  0  0  0  0
   48.8500  -14.6600   36.8120 C   0  0  0  0  0
   51.2230  -13.9490   36.7550 C   0  0  0  0  0
   49.0980  -14.4060   33.0130 N   0  0  0  0  0
   47.9960  -14.2080   32.0530 C   0  0  0  0  0
   48.3400  -14.4390   30.6150 C   0  0  0  0  0
   47.3910  -14.8110   29.8790 O   0  0  0  0  0
   47.6350  -12.7240   32.1320 C   0  0  0  0  0
   46.6670  -12.5560   33.2740 C   0  0  0  0  0
   46.7550  -11.4770   33.9090 O   0  0  0  0  0
   45.8480  -13.4870   33.5490 O   0  0  0  0  0
   49.5360  -14.2170   30.2520 O   0  0  0  0  0
   55.9564  -19.7108   38.5369 H   0  0  0  0  0
   56.3406  -20.6736   37.2322 H   0  0  0  0  0
   57.1231  -19.2191   37.4534 H   0  0  0  0  0
   55.1764  -18.0073   37.0910 H   0  0  0  0  0
   54.0418  -20.7382   37.2660 H   0  0  0  0  0
   53.2761  -19.5702   36.1033 H   0  0  0  0  0
   53.8592  -18.7413   38.8884 H   0  0  0  0  0
   51.6164  -19.6314   39.6259 H   0  0  0  0  0
   51.3404  -20.2767   37.9892 H   0  0  0  0  0
   52.6233  -20.9665   39.0136 H   0  0  0  0  0
   51.5239  -18.0173   37.0675 H   0  0  0  0  0
   51.7999  -17.3721   38.7042 H   0  0  0  0  0
   52.9573  -17.0140   37.3990 H   0  0  0  0  0
   55.0831  -19.8605   34.8067 H   0  0  0  0  0
   57.3115  -19.8974   35.4406 H   0  0  0  0  0
   53.5781  -18.6199   33.7577 H   0  0  0  0  0
   53.8816  -15.5476   33.6165 H   0  0  0  0  0
   53.5487  -17.6596   31.5695 H   0  0  0  0  0
   51.6650  -16.2054   31.2271 H   0  0  0  0  0
   52.7204  -14.7726   31.2909 H   0  0  0  0  0
   52.8873  -15.9428   29.9590 H   0  0  0  0  0
   55.2373  -15.1104   31.8053 H   0  0  0  0  0
   55.8303  -16.7779   32.0021 H   0  0  0  0  0
   55.2591  -16.2180   30.4111 H   0  0  0  0  0
   52.0721  -14.5827   34.3008 H   0  0  0  0  0
   50.1227  -16.4542   35.3354 H   0  0  0  0  0
   49.8640  -13.4194   35.2947 H   0  0  0  0  0
   47.9458  -14.7696   36.2133 H   0  0  0  0  0
   49.0604  -15.5960   37.3294 H   0  0  0  0  0
   48.7093  -13.8633   37.5424 H   0  0  0  0  0
   51.5203  -14.8143   37.3475 H   0  0  0  0  0
   52.0479  -13.6488   36.1088 H   0  0  0  0  0
   50.9614  -13.1250   37.4189 H   0  0  0  0  0
   49.9177  -13.8007   32.9672 H   0  0  0  0  0
   47.2190  -14.9229   32.3239 H   0  0  0  0  0
   47.1847  -12.3901   31.1972 H   0  0  0  0  0
   48.5284  -12.1218   32.2968 H   0  0  0  0  0
   45.9661  -14.2094   32.9279 H   0  0  0  0  0
   50.0548  -13.9451   31.0126 H   0  0  0  0  0
  1  2  1  0  0  0
  2  3  1  0  0  0
  2  7  1  0  0  0
  3  4  1  0  0  0
  4  5  1  0  0  0
  4  6  1  0  0  0
  7  8  1  0  0  0
  7  9  1  0  0  0
  9 10  2  0  0  0
  9 11  1  0  0  0
 11 12  1  0  0  0
 12 13  1  0  0  0
 12 15  1  0  0  0
 13 14  2  0  0  0
 13 18  1  0  0  0
 15 16  1  0  0  0
 15 17  1  0  0  0
 18 19  1  0  0  0
 19 20  1  0  0  0
 19 22  1  0  0  0
 20 21  2  0  0  0
 20 25  1  0  0  0
 22 23  1  0  0  0
 22 24  1  0  0  0
 25 26  1  0  0  0
 26 27  1  0  0  0
 26 29  1  0  0  0
 27 28  2  0  0  0
 27 33  1  0  0  0
 29 30  1  0  0  0
 30 31  2  0  0  0
 30 32  1  0  0  0
  1 34  1  0  0  0
  1 35  1  0  0  0
  1 36  1  0  0  0
  2 37  1  0  0  0
  3 38  1  0  0  0
  3 39  1  0  0  0
  4 40  1  0  0  0
  5 41  1  0  0  0
  5 42  1  0  0  0
  5 43  1  0  0  0
  6 44  1  0  0  0
  6 45  1  0  0  0
  6 46  1  0  0  0
  7 47  1  0  0  0
  8 48  1  0  0  0
 11 49  1  0  0  0
 12 50  1  0  0  0
 15 51  1  0  0  0
 16 52  1  0  0  0
 16 53  1  0  0  0
 16 54  1  0  0  0
 17 55  1  0  0  0
 17 56  1  0  0  0
 17 57  1  0  0  0
 18 58  1  0  0  0
 19 59  1  0  0  0
 22 60  1  0  0  0
 23 61  1  0  0  0
 23 62  1  0  0  0
 23 63  1  0  0  0
 24 64  1  0  0  0
 24 65  1  0  0  0
 24 66  1  0  0  0
 25 67  1  0  0  0
 26 68  1  0  0  0
 29 69  1  0  0  0
 29 70  1  0  0  0
 32 71  1  0  0  0
 33 72  1  0  0  0
M  END
$$$$
