2i5j_ligand
  -I-interpret- 

 41 43  0  0  0  0  0  0  0  0999 V2000
   46.4000  -25.4720   18.1360 N   0  0  0  0  0
   46.9780  -24.7940   19.0680 N   0  0  0  0  0
   46.4110  -24.7610   20.4470 C   0  0  0  0  0
   45.1570  -25.5280   20.7720 O   0  0  0  0  0
   48.9550  -21.7310   24.6730 O   0  0  0  0  0
   49.7120  -21.2790   22.1550 O   0  0  0  0  0
   46.6730  -25.0380   16.8660 C   0  0  0  0  0
   46.1190  -25.6240   15.6510 C   0  0  0  0  0
   45.2320  -24.6940   14.8470 C   0  0  0  0  0
   45.0500  -23.4240   15.3730 O   0  0  0  0  0
   44.5880  -25.1980   13.5680 C   0  0  0  0  0
   44.8190  -26.5270   13.0790 C   0  0  0  0  0
   45.6580  -27.4400   13.8260 C   0  0  0  0  0
   45.8810  -28.8030   13.3010 C   0  0  0  0  0
   46.7310  -29.7340   14.0410 C   0  0  0  0  0
   47.3710  -29.2830   15.2840 C   0  0  0  0  0
   47.1960  -27.9520   15.8580 C   0  0  0  0  0
   46.3660  -26.9910   15.1590 C   0  0  0  0  0
   44.2540  -22.4200   14.7700 C   0  0  0  0  0
   47.0860  -23.9690   21.4750 C   0  0  0  0  0
   48.1380  -22.9600   21.1870 C   0  0  0  0  0
   48.7470  -22.2160   22.3270 C   0  0  0  0  0
   48.3410  -22.4580   23.6900 C   0  0  0  0  0
   47.3010  -23.4510   23.9860 C   0  0  0  0  0
   46.7040  -24.1780   22.8930 C   0  0  0  0  0
   48.5980  -21.9846   25.5273 H   0  0  0  0  0
   49.9660  -20.9223   23.0093 H   0  0  0  0  0
   47.7366  -25.2552   16.7674 H   0  0  0  0  0
   46.2408  -24.0374   16.8620 H   0  0  0  0  0
   43.9326  -24.5325   13.0061 H   0  0  0  0  0
   44.3620  -26.8497   12.1435 H   0  0  0  0  0
   45.4138  -29.1129   12.3662 H   0  0  0  0  0
   46.8878  -30.7489   13.6755 H   0  0  0  0  0
   48.0167  -29.9858   15.8105 H   0  0  0  0  0
   47.6815  -27.6854   16.7968 H   0  0  0  0  0
   44.6450  -22.1953   13.7777 H   0  0  0  0  0
   43.2268  -22.7746   14.6854 H   0  0  0  0  0
   44.2797  -21.5200   15.3844 H   0  0  0  0  0
   48.4582  -22.7675   20.1630 H   0  0  0  0  0
   46.9859  -23.6354   25.0130 H   0  0  0  0  0
   45.9351  -24.9166   23.1197 H   0  0  0  0  0
  2  1  2  0  0  0
  1  7  1  0  0  0
  3  2  1  0  0  0
  3  4  2  0  0  0
 20  3  1  0  0  0
 23  5  1  0  0  0
 22  6  1  0  0  0
  7  8  1  0  0  0
  8  9  4  0  0  0
  8 18  4  0  0  0
  9 10  1  0  0  0
  9 11  4  0  0  0
 10 19  1  0  0  0
 11 12  4  0  0  0
 13 12  4  0  0  0
 13 14  4  0  0  0
 18 13  4  0  0  0
 14 15  4  0  0  0
 16 15  4  0  0  0
 17 16  4  0  0  0
 18 17  4  0  0  0
 21 20  4  0  0  0
 20 25  4  0  0  0
 22 21  4  0  0  0
 22 23  4  0  0  0
 23 24  4  0  0  0
 24 25  4  0  0  0
  5 26  1  0  0  0
  6 27  1  0  0  0
  7 28  1  0  0  0
  7 29  1  0  0  0
 11 30  1  0  0  0
 12 31  1  0  0  0
 14 32  1  0  0  0
 15 33  1  0  0  0
 16 34  1  0  0  0
 17 35  1  0  0  0
 19 36  1  0  0  0
 19 37  1  0  0  0
 19 38  1  0  0  0
 21 39  1  0  0  0
 24 40  1  0  0  0
 25 41  1  0  0  0
M  END
$$$$
