### 
### Created by X-TOOL on Mon Sep 10 21:13:15 2018
### 

@<TRIPOS>MOLECULE
3zmu_ligand
  105   106     1     0     0
SMALL
GAST_HUCK


@<TRIPOS>ATOM
      1 N          -1.0320   54.4250   84.3050 N.4       1 PRO         0.2461
      2 CA         -0.2800   53.2840   84.8210 C.3       1 PRO         0.0670
      3 C          -0.6510   51.9730   84.1180 C.2       1 PRO         0.2268
      4 O          -1.3050   51.9980   83.0710 O.2       1 PRO        -0.3907
      5 CB         -0.6930   53.2420   86.2940 C.3       1 PRO         0.0127
      6 CG         -2.0780   53.8000   86.3060 C.3       1 PRO        -0.0053
      7 CD         -2.1490   54.8050   85.1890 C.3       1 PRO        -0.0313
      8 N          -0.2260   50.8480   84.6970 N.am      1 LYS        -0.2610
      9 CA         -0.5470   49.5090   84.1890 C.3       1 LYS         0.1311
     10 C          -2.0220   49.3010   83.8560 C.2       1 LYS         0.2040
     11 O          -2.3530   48.6980   82.8320 O.2       1 LYS        -0.3944
     12 CB         -0.1190   48.4400   85.1970 C.3       1 LYS        -0.0122
     13 CG          0.9470   47.4940   84.6850 C.3       1 LYS        -0.0440
     14 CD          1.1010   46.3060   85.6120 C.3       1 LYS        -0.0124
     15 CE          2.0490   45.2760   85.0240 C.3       1 LYS        -0.0354
     16 NZ          2.4700   44.2750   86.0410 N.4       1 LYS         0.2185
     17 N          -2.8930   49.8080   84.7270 N.am      1 SER        -0.2616
     18 CA         -4.3370   49.5640   84.6520 C.3       1 SER         0.1539
     19 C          -5.0510   50.1400   83.4160 C.2       1 SER         0.2063
     20 O          -6.1720   49.7260   83.1060 O.2       1 SER        -0.3943
     21 CB         -5.0250   50.0290   85.9450 C.3       1 SER         0.0843
     22 OG         -4.5720   51.3100   86.3480 O.3       1 SER        -0.3903
     23 N          -4.4110   51.0760   82.7130 N.am      1 PHE        -0.2619
     24 CA         -5.0140   51.6670   81.5130 C.3       1 PHE         0.1404
     25 C          -4.8470   50.8100   80.2540 C.2       1 PHE         0.2060
     26 O          -5.4560   51.1060   79.2220 O.2       1 PHE        -0.3942
     27 CB         -4.4960   53.0890   81.2570 C.3       1 PHE         0.0214
     28 CG         -5.0190   54.1230   82.2190 C.ar      1 PHE        -0.0386
     29 CD1        -6.2040   53.9190   82.9270 C.ar      1 PHE        -0.0601
     30 CD2        -4.3390   55.3230   82.3930 C.ar      1 PHE        -0.0601
     31 CE1        -6.6780   54.8790   83.8080 C.ar      1 PHE        -0.0686
     32 CE2        -4.8120   56.2890   83.2670 C.ar      1 PHE        -0.0686
     33 CZ         -5.9820   56.0660   83.9760 C.ar      1 PHE        -0.0687
     34 N          -4.0280   49.7590   80.3420 N.am      1 LEU        -0.2636
     35 CA         -3.7970   48.8330   79.2230 C.3       1 LEU         0.1312
     36 C          -5.0970   48.2730   78.6540 C.2       1 LEU         0.2034
     37 O          -5.9840   47.8480   79.4000 O.2       1 LEU        -0.3944
     38 CB         -2.8800   47.6780   79.6380 C.3       1 LEU        -0.0101
     39 CG         -1.3790   47.7700   79.3570 C.3       1 LEU        -0.0425
     40 CD1        -0.6570   46.6190   80.0430 C.3       1 LEU        -0.0625
     41 CD2        -1.0920   47.7650   77.8620 C.3       1 LEU        -0.0625
     42 N          -5.1870   48.2700   77.3280 N.am      1 VAL        -0.2692
     43 CA         -6.4010   47.8700   76.6230 C.3       1 VAL         0.0967
     44 C          -6.5770   46.3520   76.5590 C.2       1 VAL         0.0603
     45 O          -5.5850   45.5877   76.4195 O.co2     1 VAL        -0.5666
     46 CB         -6.4350   48.4930   75.2130 C.3       1 VAL        -0.0118
     47 CG1        -7.2480   47.6390   74.2520 C.3       1 VAL        -0.0590
     48 CG2        -6.9740   49.9140   75.2860 C.3       1 VAL        -0.0590
     49 O          -7.7326   45.8577   76.6472 O.co2     1 VAL        -0.5666
     50 H1         -1.4028   54.1857   83.3988 H         1 PRO         0.2035
     51 H2         -0.4075   55.2112   84.2157 H         1 PRO         0.2035
     52 H3          0.8020   53.4542   84.7191 H         1 PRO         0.1099
     53 H4         -0.0189   53.8599   86.9053 H         1 PRO         0.0347
     54 H5         -0.6862   52.2087   86.6711 H         1 PRO         0.0347
     55 H6         -2.2811   54.2896   87.2698 H         1 PRO         0.0320
     56 H7         -2.8116   52.9972   86.1407 H         1 PRO         0.0320
     57 H8         -3.1102   54.7347   84.6588 H         1 PRO         0.0814
     58 H9         -2.0155   55.8274   85.5723 H         1 PRO         0.0814
     59 H10         0.3397   50.9212   85.5184 H         1 LYS         0.1884
     60 H11         0.0280   49.3638   83.2626 H         1 LYS         0.0800
     61 H12        -1.0050   47.8470   85.4678 H         1 LYS         0.0312
     62 H13         0.2708   48.9466   86.0922 H         1 LYS         0.0312
     63 H14         1.9056   48.0300   84.6233 H         1 LYS         0.0269
     64 H15         0.6617   47.1364   83.6847 H         1 LYS         0.0269
     65 H16         0.1163   45.8411   85.7675 H         1 LYS         0.0317
     66 H17         1.4996   46.6521   86.5770 H         1 LYS         0.0317
     67 H18         2.9416   45.7910   84.6393 H         1 LYS         0.0813
     68 H19         1.5422   44.7546   84.1986 H         1 LYS         0.0813
     69 H20         3.0968   43.6088   85.6174 H         1 LYS         0.1994
     70 H21         1.6581   43.7941   86.3954 H         1 LYS         0.1994
     71 H22         2.9404   44.7438   86.7993 H         1 LYS         0.1994
     72 H23        -2.5454   50.3828   85.4678 H         1 SER         0.1884
     73 H24        -4.4602   48.4725   84.5936 H         1 SER         0.0823
     74 H25        -4.8070   49.3059   86.7448 H         1 SER         0.0606
     75 H26        -6.1110   50.0720   85.7754 H         1 SER         0.0606
     76 H27        -5.0169   51.5648   87.1478 H         1 SER         0.2097
     77 H28        -3.5053   51.3798   83.0088 H         1 PHE         0.1885
     78 H29        -6.0939   51.7423   81.7082 H         1 PHE         0.0823
     79 H30        -4.7912   53.3850   80.2395 H         1 PHE         0.0474
     80 H31        -3.3986   53.0741   81.3307 H         1 PHE         0.0474
     81 H32        -6.7604   52.9993   82.7866 H         1 PHE         0.0557
     82 H33        -3.4263   55.5056   81.8374 H         1 PHE         0.0557
     83 H34        -7.5912   54.7016   84.3644 H         1 PHE         0.0599
     84 H35        -4.2678   57.2176   83.3959 H         1 PHE         0.0599
     85 H36        -6.3526   56.8195   84.6616 H         1 PHE         0.0559
     86 H37        -3.5514   49.5945   81.2056 H         1 LEU         0.1883
     87 H38        -3.2946   49.3978   78.4239 H         1 LEU         0.0800
     88 H39        -3.2471   46.7774   79.1241 H         1 LEU         0.0315
     89 H40        -2.9950   47.5527   80.7248 H         1 LEU         0.0315
     90 H41        -1.0054   48.7163   79.7754 H         1 LEU         0.0298
     91 H42         0.4216   46.6889   79.8385 H         1 LEU         0.0232
     92 H43        -1.0420   45.6632   79.6581 H         1 LEU         0.0232
     93 H44        -0.8287   46.6732   81.1282 H         1 LEU         0.0232
     94 H45        -1.6214   48.6025   77.3842 H         1 LEU         0.0232
     95 H46        -1.4373   46.8162   77.4255 H         1 LEU         0.0232
     96 H47        -0.0100   47.8727   77.6960 H         1 LEU         0.0232
     97 H48        -4.3916   48.5530   76.7921 H         1 VAL         0.1875
     98 H49        -7.2552   48.2730   77.1867 H         1 VAL         0.0729
     99 H50        -5.4035   48.5380   74.8337 H         1 VAL         0.0336
    100 H51        -7.2528   48.1094   73.2577 H         1 VAL         0.0234
    101 H52        -8.2804   47.5527   74.6217 H         1 VAL         0.0234
    102 H53        -6.7987   46.6374   74.1816 H         1 VAL         0.0234
    103 H54        -6.3642   50.5018   75.9879 H         1 VAL         0.0234
    104 H55        -8.0170   49.8931   75.6350 H         1 VAL         0.0234
    105 H56        -6.9304   50.3745   74.2880 H         1 VAL         0.0234
@<TRIPOS>BOND
     1    1    2 1  
     2    1    7 1  
     3    2    3 1  
     4    2    5 1  
     5    3    4 2  
     6    3    8 am 
     7    5    6 1  
     8    6    7 1  
     9    8    9 1  
    10    9   10 1  
    11    9   12 1  
    12   10   11 2  
    13   10   17 am 
    14   12   13 1  
    15   13   14 1  
    16   14   15 1  
    17   15   16 1  
    18   17   18 1  
    19   18   19 1  
    20   18   21 1  
    21   19   20 2  
    22   19   23 am 
    23   21   22 1  
    24   23   24 1  
    25   24   25 1  
    26   24   27 1  
    27   25   26 2  
    28   25   34 am 
    29   27   28 1  
    30   28   29 ar 
    31   28   30 ar 
    32   29   31 ar 
    33   30   32 ar 
    34   31   33 ar 
    35   32   33 ar 
    36   34   35 1  
    37   35   36 1  
    38   35   38 1  
    39   36   37 2  
    40   36   42 am 
    41   38   39 1  
    42   39   40 1  
    43   39   41 1  
    44   42   43 1  
    45   43   44 1  
    46   43   46 1  
    47   44   45 ar 
    48   46   47 1  
    49   46   48 1  
    50   44   49 ar 
    51    1   50 1  
    52    1   51 1  
    53    2   52 1  
    54    5   53 1  
    55    5   54 1  
    56    6   55 1  
    57    6   56 1  
    58    7   57 1  
    59    7   58 1  
    60    8   59 1  
    61    9   60 1  
    62   12   61 1  
    63   12   62 1  
    64   13   63 1  
    65   13   64 1  
    66   14   65 1  
    67   14   66 1  
    68   15   67 1  
    69   15   68 1  
    70   16   69 1  
    71   16   70 1  
    72   16   71 1  
    73   17   72 1  
    74   18   73 1  
    75   21   74 1  
    76   21   75 1  
    77   22   76 1  
    78   23   77 1  
    79   24   78 1  
    80   27   79 1  
    81   27   80 1  
    82   29   81 1  
    83   30   82 1  
    84   31   83 1  
    85   32   84 1  
    86   33   85 1  
    87   34   86 1  
    88   35   87 1  
    89   38   88 1  
    90   38   89 1  
    91   39   90 1  
    92   40   91 1  
    93   40   92 1  
    94   40   93 1  
    95   41   94 1  
    96   41   95 1  
    97   41   96 1  
    98   42   97 1  
    99   43   98 1  
   100   46   99 1  
   101   47  100 1  
   102   47  101 1  
   103   47  102 1  
   104   48  103 1  
   105   48  104 1  
   106   48  105 1  
@<TRIPOS>SUBSTRUCTURE
     1 PRO         1

