3zmu_ligand
  -I-interpret- 

106107  0  0  0  0  0  0  0  0999 V2000
   -1.0320   54.4250   84.3050 N   0  3  0  0  0
   -0.2800   53.2840   84.8210 C   0  0  0  0  0
   -0.6510   51.9730   84.1180 C   0  0  0  0  0
   -1.3050   51.9980   83.0710 O   0  0  0  0  0
   -0.6930   53.2420   86.2940 C   0  0  0  0  0
   -2.0780   53.8000   86.3060 C   0  0  0  0  0
   -2.1490   54.8050   85.1890 C   0  0  0  0  0
   -0.2260   50.8480   84.6970 N   0  0  0  0  0
   -0.5470   49.5090   84.1890 C   0  0  0  0  0
   -2.0220   49.3010   83.8560 C   0  0  0  0  0
   -2.3530   48.6980   82.8320 O   0  0  0  0  0
   -0.1190   48.4400   85.1970 C   0  0  0  0  0
    0.9470   47.4940   84.6850 C   0  0  0  0  0
    1.1010   46.3060   85.6120 C   0  0  0  0  0
    2.0490   45.2760   85.0240 C   0  0  0  0  0
    2.4700   44.2750   86.0410 N   0  3  0  0  0
   -2.8930   49.8080   84.7270 N   0  0  0  0  0
   -4.3370   49.5640   84.6520 C   0  0  0  0  0
   -5.0510   50.1400   83.4160 C   0  0  0  0  0
   -6.1720   49.7260   83.1060 O   0  0  0  0  0
   -5.0250   50.0290   85.9450 C   0  0  0  0  0
   -4.5720   51.3100   86.3480 O   0  0  0  0  0
   -4.4110   51.0760   82.7130 N   0  0  0  0  0
   -5.0140   51.6670   81.5130 C   0  0  0  0  0
   -4.8470   50.8100   80.2540 C   0  0  0  0  0
   -5.4560   51.1060   79.2220 O   0  0  0  0  0
   -4.4960   53.0890   81.2570 C   0  0  0  0  0
   -5.0190   54.1230   82.2190 C   0  0  0  0  0
   -6.2040   53.9190   82.9270 C   0  0  0  0  0
   -4.3390   55.3230   82.3930 C   0  0  0  0  0
   -6.6780   54.8790   83.8080 C   0  0  0  0  0
   -4.8120   56.2890   83.2670 C   0  0  0  0  0
   -5.9820   56.0660   83.9760 C   0  0  0  0  0
   -4.0280   49.7590   80.3420 N   0  0  0  0  0
   -3.7970   48.8330   79.2230 C   0  0  0  0  0
   -5.0970   48.2730   78.6540 C   0  0  0  0  0
   -5.9840   47.8480   79.4000 O   0  0  0  0  0
   -2.8800   47.6780   79.6380 C   0  0  0  0  0
   -1.3790   47.7700   79.3570 C   0  0  0  0  0
   -0.6570   46.6190   80.0430 C   0  0  0  0  0
   -1.0920   47.7650   77.8620 C   0  0  0  0  0
   -5.1870   48.2700   77.3280 N   0  0  0  0  0
   -6.4010   47.8700   76.6230 C   0  0  0  0  0
   -6.5770   46.3520   76.5590 C   0  0  0  0  0
   -5.5850   45.5877   76.4195 O   0  0  0  0  0
   -6.4350   48.4930   75.2130 C   0  0  0  0  0
   -7.2480   47.6390   74.2520 C   0  0  0  0  0
   -6.9740   49.9140   75.2860 C   0  0  0  0  0
   -7.7326   45.8577   76.6472 O   0  0  0  0  0
   -1.4204   54.1642   83.3986 H   0  0  0  0  0
   -0.3959   55.2197   84.2395 H   0  0  0  0  0
    0.7933   53.3900   84.6634 H   0  0  0  0  0
   -0.0147   53.8148   86.9264 H   0  0  0  0  0
   -0.6544   52.2320   86.7019 H   0  0  0  0  0
   -2.2995   54.2688   87.2648 H   0  0  0  0  0
   -2.8160   53.0103   86.1654 H   0  0  0  0  0
   -3.1101   54.7881   84.6751 H   0  0  0  0  0
   -2.0652   55.8311   85.5471 H   0  0  0  0  0
    0.3510   50.9226   85.5348 H   0  0  0  0  0
    0.0083   49.4170   83.2556 H   0  0  0  0  0
   -1.0003   47.8394   85.4220 H   0  0  0  0  0
    0.2999   48.9601   86.0585 H   0  0  0  0  0
    1.8964   48.0273   84.6359 H   0  0  0  0  0
    0.6541   47.1347   83.6985 H   0  0  0  0  0
    0.1243   45.8427   85.7517 H   0  0  0  0  0
    1.5079   46.6539   86.5615 H   0  0  0  0  0
    2.9375   45.7931   84.6616 H   0  0  0  0  0
    1.5327   44.7528   84.2192 H   0  0  0  0  0
    3.1041   43.6015   85.6112 H   0  0  0  0  0
    2.9458   44.7505   86.8077 H   0  0  0  0  0
    1.6476   43.7891   86.3988 H   0  0  0  0  0
   -2.5384   50.3943   85.4826 H   0  0  0  0  0
   -4.4307   48.4841   84.5373 H   0  0  0  0  0
   -4.7884   49.3166   86.7354 H   0  0  0  0  0
   -6.0980   50.0860   85.7618 H   0  0  0  0  0
   -5.0215   51.5675   87.1562 H   0  0  0  0  0
   -3.4872   51.3859   83.0147 H   0  0  0  0  0
   -6.0821   51.7115   81.7256 H   0  0  0  0  0
   -4.8329   53.3782   80.2615 H   0  0  0  0  0
   -3.4127   53.0612   81.3744 H   0  0  0  0  0
   -6.7635   52.9943   82.7858 H   0  0  0  0  0
   -3.4212   55.5066   81.8344 H   0  0  0  0  0
   -7.5963   54.7007   84.3675 H   0  0  0  0  0
   -4.2648   57.2227   83.3967 H   0  0  0  0  0
   -6.3546   56.8237   84.6653 H   0  0  0  0  0
   -3.5419   49.5912   81.2229 H   0  0  0  0  0
   -3.3098   49.4160   78.4414 H   0  0  0  0  0
   -3.2207   46.8280   79.0468 H   0  0  0  0  0
   -2.9564   47.6407   80.7247 H   0  0  0  0  0
   -1.0121   48.7149   79.7578 H   0  0  0  0  0
   -0.8279   46.6738   81.1181 H   0  0  0  0  0
   -1.0394   45.6725   79.6608 H   0  0  0  0  0
    0.4116   46.6893   79.8397 H   0  0  0  0  0
   -1.4704   46.8415   77.4238 H   0  0  0  0  0
   -1.5846   48.6184   77.3959 H   0  0  0  0  0
   -0.0162   47.8315   77.6996 H   0  0  0  0  0
   -4.3757   48.5586   76.7813 H   0  0  0  0  0
   -7.2446   48.2519   77.1980 H   0  0  0  0  0
   -4.7828   46.1126   76.3680 H   0  0  0  0  0
   -5.4172   48.5301   74.8247 H   0  0  0  0  0
   -6.8019   46.6469   74.1831 H   0  0  0  0  0
   -8.2707   47.5542   74.6195 H   0  0  0  0  0
   -7.2520   48.1061   73.2672 H   0  0  0  0  0
   -7.9837   49.8976   75.6964 H   0  0  0  0  0
   -6.3290   50.5133   75.9285 H   0  0  0  0  0
   -6.9941   50.3454   74.2852 H   0  0  0  0  0
  1  2  1  0  0  0
  1  7  1  0  0  0
  2  3  1  0  0  0
  2  5  1  0  0  0
  3  4  2  0  0  0
  3  8  1  0  0  0
  5  6  1  0  0  0
  6  7  1  0  0  0
  8  9  1  0  0  0
  9 10  1  0  0  0
  9 12  1  0  0  0
 10 11  2  0  0  0
 10 17  1  0  0  0
 12 13  1  0  0  0
 13 14  1  0  0  0
 14 15  1  0  0  0
 15 16  1  0  0  0
 17 18  1  0  0  0
 18 19  1  0  0  0
 18 21  1  0  0  0
 19 20  2  0  0  0
 19 23  1  0  0  0
 21 22  1  0  0  0
 23 24  1  0  0  0
 24 25  1  0  0  0
 24 27  1  0  0  0
 25 26  2  0  0  0
 25 34  1  0  0  0
 27 28  1  0  0  0
 28 29  4  0  0  0
 28 30  4  0  0  0
 29 31  4  0  0  0
 30 32  4  0  0  0
 31 33  4  0  0  0
 32 33  4  0  0  0
 34 35  1  0  0  0
 35 36  1  0  0  0
 35 38  1  0  0  0
 36 37  2  0  0  0
 36 42  1  0  0  0
 38 39  1  0  0  0
 39 40  1  0  0  0
 39 41  1  0  0  0
 42 43  1  0  0  0
 43 44  1  0  0  0
 43 46  1  0  0  0
 44 45  1  0  0  0
 46 47  1  0  0  0
 46 48  1  0  0  0
 44 49  2  0  0  0
  1 50  1  0  0  0
  1 51  1  0  0  0
  2 52  1  0  0  0
  5 53  1  0  0  0
  5 54  1  0  0  0
  6 55  1  0  0  0
  6 56  1  0  0  0
  7 57  1  0  0  0
  7 58  1  0  0  0
  8 59  1  0  0  0
  9 60  1  0  0  0
 12 61  1  0  0  0
 12 62  1  0  0  0
 13 63  1  0  0  0
 13 64  1  0  0  0
 14 65  1  0  0  0
 14 66  1  0  0  0
 15 67  1  0  0  0
 15 68  1  0  0  0
 16 69  1  0  0  0
 16 70  1  0  0  0
 16 71  1  0  0  0
 17 72  1  0  0  0
 18 73  1  0  0  0
 21 74  1  0  0  0
 21 75  1  0  0  0
 22 76  1  0  0  0
 23 77  1  0  0  0
 24 78  1  0  0  0
 27 79  1  0  0  0
 27 80  1  0  0  0
 29 81  1  0  0  0
 30 82  1  0  0  0
 31 83  1  0  0  0
 32 84  1  0  0  0
 33 85  1  0  0  0
 34 86  1  0  0  0
 35 87  1  0  0  0
 38 88  1  0  0  0
 38 89  1  0  0  0
 39 90  1  0  0  0
 40 91  1  0  0  0
 40 92  1  0  0  0
 40 93  1  0  0  0
 41 94  1  0  0  0
 41 95  1  0  0  0
 41 96  1  0  0  0
 42 97  1  0  0  0
 43 98  1  0  0  0
 45 99  1  0  0  0
 46100  1  0  0  0
 47101  1  0  0  0
 47102  1  0  0  0
 47103  1  0  0  0
 48104  1  0  0  0
 48105  1  0  0  0
 48106  1  0  0  0
M  END
$$$$
