4omj_ligand
  -I-interpret- 

 91 91  0  0  0  0  0  0  0  0999 V2000
   84.6210    1.6060    7.0600 C   0  0  0  0  0
   86.0360    1.0960    7.3460 C   0  0  0  0  0
   86.8640    0.8360    6.1050 C   0  0  0  0  0
   86.1370    0.2500    8.5240 O   0  0  0  0  0
   86.8290    1.5580    8.5010 C   0  0  0  0  0
   88.3380    1.4940    8.2410 C   0  0  0  0  0
   89.0230    2.3660    9.2580 C   0  0  0  0  0
   90.5330    2.1650    9.4100 C   0  0  0  0  0
   91.1500    0.7920    9.6540 C   0  0  0  0  0
   91.4160    3.3900    9.5060 C   0  0  0  0  0
   92.8800    3.0970    9.7770 C   0  0  0  0  0
   93.4830    4.3570   10.3730 C   0  0  0  0  0
   93.6510    5.3660    9.2660 C   0  0  0  0  0
   94.5770    5.0710    8.1010 C   0  0  0  0  0
   92.9190    6.6680    9.3270 C   0  0  0  0  0
   93.1360    7.6040    8.1390 C   0  0  0  0  0
   91.7600    8.1720    7.9060 C   0  0  0  0  0
   91.6660    9.0880    6.6890 C   0  0  0  0  0
   91.2850   10.5090    7.0530 C   0  0  0  0  0
   91.0220   10.9060    8.5080 C   0  0  0  0  0
   91.0240   11.5140    5.9660 C   0  0  0  0  0
   89.5110   11.7490    5.9870 C   0  0  0  0  0
   89.0010   12.1160    4.6080 C   0  0  0  0  0
   87.9190   13.1850    4.5220 C   0  0  0  0  0
   87.3380   13.8380    5.7670 C   0  0  0  0  0
   87.3270   13.5310    3.1630 C   0  0  0  0  0
   86.2080   12.5050    2.9130 C   0  0  0  0  0
   84.9940   12.8540    3.7800 C   0  0  0  0  0
   84.3230   11.7030    4.5310 C   0  0  0  0  0
   84.8670   10.2750    4.4360 C   0  0  0  0  0
   83.1040   11.9890    5.4060 C   0  0  0  0  0
   83.9731    1.3686    7.9038 H   0  0  0  0  0
   84.6480    2.6858    6.9136 H   0  0  0  0  0
   84.2380    1.1254    6.1597 H   0  0  0  0  0
   87.3681    1.7553    5.8069 H   0  0  0  0  0
   87.6057    0.0665    6.3193 H   0  0  0  0  0
   86.2121    0.4997    5.2987 H   0  0  0  0  0
   86.8434    2.4272    9.1585 H   0  0  0  0  0
   88.5615    1.8443    7.2333 H   0  0  0  0  0
   88.6915    0.4665    8.3270 H   0  0  0  0  0
   88.5829    2.1133   10.2226 H   0  0  0  0  0
   88.8842    3.3936    8.9219 H   0  0  0  0  0
   90.5178    1.8270    8.3738 H   0  0  0  0  0
   90.7563    0.3779   10.5822 H   0  0  0  0  0
   90.9002    0.1303    8.8247 H   0  0  0  0  0
   92.2330    0.8899    9.7289 H   0  0  0  0  0
   91.0498    3.9799   10.3462 H   0  0  0  0  0
   91.3667    3.8930    8.5403 H   0  0  0  0  0
   93.3947    2.8217    8.8565 H   0  0  0  0  0
   92.9841    2.2575   10.4644 H   0  0  0  0  0
   94.4487    4.1328   10.8262 H   0  0  0  0  0
   92.8286    4.7558   11.1482 H   0  0  0  0  0
   92.9202    4.8061    8.6824 H   0  0  0  0  0
   95.5899    4.9181    8.4734 H   0  0  0  0  0
   94.2376    4.1714    7.5875 H   0  0  0  0  0
   94.5664    5.9123    7.4080 H   0  0  0  0  0
   93.2930    7.1923   10.2064 H   0  0  0  0  0
   91.8564    6.4253    9.3396 H   0  0  0  0  0
   93.5378    7.0930    7.2641 H   0  0  0  0  0
   93.8844    8.3719    8.3350 H   0  0  0  0  0
   91.5036    8.7690    8.7812 H   0  0  0  0  0
   91.0881    7.3317    7.7315 H   0  0  0  0  0
   90.8917    8.6923    6.0318 H   0  0  0  0  0
   92.6472    9.1160    6.2152 H   0  0  0  0  0
   92.3593   10.6203    7.2003 H   0  0  0  0  0
   90.1969   10.3125    8.9017 H   0  0  0  0  0
   91.9182   10.7230    9.1009 H   0  0  0  0  0
   90.7644   11.9641    8.5537 H   0  0  0  0  0
   91.3599   11.1506    4.9948 H   0  0  0  0  0
   91.5758   12.4389    6.1340 H   0  0  0  0  0
   89.2934   12.5695    6.6708 H   0  0  0  0  0
   89.0185   10.8318    6.3100 H   0  0  0  0  0
   88.5491   11.2074    4.2101 H   0  0  0  0  0
   89.8603   12.5237    4.0755 H   0  0  0  0  0
   88.7698   13.8183    4.7732 H   0  0  0  0  0
   86.8808   13.0745    6.3965 H   0  0  0  0  0
   88.1343   14.3370    6.3192 H   0  0  0  0  0
   86.5840   14.5687    5.4743 H   0  0  0  0  0
   88.0843   13.4873    2.3802 H   0  0  0  0  0
   86.9385   14.5493    3.1497 H   0  0  0  0  0
   86.5645   11.5077    3.1708 H   0  0  0  0  0
   85.9224   12.5271    1.8613 H   0  0  0  0  0
   84.2403   13.2414    3.0945 H   0  0  0  0  0
   85.3622   13.5352    4.5471 H   0  0  0  0  0
   84.5257   11.3390    3.5238 H   0  0  0  0  0
   84.8443    9.9473    3.3967 H   0  0  0  0  0
   85.8932   10.2533    4.8028 H   0  0  0  0  0
   84.2494    9.6113    5.0411 H   0  0  0  0  0
   83.3774   12.6985    6.1870 H   0  0  0  0  0
   82.3086   12.4113    4.7919 H   0  0  0  0  0
   82.7592   11.0606    5.8612 H   0  0  0  0  0
  1  2  1  0  0  0
  2  3  1  0  0  0
  2  4  1  0  0  0
  2  5  1  0  0  0
  4  5  1  0  0  0
  5  6  1  0  0  0
  6  7  1  0  0  0
  7  8  1  0  0  0
  8  9  1  0  0  0
  8 10  1  0  0  0
 10 11  1  0  0  0
 11 12  1  0  0  0
 12 13  1  0  0  0
 13 14  1  0  0  0
 13 15  1  0  0  0
 15 16  1  0  0  0
 16 17  1  0  0  0
 17 18  1  0  0  0
 18 19  1  0  0  0
 19 20  1  0  0  0
 19 21  1  0  0  0
 21 22  1  0  0  0
 22 23  1  0  0  0
 23 24  1  0  0  0
 24 25  1  0  0  0
 24 26  1  0  0  0
 26 27  1  0  0  0
 27 28  1  0  0  0
 28 29  1  0  0  0
 29 30  1  0  0  0
 29 31  1  0  0  0
  1 32  1  0  0  0
  1 33  1  0  0  0
  1 34  1  0  0  0
  3 35  1  0  0  0
  3 36  1  0  0  0
  3 37  1  0  0  0
  5 38  1  0  0  0
  6 39  1  0  0  0
  6 40  1  0  0  0
  7 41  1  0  0  0
  7 42  1  0  0  0
  8 43  1  0  0  0
  9 44  1  0  0  0
  9 45  1  0  0  0
  9 46  1  0  0  0
 10 47  1  0  0  0
 10 48  1  0  0  0
 11 49  1  0  0  0
 11 50  1  0  0  0
 12 51  1  0  0  0
 12 52  1  0  0  0
 13 53  1  0  0  0
 14 54  1  0  0  0
 14 55  1  0  0  0
 14 56  1  0  0  0
 15 57  1  0  0  0
 15 58  1  0  0  0
 16 59  1  0  0  0
 16 60  1  0  0  0
 17 61  1  0  0  0
 17 62  1  0  0  0
 18 63  1  0  0  0
 18 64  1  0  0  0
 19 65  1  0  0  0
 20 66  1  0  0  0
 20 67  1  0  0  0
 20 68  1  0  0  0
 21 69  1  0  0  0
 21 70  1  0  0  0
 22 71  1  0  0  0
 22 72  1  0  0  0
 23 73  1  0  0  0
 23 74  1  0  0  0
 24 75  1  0  0  0
 25 76  1  0  0  0
 25 77  1  0  0  0
 25 78  1  0  0  0
 26 79  1  0  0  0
 26 80  1  0  0  0
 27 81  1  0  0  0
 27 82  1  0  0  0
 28 83  1  0  0  0
 28 84  1  0  0  0
 29 85  1  0  0  0
 30 86  1  0  0  0
 30 87  1  0  0  0
 30 88  1  0  0  0
 31 89  1  0  0  0
 31 90  1  0  0  0
 31 91  1  0  0  0
M  END
$$$$
