1wcc_ligand
  -I-interpret- 

 12 12  0  0  0  0  0  0  0  0999 V2000
   28.0900    7.6280   64.7210 N   0  0  0  0  0
   27.7870    6.2770   64.7620 C   0  0  0  0  0
   28.5100    5.3820   65.6350 C   0  0  0  0  0
   28.1010    4.0890   65.5550 N   0  0  0  0  0
   27.1280    3.5790   64.7730 C   0  0  0  0  0
   26.4680    4.4930   63.9600 C   0  0  0  0  0
   25.2350    3.8990   62.9430 Cl  0  0  0  0  0
   26.7980    5.8090   63.9530 N   0  0  0  0  0
   28.8321    8.0024   65.3122 H   0  0  0  0  0
   27.5711    8.2484   64.0996 H   0  0  0  0  0
   29.3100    5.7134   66.2970 H   0  0  0  0  0
   26.8754    2.5187   64.7781 H   0  0  0  0  0
  1  2  1  0  0  0
  2  3  4  0  0  0
  2  8  4  0  0  0
  3  4  4  0  0  0
  4  5  4  0  0  0
  5  6  4  0  0  0
  6  7  1  0  0  0
  6  8  4  0  0  0
  1  9  1  0  0  0
  1 10  1  0  0  0
  3 11  1  0  0  0
  5 12  1  0  0  0
M  END
$$$$
