2e5y_ligand
  -I-interpret- 

 47 49  0  0  0  0  0  0  0  0999 V2000
   24.3820   13.9950    9.7310 P   0  0  0  0  0
   23.8720   12.9180   10.6960 O   0  0  0  0  0
   23.2910   14.9340    9.3410 O   0  0  0  0  0
   25.1830   13.4800    8.5500 O   0  0  0  0  0
   26.3190   16.1500   10.1240 P   0  0  0  0  0
   26.1120   16.4690    8.6530 O   0  0  0  0  0
   27.6910   16.1670   10.6880 O   0  0  0  0  0
   25.5190   14.8130   10.5180 O   0  0  0  0  0
   25.8500   18.7340   11.3740 P   0  0  0  0  0
   27.0770   18.8040   12.2340 O   0  0  0  0  0
   25.8890   19.5080   10.0700 O   0  0  0  0  0
   25.4790   17.2150   11.0070 O   0  0  0  0  0
   24.4920   19.2300   12.1040 O   0  0  0  0  0
   23.3000   19.5510   11.3900 C   0  0  0  0  0
   22.1560   19.6980   12.3910 C   0  0  0  0  0
   21.7830   18.3960   12.8280 O   0  0  0  0  0
   22.6790   20.4250   13.6090 C   0  0  0  0  0
   21.4900   21.0480   14.0690 O   0  0  0  0  0
   22.8330   19.4110   14.7060 C   0  0  0  0  0
   22.6920   19.8860   16.0490 O   0  0  0  0  0
   22.0670   18.1990   14.2330 C   0  0  0  0  0
   22.6830   16.9140   14.4720 N   0  0  0  0  0
   23.7800   16.4020   13.6830 C   0  0  0  0  0
   24.0280   15.1110   14.2240 N   0  0  0  0  0
   23.2260   14.9010   15.3750 C   0  0  0  0  0
   23.0860   13.7380   16.2970 C   0  0  0  0  0
   23.6640   12.5210   15.9050 N   0  0  0  0  0
   22.0020   13.9280   17.2340 N   0  0  0  0  0
   21.1440   15.1030   17.3890 C   0  0  0  0  0
   21.2840   16.2200   16.4710 N   0  0  0  0  0
   22.3690   16.0590   15.5380 C   0  0  0  0  0
   24.5945   12.3302   10.9285 H   0  0  0  0  0
   25.8665   12.8835    8.8641 H   0  0  0  0  0
   25.1765   16.4167    8.4439 H   0  0  0  0  0
   25.0570   19.3919    9.6053 H   0  0  0  0  0
   23.0698   18.7588   10.6775 H   0  0  0  0  0
   23.4356   20.4836   10.8423 H   0  0  0  0  0
   21.3216   20.2292   11.9329 H   0  0  0  0  0
   23.5711   21.0166   13.4036 H   0  0  0  0  0
   21.6822   21.5571   14.8599 H   0  0  0  0  0
   23.8698   19.1121   14.8605 H   0  0  0  0  0
   22.8097   19.1548   16.6598 H   0  0  0  0  0
   21.1619   18.1381   14.8373 H   0  0  0  0  0
   24.2991   16.8937   12.8603 H   0  0  0  0  0
   24.1590   12.4546   15.0157 H   0  0  0  0  0
   23.5892   11.7028   16.5094 H   0  0  0  0  0
   20.4041   15.1399   18.1886 H   0  0  0  0  0
  1  2  1  0  0  0
  1  3  2  0  0  0
  1  4  1  0  0  0
  8  1  1  0  0  0
  5  6  1  0  0  0
  5  7  2  0  0  0
  5  8  1  0  0  0
 12  5  1  0  0  0
  9 10  2  0  0  0
  9 11  1  0  0  0
  9 12  1  0  0  0
  9 13  1  0  0  0
 13 14  1  0  0  0
 14 15  1  0  0  0
 15 16  1  0  0  0
 15 17  1  0  0  0
 16 21  1  0  0  0
 17 18  1  0  0  0
 17 19  1  0  0  0
 19 20  1  0  0  0
 19 21  1  0  0  0
 21 22  1  0  0  0
 22 23  4  0  0  0
 22 31  4  0  0  0
 23 24  4  0  0  0
 24 25  4  0  0  0
 25 26  4  0  0  0
 25 31  4  0  0  0
 26 27  1  0  0  0
 26 28  4  0  0  0
 28 29  4  0  0  0
 29 30  4  0  0  0
 30 31  4  0  0  0
  2 32  1  0  0  0
  4 33  1  0  0  0
  6 34  1  0  0  0
 11 35  1  0  0  0
 14 36  1  0  0  0
 14 37  1  0  0  0
 15 38  1  0  0  0
 17 39  1  0  0  0
 18 40  1  0  0  0
 19 41  1  0  0  0
 20 42  1  0  0  0
 21 43  1  0  0  0
 23 44  1  0  0  0
 27 45  1  0  0  0
 27 46  1  0  0  0
 29 47  1  0  0  0
M  END
$$$$
