2gj4_ligand
  -I-interpret- 

 34 37  0  0  0  0  0  0  0  0999 V2000
   14.6580  111.3140   28.9950 O   0  0  0  0  0
   13.5350  110.7970   29.6810 C   0  0  0  0  0
   13.8790  110.1760   31.0060 C   0  0  0  0  0
   13.0310  109.0830   31.2370 C   0  0  0  0  0
   13.1320  108.3250   32.4060 C   0  0  0  0  0
   14.1030  108.6840   33.3520 C   0  0  0  0  0
   14.9530  109.7860   33.1230 C   0  0  0  0  0
   14.8400  110.5460   31.9460 C   0  0  0  0  0
   12.0960  108.9020   30.0730 C   0  0  0  0  0
   12.9350  109.5710   28.9540 C   0  0  0  0  0
   12.1550  109.8610   27.7330 N   0  0  0  0  0
   12.6070  109.5790   26.4460 C   0  0  0  0  0
   13.7230  109.0730   26.2810 O   0  0  0  0  0
   11.7400  109.8510   25.2950 C   0  0  0  0  0
   10.5320  110.5690   25.1160 C   0  0  0  0  0
   10.1890  110.4310   23.7640 C   0  0  0  0  0
   11.1050  109.6740   23.1410 C   0  0  0  0  0
   10.8140  109.4220   21.5150 S   0  0  0  0  0
    9.3790  110.3860   21.6430 C   0  0  0  0  0
    9.1470  110.8750   22.9270 C   0  0  0  0  0
    8.4310  110.6170   20.2140 Cl  0  0  0  0  0
   12.0380  109.3150   24.0480 N   0  0  0  0  0
   15.0030  112.0714   29.4734 H   0  0  0  0  0
   12.8793  111.6644   29.7572 H   0  0  0  0  0
   12.4720  107.4749   32.5787 H   0  0  0  0  0
   14.2016  108.1069   34.2714 H   0  0  0  0  0
   15.7050  110.0509   33.8662 H   0  0  0  0  0
   15.4886  111.4046   31.7722 H   0  0  0  0  0
   11.1062  109.3353   30.2164 H   0  0  0  0  0
   11.8183  107.8672   29.8727 H   0  0  0  0  0
   13.7139  108.9334   28.5359 H   0  0  0  0  0
   11.2360  110.2909   27.8383 H   0  0  0  0  0
    9.9795  111.1191   25.8777 H   0  0  0  0  0
    8.3037  111.4949   23.2314 H   0  0  0  0  0
  1  2  1  0  0  0
  2  3  1  0  0  0
  2 10  1  0  0  0
  3  4  4  0  0  0
  3  8  4  0  0  0
  4  5  4  0  0  0
  4  9  1  0  0  0
  5  6  4  0  0  0
  6  7  4  0  0  0
  7  8  4  0  0  0
  9 10  1  0  0  0
 10 11  1  0  0  0
 11 12  1  0  0  0
 12 13  2  0  0  0
 12 14  1  0  0  0
 14 15  4  0  0  0
 14 22  4  0  0  0
 15 16  4  0  0  0
 16 17  4  0  0  0
 16 20  4  0  0  0
 17 18  4  0  0  0
 17 22  4  0  0  0
 18 19  4  0  0  0
 19 20  4  0  0  0
 19 21  1  0  0  0
  1 23  1  0  0  0
  2 24  1  0  0  0
  5 25  1  0  0  0
  6 26  1  0  0  0
  7 27  1  0  0  0
  8 28  1  0  0  0
  9 29  1  0  0  0
  9 30  1  0  0  0
 10 31  1  0  0  0
 11 32  1  0  0  0
 15 33  1  0  0  0
 20 34  1  0  0  0
M  END
$$$$
