3ozp_ligand
  -I-interpret- 

 44 45  0  0  0  0  0  0  0  0999 V2000
   38.3340  -56.1750   38.8300 C   0  0  0  0  0
   37.2970  -56.7690   39.7830 C   0  0  0  0  0
   37.4520  -56.6830   41.0000 O   0  0  0  0  0
   36.2550  -57.3850   39.1810 N   0  0  0  0  0
   35.1190  -57.9990   39.9070 C   0  0  0  0  0
   34.1790  -56.8470   40.3410 C   0  0  0  0  0
   33.2280  -56.5890   39.3060 O   0  0  0  0  0
   33.4700  -57.1930   41.6300 C   0  0  0  0  0
   32.5850  -56.1280   41.9950 O   0  0  0  0  0
   34.5520  -57.3820   42.6700 C   0  0  0  0  0
   33.9400  -57.6470   44.0420 C   0  0  0  0  0
   34.9760  -57.8040   45.0140 O   0  0  0  0  0
   35.3700  -58.5190   42.2990 O   0  0  0  0  0
   35.5690  -58.8370   40.9700 C   0  0  0  0  0
   36.2050  -59.9600   40.6350 N   0  0  0  0  0
   36.7030  -60.7930   41.7570 O   0  0  0  0  0
   36.3650  -62.1170   41.7330 C   0  0  0  0  0
   36.5270  -62.7930   40.7140 O   0  0  0  0  0
   35.8950  -62.6550   42.8740 N   0  0  0  0  0
   35.5520  -63.9420   42.9990 C   0  0  0  0  0
   36.5310  -64.9180   43.2090 C   0  0  0  0  0
   36.1600  -66.2550   43.3710 C   0  0  0  0  0
   34.8100  -66.6140   43.3370 C   0  0  0  0  0
   33.8290  -65.6410   43.1430 C   0  0  0  0  0
   34.2010  -64.3040   42.9820 C   0  0  0  0  0
   38.4169  -55.1028   39.0078 H   0  0  0  0  0
   39.2998  -56.6492   39.0046 H   0  0  0  0  0
   38.0223  -56.3509   37.8004 H   0  0  0  0  0
   36.2507  -57.4299   38.1620 H   0  0  0  0  0
   34.5530  -58.6784   39.2697 H   0  0  0  0  0
   34.7758  -55.9511   40.5124 H   0  0  0  0  0
   33.6916  -56.3709   38.4941 H   0  0  0  0  0
   32.8667  -58.0958   41.5347 H   0  0  0  0  0
   31.9095  -56.0292   41.3201 H   0  0  0  0  0
   35.1533  -56.4741   42.7182 H   0  0  0  0  0
   33.3447  -58.5591   44.0003 H   0  0  0  0  0
   33.3080  -56.8045   44.3228 H   0  0  0  0  0
   34.5836  -57.9703   45.8742 H   0  0  0  0  0
   35.7949  -62.0482   43.6877 H   0  0  0  0  0
   37.5832  -64.6357   43.2463 H   0  0  0  0  0
   36.9233  -67.0179   43.5239 H   0  0  0  0  0
   34.5223  -67.6578   43.4625 H   0  0  0  0  0
   32.7764  -65.9229   43.1172 H   0  0  0  0  0
   33.4358  -63.5403   42.8427 H   0  0  0  0  0
  1  2  1  0  0  0
  2  3  2  0  0  0
  2  4  1  0  0  0
  4  5  1  0  0  0
  5  6  1  0  0  0
  5 14  1  0  0  0
  6  7  1  0  0  0
  6  8  1  0  0  0
  8  9  1  0  0  0
  8 10  1  0  0  0
 10 11  1  0  0  0
 10 13  1  0  0  0
 11 12  1  0  0  0
 13 14  1  0  0  0
 14 15  2  0  0  0
 15 16  1  0  0  0
 16 17  1  0  0  0
 17 18  2  0  0  0
 17 19  1  0  0  0
 19 20  1  0  0  0
 20 21  4  0  0  0
 20 25  4  0  0  0
 21 22  4  0  0  0
 22 23  4  0  0  0
 23 24  4  0  0  0
 24 25  4  0  0  0
  1 26  1  0  0  0
  1 27  1  0  0  0
  1 28  1  0  0  0
  4 29  1  0  0  0
  5 30  1  0  0  0
  6 31  1  0  0  0
  7 32  1  0  0  0
  8 33  1  0  0  0
  9 34  1  0  0  0
 10 35  1  0  0  0
 11 36  1  0  0  0
 11 37  1  0  0  0
 12 38  1  0  0  0
 19 39  1  0  0  0
 21 40  1  0  0  0
 22 41  1  0  0  0
 23 42  1  0  0  0
 24 43  1  0  0  0
 25 44  1  0  0  0
M  END
$$$$
