5ofi_ligand
  -I-interpret- 

 71 75  0  0  0  0  0  0  0  0999 V2000
    9.7530    7.5070  -47.4910 C   0  0  0  0  0
   10.3280    8.5110  -43.7350 C   0  0  0  0  0
    5.0460   11.0990  -44.8230 C   0  0  0  0  0
    3.6450   10.8160  -44.7880 C   0  0  0  0  0
    2.8970   10.9050  -43.4060 C   0  0  0  0  0
    3.7480   10.4230  -47.1040 C   0  0  0  0  0
    1.4440   10.1540  -46.0490 C   0  0  0  0  0
    8.0350   11.9880  -47.1430 C   0  0  0  0  0
   10.4440   12.2060  -46.1010 C   0  0  0  0  0
   11.6710   11.5000  -46.7890 C   0  0  0  0  0
   11.8260    9.0920  -47.1310 C   0  0  0  0  0
   11.2300    7.8480  -47.9120 C   0  0  0  0  0
    9.6580    7.4020  -45.9400 C   0  0  0  0  0
   10.3090    8.6520  -45.2800 C   0  0  0  0  0
    5.8440   11.0320  -46.0010 C   0  0  0  0  0
    5.1120   10.6970  -47.1350 C   0  0  0  0  0
    2.9340   10.4520  -45.9710 C   0  0  0  0  0
    0.5410   11.3660  -45.9760 C   0  0  0  0  0
    0.9640   12.6760  -45.5330 C   0  0  0  0  0
    0.1620   13.8230  -45.4400 C   0  0  0  0  0
   -1.1820   13.7110  -45.8160 C   0  0  0  0  0
   -1.6590   12.4600  -46.2620 C   0  0  0  0  0
   -0.8060   11.2890  -46.3480 C   0  0  0  0  0
    0.8600    8.9660  -46.5220 C   0  0  0  0  0
   -0.5840    8.8850  -46.9150 C   0  0  0  0  0
   -1.1380    7.7070  -47.3630 C   0  0  0  0  0
    1.5030    7.6500  -46.6980 C   0  0  0  0  0
    0.9980    6.4890  -47.1290 C   0  0  0  0  0
   -0.4080    6.4340  -47.5060 C   0  0  0  0  0
    9.3950   12.3550  -47.1460 N   0  0  0  0  0
    7.3100   11.3770  -46.0520 N   0  0  0  0  0
   11.2330   10.3100  -47.5120 O   0  0  0  0  0
   11.2460    8.0550  -49.2790 O   0  0  0  0  0
    9.3810    6.3200  -48.0790 O   0  0  0  0  0
   10.3430    6.2350  -45.5490 O   0  0  0  0  0
   10.4740    9.8120  -43.1890 O   0  0  0  0  0
   11.6250    8.8710  -45.7830 O   0  0  0  0  0
    3.3780   11.6230  -42.5130 O   0  0  0  0  0
    1.8560   10.2270  -43.2980 O   0  0  0  0  0
   -1.9860   14.8260  -45.7320 O   0  0  0  0  0
   -1.3300   10.0720  -46.7980 O   0  0  0  0  0
   -0.8970    5.3500  -47.9130 O   0  0  0  0  0
    7.2660   12.3180  -48.5500 S   0  0  0  0  0
    9.0802    8.2971  -47.8243 H   0  0  0  0  0
   11.1529    7.8714  -43.4211 H   0  0  0  0  0
    9.4042    8.0518  -43.3831 H   0  0  0  0  0
    5.5336   11.3836  -43.8906 H   0  0  0  0  0
    3.2728   10.1623  -48.0497 H   0  0  0  0  0
   10.7309   13.1771  -45.6975 H   0  0  0  0  0
   10.0757   11.6147  -45.2626 H   0  0  0  0  0
   12.3875   11.2060  -46.0220 H   0  0  0  0  0
   12.1313   12.1937  -47.4926 H   0  0  0  0  0
   12.8857    9.1811  -47.3702 H   0  0  0  0  0
   11.8738    7.0098  -47.6453 H   0  0  0  0  0
    8.6162    7.3566  -45.6226 H   0  0  0  0  0
    9.7026    9.5206  -45.5368 H   0  0  0  0  0
    5.6306   10.6467  -48.0924 H   0  0  0  0  0
    2.0092   12.7826  -45.2427 H   0  0  0  0  0
    0.5713   14.7695  -45.0869 H   0  0  0  0  0
   -2.7058   12.3700  -46.5523 H   0  0  0  0  0
   -2.1943    7.7161  -47.6318 H   0  0  0  0  0
    2.5601    7.6188  -46.4342 H   0  0  0  0  0
    1.6264    5.6010  -47.1969 H   0  0  0  0  0
    9.7140   12.7966  -48.0083 H   0  0  0  0  0
    7.8545   11.1531  -45.2190 H   0  0  0  0  0
   10.8799    7.2862  -49.7222 H   0  0  0  0  0
    8.4800    6.1071  -47.8253 H   0  0  0  0  0
    9.9331    5.4713  -45.9617 H   0  0  0  0  0
   10.4890    9.7558  -42.2308 H   0  0  0  0  0
    1.6927    9.7602  -44.1208 H   0  0  0  0  0
   -2.8739   14.6013  -46.0198 H   0  0  0  0  0
 12  1  1  0  0  0
  1 13  1  0  0  0
  1 34  1  0  0  0
 14  2  1  0  0  0
  2 36  1  0  0  0
  3  4  4  0  0  0
 15  3  4  0  0  0
  4  5  1  0  0  0
  4 17  4  0  0  0
  5 38  2  0  0  0
  5 39  1  0  0  0
 16  6  4  0  0  0
  6 17  4  0  0  0
 17  7  1  0  0  0
  7 18  1  0  0  0
  7 24  2  0  0  0
  8 30  1  0  0  0
 31  8  1  0  0  0
  8 43  2  0  0  0
  9 10  1  0  0  0
 30  9  1  0  0  0
 10 32  1  0  0  0
 11 12  1  0  0  0
 32 11  1  0  0  0
 11 37  1  0  0  0
 12 33  1  0  0  0
 14 13  1  0  0  0
 13 35  1  0  0  0
 37 14  1  0  0  0
 15 16  4  0  0  0
 15 31  1  0  0  0
 18 19  4  0  0  0
 18 23  4  0  0  0
 19 20  4  0  0  0
 20 21  4  0  0  0
 21 22  4  0  0  0
 21 40  1  0  0  0
 22 23  4  0  0  0
 23 41  1  0  0  0
 24 25  1  0  0  0
 24 27  1  0  0  0
 25 26  2  0  0  0
 25 41  1  0  0  0
 26 29  1  0  0  0
 27 28  2  0  0  0
 28 29  1  0  0  0
 29 42  2  0  0  0
  1 44  1  0  0  0
  2 45  1  0  0  0
  2 46  1  0  0  0
  3 47  1  0  0  0
  6 48  1  0  0  0
  9 49  1  0  0  0
  9 50  1  0  0  0
 10 51  1  0  0  0
 10 52  1  0  0  0
 11 53  1  0  0  0
 12 54  1  0  0  0
 13 55  1  0  0  0
 14 56  1  0  0  0
 16 57  1  0  0  0
 19 58  1  0  0  0
 20 59  1  0  0  0
 22 60  1  0  0  0
 26 61  1  0  0  0
 27 62  1  0  0  0
 28 63  1  0  0  0
 30 64  1  0  0  0
 31 65  1  0  0  0
 33 66  1  0  0  0
 34 67  1  0  0  0
 35 68  1  0  0  0
 36 69  1  0  0  0
 39 70  1  0  0  0
 40 71  1  0  0  0
M  END
$$$$
