### 
### Created by X-TOOL on Mon Sep 10 21:12:57 2018
### 

@<TRIPOS>MOLECULE
2pj1_ligand
   57    58     1     0     0
SMALL
GAST_HUCK


@<TRIPOS>ATOM
      1 C27        37.1300   13.9940   68.2270 C.ar      1 578        -0.0578
      2 C28        38.2410   13.7790   69.0820 C.ar      1 578        -0.0685
      3 C29        39.5270   13.5420   68.5330 C.ar      1 578        -0.0687
      4 C30        39.7050   13.5180   67.1270 C.ar      1 578        -0.0685
      5 C31        38.5970   13.7300   66.2720 C.ar      1 578        -0.0578
      6 C26        37.3050   13.9720   66.8210 C.ar      1 578        -0.0130
      7 C23        36.2190   14.2060   65.9730 C.3       1 578         0.1113
      8 O22        36.4920   14.4890   64.5840 O.3       1 578        -0.2506
      9 C20        35.4280   14.4610   63.7320 C.2       1 578         0.3231
     10 O21        34.2600   14.3610   64.1550 O.2       1 578        -0.3774
     11 N19        35.7330   14.6320   62.4460 N.am      1 578        -0.2412
     12 C15        34.7380   14.5980   61.3710 C.3       1 578         0.1353
     13 C16        34.8130   15.8500   60.4730 C.3       1 578        -0.0051
     14 C18        34.3290   17.0910   61.2340 C.3       1 578        -0.0590
     15 C17        36.2030   16.0850   59.9080 C.3       1 578        -0.0590
     16 P14        34.9330   13.0080   60.4730 P.3       1 578         0.1518
     17 O24        34.0740   12.9980   59.2740 O.co2     1 578        -0.6186
     18 O25        34.7230   11.9800   61.5200 O.co2     1 578        -0.6186
     19 O13        36.4850   12.8930   60.0060 O.3       1 578        -0.2488
     20 C1         36.9680   11.5790   59.6210 C.3       1 578         0.1766
     21 C2         37.2800   10.7090   60.8490 C.2       1 578         0.0818
     22 O12        37.0430    9.4900   60.7430 O.co2     1 578        -0.5637
     23 O11        37.7540   11.2840   61.8520 O.co2     1 578        -0.5637
     24 C3         38.2310   11.6470   58.7620 C.ar      1 578        -0.0025
     25 C8         38.3740   10.7410   57.6840 C.ar      1 578        -0.0496
     26 C4         39.3080   12.4920   59.1280 C.ar      1 578        -0.0627
     27 C5         40.5320   12.4170   58.4250 C.ar      1 578        -0.0747
     28 C6         40.6810   11.5060   57.3510 C.ar      1 578        -0.0621
     29 C7         39.5980   10.6690   56.9800 C.ar      1 578        -0.0052
     30 C9         39.7540    9.6830   55.8280 C.3       1 578        -0.0032
     31 N10        40.3870    8.4490   56.3170 N.4       1 578         0.2307
     32 H1         36.1479   14.1750   68.6487 H         1 578         0.0557
     33 H2         38.1069   13.7959   70.1575 H         1 578         0.0599
     34 H3         40.3744   13.3791   69.1891 H         1 578         0.0559
     35 H4         40.6880   13.3376   66.7072 H         1 578         0.0599
     36 H5         38.7320   13.7081   65.1967 H         1 578         0.0557
     37 H6         35.6661   15.0657   66.3793 H         1 578         0.0776
     38 H7         35.5803   13.3110   66.0049 H         1 578         0.0776
     39 H8         36.6896   14.7916   62.2023 H         1 578         0.1887
     40 H9         33.7392   14.5981   61.8318 H         1 578         0.0788
     41 H10        34.1336   15.6877   59.6232 H         1 578         0.0334
     42 H11        34.3904   17.9711   60.5770 H         1 578         0.0234
     43 H12        34.9631   17.2490   62.1188 H         1 578         0.0234
     44 H13        33.2864   16.9428   61.5518 H         1 578         0.0234
     45 H14        36.5351   15.1872   59.3661 H         1 578         0.0234
     46 H15        36.9022   16.2964   60.7304 H         1 578         0.0234
     47 H16        36.1785   16.9415   59.2182 H         1 578         0.0234
     48 H17        36.1755   11.0896   59.0359 H         1 578         0.0991
     49 H18        37.5457   10.1028   57.3984 H         1 578         0.0500
     50 H19        39.1935   13.1946   59.9455 H         1 578         0.0503
     51 H20        41.3586   13.0583   58.7086 H         1 578         0.0582
     52 H21        41.6207   11.4486   56.8137 H         1 578         0.0503
     53 H22        40.3830   10.1315   55.0449 H         1 578         0.0978
     54 H23        38.7636    9.4463   55.4121 H         1 578         0.0978
     55 H24        40.4892    7.7986   55.5537 H         1 578         0.2008
     56 H25        39.8109    8.0373   57.0344 H         1 578         0.2008
     57 H26        41.2948    8.6652   56.6979 H         1 578         0.2008
@<TRIPOS>BOND
     1    1    2 ar 
     2    1    6 ar 
     3    2    3 ar 
     4    3    4 ar 
     5    4    5 ar 
     6    5    6 ar 
     7    6    7 1  
     8    7    8 1  
     9    8    9 1  
    10    9   10 2  
    11    9   11 am 
    12   11   12 1  
    13   12   13 1  
    14   12   16 1  
    15   13   14 1  
    16   13   15 1  
    17   16   17 ar 
    18   16   18 ar 
    19   16   19 1  
    20   19   20 1  
    21   20   21 1  
    22   20   24 1  
    23   21   22 ar 
    24   21   23 ar 
    25   24   25 ar 
    26   24   26 ar 
    27   25   29 ar 
    28   26   27 ar 
    29   27   28 ar 
    30   28   29 ar 
    31   29   30 1  
    32   30   31 1  
    33    1   32 1  
    34    2   33 1  
    35    3   34 1  
    36    4   35 1  
    37    5   36 1  
    38    7   37 1  
    39    7   38 1  
    40   11   39 1  
    41   12   40 1  
    42   13   41 1  
    43   14   42 1  
    44   14   43 1  
    45   14   44 1  
    46   15   45 1  
    47   15   46 1  
    48   15   47 1  
    49   20   48 1  
    50   25   49 1  
    51   26   50 1  
    52   27   51 1  
    53   28   52 1  
    54   30   53 1  
    55   30   54 1  
    56   31   55 1  
    57   31   56 1  
    58   31   57 1  
@<TRIPOS>SUBSTRUCTURE
     1 578         1

