2pj1_ligand
  -I-interpret- 

 59 60  0  0  0  0  0  0  0  0999 V2000
   37.1300   13.9940   68.2270 C   0  0  0  0  0
   38.2410   13.7790   69.0820 C   0  0  0  0  0
   39.5270   13.5420   68.5330 C   0  0  0  0  0
   39.7050   13.5180   67.1270 C   0  0  0  0  0
   38.5970   13.7300   66.2720 C   0  0  0  0  0
   37.3050   13.9720   66.8210 C   0  0  0  0  0
   36.2190   14.2060   65.9730 C   0  0  0  0  0
   36.4920   14.4890   64.5840 O   0  0  0  0  0
   35.4280   14.4610   63.7320 C   0  0  0  0  0
   34.2600   14.3610   64.1550 O   0  0  0  0  0
   35.7330   14.6320   62.4460 N   0  0  0  0  0
   34.7380   14.5980   61.3710 C   0  0  0  0  0
   34.8130   15.8500   60.4730 C   0  0  0  0  0
   34.3290   17.0910   61.2340 C   0  0  0  0  0
   36.2030   16.0850   59.9080 C   0  0  0  0  0
   34.9330   13.0080   60.4730 P   0  0  0  0  0
   34.0740   12.9980   59.2740 O   0  0  0  0  0
   34.7230   11.9800   61.5200 O   0  0  0  0  0
   36.4850   12.8930   60.0060 O   0  0  0  0  0
   36.9680   11.5790   59.6210 C   0  0  0  0  0
   37.2800   10.7090   60.8490 C   0  0  0  0  0
   37.0430    9.4900   60.7430 O   0  0  0  0  0
   37.7540   11.2840   61.8520 O   0  0  0  0  0
   38.2310   11.6470   58.7620 C   0  0  0  0  0
   38.3740   10.7410   57.6840 C   0  0  0  0  0
   39.3080   12.4920   59.1280 C   0  0  0  0  0
   40.5320   12.4170   58.4250 C   0  0  0  0  0
   40.6810   11.5060   57.3510 C   0  0  0  0  0
   39.5980   10.6690   56.9800 C   0  0  0  0  0
   39.7540    9.6830   55.8280 C   0  0  0  0  0
   40.3870    8.4490   56.3170 N   0  3  0  0  0
   36.1425   14.1760   68.6510 H   0  0  0  0  0
   38.1062   13.7960   70.1635 H   0  0  0  0  0
   40.3791   13.3782   69.1927 H   0  0  0  0  0
   40.6934   13.3366   66.7049 H   0  0  0  0  0
   38.7327   13.7080   65.1907 H   0  0  0  0  0
   35.7371   15.1032   66.3614 H   0  0  0  0  0
   35.6478   13.2776   65.9720 H   0  0  0  0  0
   36.7088   14.7948   62.1975 H   0  0  0  0  0
   33.7282   14.6355   61.7796 H   0  0  0  0  0
   34.1518   15.6676   59.6258 H   0  0  0  0  0
   33.2959   16.9429   61.5484 H   0  0  0  0  0
   34.9581   17.2465   62.1105 H   0  0  0  0  0
   34.3903   17.9623   60.5820 H   0  0  0  0  0
   36.9091   16.2189   60.7275 H   0  0  0  0  0
   36.5000   15.2250   59.3077 H   0  0  0  0  0
   36.1941   16.9791   59.2847 H   0  0  0  0  0
   35.3531   12.1160   62.2314 H   0  0  0  0  0
   36.1608   11.1346   59.0388 H   0  0  0  0  0
   37.8370   12.2232   61.6716 H   0  0  0  0  0
   37.5411   10.0993   57.3968 H   0  0  0  0  0
   39.1928   13.1985   59.9500 H   0  0  0  0  0
   41.3632   13.0619   58.7102 H   0  0  0  0  0
   41.6259   11.4483   56.8108 H   0  0  0  0  0
   40.3782   10.1276   55.0528 H   0  0  0  0  0
   38.7722    9.4480   55.4170 H   0  0  0  0  0
   40.4899    7.7916   55.5439 H   0  0  0  0  0
   41.3055    8.6690   56.7022 H   0  0  0  0  0
   39.8032    8.0334   57.0429 H   0  0  0  0  0
  1  2  4  0  0  0
  1  6  4  0  0  0
  2  3  4  0  0  0
  3  4  4  0  0  0
  4  5  4  0  0  0
  5  6  4  0  0  0
  6  7  1  0  0  0
  7  8  1  0  0  0
  8  9  1  0  0  0
  9 10  2  0  0  0
  9 11  1  0  0  0
 11 12  1  0  0  0
 12 13  1  0  0  0
 12 16  1  0  0  0
 13 14  1  0  0  0
 13 15  1  0  0  0
 16 17  2  0  0  0
 16 18  1  0  0  0
 16 19  1  0  0  0
 19 20  1  0  0  0
 20 21  1  0  0  0
 20 24  1  0  0  0
 21 22  2  0  0  0
 21 23  1  0  0  0
 24 25  4  0  0  0
 24 26  4  0  0  0
 25 29  4  0  0  0
 26 27  4  0  0  0
 27 28  4  0  0  0
 28 29  4  0  0  0
 29 30  1  0  0  0
 30 31  1  0  0  0
  1 32  1  0  0  0
  2 33  1  0  0  0
  3 34  1  0  0  0
  4 35  1  0  0  0
  5 36  1  0  0  0
  7 37  1  0  0  0
  7 38  1  0  0  0
 11 39  1  0  0  0
 12 40  1  0  0  0
 13 41  1  0  0  0
 14 42  1  0  0  0
 14 43  1  0  0  0
 14 44  1  0  0  0
 15 45  1  0  0  0
 15 46  1  0  0  0
 15 47  1  0  0  0
 18 48  1  0  0  0
 20 49  1  0  0  0
 23 50  1  0  0  0
 25 51  1  0  0  0
 26 52  1  0  0  0
 27 53  1  0  0  0
 28 54  1  0  0  0
 30 55  1  0  0  0
 30 56  1  0  0  0
 31 57  1  0  0  0
 31 58  1  0  0  0
 31 59  1  0  0  0
M  END
$$$$
