3r02_ligand
  -I-interpret- 

 39 41  0  0  0  0  0  0  0  0999 V2000
   20.7180  -38.6020    0.8390 C   0  0  0  0  0
   19.0230  -37.5340    2.0420 C   0  0  0  0  0
   20.0680  -38.4750    2.0560 C   0  0  0  0  0
   18.7520  -36.7700    0.9030 C   0  0  0  0  0
   20.4420  -37.9490   -0.3510 C   0  0  0  0  0
   19.4000  -36.9570   -0.3280 C   0  0  0  0  0
   17.7960  -35.8540    1.0860 O   0  0  0  0  0
   18.1690  -37.0070    3.0720 C   0  0  0  0  0
   17.4610  -36.0250    2.3810 C   0  0  0  0  0
   16.3790  -35.2020    2.8340 C   0  0  0  0  0
   15.8860  -34.3610    2.0210 O   0  0  0  0  0
   15.8820  -35.4370    4.0440 O   0  0  0  0  0
   22.1270  -39.9960    0.6740 Br  0  0  0  0  0
   19.7050  -36.5090   -2.8550 C   0  0  0  0  0
   19.2250  -37.9060   -3.4430 C   0  0  0  0  0
   17.6750  -37.9430   -3.6260 C   0  0  0  0  0
   17.1310  -36.8660   -4.6520 C   0  0  0  0  0
   17.6660  -35.4520   -4.1710 C   0  0  0  0  0
   19.1850  -35.4500   -3.8400 C   0  0  0  0  0
   15.6810  -36.9290   -4.9170 N   0  3  0  0  0
   19.1320  -36.2350   -1.4740 N   0  0  0  0  0
   20.3409  -39.0502    2.9408 H   0  0  0  0  0
   20.9903  -38.1767   -1.2651 H   0  0  0  0  0
   18.0947  -37.2991    4.1195 H   0  0  0  0  0
   16.4115  -36.1078    4.4814 H   0  0  0  0  0
   20.7895  -36.4990   -2.7460 H   0  0  0  0  0
   19.5105  -38.6926   -2.7445 H   0  0  0  0  0
   19.6926  -38.0513   -4.4168 H   0  0  0  0  0
   17.2265  -37.7262   -2.6565 H   0  0  0  0  0
   17.4158  -38.9268   -4.0172 H   0  0  0  0  0
   17.5205  -37.0834   -5.6465 H   0  0  0  0  0
   17.1296  -35.1894   -3.2592 H   0  0  0  0  0
   17.5050  -34.7445   -4.9844 H   0  0  0  0  0
   19.6887  -35.6583   -4.7839 H   0  0  0  0  0
   19.3775  -34.4892   -3.3626 H   0  0  0  0  0
   15.4268  -36.2015   -5.5852 H   0  0  0  0  0
   15.4465  -37.8437   -5.3028 H   0  0  0  0  0
   15.1708  -36.7853   -4.0456 H   0  0  0  0  0
   18.4914  -35.4462   -1.3859 H   0  0  0  0  0
  1  3  4  0  0  0
  5  1  4  0  0  0
  1 13  1  0  0  0
  2  3  4  0  0  0
  4  2  4  0  0  0
  2  8  4  0  0  0
  6  4  4  0  0  0
  4  7  4  0  0  0
  6  5  4  0  0  0
 21  6  1  0  0  0
  7  9  4  0  0  0
  9  8  4  0  0  0
  9 10  1  0  0  0
 10 11  2  0  0  0
 10 12  1  0  0  0
 14 15  1  0  0  0
 14 19  1  0  0  0
 14 21  1  0  0  0
 15 16  1  0  0  0
 16 17  1  0  0  0
 17 18  1  0  0  0
 17 20  1  0  0  0
 18 19  1  0  0  0
  3 22  1  0  0  0
  5 23  1  0  0  0
  8 24  1  0  0  0
 12 25  1  0  0  0
 14 26  1  0  0  0
 15 27  1  0  0  0
 15 28  1  0  0  0
 16 29  1  0  0  0
 16 30  1  0  0  0
 17 31  1  0  0  0
 18 32  1  0  0  0
 18 33  1  0  0  0
 19 34  1  0  0  0
 19 35  1  0  0  0
 20 36  1  0  0  0
 20 37  1  0  0  0
 20 38  1  0  0  0
 21 39  1  0  0  0
M  END
$$$$
