### 
### Created by X-TOOL on Mon Sep 10 21:12:47 2018
### 

@<TRIPOS>MOLECULE
1czq_ligand
  246   251     1     0     0
SMALL
GAST_HUCK


@<TRIPOS>ATOM
      1 C          11.6740   -0.2850   28.7850 C.2       1 ACE         0.1749
      2 O          11.9050    0.6770   28.0160 O.2       1 ACE        -0.3972
      3 CH3        10.2750   -0.7940   28.9420 C.3       1 ACE         0.0258
      4 N          12.6310   -0.8990   29.4870 N.am      1 GLY        -0.2685
      5 CA         13.9970   -0.4230   29.3560 C.3       1 GLY         0.1200
      6 C          15.2000   -1.0510   30.0440 C.2       1 GLY         0.2007
      7 O          15.1330   -2.0440   30.7850 O.2       1 GLY        -0.3947
      8 N          16.3320   -0.4240   29.7520 N.am      1 DAL        -0.2642
      9 CA         17.6390   -0.7970   30.2790 C.3       1 DAL         0.1282
     10 CB         18.6880    0.1960   29.7620 C.3       1 DAL        -0.0244
     11 C          18.0260   -2.2170   29.8710 C.2       1 DAL         0.2036
     12 O          18.6110   -2.9820   30.6470 O.2       1 DAL        -0.3944
     13 N          17.6990   -2.5770   28.6400 N.am      1 DCY        -0.2629
     14 CA         18.0610   -3.8920   28.1590 C.3       1 DCY         0.1406
     15 C          17.1040   -4.9870   28.6180 C.2       1 DCY         0.2047
     16 O          17.5310   -6.0200   29.1110 O.2       1 DCY        -0.3944
     17 CB         18.1280   -3.8760   26.6380 C.3       1 DCY         0.0443
     18 SG         19.5020   -2.9910   25.8400 S.3       1 DCY        -0.0882
     19 N          15.8130   -4.7360   28.4740 N.am      1 DGL        -0.2636
     20 CA         14.7820   -5.7020   28.8340 C.3       1 DGL         0.1325
     21 C          14.8750   -6.1800   30.2760 C.2       1 DGL         0.2040
     22 O          14.8320   -7.3810   30.5530 O.2       1 DGL        -0.3944
     23 CB         13.3970   -5.0900   28.5740 C.3       1 DGL        -0.0008
     24 CG         13.0600   -4.8440   27.0930 C.3       1 DGL         0.0044
     25 CD         13.6630   -3.5680   26.5000 C.2       1 DGL         0.0350
     26 OE1        14.4220   -2.8590   27.1820 O.co2     1 DGL        -0.5690
     27 OE2        13.3670   -3.2640   25.3230 O.co2     1 DGL        -0.5690
     28 N          15.0220   -5.2370   31.1960 N.am      1 DAL        -0.2640
     29 CA         15.0980   -5.5660   32.6110 C.3       1 DAL         0.1282
     30 CB         14.9840   -4.2960   33.4060 C.3       1 DAL        -0.0244
     31 C          16.3620   -6.3400   33.0080 C.2       1 DAL         0.2036
     32 O          16.3870   -7.0440   34.0270 O.2       1 DAL        -0.3944
     33 N          17.4180   -6.2020   32.2160 N.am      1 DAR        -0.2637
     34 CA         18.6730   -6.8930   32.4890 C.3       1 DAR         0.1311
     35 CB         18.4800   -8.4080   32.3690 C.3       1 DAR        -0.0092
     36 CG         18.1690   -8.8470   30.9690 C.3       1 DAR        -0.0156
     37 CD         19.3970   -8.7620   30.0700 C.3       1 DAR         0.0627
     38 NE         19.7150   -7.4080   29.6070 N.pl3     1 DAR        -0.2723
     39 CZ         20.1210   -7.1340   28.3700 C.cat     1 DAR         0.2882
     40 NH1        20.2480   -8.1180   27.4810 N.pl3     1 DAR        -0.2849
     41 NH2        20.4090   -5.8910   28.0150 N.pl3     1 DAR        -0.2849
     42 C          19.3130   -6.5820   33.8330 C.2       1 DAR         0.2040
     43 O          19.9940   -7.4230   34.4210 O.2       1 DAR        -0.3944
     44 N          19.1000   -5.3790   34.3420 N.am      1 DHI        -0.2619
     45 CA         19.7310   -5.0180   35.6240 C.3       1 DHI         0.1421
     46 C          21.1560   -4.6360   35.3290 C.2       1 DHI         0.2060
     47 O          21.4120   -3.7430   34.5360 O.2       1 DHI        -0.3942
     48 CB         18.9700   -3.8880   36.2840 C.3       1 DHI         0.0427
     49 CG         17.6550   -4.3210   36.8540 C.2       1 DHI         0.0561
     50 ND1        16.6500   -3.4450   37.1870 N.pl3     1 DHI        -0.2623
     51 CD2        17.1780   -5.5670   37.1040 C.2       1 DHI        -0.0276
     52 CE1        15.5950   -4.1340   37.6080 C.2       1 DHI         0.0875
     53 NE2        15.8940   -5.4190   37.5620 N.2       1 DHI        -0.3437
     54 N          22.0910   -5.2980   36.0030 N.am      1 DAR        -0.2636
     55 CA         23.4940   -5.1220   35.7780 C.3       1 DAR         0.1311
     56 CB         24.2840   -5.9940   36.7550 C.3       1 DAR        -0.0092
     57 CG         24.1750   -7.4280   36.4590 C.3       1 DAR        -0.0156
     58 CD         24.7430   -8.2070   37.6310 C.3       1 DAR         0.0627
     59 NE         24.5810   -9.6030   37.3250 N.pl3     1 DAR        -0.2723
     60 CZ         25.2580  -10.1890   36.3520 C.cat     1 DAR         0.2882
     61 NH1        26.1390   -9.4850   35.6580 N.pl3     1 DAR        -0.2849
     62 NH2        24.9870  -11.4320   36.0270 N.pl3     1 DAR        -0.2849
     63 C          23.9850   -3.7110   35.8730 C.2       1 DAR         0.2039
     64 O          24.8560   -3.3610   35.1240 O.2       1 DAR        -0.3944
     65 N          23.4070   -2.9340   36.7830 N.am      1 DGL        -0.2636
     66 CA         23.9000   -1.5780   36.9510 C.3       1 DGL         0.1325
     67 C          23.6010   -0.7170   35.7470 C.2       1 DGL         0.2041
     68 O          24.1420    0.3830   35.6550 O.2       1 DGL        -0.3944
     69 CB         23.3580   -0.9540   38.2610 C.3       1 DGL        -0.0008
     70 CG         21.8760   -0.6520   38.3230 C.3       1 DGL         0.0044
     71 CD         20.9960   -1.8160   38.7860 C.2       1 DGL         0.0350
     72 OE1        21.4070   -2.9820   38.5840 O.co2     1 DGL        -0.5690
     73 OE2        19.9330   -1.4980   39.3100 O.co2     1 DGL        -0.5690
     74 N          22.7470   -1.1860   34.8440 N.am      1 DTR        -0.2627
     75 CA         22.4620   -0.4350   33.6110 C.3       1 DTR         0.1352
     76 CB         20.9600   -0.1870   33.4200 C.3       1 DTR         0.0042
     77 CG         20.3540    0.7910   34.4100 C.2       1 DTR        -0.0418
     78 CD1        19.5040    0.5120   35.4490 C.2       1 DTR         0.0167
     79 NE1        19.1220    1.6760   36.0730 N.pl3     1 DTR        -0.2890
     80 CE2        19.7340    2.7300   35.4240 C.ar      1 DTR         0.0603
     81 CZ2        19.6500    4.1070   35.6660 C.ar      1 DTR        -0.0443
     82 CH2        20.3820    4.9350   34.8500 C.ar      1 DTR        -0.0768
     83 CZ3        21.1740    4.4440   33.8050 C.ar      1 DTR        -0.0792
     84 CE3        21.2370    3.0750   33.5630 C.ar      1 DTR        -0.0747
     85 CD2        20.5040    2.2000   34.3840 C.ar      1 DTR        -0.0214
     86 C          23.0000   -1.1400   32.3760 C.2       1 DTR         0.2052
     87 O          22.7900   -0.6820   31.2440 O.2       1 DTR        -0.3942
     88 N          23.7440   -2.2270   32.5720 N.am      1 DAL        -0.2639
     89 CA         24.2530   -2.9400   31.4070 C.3       1 DAL         0.1282
     90 CB         25.0340   -4.1680   31.8670 C.3       1 DAL        -0.0244
     91 C          25.1260   -2.0740   30.5010 C.2       1 DAL         0.2037
     92 O          25.0780   -2.2210   29.2670 O.2       1 DAL        -0.3944
     93 N          25.8840   -1.1420   31.0840 N.am      1 DTR        -0.2627
     94 CA         26.7590   -0.2750   30.3170 C.3       1 DTR         0.1352
     95 CB         27.5860    0.6450   31.2390 C.3       1 DTR         0.0042
     96 CG         26.7250    1.5880   32.0590 C.2       1 DTR        -0.0418
     97 CD1        26.1770    1.3350   33.2560 C.2       1 DTR         0.0167
     98 NE1        25.4020    2.4000   33.6680 N.pl3     1 DTR        -0.2890
     99 CE2        25.4590    3.3710   32.7060 C.ar      1 DTR         0.0603
    100 CZ2        24.8420    4.6280   32.6640 C.ar      1 DTR        -0.0443
    101 CH2        25.0900    5.4060   31.5500 C.ar      1 DTR        -0.0768
    102 CZ3        25.9040    4.9770   30.5250 C.ar      1 DTR        -0.0792
    103 CE3        26.5190    3.7140   30.5610 C.ar      1 DTR        -0.0747
    104 CD2        26.2850    2.9000   31.6760 C.ar      1 DTR        -0.0214
    105 C          25.9130    0.5770   29.3460 C.2       1 DTR         0.2052
    106 O          26.3470    0.8700   28.2310 O.2       1 DTR        -0.3942
    107 N          24.7400    1.0200   29.7900 N.am      1 DLE        -0.2636
    108 CA         23.9150    1.8660   28.9260 C.3       1 DLE         0.1312
    109 CB         22.8830    2.6470   29.7560 C.3       1 DLE        -0.0101
    110 CG         21.8570    3.4890   28.9710 C.3       1 DLE        -0.0425
    111 CD1        22.5590    4.5850   28.2040 C.3       1 DLE        -0.0625
    112 CD2        20.8860    4.1050   29.9380 C.3       1 DLE        -0.0625
    113 C          23.2650    1.0110   27.8470 C.2       1 DLE         0.2039
    114 O          23.2240    1.4290   26.7020 O.2       1 DLE        -0.3944
    115 N          22.7750   -0.1800   28.1990 N.am      1 DCY        -0.2629
    116 CA         22.1900   -1.0460   27.1960 C.3       1 DCY         0.1406
    117 C          23.2720   -1.3290   26.1240 C.2       1 DCY         0.2047
    118 O          22.9630   -1.3180   24.9160 O.2       1 DCY        -0.3944
    119 CB         21.6750   -2.3190   27.8740 C.3       1 DCY         0.0443
    120 SG         21.2160   -3.6690   26.7320 S.3       1 DCY        -0.0882
    121 N          24.5140   -1.5680   26.5330 N.am      1 DAL        -0.2640
    122 CA         25.6270   -1.8570   25.6140 C.3       1 DAL         0.1282
    123 CB         26.8680   -2.3020   26.4010 C.3       1 DAL        -0.0244
    124 C          25.9870   -0.6720   24.7170 C.2       1 DAL         0.2031
    125 O          26.5110   -0.8440   23.6140 O.2       1 DAL        -0.3944
    126 N          25.7230    0.5440   25.1920 N.am      1 DAL        -0.2698
    127 CA         26.0170    1.7430   24.4000 C.3       1 DAL         0.0916
    128 CB         26.0060    2.9850   25.3140 C.3       1 DAL        -0.0300
    129 C          24.9950    1.9320   23.2780 C.2       1 DAL         0.0598
    130 O          25.3550    2.5700   22.2560 O.co2     1 DAL        -0.5666
    131 OXT        23.8430    1.4600   23.4100 O.co2     1 DAL        -0.5666
    132 H1         10.2681   -1.6343   29.6518 H         1 ACE         0.0467
    133 H2          9.8972   -1.1348   27.9668 H         1 ACE         0.0467
    134 H3          9.6318    0.0130   29.3228 H         1 ACE         0.0467
    135 H4         12.4120   -1.6676   30.0880 H         1 GLY         0.1880
    136 H5         13.9783    0.6243   29.6917 H         1 GLY         0.0763
    137 H6         14.2204   -0.4591   28.2795 H         1 GLY         0.0763
    138 H7         16.2857    0.3567   29.1287 H         1 DAL         0.1883
    139 H8         17.6049   -0.7451   31.3772 H         1 DAL         0.0797
    140 H9         19.6779   -0.0785   30.1553 H         1 DAL         0.0277
    141 H10        18.4288    1.2110   30.0974 H         1 DAL         0.0277
    142 H11        18.7095    0.1674   28.6626 H         1 DAL         0.0277
    143 H12        17.2042   -1.9430   28.0456 H         1 DCY         0.1884
    144 H13        19.0602   -4.1316   28.5516 H         1 DCY         0.0808
    145 H14        17.1945   -3.4202   26.2764 H         1 DCY         0.0432
    146 H15        18.1783   -4.9228   26.3040 H         1 DCY         0.0432
    147 H16        15.5337   -3.8499   28.1041 H         1 DGL         0.1883
    148 H17        14.9029   -6.5803   28.1828 H         1 DGL         0.0801
    149 H18        13.3466   -4.1251   29.0998 H         1 DGL         0.0330
    150 H19        12.6397   -5.7727   28.9869 H         1 DGL         0.0330
    151 H20        11.9660   -4.7820   26.9969 H         1 DGL         0.0433
    152 H21        13.4313   -5.7003   26.5109 H         1 DGL         0.0433
    153 H22        15.0819   -4.2802   30.9116 H         1 DAL         0.1883
    154 H23        14.2351   -6.2043   32.8519 H         1 DAL         0.0797
    155 H24        15.0399   -4.5292   34.4795 H         1 DAL         0.0277
    156 H25        14.0217   -3.8107   33.1859 H         1 DAL         0.0277
    157 H26        15.8070   -3.6184   33.1347 H         1 DAL         0.0277
    158 H27        17.3516   -5.6100   31.4128 H         1 DAR         0.1883
    159 H28        19.3850   -6.5769   31.7125 H         1 DAR         0.0800
    160 H29        17.6492   -8.7091   33.0241 H         1 DAR         0.0313
    161 H30        19.4042   -8.9067   32.6962 H         1 DAR         0.0313
    162 H31        17.3802   -8.1995   30.5584 H         1 DAR         0.0301
    163 H32        17.8142   -9.8879   30.9915 H         1 DAR         0.0301
    164 H33        19.2222   -9.3952   29.1877 H         1 DAR         0.0689
    165 H34        20.2617   -9.1457   30.6313 H         1 DAR         0.0689
    166 H35        19.6192   -6.6287   30.2736 H         1 DAR         0.2642
    167 H36        20.5621   -7.9088   26.5226 H         1 DAR         0.2615
    168 H37        20.0321   -9.0880   27.7520 H         1 DAR         0.2615
    169 H38        20.3131   -5.1252   28.6971 H         1 DAR         0.2615
    170 H39        20.7289   -5.6901   27.0568 H         1 DAR         0.2615
    171 H40        18.5177   -4.7226   33.8623 H         1 DHI         0.1885
    172 H41        19.7212   -5.8882   36.2968 H         1 DHI         0.0824
    173 H42        18.7857   -3.1048   35.5340 H         1 DHI         0.0491
    174 H43        19.5867   -3.4787   37.0977 H         1 DHI         0.0491
    175 H44        16.7057   -2.4186   37.1208 H         1 DHI         0.2386
    176 H45        17.7131   -6.5055   36.9669 H         1 DHI         0.0324
    177 H46        14.6462   -3.7112   37.9350 H         1 DHI         0.1149
    178 H47        21.8001   -5.9514   36.7019 H         1 DAR         0.1883
    179 H48        23.7036   -5.4708   34.7560 H         1 DAR         0.0800
    180 H49        23.9030   -5.8157   37.7714 H         1 DAR         0.0313
    181 H50        25.3442   -5.7051   36.7048 H         1 DAR         0.0313
    182 H51        24.7437   -7.6628   35.5471 H         1 DAR         0.0301
    183 H52        23.1186   -7.6971   36.3119 H         1 DAR         0.0301
    184 H53        24.1964   -7.9561   38.5520 H         1 DAR         0.0689
    185 H54        25.8092   -7.9699   37.7612 H         1 DAR         0.0689
    186 H55        23.9181  -10.1627   37.8801 H         1 DAR         0.2642
    187 H56        26.6716   -9.9319   34.8981 H         1 DAR         0.2615
    188 H57        26.2917   -8.4904   35.8781 H         1 DAR         0.2615
    189 H58        24.2998  -11.9694   36.5746 H         1 DAR         0.2615
    190 H59        25.4617  -11.8697   35.2245 H         1 DAR         0.2615
    191 H60        22.6496   -3.2752   37.3397 H         1 DGL         0.1883
    192 H61        24.9945   -1.6358   37.0440 H         1 DGL         0.0801
    193 H62        23.8953   -0.0081   38.4238 H         1 DGL         0.0330
    194 H63        23.5878   -1.6519   39.0796 H         1 DGL         0.0330
    195 H64        21.5462   -0.3546   37.3166 H         1 DGL         0.0433
    196 H65        21.7276    0.1859   39.0201 H         1 DGL         0.0433
    197 H66        22.2914   -2.0616   35.0044 H         1 DTR         0.1884
    198 H67        22.9628    0.5408   33.6946 H         1 DTR         0.0815
    199 H68        20.4368   -1.1491   33.5231 H         1 DTR         0.0397
    200 H69        20.8031    0.2089   32.4058 H         1 DTR         0.0397
    201 H70        19.1788   -0.4863   35.7379 H         1 DTR         0.0795
    202 H71        18.4899    1.7490   36.8829 H         1 DTR         0.2216
    203 H72        19.0328    4.5031   36.4643 H         1 DTR         0.0541
    204 H73        20.3452    6.0048   35.0210 H         1 DTR         0.0530
    205 H74        21.7383    5.1305   33.1842 H         1 DTR         0.0510
    206 H75        21.8434    2.6882   32.7520 H         1 DTR         0.0540
    207 H76        23.9488   -2.5467   33.4971 H         1 DAL         0.1883
    208 H77        23.3894   -3.2776   30.8153 H         1 DAL         0.0797
    209 H78        25.4191   -4.7076   30.9892 H         1 DAL         0.0277
    210 H79        24.3704   -4.8302   32.4424 H         1 DAL         0.0277
    211 H80        25.8754   -3.8512   32.5008 H         1 DAL         0.0277
    212 H81        25.8476   -1.0385   32.0780 H         1 DTR         0.1884
    213 H82        27.4511   -0.9001   29.7337 H         1 DTR         0.0815
    214 H83        28.2680    1.2436   30.6173 H         1 DTR         0.0397
    215 H84        28.1721    0.0176   31.9266 H         1 DTR         0.0397
    216 H85        26.3230    0.4173   33.8239 H         1 DTR         0.0795
    217 H86        24.8714    2.4545   34.5491 H         1 DTR         0.2216
    218 H87        24.2009    4.9734   33.4670 H         1 DTR         0.0541
    219 H88        24.6296    6.3849   31.4802 H         1 DTR         0.0530
    220 H89        26.0735    5.6265   29.6738 H         1 DTR         0.0510
    221 H90        27.1556    3.3799   29.7497 H         1 DTR         0.0540
    222 H91        24.4241    0.7769   30.7071 H         1 DLE         0.1883
    223 H92        24.5702    2.5977   28.4307 H         1 DLE         0.0800
    224 H93        23.4357    3.3286   30.4193 H         1 DLE         0.0315
    225 H94        22.3231    1.9194   30.3620 H         1 DLE         0.0315
    226 H95        21.3149    2.8409   28.2667 H         1 DLE         0.0298
    227 H96        21.8167    5.1775   27.6491 H         1 DLE         0.0232
    228 H97        23.2738    4.1381   27.4974 H         1 DLE         0.0232
    229 H98        23.0975    5.2375   28.9070 H         1 DLE         0.0232
    230 H99        20.3726    3.3099   30.4986 H         1 DLE         0.0232
    231 H100       20.1450    4.7004   29.3844 H         1 DLE         0.0232
    232 H101       21.4294    4.7556   30.6390 H         1 DLE         0.0232
    233 H102       22.8118   -0.4739   29.1541 H         1 DCY         0.1884
    234 H103       21.3411   -0.5357   26.7174 H         1 DCY         0.0808
    235 H104       20.7859   -2.0551   28.4654 H         1 DCY         0.0432
    236 H105       22.4636   -2.6920   28.5440 H         1 DCY         0.0432
    237 H106       24.7018   -1.5506   27.5151 H         1 DAL         0.1883
    238 H107       25.3144   -2.6872   24.9636 H         1 DAL         0.0797
    239 H108       27.6896   -2.5139   25.7009 H         1 DAL         0.0277
    240 H109       26.6320   -3.2102   26.9750 H         1 DAL         0.0277
    241 H110       27.1715   -1.5008   27.0908 H         1 DAL         0.0277
    242 H111       25.3186    0.6409   26.1015 H         1 DAL         0.1875
    243 H112       27.0163    1.6340   23.9534 H         1 DAL         0.0723
    244 H113       26.2268    3.8818   24.7166 H         1 DAL         0.0270
    245 H114       26.7687    2.8699   26.0982 H         1 DAL         0.0270
    246 H115       25.0146    3.0892   25.7791 H         1 DAL         0.0270
@<TRIPOS>BOND
     1    1    2 2  
     2    1    3 1  
     3    1    4 am 
     4    4    5 1  
     5    5    6 1  
     6    6    7 2  
     7    6    8 am 
     8    8    9 1  
     9    9   10 1  
    10    9   11 1  
    11   11   12 2  
    12   11   13 am 
    13   13   14 1  
    14   14   15 1  
    15   14   17 1  
    16   15   16 2  
    17   15   19 am 
    18   17   18 1  
    19   18  120 1  
    20   19   20 1  
    21   20   21 1  
    22   20   23 1  
    23   21   22 2  
    24   21   28 am 
    25   23   24 1  
    26   24   25 1  
    27   25   26 ar 
    28   25   27 ar 
    29   28   29 1  
    30   29   30 1  
    31   29   31 1  
    32   31   32 2  
    33   31   33 am 
    34   33   34 1  
    35   34   35 1  
    36   34   42 1  
    37   35   36 1  
    38   36   37 1  
    39   37   38 1  
    40   38   39 ar 
    41   39   40 ar 
    42   39   41 ar 
    43   42   43 2  
    44   42   44 am 
    45   44   45 1  
    46   45   46 1  
    47   45   48 1  
    48   46   47 2  
    49   46   54 am 
    50   48   49 1  
    51   49   50 1  
    52   49   51 2  
    53   50   52 1  
    54   51   53 1  
    55   52   53 2  
    56   54   55 1  
    57   55   56 1  
    58   55   63 1  
    59   56   57 1  
    60   57   58 1  
    61   58   59 1  
    62   59   60 ar 
    63   60   61 ar 
    64   60   62 ar 
    65   63   64 2  
    66   63   65 am 
    67   65   66 1  
    68   66   67 1  
    69   66   69 1  
    70   67   68 2  
    71   67   74 am 
    72   69   70 1  
    73   70   71 1  
    74   71   72 ar 
    75   71   73 ar 
    76   74   75 1  
    77   75   76 1  
    78   75   86 1  
    79   76   77 1  
    80   77   78 2  
    81   77   85 1  
    82   78   79 1  
    83   79   80 1  
    84   80   81 ar 
    85   80   85 ar 
    86   81   82 ar 
    87   82   83 ar 
    88   83   84 ar 
    89   84   85 ar 
    90   86   87 2  
    91   86   88 am 
    92   88   89 1  
    93   89   90 1  
    94   89   91 1  
    95   91   92 2  
    96   91   93 am 
    97   93   94 1  
    98   94   95 1  
    99   94  105 1  
   100   95   96 1  
   101   96   97 2  
   102   96  104 1  
   103   97   98 1  
   104   98   99 1  
   105   99  100 ar 
   106   99  104 ar 
   107  100  101 ar 
   108  101  102 ar 
   109  102  103 ar 
   110  103  104 ar 
   111  105  106 2  
   112  105  107 am 
   113  107  108 1  
   114  108  109 1  
   115  108  113 1  
   116  109  110 1  
   117  110  111 1  
   118  110  112 1  
   119  113  114 2  
   120  113  115 am 
   121  115  116 1  
   122  116  117 1  
   123  116  119 1  
   124  117  118 2  
   125  117  121 am 
   126  119  120 1  
   127  121  122 1  
   128  122  123 1  
   129  122  124 1  
   130  124  125 2  
   131  124  126 am 
   132  126  127 1  
   133  127  128 1  
   134  127  129 1  
   135  129  130 ar 
   136  129  131 ar 
   137    3  132 1  
   138    3  133 1  
   139    3  134 1  
   140    4  135 1  
   141    5  136 1  
   142    5  137 1  
   143    8  138 1  
   144    9  139 1  
   145   10  140 1  
   146   10  141 1  
   147   10  142 1  
   148   13  143 1  
   149   14  144 1  
   150   17  145 1  
   151   17  146 1  
   152   19  147 1  
   153   20  148 1  
   154   23  149 1  
   155   23  150 1  
   156   24  151 1  
   157   24  152 1  
   158   28  153 1  
   159   29  154 1  
   160   30  155 1  
   161   30  156 1  
   162   30  157 1  
   163   33  158 1  
   164   34  159 1  
   165   35  160 1  
   166   35  161 1  
   167   36  162 1  
   168   36  163 1  
   169   37  164 1  
   170   37  165 1  
   171   38  166 1  
   172   40  167 1  
   173   40  168 1  
   174   41  169 1  
   175   41  170 1  
   176   44  171 1  
   177   45  172 1  
   178   48  173 1  
   179   48  174 1  
   180   50  175 1  
   181   51  176 1  
   182   52  177 1  
   183   54  178 1  
   184   55  179 1  
   185   56  180 1  
   186   56  181 1  
   187   57  182 1  
   188   57  183 1  
   189   58  184 1  
   190   58  185 1  
   191   59  186 1  
   192   61  187 1  
   193   61  188 1  
   194   62  189 1  
   195   62  190 1  
   196   65  191 1  
   197   66  192 1  
   198   69  193 1  
   199   69  194 1  
   200   70  195 1  
   201   70  196 1  
   202   74  197 1  
   203   75  198 1  
   204   76  199 1  
   205   76  200 1  
   206   78  201 1  
   207   79  202 1  
   208   81  203 1  
   209   82  204 1  
   210   83  205 1  
   211   84  206 1  
   212   88  207 1  
   213   89  208 1  
   214   90  209 1  
   215   90  210 1  
   216   90  211 1  
   217   93  212 1  
   218   94  213 1  
   219   95  214 1  
   220   95  215 1  
   221   97  216 1  
   222   98  217 1  
   223  100  218 1  
   224  101  219 1  
   225  102  220 1  
   226  103  221 1  
   227  107  222 1  
   228  108  223 1  
   229  109  224 1  
   230  109  225 1  
   231  110  226 1  
   232  111  227 1  
   233  111  228 1  
   234  111  229 1  
   235  112  230 1  
   236  112  231 1  
   237  112  232 1  
   238  115  233 1  
   239  116  234 1  
   240  119  235 1  
   241  119  236 1  
   242  121  237 1  
   243  122  238 1  
   244  123  239 1  
   245  123  240 1  
   246  123  241 1  
   247  126  242 1  
   248  127  243 1  
   249  128  244 1  
   250  128  245 1  
   251  128  246 1  
@<TRIPOS>SUBSTRUCTURE
     1 ACE         1

