3odl_ligand
  -I-interpret- 

197197  0  0  0  0  0  0  0  0999 V2000
   17.1710   33.1120   52.6440 N   0  0  0  0  0
   17.7170   33.2670   51.2920 C   0  0  0  0  0
   17.9010   34.7410   50.9810 C   0  0  0  0  0
   16.7720   32.6260   50.2650 C   0  0  0  0  0
   15.5580   32.8090   50.3710 O   0  0  0  0  0
   17.2950   31.8870   49.2780 N   0  0  0  0  0
   18.7220   31.5810   49.1670 C   0  0  0  0  0
   16.4020   31.2460   48.3010 C   0  0  0  0  0
   16.4070   31.9260   46.9160 C   0  0  0  0  0
   15.9290   33.3810   46.9170 C   0  0  0  0  0
   16.1790   34.0430   45.5680 C   0  0  0  0  0
   14.4540   33.5190   47.2890 C   0  0  0  0  0
   16.6650   29.7610   48.1650 C   0  0  0  0  0
   17.3070   29.2700   47.0140 O   0  0  0  0  0
   16.2740   28.9620   49.1590 N   0  0  0  0  0
   15.4490   29.4480   50.2670 C   0  0  0  0  0
   16.5620   27.5310   49.0860 C   0  0  0  0  0
   17.2480   27.0180   50.3630 C   0  0  0  0  0
   18.6250   27.6480   50.6030 C   0  0  0  0  0
   19.2980   27.0180   51.8190 C   0  0  0  0  0
   19.5400   27.5670   49.3810 C   0  0  0  0  0
   15.3380   26.7200   48.7380 C   0  0  0  0  0
   14.0650   27.3110   48.8170 O   0  0  0  0  0
   15.5030   25.4600   48.3420 N   0  0  0  0  0
   16.7960   24.9720   47.8740 C   0  0  0  0  0
   14.3240   24.6030   48.1990 C   0  0  0  0  0
   13.9750   24.2050   46.7520 C   0  0  0  0  0
   12.5610   23.6340   46.6680 C   0  0  0  0  0
   14.1290   25.3400   45.7400 C   0  0  0  0  0
   14.4330   23.4100   49.1160 C   0  0  0  0  0
   14.8080   22.1650   48.5880 O   0  0  0  0  0
   13.0870   21.7520   51.7180 C   0  0  0  0  0
   14.1670   23.5860   50.4120 N   0  0  0  0  0
   11.9950   22.2480   51.4590 O   0  0  0  0  0
   14.3580   22.4640   51.3370 C   0  0  0  0  0
   15.2360   22.7580   52.5760 C   0  0  0  0  0
   18.1100   22.0380   53.6970 C   0  0  0  0  0
   18.2020   22.2560   56.1500 C   0  0  0  0  0
   13.4220   24.7660   50.8590 C   0  0  0  0  0
   18.5530   21.6630   57.2880 C   0  0  0  0  0
   18.4170   21.5330   54.8910 C   0  0  0  0  0
   17.3210   22.7840   51.0550 C   0  0  0  0  0
   17.5030   23.4120   53.4940 C   0  0  0  0  0
   14.5130   23.5160   53.5250 O   0  0  0  0  0
   16.5980   23.4080   52.2600 C   0  0  0  0  0
   13.2300   20.5790   52.3290 N   0  0  0  0  0
   12.0900   19.7720   52.7560 C   0  0  0  0  0
   12.0240   19.6190   54.2810 C   0  0  0  0  0
   12.4660   18.6040   54.8120 O   0  0  0  0  0
   12.1390   18.3820   52.1010 C   0  0  0  0  0
   12.1750   18.4470   50.5810 C   0  0  0  0  0
   11.4800   20.6090   54.9950 N   0  0  0  0  0
   11.3800   20.4740   56.4450 C   0  0  0  0  0
   11.9330   21.6530   57.2240 C   0  0  0  0  0
   11.0410   22.4650   57.9380 O   0  0  0  0  0
   10.8960   21.8260   54.4470 C   0  0  0  0  0
   13.2480   21.8640   57.2140 N   0  0  0  0  0
   14.1840   20.9030   56.6390 C   0  0  0  0  0
   13.7950   23.0840   57.8050 C   0  0  0  0  0
   15.0000   22.7950   58.7150 C   0  0  0  0  0
   15.3150   23.9190   59.7070 C   0  0  0  0  0
   14.2020   24.1160   60.7380 C   0  0  0  0  0
   16.6410   23.6540   60.4160 C   0  0  0  0  0
   14.1230   24.0880   56.7300 C   0  0  0  0  0
   15.3450   24.0300   56.0410 O   0  0  0  0  0
   13.1950   25.0020   56.4700 N   0  0  0  0  0
   13.3860   26.0340   55.4530 C   0  0  0  0  0
   14.3170   27.1040   56.0160 C   0  0  0  0  0
   14.0840   27.5960   57.1180 O   0  0  0  0  0
   12.0350   26.6660   55.0090 C   0  0  0  0  0
   12.2380   27.7080   53.9000 C   0  0  0  0  0
   11.0590   25.5910   54.5530 C   0  0  0  0  0
   15.3830   27.4450   55.2890 N   0  0  0  0  0
   15.6830   26.7610   54.0300 C   0  0  0  0  0
   16.3150   28.4560   55.7920 C   0  0  0  0  0
   17.7630   27.9520   55.9080 C   0  0  0  0  0
   17.8790   26.6790   56.7540 C   0  0  0  0  0
   19.1640   25.9200   56.4280 C   0  0  0  0  0
   17.7700   26.9500   58.2560 C   0  0  0  0  0
   16.2170   29.7340   55.0060 C   0  0  0  0  0
   15.4310   29.7850   53.8410 O   0  0  0  0  0
   16.8880   30.7840   55.4710 N   0  0  0  0  0
   16.8050   32.0910   54.8230 C   0  0  0  0  0
   17.5440   32.1450   53.4800 C   0  0  0  0  0
   18.4230   31.3270   53.2160 O   0  0  0  0  0
   17.3020   33.1810   55.7650 C   0  0  0  0  0
   16.4684   33.7801   52.9608 H   0  0  0  0  0
   18.6840   32.7668   51.2380 H   0  0  0  0  0
   18.3276   34.8501   49.9839 H   0  0  0  0  0
   16.9342   35.2429   51.0209 H   0  0  0  0  0
   18.5728   35.1849   51.7156 H   0  0  0  0  0
   18.8727   30.5082   49.2878 H   0  0  0  0  0
   19.0838   31.8920   48.1870 H   0  0  0  0  0
   19.2684   32.1157   49.9439 H   0  0  0  0  0
   15.4017   31.3788   48.7132 H   0  0  0  0  0
   15.7177   31.3656   46.2845 H   0  0  0  0  0
   17.4401   31.9312   46.5684 H   0  0  0  0  0
   16.5134   33.8886   47.6844 H   0  0  0  0  0
   17.2467   34.0269   45.3491 H   0  0  0  0  0
   15.6396   33.4993   44.7924 H   0  0  0  0  0
   15.8290   35.0748   45.6006 H   0  0  0  0  0
   13.8464   32.9687   46.5706 H   0  0  0  0  0
   14.2932   33.1143   48.2882 H   0  0  0  0  0
   14.1735   34.5722   47.2727 H   0  0  0  0  0
   15.9773   30.2459   50.7889 H   0  0  0  0  0
   14.5061   29.8300   49.8758 H   0  0  0  0  0
   15.2518   28.6285   50.9581 H   0  0  0  0  0
   17.2695   27.3950   48.2681 H   0  0  0  0  0
   17.3911   25.9431   50.2523 H   0  0  0  0  0
   16.6122   27.2813   51.2083 H   0  0  0  0  0
   18.4541   28.7072   50.7951 H   0  0  0  0  0
   18.6768   27.1783   52.7002 H   0  0  0  0  0
   19.4225   25.9484   51.6503 H   0  0  0  0  0
   20.2738   27.4789   51.9721 H   0  0  0  0  0
   19.6954   26.5218   49.1137 H   0  0  0  0  0
   19.0761   28.0918   48.5459 H   0  0  0  0  0
   20.4986   28.0299   49.6152 H   0  0  0  0  0
   17.1078   25.5499   47.0040 H   0  0  0  0  0
   17.5339   25.0825   48.6686 H   0  0  0  0  0
   16.7089   23.9203   47.6010 H   0  0  0  0  0
   13.4721   25.2103   48.5049 H   0  0  0  0  0
   14.7041   23.4412   46.4816 H   0  0  0  0  0
   12.4893   22.7499   47.3016 H   0  0  0  0  0
   11.8468   24.3844   47.0070 H   0  0  0  0  0
   12.3413   23.3616   45.6357 H   0  0  0  0  0
   13.4695   26.1629   46.0157 H   0  0  0  0  0
   15.1626   25.6860   45.7385 H   0  0  0  0  0
   13.8643   24.9777   44.7466 H   0  0  0  0  0
   14.9414   21.7721   50.7296 H   0  0  0  0  0
   15.4842   21.7850   53.0000 H   0  0  0  0  0
   18.3066   21.4280   52.8153 H   0  0  0  0  0
   17.7653   23.2547   56.1526 H   0  0  0  0  0
   13.9686   25.6666   50.5794 H   0  0  0  0  0
   12.4397   24.7743   50.3867 H   0  0  0  0  0
   13.3055   24.7317   51.9422 H   0  0  0  0  0
   18.9886   20.6640   57.2702 H   0  0  0  0  0
   18.4050   22.1762   58.2382 H   0  0  0  0  0
   18.8493   20.5333   54.9350 H   0  0  0  0  0
   17.5044   21.7274   51.2502 H   0  0  0  0  0
   16.6990   22.8879   50.1660 H   0  0  0  0  0
   18.2704   23.2958   50.8976 H   0  0  0  0  0
   18.3022   24.1391   53.3500 H   0  0  0  0  0
   16.9119   23.6758   54.3710 H   0  0  0  0  0
   15.0712   23.6896   54.2865 H   0  0  0  0  0
   16.3757   24.4366   51.9761 H   0  0  0  0  0
   14.1719   20.2298   52.5061 H   0  0  0  0  0
   11.1917   20.2989   52.4342 H   0  0  0  0  0
   11.2361   17.8445   52.3907 H   0  0  0  0  0
   13.0509   17.8874   52.4356 H   0  0  0  0  0
   11.2811   18.9549   50.2191 H   0  0  0  0  0
   13.0608   18.9969   50.2630 H   0  0  0  0  0
   12.2089   17.4356   50.1761 H   0  0  0  0  0
   11.9683   19.6006   56.7262 H   0  0  0  0  0
   10.3198   20.3997   56.6870 H   0  0  0  0  0
   11.6540   22.3689   53.8824 H   0  0  0  0  0
   10.0677   21.5653   53.7881 H   0  0  0  0  0
   10.5309   22.4511   55.2619 H   0  0  0  0  0
   14.0947   19.9520   57.1641 H   0  0  0  0  0
   13.9531   20.7598   55.5834 H   0  0  0  0  0
   15.2008   21.2821   56.7416 H   0  0  0  0  0
   13.0291   23.5192   58.4469 H   0  0  0  0  0
   15.8714   22.6787   58.0706 H   0  0  0  0  0
   14.7588   21.9066   59.2987 H   0  0  0  0  0
   15.3914   24.8389   59.1272 H   0  0  0  0  0
   13.2741   24.3691   60.2252 H   0  0  0  0  0
   14.0659   23.1947   61.3044 H   0  0  0  0  0
   14.4758   24.9240   61.4164 H   0  0  0  0  0
   16.5793   22.7105   60.9583 H   0  0  0  0  0
   17.4414   23.5988   59.6781 H   0  0  0  0  0
   16.8456   24.4642   61.1159 H   0  0  0  0  0
   12.3217   24.9830   56.9966 H   0  0  0  0  0
   13.8278   25.5781   54.5670 H   0  0  0  0  0
   11.6129   27.1759   55.8750 H   0  0  0  0  0
   12.8879   28.5033   54.2650 H   0  0  0  0  0
   12.6970   27.2306   53.0343 H   0  0  0  0  0
   11.2728   28.1273   53.6161 H   0  0  0  0  0
   11.4868   25.0474   53.7107 H   0  0  0  0  0
   10.8710   24.9004   55.3751 H   0  0  0  0  0
   10.1226   26.0580   54.2478 H   0  0  0  0  0
   15.8337   25.6987   54.2221 H   0  0  0  0  0
   14.8500   26.8920   53.3393 H   0  0  0  0  0
   16.5879   27.1848   53.5944 H   0  0  0  0  0
   16.0048   28.6735   56.8140 H   0  0  0  0  0
   18.3512   28.7312   56.3927 H   0  0  0  0  0
   18.1188   27.7207   54.9040 H   0  0  0  0  0
   17.0274   26.0525   56.4887 H   0  0  0  0  0
   19.1624   25.6411   55.3743 H   0  0  0  0  0
   20.0235   26.5575   56.6351 H   0  0  0  0  0
   19.2198   25.0217   57.0428 H   0  0  0  0  0
   18.5690   27.6259   58.5609 H   0  0  0  0  0
   16.8040   27.4063   58.4724 H   0  0  0  0  0
   17.8596   26.0102   58.8009 H   0  0  0  0  0
   17.4738   30.6744   56.2988 H   0  0  0  0  0
   15.7532   32.2662   54.5967 H   0  0  0  0  0
   16.6872   33.1897   56.6650 H   0  0  0  0  0
   18.3393   32.9818   56.0340 H   0  0  0  0  0
   17.2337   34.1484   55.2674 H   0  0  0  0  0
  2  1  1  0  0  0
  1 84  1  0  0  0
  2  3  1  0  0  0
  4  2  1  0  0  0
  4  5  2  0  0  0
  6  4  1  0  0  0
  6  7  1  0  0  0
  8  6  1  0  0  0
  8  9  1  0  0  0
 13  8  1  0  0  0
  9 10  1  0  0  0
 10 11  1  0  0  0
 10 12  1  0  0  0
 13 14  2  0  0  0
 15 13  1  0  0  0
 15 16  1  0  0  0
 17 15  1  0  0  0
 17 18  1  0  0  0
 22 17  1  0  0  0
 18 19  1  0  0  0
 19 20  1  0  0  0
 19 21  1  0  0  0
 22 23  2  0  0  0
 24 22  1  0  0  0
 24 25  1  0  0  0
 26 24  1  0  0  0
 26 27  1  0  0  0
 30 26  1  0  0  0
 27 28  1  0  0  0
 27 29  1  0  0  0
 30 31  2  0  0  0
 33 30  1  0  0  0
 32 34  2  0  0  0
 35 32  1  0  0  0
 32 46  1  0  0  0
 35 33  1  0  0  0
 33 39  1  0  0  0
 36 35  1  0  0  0
 36 44  1  0  0  0
 45 36  1  0  0  0
 37 41  2  0  0  0
 43 37  1  0  0  0
 38 40  2  0  0  0
 41 38  1  0  0  0
 45 42  1  0  0  0
 43 45  1  0  0  0
 46 47  1  0  0  0
 47 48  1  0  0  0
 47 50  1  0  0  0
 48 49  2  0  0  0
 48 52  1  0  0  0
 50 51  1  0  0  0
 52 53  1  0  0  0
 52 56  1  0  0  0
 53 54  1  0  0  0
 54 55  2  0  0  0
 54 57  1  0  0  0
 57 58  1  0  0  0
 57 59  1  0  0  0
 59 60  1  0  0  0
 59 64  1  0  0  0
 60 61  1  0  0  0
 61 62  1  0  0  0
 61 63  1  0  0  0
 64 65  2  0  0  0
 64 66  1  0  0  0
 66 67  1  0  0  0
 67 68  1  0  0  0
 67 70  1  0  0  0
 68 69  2  0  0  0
 68 73  1  0  0  0
 70 71  1  0  0  0
 70 72  1  0  0  0
 73 74  1  0  0  0
 73 75  1  0  0  0
 75 76  1  0  0  0
 75 80  1  0  0  0
 76 77  1  0  0  0
 77 78  1  0  0  0
 77 79  1  0  0  0
 80 81  2  0  0  0
 80 82  1  0  0  0
 82 83  1  0  0  0
 83 84  1  0  0  0
 83 86  1  0  0  0
 84 85  2  0  0  0
  1 87  1  0  0  0
  2 88  1  0  0  0
  3 89  1  0  0  0
  3 90  1  0  0  0
  3 91  1  0  0  0
  7 92  1  0  0  0
  7 93  1  0  0  0
  7 94  1  0  0  0
  8 95  1  0  0  0
  9 96  1  0  0  0
  9 97  1  0  0  0
 10 98  1  0  0  0
 11 99  1  0  0  0
 11100  1  0  0  0
 11101  1  0  0  0
 12102  1  0  0  0
 12103  1  0  0  0
 12104  1  0  0  0
 16105  1  0  0  0
 16106  1  0  0  0
 16107  1  0  0  0
 17108  1  0  0  0
 18109  1  0  0  0
 18110  1  0  0  0
 19111  1  0  0  0
 20112  1  0  0  0
 20113  1  0  0  0
 20114  1  0  0  0
 21115  1  0  0  0
 21116  1  0  0  0
 21117  1  0  0  0
 25118  1  0  0  0
 25119  1  0  0  0
 25120  1  0  0  0
 26121  1  0  0  0
 27122  1  0  0  0
 28123  1  0  0  0
 28124  1  0  0  0
 28125  1  0  0  0
 29126  1  0  0  0
 29127  1  0  0  0
 29128  1  0  0  0
 35129  1  0  0  0
 36130  1  0  0  0
 37131  1  0  0  0
 38132  1  0  0  0
 39133  1  0  0  0
 39134  1  0  0  0
 39135  1  0  0  0
 40136  1  0  0  0
 40137  1  0  0  0
 41138  1  0  0  0
 42139  1  0  0  0
 42140  1  0  0  0
 42141  1  0  0  0
 43142  1  0  0  0
 43143  1  0  0  0
 44144  1  0  0  0
 45145  1  0  0  0
 46146  1  0  0  0
 47147  1  0  0  0
 50148  1  0  0  0
 50149  1  0  0  0
 51150  1  0  0  0
 51151  1  0  0  0
 51152  1  0  0  0
 53153  1  0  0  0
 53154  1  0  0  0
 56155  1  0  0  0
 56156  1  0  0  0
 56157  1  0  0  0
 58158  1  0  0  0
 58159  1  0  0  0
 58160  1  0  0  0
 59161  1  0  0  0
 60162  1  0  0  0
 60163  1  0  0  0
 61164  1  0  0  0
 62165  1  0  0  0
 62166  1  0  0  0
 62167  1  0  0  0
 63168  1  0  0  0
 63169  1  0  0  0
 63170  1  0  0  0
 66171  1  0  0  0
 67172  1  0  0  0
 70173  1  0  0  0
 71174  1  0  0  0
 71175  1  0  0  0
 71176  1  0  0  0
 72177  1  0  0  0
 72178  1  0  0  0
 72179  1  0  0  0
 74180  1  0  0  0
 74181  1  0  0  0
 74182  1  0  0  0
 75183  1  0  0  0
 76184  1  0  0  0
 76185  1  0  0  0
 77186  1  0  0  0
 78187  1  0  0  0
 78188  1  0  0  0
 78189  1  0  0  0
 79190  1  0  0  0
 79191  1  0  0  0
 79192  1  0  0  0
 82193  1  0  0  0
 83194  1  0  0  0
 86195  1  0  0  0
 86196  1  0  0  0
 86197  1  0  0  0
M  END
$$$$
