### 
### Created by X-TOOL on Mon Sep 10 21:13:05 2018
### 

@<TRIPOS>MOLECULE
3odl_ligand
  197   197     1     0     0
SMALL
GAST_HUCK


@<TRIPOS>ATOM
      1 N          17.1710   33.1120   52.6440 N.am      1 DAL        -0.2640
      2 CA         17.7170   33.2670   51.2920 C.3       1 DAL         0.1284
      3 CB         17.9010   34.7410   50.9810 C.3       1 DAL        -0.0244
      4 C          16.7720   32.6260   50.2650 C.2       1 DAL         0.2059
      5 O          15.5580   32.8090   50.3710 O.2       1 DAL        -0.3942
      6 N          17.2950   31.8870   49.2780 N.am      1 MLE        -0.2529
      7 CN         18.7220   31.5810   49.1670 C.3       1 MLE         0.0254
      8 CA         16.4020   31.2460   48.3010 C.3       1 MLE         0.1338
      9 CB         16.4070   31.9260   46.9160 C.3       1 MLE        -0.0099
     10 CG         15.9290   33.3810   46.9170 C.3       1 MLE        -0.0425
     11 CD1        16.1790   34.0430   45.5680 C.3       1 MLE        -0.0625
     12 CD2        14.4540   33.5190   47.2890 C.3       1 MLE        -0.0625
     13 C          16.6650   29.7610   48.1650 C.2       1 MLE         0.2064
     14 O          17.3070   29.2700   47.0140 O.2       1 MLE        -0.3942
     15 N          16.2740   28.9620   49.1590 N.am      1 MLE        -0.2529
     16 CN         15.4490   29.4480   50.2670 C.3       1 MLE         0.0254
     17 CA         16.5620   27.5310   49.0860 C.3       1 MLE         0.1338
     18 CB         17.2480   27.0180   50.3630 C.3       1 MLE        -0.0099
     19 CG         18.6250   27.6480   50.6030 C.3       1 MLE        -0.0425
     20 CD1        19.2980   27.0180   51.8190 C.3       1 MLE        -0.0625
     21 CD2        19.5400   27.5670   49.3810 C.3       1 MLE        -0.0625
     22 C          15.3380   26.7200   48.7380 C.2       1 MLE         0.2064
     23 O          14.0650   27.3110   48.8170 O.2       1 MLE        -0.3942
     24 N          15.5030   25.4600   48.3420 N.am      1 MVA        -0.2526
     25 CN         16.7960   24.9720   47.8740 C.3       1 MVA         0.0254
     26 CA         14.3240   24.6030   48.1990 C.3       1 MVA         0.1359
     27 CB         13.9750   24.2050   46.7520 C.3       1 MVA        -0.0061
     28 CG1        12.5610   23.6340   46.6680 C.3       1 MVA        -0.0584
     29 CG2        14.1290   25.3400   45.7400 C.3       1 MVA        -0.0584
     30 C          14.4330   23.4100   49.1160 C.2       1 MVA         0.2067
     31 O          14.8080   22.1650   48.5880 O.2       1 MVA        -0.3942
     32 C          13.0870   21.7520   51.7180 C.2       1 YYA         0.2067
     33 N          14.1670   23.5860   50.4120 N.am      1 YYA        -0.2503
     34 O          11.9950   22.2480   51.4590 O.2       1 YYA        -0.3943
     35 CA         14.3580   22.4640   51.3370 C.3       1 YYA         0.1595
     36 CB         15.2360   22.7580   52.5760 C.3       1 YYA         0.1003
     37 CE         18.1100   22.0380   53.6970 C.2       1 YYA        -0.0720
     38 CH         18.2020   22.2560   56.1500 C.2       1 YYA        -0.0879
     39 CN         13.4220   24.7660   50.8590 C.3       1 YYA         0.0255
     40 CT         18.5530   21.6630   57.2880 C.2       1 YYA        -0.1147
     41 CZ         18.4170   21.5330   54.8910 C.2       1 YYA        -0.0732
     42 CD1        17.3210   22.7840   51.0550 C.3       1 YYA        -0.0574
     43 CD2        17.5030   23.4120   53.4940 C.3       1 YYA        -0.0144
     44 OG1        14.5130   23.5160   53.5250 O.3       1 YYA        -0.3866
     45 CG2        16.5980   23.4080   52.2600 C.3       1 YYA        -0.0014
     46 N          13.2300   20.5790   52.3290 N.am      1 ABA        -0.2636
     47 CA         12.0900   19.7720   52.7560 C.3       1 ABA         0.1309
     48 C          12.0240   19.6190   54.2810 C.2       1 ABA         0.2059
     49 O          12.4660   18.6040   54.8120 O.2       1 ABA        -0.3942
     50 CB         12.1390   18.3820   52.1010 C.3       1 ABA        -0.0152
     51 CG         12.1750   18.4470   50.5810 C.3       1 ABA        -0.0610
     52 N          11.4800   20.6090   54.9950 N.am      1 SAR        -0.2556
     53 CA         11.3800   20.4740   56.4450 C.3       1 SAR         0.1227
     54 C          11.9330   21.6530   57.2240 C.2       1 SAR         0.2032
     55 O          11.0410   22.4650   57.9380 O.2       1 SAR        -0.3945
     56 CN         10.8960   21.8260   54.4470 C.3       1 SAR         0.0252
     57 N          13.2480   21.8640   57.2140 N.am      1 MLE        -0.2531
     58 CN         14.1840   20.9030   56.6390 C.3       1 MLE         0.0254
     59 CA         13.7950   23.0840   57.8050 C.3       1 MLE         0.1336
     60 CB         15.0000   22.7950   58.7150 C.3       1 MLE        -0.0099
     61 CG         15.3150   23.9190   59.7070 C.3       1 MLE        -0.0425
     62 CD1        14.2020   24.1160   60.7380 C.3       1 MLE        -0.0625
     63 CD2        16.6410   23.6540   60.4160 C.3       1 MLE        -0.0625
     64 C          14.1230   24.0880   56.7300 C.2       1 MLE         0.2041
     65 O          15.3450   24.0300   56.0410 O.2       1 MLE        -0.3944
     66 N          13.1950   25.0020   56.4700 N.am      1 VAL        -0.2635
     67 CA         13.3860   26.0340   55.4530 C.3       1 VAL         0.1334
     68 C          14.3170   27.1040   56.0160 C.2       1 VAL         0.2064
     69 O          14.0840   27.5960   57.1180 O.2       1 VAL        -0.3942
     70 CB         12.0350   26.6660   55.0090 C.3       1 VAL        -0.0062
     71 CG1        12.2380   27.7080   53.9000 C.3       1 VAL        -0.0584
     72 CG2        11.0590   25.5910   54.5530 C.3       1 VAL        -0.0584
     73 N          15.3830   27.4450   55.2890 N.am      1 MLE        -0.2529
     74 CN         15.6830   26.7610   54.0300 C.3       1 MLE         0.0254
     75 CA         16.3150   28.4560   55.7920 C.3       1 MLE         0.1336
     76 CB         17.7630   27.9520   55.9080 C.3       1 MLE        -0.0099
     77 CG         17.8790   26.6790   56.7540 C.3       1 MLE        -0.0425
     78 CD1        19.1640   25.9200   56.4280 C.3       1 MLE        -0.0625
     79 CD2        17.7700   26.9500   58.2560 C.3       1 MLE        -0.0625
     80 C          16.2170   29.7340   55.0060 C.2       1 MLE         0.2041
     81 O          15.4310   29.7850   53.8410 O.2       1 MLE        -0.3944
     82 N          16.8880   30.7840   55.4710 N.am      1 ALA        -0.2640
     83 CA         16.8050   32.0910   54.8230 C.3       1 ALA         0.1282
     84 C          17.5440   32.1450   53.4800 C.2       1 ALA         0.2036
     85 O          18.4230   31.3270   53.2160 O.2       1 ALA        -0.3944
     86 CB         17.3020   33.1810   55.7650 C.3       1 ALA        -0.0244
     87 H          16.4684   33.7801   52.9608 H         1 DAL         0.1883
     88 H          18.6840   32.7668   51.2380 H         1 DAL         0.0797
     89 H          18.3276   34.8501   49.9839 H         1 DAL         0.0277
     90 H          16.9342   35.2429   51.0209 H         1 DAL         0.0277
     91 H          18.5728   35.1849   51.7156 H         1 DAL         0.0277
     92 H          18.8727   30.5082   49.2878 H         1 MLE         0.0488
     93 H          19.0838   31.8920   48.1870 H         1 MLE         0.0488
     94 H          19.2684   32.1157   49.9439 H         1 MLE         0.0488
     95 H          15.4017   31.3788   48.7132 H         1 MLE         0.0802
     96 H          15.7177   31.3656   46.2845 H         1 MLE         0.0315
     97 H          17.4401   31.9312   46.5684 H         1 MLE         0.0315
     98 H          16.5134   33.8886   47.6844 H         1 MLE         0.0298
     99 H          17.2467   34.0269   45.3491 H         1 MLE         0.0232
    100 H          15.6396   33.4993   44.7924 H         1 MLE         0.0232
    101 H          15.8290   35.0748   45.6006 H         1 MLE         0.0232
    102 H          13.8464   32.9687   46.5706 H         1 MLE         0.0232
    103 H          14.2932   33.1143   48.2882 H         1 MLE         0.0232
    104 H          14.1735   34.5722   47.2727 H         1 MLE         0.0232
    105 H          12.3388   24.9834   56.9863 H         1 VAL         0.1883
    106 H          15.9773   30.2459   50.7889 H         1 MLE         0.0488
    107 H          14.5061   29.8300   49.8758 H         1 MLE         0.0488
    108 H          15.2518   28.6285   50.9581 H         1 MLE         0.0488
    109 H          17.2695   27.3950   48.2681 H         1 MLE         0.0802
    110 H          17.3911   25.9431   50.2523 H         1 MLE         0.0315
    111 H          16.6122   27.2813   51.2083 H         1 MLE         0.0315
    112 H          18.4541   28.7072   50.7951 H         1 MLE         0.0298
    113 H          18.6768   27.1783   52.7002 H         1 MLE         0.0232
    114 H          19.4225   25.9484   51.6503 H         1 MLE         0.0232
    115 H          20.2738   27.4789   51.9721 H         1 MLE         0.0232
    116 H          19.6954   26.5218   49.1137 H         1 MLE         0.0232
    117 H          19.0761   28.0918   48.5459 H         1 MLE         0.0232
    118 H          20.4986   28.0299   49.6152 H         1 MLE         0.0232
    119 H          17.4624   30.6765   56.2825 H         1 ALA         0.1883
    120 H          17.1078   25.5499   47.0040 H         1 MVA         0.0488
    121 H          17.5339   25.0825   48.6686 H         1 MVA         0.0488
    122 H          16.7089   23.9203   47.6010 H         1 MVA         0.0488
    123 H          13.4721   25.2103   48.5049 H         1 MVA         0.0804
    124 H          14.7041   23.4412   46.4816 H         1 MVA         0.0343
    125 H          12.4893   22.7499   47.3016 H         1 MVA         0.0234
    126 H          11.8468   24.3844   47.0070 H         1 MVA         0.0234
    127 H          12.3413   23.3616   45.6357 H         1 MVA         0.0234
    128 H          13.4695   26.1629   46.0157 H         1 MVA         0.0234
    129 H          15.1626   25.6860   45.7385 H         1 MVA         0.0234
    130 H          13.8643   24.9777   44.7466 H         1 MVA         0.0234
    131 H          14.9414   21.7721   50.7296 H         1 YYA         0.0829
    132 H          15.4842   21.7850   53.0000 H         1 YYA         0.0647
    133 H          18.3066   21.4280   52.8153 H         1 YYA         0.0751
    134 H          17.7653   23.2547   56.1526 H         1 YYA         0.0573
    135 H          13.9686   25.6666   50.5794 H         1 YYA         0.0488
    136 H          12.4397   24.7743   50.3867 H         1 YYA         0.0488
    137 H          13.3055   24.7317   51.9422 H         1 YYA         0.0488
    138 H          18.9886   20.6640   57.2702 H         1 YYA         0.0380
    139 H          18.4050   22.1762   58.2382 H         1 YYA         0.0380
    140 H          18.8493   20.5333   54.9350 H         1 YYA         0.0436
    141 H          17.5044   21.7274   51.2502 H         1 YYA         0.0235
    142 H          16.6990   22.8879   50.1660 H         1 YYA         0.0235
    143 H          18.2704   23.2958   50.8976 H         1 YYA         0.0235
    144 H          18.3022   24.1391   53.3500 H         1 YYA         0.0476
    145 H          16.9119   23.6758   54.3710 H         1 YYA         0.0476
    146 H          15.0712   23.6896   54.2865 H         1 YYA         0.2101
    147 H          16.3757   24.4366   51.9761 H         1 YYA         0.0355
    148 H          14.1719   20.2298   52.5061 H         1 ABA         0.1883
    149 H          11.1917   20.2989   52.4342 H         1 ABA         0.0800
    150 H          11.2361   17.8445   52.3907 H         1 ABA         0.0310
    151 H          13.0509   17.8874   52.4356 H         1 ABA         0.0310
    152 H          11.2811   18.9549   50.2191 H         1 ABA         0.0232
    153 H          13.0608   18.9969   50.2630 H         1 ABA         0.0232
    154 H          12.2089   17.4356   50.1761 H         1 ABA         0.0232
    155 H          11.9683   19.6006   56.7262 H         1 SAR         0.0765
    156 H          10.3198   20.3997   56.6870 H         1 SAR         0.0765
    157 H          11.6540   22.3689   53.8824 H         1 SAR         0.0488
    158 H          10.0677   21.5653   53.7881 H         1 SAR         0.0488
    159 H          10.5309   22.4511   55.2619 H         1 SAR         0.0488
    160 H          14.0947   19.9520   57.1641 H         1 MLE         0.0488
    161 H          13.9531   20.7598   55.5834 H         1 MLE         0.0488
    162 H          15.2008   21.2821   56.7416 H         1 MLE         0.0488
    163 H          13.0291   23.5192   58.4469 H         1 MLE         0.0802
    164 H          15.8714   22.6787   58.0706 H         1 MLE         0.0315
    165 H          14.7588   21.9066   59.2987 H         1 MLE         0.0315
    166 H          15.3914   24.8389   59.1272 H         1 MLE         0.0298
    167 H          13.2741   24.3691   60.2252 H         1 MLE         0.0232
    168 H          14.0659   23.1947   61.3044 H         1 MLE         0.0232
    169 H          14.4758   24.9240   61.4164 H         1 MLE         0.0232
    170 H          16.5793   22.7105   60.9583 H         1 MLE         0.0232
    171 H          17.4414   23.5988   59.6781 H         1 MLE         0.0232
    172 H          16.8456   24.4642   61.1159 H         1 MLE         0.0232
    173 H          13.8278   25.5781   54.5670 H         1 VAL         0.0803
    174 H          11.6129   27.1759   55.8750 H         1 VAL         0.0343
    175 H          12.8879   28.5033   54.2650 H         1 VAL         0.0234
    176 H          12.6970   27.2306   53.0343 H         1 VAL         0.0234
    177 H          11.2728   28.1273   53.6161 H         1 VAL         0.0234
    178 H          11.4868   25.0474   53.7107 H         1 VAL         0.0234
    179 H          10.8710   24.9004   55.3751 H         1 VAL         0.0234
    180 H          10.1226   26.0580   54.2478 H         1 VAL         0.0234
    181 H          15.8337   25.6987   54.2221 H         1 MLE         0.0488
    182 H          14.8500   26.8920   53.3393 H         1 MLE         0.0488
    183 H          16.5879   27.1848   53.5944 H         1 MLE         0.0488
    184 H          16.0048   28.6735   56.8140 H         1 MLE         0.0802
    185 H          18.3512   28.7312   56.3927 H         1 MLE         0.0315
    186 H          18.1188   27.7207   54.9040 H         1 MLE         0.0315
    187 H          17.0274   26.0525   56.4887 H         1 MLE         0.0298
    188 H          19.1624   25.6411   55.3743 H         1 MLE         0.0232
    189 H          20.0235   26.5575   56.6351 H         1 MLE         0.0232
    190 H          19.2198   25.0217   57.0428 H         1 MLE         0.0232
    191 H          18.5690   27.6259   58.5609 H         1 MLE         0.0232
    192 H          16.8040   27.4063   58.4724 H         1 MLE         0.0232
    193 H          17.8596   26.0102   58.8009 H         1 MLE         0.0232
    194 H          15.7532   32.2662   54.5967 H         1 ALA         0.0797
    195 H          16.6872   33.1897   56.6650 H         1 ALA         0.0277
    196 H          18.3393   32.9818   56.0340 H         1 ALA         0.0277
    197 H          17.2337   34.1484   55.2674 H         1 ALA         0.0277
@<TRIPOS>BOND
     1    2    1 1  
     2    1   84 am 
     3    2    3 1  
     4    4    2 1  
     5    4    5 2  
     6    6    4 am 
     7    6    7 1  
     8    8    6 1  
     9    8    9 1  
    10   13    8 1  
    11    9   10 1  
    12   10   11 1  
    13   10   12 1  
    14   13   14 2  
    15   15   13 am 
    16   15   16 1  
    17   17   15 1  
    18   17   18 1  
    19   22   17 1  
    20   18   19 1  
    21   19   20 1  
    22   19   21 1  
    23   22   23 2  
    24   24   22 am 
    25   24   25 1  
    26   26   24 1  
    27   26   27 1  
    28   30   26 1  
    29   27   28 1  
    30   27   29 1  
    31   30   31 2  
    32   33   30 am 
    33   32   34 2  
    34   35   32 1  
    35   32   46 am 
    36   35   33 1  
    37   33   39 1  
    38   36   35 1  
    39   36   44 1  
    40   45   36 1  
    41   37   41 2  
    42   43   37 1  
    43   38   40 2  
    44   41   38 1  
    45   45   42 1  
    46   43   45 1  
    47   46   47 1  
    48   47   48 1  
    49   47   50 1  
    50   48   49 2  
    51   48   52 am 
    52   50   51 1  
    53   52   53 1  
    54   52   56 1  
    55   53   54 1  
    56   54   55 2  
    57   54   57 am 
    58   57   58 1  
    59   57   59 1  
    60   59   60 1  
    61   59   64 1  
    62   60   61 1  
    63   61   62 1  
    64   61   63 1  
    65   64   65 2  
    66   64   66 am 
    67   66   67 1  
    68   67   68 1  
    69   67   70 1  
    70   68   69 2  
    71   68   73 am 
    72   70   71 1  
    73   70   72 1  
    74   73   74 1  
    75   73   75 1  
    76   75   76 1  
    77   75   80 1  
    78   76   77 1  
    79   77   78 1  
    80   77   79 1  
    81   80   81 2  
    82   80   82 am 
    83   82   83 1  
    84   83   84 1  
    85   83   86 1  
    86   84   85 2  
    87    1   87 1  
    88    2   88 1  
    89    3   89 1  
    90    3   90 1  
    91    3   91 1  
    92    7   92 1  
    93    7   93 1  
    94    7   94 1  
    95    8   95 1  
    96    9   96 1  
    97    9   97 1  
    98   10   98 1  
    99   11   99 1  
   100   11  100 1  
   101   11  101 1  
   102   12  102 1  
   103   12  103 1  
   104   12  104 1  
   105   66  105 1  
   106   16  106 1  
   107   16  107 1  
   108   16  108 1  
   109   17  109 1  
   110   18  110 1  
   111   18  111 1  
   112   19  112 1  
   113   20  113 1  
   114   20  114 1  
   115   20  115 1  
   116   21  116 1  
   117   21  117 1  
   118   21  118 1  
   119   82  119 1  
   120   25  120 1  
   121   25  121 1  
   122   25  122 1  
   123   26  123 1  
   124   27  124 1  
   125   28  125 1  
   126   28  126 1  
   127   28  127 1  
   128   29  128 1  
   129   29  129 1  
   130   29  130 1  
   131   35  131 1  
   132   36  132 1  
   133   37  133 1  
   134   38  134 1  
   135   39  135 1  
   136   39  136 1  
   137   39  137 1  
   138   40  138 1  
   139   40  139 1  
   140   41  140 1  
   141   42  141 1  
   142   42  142 1  
   143   42  143 1  
   144   43  144 1  
   145   43  145 1  
   146   44  146 1  
   147   45  147 1  
   148   46  148 1  
   149   47  149 1  
   150   50  150 1  
   151   50  151 1  
   152   51  152 1  
   153   51  153 1  
   154   51  154 1  
   155   53  155 1  
   156   53  156 1  
   157   56  157 1  
   158   56  158 1  
   159   56  159 1  
   160   58  160 1  
   161   58  161 1  
   162   58  162 1  
   163   59  163 1  
   164   60  164 1  
   165   60  165 1  
   166   61  166 1  
   167   62  167 1  
   168   62  168 1  
   169   62  169 1  
   170   63  170 1  
   171   63  171 1  
   172   63  172 1  
   173   67  173 1  
   174   70  174 1  
   175   71  175 1  
   176   71  176 1  
   177   71  177 1  
   178   72  178 1  
   179   72  179 1  
   180   72  180 1  
   181   74  181 1  
   182   74  182 1  
   183   74  183 1  
   184   75  184 1  
   185   76  185 1  
   186   76  186 1  
   187   77  187 1  
   188   78  188 1  
   189   78  189 1  
   190   78  190 1  
   191   79  191 1  
   192   79  192 1  
   193   79  193 1  
   194   83  194 1  
   195   86  195 1  
   196   86  196 1  
   197   86  197 1  
@<TRIPOS>SUBSTRUCTURE
     1 DAL         1

