4drn_ligand
  -I-interpret- 

 91 94  0  0  0  0  0  0  0  0999 V2000
    5.9180    3.3580   -8.5660 C   0  0  0  0  0
    5.3800    1.9420   -8.4980 C   0  0  0  0  0
    6.0830    1.0530   -9.4980 C   0  0  0  0  0
    5.8530    1.6830  -10.8990 C   0  0  0  0  0
    6.4490    0.7800  -12.0010 C   0  0  0  0  0
    5.8110   -0.6050  -11.9460 C   0  0  0  0  0
    6.0220   -1.2270  -10.5690 C   0  0  0  0  0
    5.4670   -0.3380   -9.4450 C   0  0  0  0  0
    4.0360   -0.2250   -9.5680 O   0  0  0  0  0
    5.7960   -1.0600   -8.1270 C   0  0  0  0  0
    4.9270   -1.5760   -7.4130 O   0  0  0  0  0
    7.2130   -1.1940   -7.6250 C   0  0  0  0  0
    7.6730   -0.2400   -6.9960 O   0  0  0  0  0
    7.8930   -2.3270   -7.8090 N   0  0  0  0  0
    7.3630   -3.4770   -8.5690 C   0  0  0  0  0
    7.5210   -4.7840   -7.7920 C   0  0  0  0  0
    8.9670   -4.9340   -7.3480 C   0  0  0  0  0
    9.3640   -3.7870   -6.4610 C   0  0  0  0  0
    9.2400   -2.4430   -7.2180 C   0  0  0  0  0
   10.3430   -2.3530   -8.2480 C   0  0  0  0  0
   11.4840   -2.6490   -7.9810 O   0  0  0  0  0
    9.9570   -1.8950   -9.4410 O   0  0  0  0  0
   10.9870   -1.8150  -10.4700 C   0  0  0  0  0
   11.1690   -0.3600  -10.8540 C   0  0  0  0  0
   12.4220   -0.1540  -11.6970 C   0  0  0  0  0
   13.7150   -0.3270  -10.9020 C   0  0  0  0  0
   14.1230    0.6500  -10.0000 C   0  0  0  0  0
   14.5590   -1.4280  -11.1040 C   0  0  0  0  0
   15.7580   -1.5840  -10.3890 C   0  0  0  0  0
   16.1390   -0.5900   -9.4880 C   0  0  0  0  0
   17.2860   -0.6150   -8.7650 O   0  0  0  0  0
   18.2760   -1.6540   -9.0200 C   0  0  0  0  0
   15.3220    0.5250   -9.2830 C   0  0  0  0  0
   15.7840    1.4300   -8.3790 O   0  0  0  0  0
   15.0400    2.6390   -8.1960 C   0  0  0  0  0
   10.5620   -2.7220  -11.5950 C   0  0  0  0  0
    9.4700   -2.4610  -12.3710 C   0  0  0  0  0
   11.2840   -3.8880  -11.7660 C   0  0  0  0  0
   10.9970   -4.8130  -12.7370 C   0  0  0  0  0
    9.9200   -4.5250  -13.5370 C   0  0  0  0  0
    9.1610   -3.3830  -13.3640 C   0  0  0  0  0
    8.1570   -3.0810  -14.1830 O   0  0  0  0  0
    7.9210   -3.9680  -15.2570 C   0  0  0  0  0
    8.9430   -4.0250  -16.4020 C   0  0  0  0  0
    8.7710   -4.9890  -17.1860 O   0  0  0  0  0
    9.8760   -3.1730  -16.5290 O   0  0  0  0  0
    6.9848    3.3511   -8.3424 H   0  0  0  0  0
    5.7579    3.7585   -9.5670 H   0  0  0  0  0
    5.3967    3.9788   -7.8373 H   0  0  0  0  0
    4.3151    1.9588   -8.7299 H   0  0  0  0  0
    5.5512    1.5484   -7.4961 H   0  0  0  0  0
    7.1483    0.9693   -9.2829 H   0  0  0  0  0
    6.3424    2.6563  -10.9348 H   0  0  0  0  0
    4.7815    1.7892  -11.0685 H   0  0  0  0  0
    7.5234    0.6854  -11.8437 H   0  0  0  0  0
    6.2510    1.2266  -12.9754 H   0  0  0  0  0
    6.2738   -1.2416  -12.7001 H   0  0  0  0  0
    4.7417   -0.5134  -12.1364 H   0  0  0  0  0
    7.0935   -1.3483  -10.4102 H   0  0  0  0  0
    5.4949   -2.1807  -10.5412 H   0  0  0  0  0
    3.6983    0.3315   -8.8625 H   0  0  0  0  0
    7.9208   -3.5606   -9.5017 H   0  0  0  0  0
    6.3014   -3.3102   -8.7512 H   0  0  0  0  0
    7.2470   -5.6234   -8.4311 H   0  0  0  0  0
    6.8708   -4.7690   -6.9173 H   0  0  0  0  0
    9.6099   -4.9414   -8.2282 H   0  0  0  0  0
    9.0732   -5.8658   -6.7925 H   0  0  0  0  0
   10.4001   -3.9230   -6.1512 H   0  0  0  0  0
    8.7030   -3.7660   -5.5945 H   0  0  0  0  0
    9.3589   -1.6017   -6.5353 H   0  0  0  0  0
   11.9672   -2.1569  -10.1376 H   0  0  0  0  0
   11.2681    0.2271   -9.9410 H   0  0  0  0  0
   10.3047   -0.0481  -11.4403 H   0  0  0  0  0
   12.4011    0.8675  -12.0768 H   0  0  0  0  0
   12.4164   -0.9047  -12.4873 H   0  0  0  0  0
   13.4986    1.5303   -9.8473 H   0  0  0  0  0
   14.2769   -2.1843  -11.8365 H   0  0  0  0  0
   16.3800   -2.4669  -10.5359 H   0  0  0  0  0
   17.8277   -2.6320   -8.8451 H   0  0  0  0  0
   18.6128   -1.5871  -10.0545 H   0  0  0  0  0
   19.1252   -1.5171   -8.3505 H   0  0  0  0  0
   14.9921    3.1811   -9.1404 H   0  0  0  0  0
   14.0308    2.3962   -7.8634 H   0  0  0  0  0
   15.5325    3.2571   -7.4454 H   0  0  0  0  0
    8.8655   -1.5669  -12.2184 H   0  0  0  0  0
   12.1222   -4.0818  -11.0967 H   0  0  0  0  0
   11.5875   -5.7202  -12.8652 H   0  0  0  0  0
    9.6546   -5.2191  -14.3344 H   0  0  0  0  0
    6.9977   -3.6169  -15.7177 H   0  0  0  0  0
    7.9369   -4.9630  -14.8123 H   0  0  0  0  0
    9.8169   -2.5274  -15.8209 H   0  0  0  0  0
  1  2  1  0  0  0
  2  3  1  0  0  0
  3  4  1  0  0  0
  3  8  1  0  0  0
  4  5  1  0  0  0
  5  6  1  0  0  0
  6  7  1  0  0  0
  7  8  1  0  0  0
  8  9  1  0  0  0
  8 10  1  0  0  0
 10 11  2  0  0  0
 10 12  1  0  0  0
 12 13  2  0  0  0
 12 14  1  0  0  0
 14 15  1  0  0  0
 14 19  1  0  0  0
 15 16  1  0  0  0
 16 17  1  0  0  0
 17 18  1  0  0  0
 18 19  1  0  0  0
 19 20  1  0  0  0
 20 21  2  0  0  0
 20 22  1  0  0  0
 22 23  1  0  0  0
 23 24  1  0  0  0
 23 36  1  0  0  0
 24 25  1  0  0  0
 25 26  1  0  0  0
 26 27  4  0  0  0
 26 28  4  0  0  0
 27 33  4  0  0  0
 28 29  4  0  0  0
 29 30  4  0  0  0
 30 31  1  0  0  0
 30 33  4  0  0  0
 31 32  1  0  0  0
 33 34  1  0  0  0
 34 35  1  0  0  0
 36 37  4  0  0  0
 36 38  4  0  0  0
 37 41  4  0  0  0
 38 39  4  0  0  0
 39 40  4  0  0  0
 40 41  4  0  0  0
 41 42  1  0  0  0
 42 43  1  0  0  0
 43 44  1  0  0  0
 44 45  2  0  0  0
 44 46  1  0  0  0
  1 47  1  0  0  0
  1 48  1  0  0  0
  1 49  1  0  0  0
  2 50  1  0  0  0
  2 51  1  0  0  0
  3 52  1  0  0  0
  4 53  1  0  0  0
  4 54  1  0  0  0
  5 55  1  0  0  0
  5 56  1  0  0  0
  6 57  1  0  0  0
  6 58  1  0  0  0
  7 59  1  0  0  0
  7 60  1  0  0  0
  9 61  1  0  0  0
 15 62  1  0  0  0
 15 63  1  0  0  0
 16 64  1  0  0  0
 16 65  1  0  0  0
 17 66  1  0  0  0
 17 67  1  0  0  0
 18 68  1  0  0  0
 18 69  1  0  0  0
 19 70  1  0  0  0
 23 71  1  0  0  0
 24 72  1  0  0  0
 24 73  1  0  0  0
 25 74  1  0  0  0
 25 75  1  0  0  0
 27 76  1  0  0  0
 28 77  1  0  0  0
 29 78  1  0  0  0
 32 79  1  0  0  0
 32 80  1  0  0  0
 32 81  1  0  0  0
 35 82  1  0  0  0
 35 83  1  0  0  0
 35 84  1  0  0  0
 37 85  1  0  0  0
 38 86  1  0  0  0
 39 87  1  0  0  0
 40 88  1  0  0  0
 43 89  1  0  0  0
 43 90  1  0  0  0
 46 91  1  0  0  0
M  END
$$$$
