5oug_ligand
  -I-interpret- 

 23 23  0  0  0  0  0  0  0  0999 V2000
   28.0430   -0.7830    3.6560 O   0  0  0  0  0
   27.0930   -0.3530    3.0020 C   0  0  0  0  0
   25.9800   -1.0640    2.8410 N   0  0  0  0  0
   25.3160   -1.7510    3.9370 C   0  0  0  0  0
   24.0640   -1.0180    4.3750 C   0  0  0  0  0
   23.5580   -1.4700    5.7270 C   0  0  0  0  0
   23.5110   -2.8900    5.8350 O   0  0  0  0  0
   27.1110    0.9880    2.4160 C   0  0  0  0  0
   26.1230    1.7670    1.8220 C   0  0  0  0  0
   26.7210    2.9700    1.4410 C   0  0  0  0  0
   25.8820    4.4110    0.5710 Br  0  0  0  0  0
   28.0380    2.8990    1.8160 C   0  0  0  0  0
   29.3870    4.1570    1.6070 Br  0  0  0  0  0
   28.2800    1.7110    2.4060 N   0  0  0  0  0
   25.5746   -1.1301    1.9074 H   0  0  0  0  0
   26.0027   -1.7968    4.7822 H   0  0  0  0  0
   25.0320   -2.7474    3.5984 H   0  0  0  0  0
   23.2842   -1.2249    3.6421 H   0  0  0  0  0
   24.3079    0.0418    4.4487 H   0  0  0  0  0
   22.5463   -1.0857    5.8570 H   0  0  0  0  0
   24.2410   -1.0937    6.4886 H   0  0  0  0  0
   23.1857   -3.1330    6.7049 H   0  0  0  0  0
   25.0783    1.4902    1.6806 H   0  0  0  0  0
  1  2  2  0  0  0
  2  3  1  0  0  0
  2  8  1  0  0  0
  3  4  1  0  0  0
  4  5  1  0  0  0
  5  6  1  0  0  0
  6  7  1  0  0  0
  8  9  4  0  0  0
  8 14  4  0  0  0
  9 10  4  0  0  0
 10 11  1  0  0  0
 10 12  4  0  0  0
 12 13  1  0  0  0
 12 14  4  0  0  0
  3 15  1  0  0  0
  4 16  1  0  0  0
  4 17  1  0  0  0
  5 18  1  0  0  0
  5 19  1  0  0  0
  6 20  1  0  0  0
  6 21  1  0  0  0
  7 22  1  0  0  0
  9 23  1  0  0  0
M  END
$$$$
