4nyi_ligand
  -I-interpret- 

 63 67  0  0  0  0  0  0  0  0999 V2000
   40.8730   28.4720   19.1120 O   0  0  0  0  0
   40.4840   28.7820   20.2400 C   0  0  0  0  0
   41.3670   29.5600   21.1780 C   0  0  0  0  0
   41.3610   30.9930   20.7700 C   0  0  0  0  0
   40.2240   31.6700   21.5020 C   0  0  0  0  0
   40.0260   31.6760   22.8690 C   0  0  0  0  0
   38.9020   32.3780   23.1360 N   0  0  0  0  0
   38.3490   32.8330   21.9690 C   0  0  0  0  0
   39.1760   32.3920   20.9200 C   0  0  0  0  0
   38.8520   32.7170   19.6110 C   0  0  0  0  0
   37.6890   33.4700   19.4150 C   0  0  0  0  0
   36.8870   33.8940   20.4690 C   0  0  0  0  0
   37.1920   33.5880   21.7860 C   0  0  0  0  0
   42.6960   29.0250   21.1690 N   0  3  0  0  0
   39.1590   28.4230   20.7360 N   0  0  0  0  0
   38.1850   27.6720   19.9400 C   0  0  0  0  0
   37.6700   28.5620   18.8930 C   0  0  0  0  0
   37.0570   29.7860   19.4710 C   0  0  0  0  0
   37.1280   27.2600   20.8800 C   0  0  0  0  0
   36.3740   28.4100   21.4610 C   0  0  0  0  0
   36.0630   29.4670   20.5040 N   0  3  0  0  0
   35.0820   30.5240   20.7440 C   0  0  0  0  0
   34.0020   30.2090   21.7660 C   0  0  0  0  0
   32.7210   29.7980   21.4970 C   0  0  0  0  0
   32.0610   29.6410   22.6810 N   0  0  0  0  0
   32.8880   29.9600   23.7350 C   0  0  0  0  0
   34.1140   30.3260   23.1630 C   0  0  0  0  0
   35.1610   30.7020   24.0150 C   0  0  0  0  0
   34.9590   30.7020   25.4040 C   0  0  0  0  0
   36.0830   31.1100   26.2590 C   0  0  0  0  0
   33.7170   30.3240   25.9420 C   0  0  0  0  0
   32.6540   29.9480   25.1290 C   0  0  0  0  0
   40.9872   29.4795   22.1965 H   0  0  0  0  0
   41.2264   31.0816   19.6920 H   0  0  0  0  0
   42.3108   31.4648   21.0219 H   0  0  0  0  0
   40.6677   31.1958   23.6077 H   0  0  0  0  0
   39.4744   32.4005   18.7740 H   0  0  0  0  0
   37.4007   33.7343   18.3976 H   0  0  0  0  0
   35.9951   34.4824   20.2538 H   0  0  0  0  0
   36.5707   33.9148   22.6198 H   0  0  0  0  0
   42.6688   28.0453   21.4517 H   0  0  0  0  0
   43.0843   29.0981   20.2286 H   0  0  0  0  0
   43.2778   29.5520   21.8203 H   0  0  0  0  0
   38.8993   28.7081   21.6803 H   0  0  0  0  0
   38.6070   26.7942   19.4507 H   0  0  0  0  0
   36.9058   28.0263   18.3298 H   0  0  0  0  0
   38.5013   28.8609   18.2545 H   0  0  0  0  0
   36.5544   30.3271   18.6693 H   0  0  0  0  0
   37.8477   30.3795   19.9300 H   0  0  0  0  0
   37.6073   26.7304   21.7034 H   0  0  0  0  0
   36.4173   26.6451   20.3279 H   0  0  0  0  0
   37.0048   28.8508   22.2329 H   0  0  0  0  0
   35.4249   28.0194   21.8281 H   0  0  0  0  0
   35.3840   28.7971   20.1425 H   0  0  0  0  0
   34.5690   30.6872   19.7962 H   0  0  0  0  0
   35.6381   31.3748   21.1378 H   0  0  0  0  0
   32.3016   29.6260   20.5057 H   0  0  0  0  0
   36.1267   30.9928   23.6015 H   0  0  0  0  0
   36.9265   30.4401   26.0923 H   0  0  0  0  0
   36.3739   32.1310   26.0119 H   0  0  0  0  0
   35.7791   31.0604   27.3046 H   0  0  0  0  0
   33.5839   30.3257   27.0238 H   0  0  0  0  0
   31.6891   29.6586   25.5453 H   0  0  0  0  0
  1  2  2  0  0  0
  2  3  1  0  0  0
  2 15  1  0  0  0
  3  4  1  0  0  0
  3 14  1  0  0  0
  4  5  1  0  0  0
  5  6  4  0  0  0
  5  9  4  0  0  0
  6  7  4  0  0  0
  7  8  4  0  0  0
  8  9  4  0  0  0
  8 13  4  0  0  0
  9 10  4  0  0  0
 10 11  4  0  0  0
 11 12  4  0  0  0
 12 13  4  0  0  0
 15 16  1  0  0  0
 16 17  1  0  0  0
 16 19  1  0  0  0
 17 18  1  0  0  0
 18 21  1  0  0  0
 19 20  1  0  0  0
 20 21  1  0  0  0
 21 22  1  0  0  0
 22 23  1  0  0  0
 23 24  4  0  0  0
 23 27  4  0  0  0
 24 25  4  0  0  0
 25 26  4  0  0  0
 26 27  4  0  0  0
 26 32  4  0  0  0
 27 28  4  0  0  0
 28 29  4  0  0  0
 29 30  1  0  0  0
 29 31  4  0  0  0
 31 32  4  0  0  0
  3 33  1  0  0  0
  4 34  1  0  0  0
  4 35  1  0  0  0
  6 36  1  0  0  0
 10 37  1  0  0  0
 11 38  1  0  0  0
 12 39  1  0  0  0
 13 40  1  0  0  0
 14 41  1  0  0  0
 14 42  1  0  0  0
 14 43  1  0  0  0
 15 44  1  0  0  0
 16 45  1  0  0  0
 17 46  1  0  0  0
 17 47  1  0  0  0
 18 48  1  0  0  0
 18 49  1  0  0  0
 19 50  1  0  0  0
 19 51  1  0  0  0
 20 52  1  0  0  0
 20 53  1  0  0  0
 21 54  1  0  0  0
 22 55  1  0  0  0
 22 56  1  0  0  0
 24 57  1  0  0  0
 28 58  1  0  0  0
 30 59  1  0  0  0
 30 60  1  0  0  0
 30 61  1  0  0  0
 31 62  1  0  0  0
 32 63  1  0  0  0
M  END
$$$$
