2i4j_ligand
  -I-interpret- 

 69 71  0  0  0  0  0  0  0  0999 V2000
   20.8460   20.1950   21.2420 C   0  0  0  0  0
   21.1950   19.3430   20.0180 C   0  0  0  0  0
   19.9780   18.6660   19.3810 C   0  0  0  0  0
   19.3140   17.7690   20.4310 C   0  0  0  0  0
   20.0500   16.9290   20.9940 O   0  0  0  0  0
   18.0950   17.9350   20.6490 O   0  0  0  0  0
   18.9850   19.7150   18.8690 C   0  0  0  0  0
   20.4570   17.8710   18.2870 O   0  0  0  0  0
   19.5840   17.2500   17.4440 C   0  0  0  0  0
   18.3590   16.7520   17.8890 C   0  0  0  0  0
   17.4790   16.1500   16.9980 C   0  0  0  0  0
   19.9300   17.1230   16.1030 C   0  0  0  0  0
   19.0500   16.5210   15.2060 C   0  0  0  0  0
   17.8220   16.0450   15.6510 C   0  0  0  0  0
   16.8100   15.5160   14.6370 C   0  0  0  0  0
   15.8270   16.6310   14.2680 C   0  0  0  0  0
   15.2460   16.3560   12.9500 N   0  0  0  0  0
   13.9130   15.7340   12.8380 C   0  0  0  0  0
   13.5730   14.9680   14.1190 C   0  0  0  0  0
   12.1800   14.3320   14.0800 C   0  0  0  0  0
   11.8140   13.8120   15.4750 C   0  0  0  0  0
   10.3230   13.4700   15.5750 C   0  0  0  0  0
    9.9320   13.2980   17.0470 C   0  0  0  0  0
    8.5590   12.6350   17.1800 C   0  0  0  0  0
   15.9860   16.6510   11.8880 C   0  0  0  0  0
   17.2570   17.1370   11.9940 O   0  0  0  0  0
   17.7260   17.2810   10.7210 C   0  0  0  0  0
   18.9350   17.7280   10.2130 C   0  0  0  0  0
   19.1360   17.7740    8.8310 C   0  0  0  0  0
   18.1210   17.3710    7.9770 C   0  0  0  0  0
   16.9030   16.9200    8.4950 C   0  0  0  0  0
   16.7020   16.8730    9.8640 C   0  0  0  0  0
   15.6620   16.4970   10.6100 N   0  0  0  0  0
   20.1494   20.9807   20.9495 H   0  0  0  0  0
   20.3859   19.5644   22.0028 H   0  0  0  0  0
   21.7552   20.6441   21.6417 H   0  0  0  0  0
   21.8733   18.5562   20.3480 H   0  0  0  0  0
   21.6313   20.0053   19.2703 H   0  0  0  0  0
   20.9426   17.0050   20.6489 H   0  0  0  0  0
   19.4819   20.3610   18.1452 H   0  0  0  0  0
   18.1425   19.2138   18.3924 H   0  0  0  0  0
   18.6268   20.3137   19.7065 H   0  0  0  0  0
   18.0906   16.8357   18.9421 H   0  0  0  0  0
   16.5239   15.7612   17.3511 H   0  0  0  0  0
   20.8926   17.4955   15.7526 H   0  0  0  0  0
   19.3244   16.4233   14.1556 H   0  0  0  0  0
   16.2636   14.6789   15.0716 H   0  0  0  0  0
   17.3336   15.1820   13.7413 H   0  0  0  0  0
   16.3540   17.5848   14.2403 H   0  0  0  0  0
   15.0323   16.6752   15.0127 H   0  0  0  0  0
   13.9147   15.0390   11.9983 H   0  0  0  0  0
   13.1685   16.5149   12.6828 H   0  0  0  0  0
   13.5926   15.6771   14.9465 H   0  0  0  0  0
   14.3025   14.1660   14.2313 H   0  0  0  0  0
   12.1797   13.5029   13.3724 H   0  0  0  0  0
   11.4493   15.0783   13.7680 H   0  0  0  0  0
   12.0387   14.5911   16.2034 H   0  0  0  0  0
   12.3892   12.9063   15.6673 H   0  0  0  0  0
   10.1277   12.5419   15.0377 H   0  0  0  0  0
    9.7363   14.2772   15.1365 H   0  0  0  0  0
    9.8902   14.2822   17.5136 H   0  0  0  0  0
   10.6736   12.6637   17.5325 H   0  0  0  0  0
    7.8085   13.2552   16.6900 H   0  0  0  0  0
    8.5842   11.6524   16.7088 H   0  0  0  0  0
    8.3099   12.5268   18.2356 H   0  0  0  0  0
   19.7284   18.0434   10.8906 H   0  0  0  0  0
   20.0855   18.1248    8.4267 H   0  0  0  0  0
   18.2729   17.4058    6.8982 H   0  0  0  0  0
   16.1088   16.6043    7.8185 H   0  0  0  0  0
  1  2  1  0  0  0
  2  3  1  0  0  0
  3  4  1  0  0  0
  3  7  1  0  0  0
  3  8  1  0  0  0
  4  5  1  0  0  0
  4  6  2  0  0  0
  8  9  1  0  0  0
  9 10  4  0  0  0
  9 12  4  0  0  0
 10 11  4  0  0  0
 11 14  4  0  0  0
 12 13  4  0  0  0
 13 14  4  0  0  0
 14 15  1  0  0  0
 15 16  1  0  0  0
 16 17  1  0  0  0
 17 18  1  0  0  0
 17 25  1  0  0  0
 18 19  1  0  0  0
 19 20  1  0  0  0
 20 21  1  0  0  0
 21 22  1  0  0  0
 22 23  1  0  0  0
 23 24  1  0  0  0
 25 26  4  0  0  0
 25 33  4  0  0  0
 26 27  4  0  0  0
 27 28  4  0  0  0
 27 32  4  0  0  0
 28 29  4  0  0  0
 29 30  4  0  0  0
 30 31  4  0  0  0
 31 32  4  0  0  0
 32 33  4  0  0  0
  1 34  1  0  0  0
  1 35  1  0  0  0
  1 36  1  0  0  0
  2 37  1  0  0  0
  2 38  1  0  0  0
  5 39  1  0  0  0
  7 40  1  0  0  0
  7 41  1  0  0  0
  7 42  1  0  0  0
 10 43  1  0  0  0
 11 44  1  0  0  0
 12 45  1  0  0  0
 13 46  1  0  0  0
 15 47  1  0  0  0
 15 48  1  0  0  0
 16 49  1  0  0  0
 16 50  1  0  0  0
 18 51  1  0  0  0
 18 52  1  0  0  0
 19 53  1  0  0  0
 19 54  1  0  0  0
 20 55  1  0  0  0
 20 56  1  0  0  0
 21 57  1  0  0  0
 21 58  1  0  0  0
 22 59  1  0  0  0
 22 60  1  0  0  0
 23 61  1  0  0  0
 23 62  1  0  0  0
 24 63  1  0  0  0
 24 64  1  0  0  0
 24 65  1  0  0  0
 28 66  1  0  0  0
 29 67  1  0  0  0
 30 68  1  0  0  0
 31 69  1  0  0  0
M  END
$$$$
