6dh8_ligand
  -I-interpret- 

 87 90  0  0  0  0  0  0  0  0999 V2000
   66.0040  107.8010   13.1210 N   0  0  0  0  0
   66.8780  108.5350   13.9950 C   0  0  0  0  0
   66.6470  110.0530   14.2160 C   0  0  0  0  0
   67.5730  110.8280   15.1420 C   0  0  0  0  0
   68.7160  110.0960   15.8570 C   0  0  0  0  0
   68.9520  108.5940   15.6410 C   0  0  0  0  0
   68.0180  107.8130   14.7050 C   0  0  0  0  0
   69.8400  111.0420   16.9540 S   0  0  0  0  0
   69.2200  112.2580   17.4650 O   0  0  0  0  0
   70.2390  110.2730   18.1200 O   0  0  0  0  0
   71.2060  111.3730   15.9810 N   0  0  0  0  0
   71.9300  110.1840   15.5240 C   0  0  0  0  0
   73.5060  110.4330   15.5280 C   0  0  0  0  0
   74.2240  109.1200   15.0820 C   0  0  0  0  0
   73.9620  110.7990   16.9590 C   0  0  0  0  0
   71.0600  112.5160   15.0230 C   0  0  0  0  0
   72.0190  113.6820   15.4420 C   0  0  0  0  0
   75.4340  111.3140   16.9340 C   0  0  0  0  0
   71.9610  114.6910   14.5030 O   0  0  0  0  0
   71.6010  114.2250   16.8080 C   0  0  0  0  0
   74.0460  108.9020   13.5650 C   0  0  0  0  0
   72.6280  115.1840   17.2480 N   0  0  0  0  0
   73.6600  114.8170   18.2700 C   0  0  0  0  0
   73.5830  113.8370   18.9320 O   0  0  0  0  0
   74.7460  115.7300   18.3980 O   0  0  0  0  0
   75.5990  115.6420   19.6400 C   0  0  0  0  0
   76.7780  115.9860   19.3250 C   0  0  0  0  0
   76.6810  117.6160   19.1920 O   0  0  0  0  0
   75.8690  117.9970   20.1240 C   0  0  0  0  0
   74.7120  118.9100   19.5560 O   0  0  0  0  0
   73.6290  118.1690   19.5080 C   0  0  0  0  0
   73.8380  117.0070   20.6300 C   0  0  0  0  0
   75.1640  116.7410   20.6580 C   0  0  0  0  0
   70.3010  114.9920   16.7440 C   0  0  0  0  0
   69.7240  114.7420   19.3380 C   0  0  0  0  0
   69.4820  115.3750   20.7250 C   0  0  0  0  0
   69.5750  116.9140   20.9070 C   0  0  0  0  0
   69.9100  117.8080   19.7050 C   0  0  0  0  0
   70.1500  117.1770   18.3200 C   0  0  0  0  0
   70.0530  115.6380   18.1360 C   0  0  0  0  0
   65.2359  108.2784   12.6493 H   0  0  0  0  0
   66.1519  106.8028   12.9726 H   0  0  0  0  0
   65.8259  110.5616   13.7108 H   0  0  0  0  0
   67.4251  111.8968   15.2964 H   0  0  0  0  0
   69.7740  108.0875   16.1468 H   0  0  0  0  0
   68.1697  106.7450   14.5486 H   0  0  0  0  0
   71.6160  109.9548   14.5057 H   0  0  0  0  0
   71.7059  109.3585   16.1996 H   0  0  0  0  0
   73.7552  111.2460   14.8461 H   0  0  0  0  0
   73.7877  108.2763   15.6166 H   0  0  0  0  0
   75.2873  109.2012   15.3078 H   0  0  0  0  0
   73.9024  109.9136   17.5920 H   0  0  0  0  0
   73.3144  111.5825   17.3525 H   0  0  0  0  0
   70.0299  112.8719   15.0394 H   0  0  0  0  0
   71.3168  112.1804   14.0183 H   0  0  0  0  0
   73.0400  113.3050   15.5017 H   0  0  0  0  0
   76.0839  110.5336   16.5383 H   0  0  0  0  0
   75.4976  112.1980   16.2994 H   0  0  0  0  0
   75.7456  111.5691   17.9469 H   0  0  0  0  0
   72.5498  115.4031   14.7634 H   0  0  0  0  0
   71.4842  113.3759   17.4814 H   0  0  0  0  0
   72.9839  108.8244   13.3325 H   0  0  0  0  0
   74.4768  109.7452   13.0250 H   0  0  0  0  0
   74.5520  107.9829   13.2695 H   0  0  0  0  0
   72.6370  116.1218   16.8469 H   0  0  0  0  0
   75.5154  114.6347   20.0479 H   0  0  0  0  0
   77.1186  115.5121   18.4044 H   0  0  0  0  0
   77.5155  115.6711   20.0633 H   0  0  0  0  0
   76.4446  118.5424   20.8719 H   0  0  0  0  0
   73.4842  117.7414   18.5159 H   0  0  0  0  0
   72.7350  118.7591   19.7094 H   0  0  0  0  0
   73.2640  116.1142   20.3817 H   0  0  0  0  0
   73.4834  117.3365   21.6066 H   0  0  0  0  0
   75.4055  116.4324   21.6751 H   0  0  0  0  0
   69.4807  114.3208   16.4896 H   0  0  0  0  0
   70.3572  115.7636   15.9762 H   0  0  0  0  0
   68.7729  114.2763   19.0800 H   0  0  0  0  0
   70.6124  114.1244   19.4703 H   0  0  0  0  0
   70.2846  114.9793   21.3474 H   0  0  0  0  0
   68.4433  115.1371   20.9541 H   0  0  0  0  0
   70.4080  117.0579   21.5952 H   0  0  0  0  0
   68.5695  117.2158   21.2001 H   0  0  0  0  0
   70.8637  118.2678   19.9643 H   0  0  0  0  0
   69.0244  118.4294   19.5720 H   0  0  0  0  0
   71.1894  117.4124   18.0913 H   0  0  0  0  0
   69.3484  117.5754   17.6980 H   0  0  0  0  0
   69.4054  116.3438   17.6159 H   0  0  0  0  0
  2  1  1  0  0  0
  3  2  4  0  0  0
  7  2  4  0  0  0
  4  3  4  0  0  0
  5  4  4  0  0  0
  5  6  4  0  0  0
  8  5  1  0  0  0
  6  7  4  0  0  0
  8  9  2  0  0  0
  8 10  2  0  0  0
 11  8  1  0  0  0
 11 12  1  0  0  0
 16 11  1  0  0  0
 12 13  1  0  0  0
 13 14  1  0  0  0
 13 15  1  0  0  0
 14 21  1  0  0  0
 15 18  1  0  0  0
 17 16  1  0  0  0
 17 19  1  0  0  0
 20 17  1  0  0  0
 20 22  1  0  0  0
 34 20  1  0  0  0
 22 23  1  0  0  0
 23 24  2  0  0  0
 23 25  1  0  0  0
 25 26  1  0  0  0
 26 27  1  0  0  0
 26 33  1  0  0  0
 27 28  1  0  0  0
 29 28  1  0  0  0
 29 30  1  0  0  0
 33 29  1  0  0  0
 31 30  1  0  0  0
 32 31  1  0  0  0
 33 32  1  0  0  0
 40 34  1  0  0  0
 35 36  1  0  0  0
 35 40  1  0  0  0
 36 37  1  0  0  0
 37 38  1  0  0  0
 38 39  1  0  0  0
 39 40  1  0  0  0
  1 41  1  0  0  0
  1 42  1  0  0  0
  3 43  1  0  0  0
  4 44  1  0  0  0
  6 45  1  0  0  0
  7 46  1  0  0  0
 12 47  1  0  0  0
 12 48  1  0  0  0
 13 49  1  0  0  0
 14 50  1  0  0  0
 14 51  1  0  0  0
 15 52  1  0  0  0
 15 53  1  0  0  0
 16 54  1  0  0  0
 16 55  1  0  0  0
 17 56  1  0  0  0
 18 57  1  0  0  0
 18 58  1  0  0  0
 18 59  1  0  0  0
 19 60  1  0  0  0
 20 61  1  0  0  0
 21 62  1  0  0  0
 21 63  1  0  0  0
 21 64  1  0  0  0
 22 65  1  0  0  0
 26 66  1  0  0  0
 27 67  1  0  0  0
 27 68  1  0  0  0
 29 69  1  0  0  0
 31 70  1  0  0  0
 31 71  1  0  0  0
 32 72  1  0  0  0
 32 73  1  0  0  0
 33 74  1  0  0  0
 34 75  1  0  0  0
 34 76  1  0  0  0
 35 77  1  0  0  0
 35 78  1  0  0  0
 36 79  1  0  0  0
 36 80  1  0  0  0
 37 81  1  0  0  0
 37 82  1  0  0  0
 38 83  1  0  0  0
 38 84  1  0  0  0
 39 85  1  0  0  0
 39 86  1  0  0  0
 40 87  1  0  0  0
M  END
$$$$
