5mgf_ligand
  -I-interpret- 

 23 23  0  0  0  0  0  0  0  0999 V2000
  -31.7190   -4.3140    1.2220 C   0  0  0  0  0
  -30.4240   -4.8940    1.7480 C   0  0  0  0  0
  -29.8730   -6.0290    0.8470 C   0  0  0  0  0
  -30.5450   -6.4820   -0.0760 O   0  0  0  0  0
  -28.4850   -6.5550    1.1200 C   0  0  0  0  0
  -27.6180   -6.0120    2.0460 C   0  0  0  0  0
  -26.5050   -6.7360    2.0000 N   0  0  0  0  0
  -26.6130   -7.7160    1.0960 C   0  0  0  0  0
  -27.8670   -7.6180    0.5280 C   0  0  0  0  0
  -25.5130   -8.7400    0.7810 C   0  0  0  0  0
  -24.3630   -8.5140    1.1770 O   0  0  0  0  0
  -25.8440  -10.0240    0.2260 O   0  0  0  0  0
  -24.8420  -11.0130    0.4000 C   0  0  0  0  0
  -31.5534   -3.9026    0.2263 H   0  0  0  0  0
  -32.4732   -5.0993    1.1713 H   0  0  0  0  0
  -32.0599   -3.5238    1.8909 H   0  0  0  0  0
  -30.6194   -5.3129    2.7351 H   0  0  0  0  0
  -29.6832   -4.0948    1.7732 H   0  0  0  0  0
  -27.8094   -5.1544    2.6909 H   0  0  0  0  0
  -28.2834   -8.2647   -0.2443 H   0  0  0  0  0
  -23.9215  -10.6847   -0.0828 H   0  0  0  0  0
  -24.6620  -11.1627    1.4646 H   0  0  0  0  0
  -25.1753  -11.9489   -0.0485 H   0  0  0  0  0
  1  2  1  0  0  0
  2  3  1  0  0  0
  3  4  2  0  0  0
  3  5  1  0  0  0
  5  6  4  0  0  0
  5  9  4  0  0  0
  6  7  4  0  0  0
  7  8  4  0  0  0
  8  9  4  0  0  0
  8 10  1  0  0  0
 10 11  2  0  0  0
 10 12  1  0  0  0
 12 13  1  0  0  0
  1 14  1  0  0  0
  1 15  1  0  0  0
  1 16  1  0  0  0
  2 17  1  0  0  0
  2 18  1  0  0  0
  6 19  1  0  0  0
  9 20  1  0  0  0
 13 21  1  0  0  0
 13 22  1  0  0  0
 13 23  1  0  0  0
M  END
$$$$
