4phw_ligand
  -I-interpret- 

 50 54  0  0  0  0  0  0  0  0999 V2000
   23.9520   77.7000   18.5680 O   0  0  0  0  0
   24.5100   78.5000   19.2990 C   0  0  0  0  0
   24.7610   79.8850   18.7890 C   0  0  0  0  0
   24.9200   80.9890   19.5170 N   0  0  0  0  0
   25.1410   82.0540   18.6420 C   0  0  0  0  0
   25.3900   83.4570   18.8430 C   0  0  0  0  0
   25.5770   84.3120   17.7180 C   0  0  0  0  0
   25.5330   83.7960   16.4340 C   0  0  0  0  0
   25.2960   82.4100   16.2400 C   0  0  0  0  0
   25.0990   81.5500   17.3710 C   0  0  0  0  0
   24.8610   80.1960   17.4760 N   0  0  0  0  0
   24.9740   78.0240   20.7080 C   0  0  0  0  0
   25.8330   78.7960   21.5310 C   0  0  0  0  0
   26.2070   78.3140   22.7830 C   0  0  0  0  0
   25.7440   77.0730   23.2210 C   0  0  0  0  0
   26.1680   76.5830   24.4910 O   0  0  0  0  0
   25.1340   76.1280   25.3770 C   0  0  0  0  0
   24.0270   76.8730   25.5130 N   0  0  0  0  0
   23.0250   76.5100   26.3530 C   0  0  0  0  0
   23.1390   75.3150   27.1190 C   0  0  0  0  0
   24.2800   74.5380   26.9920 C   0  0  0  0  0
   25.3180   74.9170   26.1280 C   0  0  0  0  0
   26.5710   74.0020   26.0190 C   0  0  0  0  0
   27.7530   74.7680   26.4390 C   0  0  0  0  0
   28.9960   73.8930   26.4800 C   0  0  0  0  0
   29.2390   73.1450   25.2490 O   0  0  0  0  0
   28.0200   72.5080   24.7130 C   0  0  0  0  0
   26.8070   73.4300   24.7020 C   0  0  0  0  0
   24.8880   76.2830   22.3810 C   0  0  0  0  0
   24.5150   76.7660   21.1530 C   0  0  0  0  0
   25.4355   83.8648   19.8528 H   0  0  0  0  0
   25.7554   85.3766   17.8692 H   0  0  0  0  0
   25.6798   84.4515   15.5755 H   0  0  0  0  0
   25.2637   81.9989   15.2310 H   0  0  0  0  0
   26.1990   79.7627   21.1851 H   0  0  0  0  0
   26.8621   78.9069   23.4213 H   0  0  0  0  0
   22.1343   77.1321   26.4413 H   0  0  0  0  0
   22.3395   75.0151   27.7964 H   0  0  0  0  0
   24.3719   73.6195   27.5717 H   0  0  0  0  0
   26.3799   73.1504   26.6719 H   0  0  0  0  0
   27.5731   75.1607   27.4398 H   0  0  0  0  0
   27.9184   75.5706   25.7203 H   0  0  0  0  0
   28.8513   73.1640   27.2773 H   0  0  0  0  0
   29.8504   74.5529   26.6306 H   0  0  0  0  0
   27.7823   71.6616   25.3573 H   0  0  0  0  0
   28.2253   72.2245   23.6807 H   0  0  0  0  0
   26.9921   74.2411   23.9978 H   0  0  0  0  0
   25.9309   72.8500   24.4118 H   0  0  0  0  0
   24.5375   75.3071   22.7169 H   0  0  0  0  0
   23.8587   76.1735   20.5155 H   0  0  0  0  0
  1  2  2  0  0  0
  2  3  1  0  0  0
  2 12  1  0  0  0
  3  4  4  0  0  0
  3 11  4  0  0  0
  4  5  4  0  0  0
  5  6  4  0  0  0
  5 10  4  0  0  0
  6  7  4  0  0  0
  7  8  4  0  0  0
  8  9  4  0  0  0
  9 10  4  0  0  0
 10 11  4  0  0  0
 12 13  4  0  0  0
 12 30  4  0  0  0
 13 14  4  0  0  0
 14 15  4  0  0  0
 15 16  1  0  0  0
 15 29  4  0  0  0
 16 17  1  0  0  0
 17 18  4  0  0  0
 17 22  4  0  0  0
 18 19  4  0  0  0
 19 20  4  0  0  0
 20 21  4  0  0  0
 21 22  4  0  0  0
 22 23  1  0  0  0
 23 24  1  0  0  0
 23 28  1  0  0  0
 24 25  1  0  0  0
 25 26  1  0  0  0
 26 27  1  0  0  0
 27 28  1  0  0  0
 29 30  4  0  0  0
  6 31  1  0  0  0
  7 32  1  0  0  0
  8 33  1  0  0  0
  9 34  1  0  0  0
 13 35  1  0  0  0
 14 36  1  0  0  0
 19 37  1  0  0  0
 20 38  1  0  0  0
 21 39  1  0  0  0
 23 40  1  0  0  0
 24 41  1  0  0  0
 24 42  1  0  0  0
 25 43  1  0  0  0
 25 44  1  0  0  0
 27 45  1  0  0  0
 27 46  1  0  0  0
 28 47  1  0  0  0
 28 48  1  0  0  0
 29 49  1  0  0  0
 30 50  1  0  0  0
M  END
$$$$
