### 
### Created by X-TOOL on Mon Sep 10 21:13:19 2018
### 

@<TRIPOS>MOLECULE
4qc1_ligand
  130   130     1     0     0
SMALL
GAST_HUCK


@<TRIPOS>ATOM
      1 N          10.6820   16.6720  -10.7880 N.4       1 GLY         0.2357
      2 CA         11.6320   16.9850   -9.6760 C.3       1 GLY         0.0545
      3 C          12.3520   15.7680   -9.1230 C.2       1 GLY         0.2234
      4 O          11.8820   15.1320   -8.1890 O.2       1 GLY        -0.3911
      5 N          13.5060   15.4400   -9.6990 N.am      1 GLY        -0.2639
      6 CA         14.1020   14.1120   -9.5200 C.3       1 GLY         0.1202
      7 C          13.4940   13.0050  -10.4130 C.2       1 GLY         0.2007
      8 O          14.0700   11.9160  -10.5090 O.2       1 GLY        -0.3947
      9 OH          7.6810    9.4130   -8.6000 O.2       1 ALY        -0.3974
     10 CH          8.0740   10.1810   -7.7080 C.2       1 ALY         0.1729
     11 CH3         8.3050    9.7370   -6.2960 C.3       1 ALY         0.0256
     12 NZ          8.2760   11.4900   -7.9170 N.am      1 ALY        -0.2872
     13 CE          8.1070   12.1030   -9.2110 C.3       1 ALY         0.0309
     14 CD          9.4160   12.0960   -9.9650 C.3       1 ALY        -0.0325
     15 CG          9.4170   13.1630  -11.0550 C.3       1 ALY        -0.0470
     16 CB         10.2850   12.8180  -12.2760 C.3       1 ALY        -0.0123
     17 CA         11.6730   12.3070  -11.9130 C.3       1 ALY         0.1310
     18 N          12.3720   13.2870  -11.0930 N.am      1 ALY        -0.2640
     19 C          12.3980   11.9390  -13.1820 C.2       1 ALY         0.2039
     20 O          13.1020   12.7400  -13.7790 O.2       1 ALY        -0.3944
     21 N          12.1990   10.7010  -13.6240 N.am      1 ALA        -0.2640
     22 CA         12.7950   10.1930  -14.8610 C.3       1 ALA         0.1284
     23 C          11.6970    9.3760  -15.5550 C.2       1 ALA         0.2061
     24 O          11.7230    8.1610  -15.5700 O.2       1 ALA        -0.3942
     25 CB         14.0040    9.3160  -14.5320 C.3       1 ALA        -0.0244
     26 N          10.6860   10.0580  -16.0560 N.am      1 PRO        -0.2498
     27 CA          9.4940    9.3570  -16.5010 C.3       1 PRO         0.1338
     28 C           9.8030    8.4050  -17.6160 C.2       1 PRO         0.2041
     29 O          10.6130    8.7150  -18.5260 O.2       1 PRO        -0.3944
     30 CB          8.5660   10.4770  -17.0400 C.3       1 PRO        -0.0104
     31 CG          9.4300   11.6750  -17.1800 C.3       1 PRO        -0.0281
     32 CD         10.6160   11.5130  -16.2790 C.3       1 PRO         0.0369
     33 N           9.1510    7.2520  -17.5570 N.am      1 ARG        -0.2637
     34 CA          9.2550    6.3080  -18.6710 C.3       1 ARG         0.1311
     35 C           8.5540    6.8780  -19.9110 C.2       1 ARG         0.2039
     36 O           8.9630    6.6130  -21.0210 O.2       1 ARG        -0.3944
     37 CB          8.6190    4.9640  -18.3340 C.3       1 ARG        -0.0092
     38 CG          9.1330    4.2670  -17.0990 C.3       1 ARG        -0.0156
     39 CD          8.4420    2.9110  -16.9140 C.3       1 ARG         0.0627
     40 NE          8.8950    2.2910  -15.6770 N.pl3     1 ARG        -0.2723
     41 CZ         10.0620    1.6580  -15.5280 C.cat     1 ARG         0.2882
     42 NH1        10.8960    1.5200  -16.5900 N.pl3     1 ARG        -0.2849
     43 NH2        10.3690    1.1080  -14.3180 N.pl3     1 ARG        -0.2849
     44 N           7.4710    7.6120  -19.6950 N.am      1 LYS        -0.2637
     45 CA          6.6760    8.1750  -20.7940 C.3       1 LYS         0.1309
     46 C           7.0110    9.6780  -20.8720 C.2       1 LYS         0.2033
     47 O           6.8160   10.4010  -19.9130 O.2       1 LYS        -0.3944
     48 CB          5.1770    7.9250  -20.5300 C.3       1 LYS        -0.0122
     49 CG          4.2580    8.2530  -21.7090 C.3       1 LYS        -0.0440
     50 CD          2.8260    8.4990  -21.2500 C.3       1 LYS        -0.0124
     51 CE          1.9320    9.0360  -22.3650 C.3       1 LYS        -0.0354
     52 NZ          2.2780   10.4180  -22.8020 N.4       1 LYS         0.2185
     53 N           7.5520   10.1390  -21.9970 N.am      1 GLN        -0.2693
     54 CA          7.8720   11.5630  -22.1700 C.3       1 GLN         0.0964
     55 C           9.1840   11.9200  -21.4720 C.2       1 GLN         0.0602
     56 O          10.1420   11.1510  -21.5200 O.co2     1 GLN        -0.5666
     57 CB          6.7330   12.4510  -21.6340 C.3       1 GLN        -0.0010
     58 CG          6.6920   13.8410  -22.2330 C.3       1 GLN         0.0407
     59 CD          6.4080   13.8160  -23.7240 C.2       1 GLN         0.1737
     60 OE1         6.1140   12.7620  -24.2970 O.2       1 GLN        -0.3973
     61 NE2         6.4890   14.9840  -24.3620 N.am      1 GLN        -0.3009
     62 OXT         9.2920   12.9790  -20.8570 O.co2     1 GLN        -0.5666
     63 H1         10.2427   17.5224  -11.1039 H         1 GLY         0.2012
     64 H2          9.9767   16.0323  -10.4573 H         1 GLY         0.2012
     65 H3         11.1863   16.2504  -11.5522 H         1 GLY         0.2012
     66 H4         11.0656   17.4540   -8.8579 H         1 GLY         0.1061
     67 H5         12.3857   17.6921  -10.0527 H         1 GLY         0.1061
     68 H6         13.9776   16.1146  -10.2669 H         1 GLY         0.1882
     69 H7         13.9694   13.8157   -8.4690 H         1 GLY         0.0763
     70 H8         15.1757   14.1847   -9.7478 H         1 GLY         0.0763
     71 H9          8.6493   10.5913   -5.6947 H         1 ALY         0.0467
     72 H10         9.0694    8.9462   -6.2807 H         1 ALY         0.0467
     73 H11         7.3660    9.3476   -5.8758 H         1 ALY         0.0467
     74 H12         8.5544   12.0628   -7.1461 H         1 ALY         0.1850
     75 H13         7.7684   13.1414   -9.0800 H         1 ALY         0.0520
     76 H14         7.3544   11.5414   -9.7839 H         1 ALY         0.0520
     77 H15         9.5613   11.1083  -10.4268 H         1 ALY         0.0285
     78 H16        10.2383   12.2969   -9.2625 H         1 ALY         0.0285
     79 H17         9.7924   14.1006  -10.6192 H         1 ALY         0.0268
     80 H18         8.3817   13.3066  -11.3977 H         1 ALY         0.0268
     81 H19        10.3976   13.7239  -12.8897 H         1 ALY         0.0312
     82 H20         9.7703   12.0410  -12.8601 H         1 ALY         0.0312
     83 H21        11.5628   11.3923  -11.3121 H         1 ALY         0.0800
     84 H22        11.9986   14.2128  -11.0340 H         1 ALY         0.1883
     85 H23        11.6166   10.0899  -13.0879 H         1 ALA         0.1883
     86 H24        13.1121   11.0266  -15.5048 H         1 ALA         0.0797
     87 H25        14.4472    8.9376  -15.4649 H         1 ALA         0.0277
     88 H26        13.6834    8.4686  -13.9083 H         1 ALA         0.0277
     89 H27        14.7510    9.9111  -13.9863 H         1 ALA         0.0277
     90 H28         9.0246    8.8162  -15.6660 H         1 PRO         0.0802
     91 H29         7.7486   10.6735  -16.3306 H         1 PRO         0.0313
     92 H30         8.1446   10.1910  -18.0150 H         1 PRO         0.0313
     93 H31         8.8662   12.5749  -16.8931 H         1 PRO         0.0287
     94 H32         9.7665   11.7701  -18.2229 H         1 PRO         0.0287
     95 H33        11.5317   11.8802  -16.7654 H         1 PRO         0.0524
     96 H34        10.4645   12.0488  -15.3304 H         1 PRO         0.0524
     97 H35         8.5927    7.0290  -16.7579 H         1 ARG         0.1883
     98 H36        10.3198    6.1506  -18.8977 H         1 ARG         0.0800
     99 H37         8.7835    4.2925  -19.1896 H         1 ARG         0.0313
    100 H38         7.5398    5.1292  -18.1997 H         1 ARG         0.0313
    101 H39         8.9333    4.8968  -16.2195 H         1 ARG         0.0301
    102 H40        10.2170    4.1091  -17.1984 H         1 ARG         0.0301
    103 H41         8.6896    2.2562  -17.7625 H         1 ARG         0.0689
    104 H42         7.3529    3.0591  -16.8706 H         1 ARG         0.0689
    105 H43         8.2716    2.3442  -14.8588 H         1 ARG         0.2642
    106 H44        11.7963    1.0324  -16.4778 H         1 ARG         0.2615
    107 H45        10.6285    1.9029  -17.5080 H         1 ARG         0.2615
    108 H46         9.7251    1.2221  -13.5222 H         1 ARG         0.2615
    109 H47        11.2447    0.5787  -14.2002 H         1 ARG         0.2615
    110 H48         7.1862    7.7880  -18.7527 H         1 LYS         0.1883
    111 H49         6.9544    7.6909  -21.7417 H         1 LYS         0.0800
    112 H50         4.8714    8.5450  -19.6743 H         1 LYS         0.0312
    113 H51         5.0457    6.8623  -20.2783 H         1 LYS         0.0312
    114 H52         4.2670    7.4092  -22.4146 H         1 LYS         0.0269
    115 H53         4.6319    9.1565  -22.2129 H         1 LYS         0.0269
    116 H54         2.8408    9.2303  -20.4284 H         1 LYS         0.0317
    117 H55         2.4047    7.5495  -20.8882 H         1 LYS         0.0317
    118 H56         0.8923    9.0362  -22.0058 H         1 LYS         0.0813
    119 H57         2.0200    8.3659  -23.2329 H         1 LYS         0.0813
    120 H58         1.6499   10.7053  -23.5362 H         1 LYS         0.1994
    121 H59         3.2257   10.4346  -23.1449 H         1 LYS         0.1994
    122 H60         2.1923   11.0489  -22.0205 H         1 LYS         0.1994
    123 H61         7.7455    9.5013  -22.7426 H         1 GLN         0.1875
    124 H62         7.9878   11.7599  -23.2460 H         1 GLN         0.0727
    125 H63         6.8555   12.5486  -20.5452 H         1 GLN         0.0330
    126 H64         5.7765   11.9535  -21.8523 H         1 GLN         0.0330
    127 H65         7.6644   14.3273  -22.0660 H         1 GLN         0.0504
    128 H66         5.9019   14.4193  -21.7318 H         1 GLN         0.0504
    129 H67         6.3124   15.0300  -25.3452 H         1 GLN         0.1814
    130 H68         6.7263   15.8140  -23.8573 H         1 GLN         0.1814
@<TRIPOS>BOND
     1    2    1 1  
     2    3    2 1  
     3    3    4 2  
     4    5    3 am 
     5    6    5 1  
     6    7    6 1  
     7    7    8 2  
     8   18    7 am 
     9   10    9 2  
    10   10   11 1  
    11   12   10 am 
    12   13   12 1  
    13   14   13 1  
    14   15   14 1  
    15   16   15 1  
    16   17   16 1  
    17   17   18 1  
    18   17   19 1  
    19   19   20 2  
    20   19   21 am 
    21   21   22 1  
    22   22   23 1  
    23   22   25 1  
    24   23   24 2  
    25   23   26 am 
    26   26   27 1  
    27   26   32 1  
    28   27   28 1  
    29   27   30 1  
    30   28   29 2  
    31   28   33 am 
    32   30   31 1  
    33   31   32 1  
    34   33   34 1  
    35   34   35 1  
    36   34   37 1  
    37   35   36 2  
    38   35   44 am 
    39   37   38 1  
    40   38   39 1  
    41   39   40 1  
    42   40   41 ar 
    43   41   42 ar 
    44   41   43 ar 
    45   44   45 1  
    46   45   46 1  
    47   45   48 1  
    48   46   47 2  
    49   46   53 am 
    50   48   49 1  
    51   49   50 1  
    52   50   51 1  
    53   51   52 1  
    54   53   54 1  
    55   54   55 1  
    56   54   57 1  
    57   55   56 ar 
    58   55   62 ar 
    59   57   58 1  
    60   58   59 1  
    61   59   60 2  
    62   59   61 am 
    63    1   63 1  
    64    1   64 1  
    65    1   65 1  
    66    2   66 1  
    67    2   67 1  
    68    5   68 1  
    69    6   69 1  
    70    6   70 1  
    71   11   71 1  
    72   11   72 1  
    73   11   73 1  
    74   12   74 1  
    75   13   75 1  
    76   13   76 1  
    77   14   77 1  
    78   14   78 1  
    79   15   79 1  
    80   15   80 1  
    81   16   81 1  
    82   16   82 1  
    83   17   83 1  
    84   18   84 1  
    85   21   85 1  
    86   22   86 1  
    87   25   87 1  
    88   25   88 1  
    89   25   89 1  
    90   27   90 1  
    91   30   91 1  
    92   30   92 1  
    93   31   93 1  
    94   31   94 1  
    95   32   95 1  
    96   32   96 1  
    97   33   97 1  
    98   34   98 1  
    99   37   99 1  
   100   37  100 1  
   101   38  101 1  
   102   38  102 1  
   103   39  103 1  
   104   39  104 1  
   105   40  105 1  
   106   42  106 1  
   107   42  107 1  
   108   43  108 1  
   109   43  109 1  
   110   44  110 1  
   111   45  111 1  
   112   48  112 1  
   113   48  113 1  
   114   49  114 1  
   115   49  115 1  
   116   50  116 1  
   117   50  117 1  
   118   51  118 1  
   119   51  119 1  
   120   52  120 1  
   121   52  121 1  
   122   52  122 1  
   123   53  123 1  
   124   54  124 1  
   125   57  125 1  
   126   57  126 1  
   127   58  127 1  
   128   58  128 1  
   129   61  129 1  
   130   61  130 1  
@<TRIPOS>SUBSTRUCTURE
     1 GLY         1

