4qc1_ligand
  -I-interpret- 

130130  0  0  0  0  0  0  0  0999 V2000
   10.6820   16.6720  -10.7880 N   0  3  0  0  0
   11.6320   16.9850   -9.6760 C   0  0  0  0  0
   12.3520   15.7680   -9.1230 C   0  0  0  0  0
   11.8820   15.1320   -8.1890 O   0  0  0  0  0
   13.5060   15.4400   -9.6990 N   0  0  0  0  0
   14.1020   14.1120   -9.5200 C   0  0  0  0  0
   13.4940   13.0050  -10.4130 C   0  0  0  0  0
   14.0700   11.9160  -10.5090 O   0  0  0  0  0
    7.6810    9.4130   -8.6000 O   0  0  0  0  0
    8.0740   10.1810   -7.7080 C   0  0  0  0  0
    8.3050    9.7370   -6.2960 C   0  0  0  0  0
    8.2760   11.4900   -7.9170 N   0  0  0  0  0
    8.1070   12.1030   -9.2110 C   0  0  0  0  0
    9.4160   12.0960   -9.9650 C   0  0  0  0  0
    9.4170   13.1630  -11.0550 C   0  0  0  0  0
   10.2850   12.8180  -12.2760 C   0  0  0  0  0
   11.6730   12.3070  -11.9130 C   0  0  0  0  0
   12.3720   13.2870  -11.0930 N   0  0  0  0  0
   12.3980   11.9390  -13.1820 C   0  0  0  0  0
   13.1020   12.7400  -13.7790 O   0  0  0  0  0
   12.1990   10.7010  -13.6240 N   0  0  0  0  0
   12.7950   10.1930  -14.8610 C   0  0  0  0  0
   11.6970    9.3760  -15.5550 C   0  0  0  0  0
   11.7230    8.1610  -15.5700 O   0  0  0  0  0
   14.0040    9.3160  -14.5320 C   0  0  0  0  0
   10.6860   10.0580  -16.0560 N   0  0  0  0  0
    9.4940    9.3570  -16.5010 C   0  0  0  0  0
    9.8030    8.4050  -17.6160 C   0  0  0  0  0
   10.6130    8.7150  -18.5260 O   0  0  0  0  0
    8.5660   10.4770  -17.0400 C   0  0  0  0  0
    9.4300   11.6750  -17.1800 C   0  0  0  0  0
   10.6160   11.5130  -16.2790 C   0  0  0  0  0
    9.1510    7.2520  -17.5570 N   0  0  0  0  0
    9.2550    6.3080  -18.6710 C   0  0  0  0  0
    8.5540    6.8780  -19.9110 C   0  0  0  0  0
    8.9630    6.6130  -21.0210 O   0  0  0  0  0
    8.6190    4.9640  -18.3340 C   0  0  0  0  0
    9.1330    4.2670  -17.0990 C   0  0  0  0  0
    8.4420    2.9110  -16.9140 C   0  0  0  0  0
    8.8950    2.2910  -15.6770 N   0  0  0  0  0
   10.0620    1.6580  -15.5280 C   0  0  0  0  0
   10.8960    1.5200  -16.5900 N   0  0  0  0  0
   10.3690    1.1080  -14.3180 N   0  0  0  0  0
    7.4710    7.6120  -19.6950 N   0  0  0  0  0
    6.6760    8.1750  -20.7940 C   0  0  0  0  0
    7.0110    9.6780  -20.8720 C   0  0  0  0  0
    6.8160   10.4010  -19.9130 O   0  0  0  0  0
    5.1770    7.9250  -20.5300 C   0  0  0  0  0
    4.2580    8.2530  -21.7090 C   0  0  0  0  0
    2.8260    8.4990  -21.2500 C   0  0  0  0  0
    1.9320    9.0360  -22.3650 C   0  0  0  0  0
    2.2780   10.4180  -22.8020 N   0  3  0  0  0
    7.5520   10.1390  -21.9970 N   0  0  0  0  0
    7.8720   11.5630  -22.1700 C   0  0  0  0  0
    9.1840   11.9200  -21.4720 C   0  0  0  0  0
   10.1420   11.1510  -21.5200 O   0  0  0  0  0
    6.7330   12.4510  -21.6340 C   0  0  0  0  0
    6.6920   13.8410  -22.2330 C   0  0  0  0  0
    6.4080   13.8160  -23.7240 C   0  0  0  0  0
    6.1140   12.7620  -24.2970 O   0  0  0  0  0
    6.4890   14.9840  -24.3620 N   0  0  0  0  0
    9.2920   12.9790  -20.8570 O   0  0  0  0  0
   10.2381   17.5332  -11.1069 H   0  0  0  0  0
   11.1935   16.2455  -11.5606 H   0  0  0  0  0
    9.9689   16.0246  -10.4522 H   0  0  0  0  0
   11.0485   17.4148   -8.8618 H   0  0  0  0  0
   12.3909   17.6569  -10.0768 H   0  0  0  0  0
   13.9870   16.1281  -10.2783 H   0  0  0  0  0
   13.9214   13.8200   -8.4855 H   0  0  0  0  0
   15.1540   14.1971   -9.7922 H   0  0  0  0  0
    7.3739    9.3513   -5.8808 H   0  0  0  0  0
    9.0625    8.9534   -6.2822 H   0  0  0  0  0
    8.6461   10.5844   -5.7012 H   0  0  0  0  0
    8.5600   12.0743   -7.1307 H   0  0  0  0  0
    7.7768   13.1332   -9.0779 H   0  0  0  0  0
    7.3649   11.5412   -9.7783 H   0  0  0  0  0
    9.5499   11.1187  -10.4288 H   0  0  0  0  0
   10.2259   12.3057   -9.2663 H   0  0  0  0  0
    9.8286   14.0712  -10.6148 H   0  0  0  0  0
    8.3906   13.2619  -11.4084 H   0  0  0  0  0
   10.4146   13.7331  -12.8538 H   0  0  0  0  0
    9.7775   12.0240  -12.8238 H   0  0  0  0  0
   11.6145   11.4057  -11.3028 H   0  0  0  0  0
   11.9911   14.2313  -11.0328 H   0  0  0  0  0
   11.6049   10.0777  -13.0772 H   0  0  0  0  0
   13.1474   10.9981  -15.5058 H   0  0  0  0  0
   14.7434    9.9068  -13.9913 H   0  0  0  0  0
   13.6850    8.4768  -13.9139 H   0  0  0  0  0
   14.4422    8.9416  -15.4572 H   0  0  0  0  0
    9.0535    8.7719  -15.6937 H   0  0  0  0  0
    7.7313   10.6635  -16.3643 H   0  0  0  0  0
    8.1139   10.1974  -17.9916 H   0  0  0  0  0
    8.8726   12.5702  -16.9044 H   0  0  0  0  0
    9.7593   11.7777  -18.2140 H   0  0  0  0  0
   11.5305   11.9118  -16.7181 H   0  0  0  0  0
   10.5126   12.0726  -15.3493 H   0  0  0  0  0
    8.5815    7.0246  -16.7419 H   0  0  0  0  0
   10.3166    6.1565  -18.8662 H   0  0  0  0  0
    8.8477    4.3036  -19.1705 H   0  0  0  0  0
    7.5642    5.1671  -18.1490 H   0  0  0  0  0
    8.9234    4.8905  -16.2298 H   0  0  0  0  0
   10.2053    4.1039  -17.2073 H   0  0  0  0  0
    8.6904    2.2624  -17.7541 H   0  0  0  0  0
    7.3631    3.0596  -16.8685 H   0  0  0  0  0
    8.2776    2.3437  -14.8668 H   0  0  0  0  0
   10.6311    1.8992  -17.4991 H   0  0  0  0  0
   11.2362    0.5838  -14.2013 H   0  0  0  0  0
    9.7314    1.2209  -13.5299 H   0  0  0  0  0
    7.1805    7.7915  -18.7339 H   0  0  0  0  0
    6.9102    7.7034  -21.7484 H   0  0  0  0  0
    4.8856    8.5793  -19.7084 H   0  0  0  0  0
    5.0636    6.8604  -20.3253 H   0  0  0  0  0
    4.2599    7.4053  -22.3942 H   0  0  0  0  0
    4.6259    9.1583  -22.1918 H   0  0  0  0  0
    2.8533    9.2447  -20.4554 H   0  0  0  0  0
    2.4126    7.5459  -20.9202 H   0  0  0  0  0
    0.9129    9.0631  -21.9793 H   0  0  0  0  0
    2.0597    8.3814  -23.2271 H   0  0  0  0  0
    1.6419   10.7077  -23.5449 H   0  0  0  0  0
    2.1910   11.0554  -22.0105 H   0  0  0  0  0
    3.2371   10.4336  -23.1487 H   0  0  0  0  0
    7.7493    9.4885  -22.7575 H   0  0  0  0  0
    7.9863   11.7470  -23.2383 H   0  0  0  0  0
    9.9027   10.3751  -22.0322 H   0  0  0  0  0
    6.8949   12.5682  -20.5625 H   0  0  0  0  0
    5.7947   11.9615  -21.8951 H   0  0  0  0  0
    7.6671   14.3039  -22.0817 H   0  0  0  0  0
    5.8913   14.3967  -21.7450 H   0  0  0  0  0
    6.3046   15.0316  -25.3641 H   0  0  0  0  0
    6.7354   15.8299  -23.8480 H   0  0  0  0  0
  2  1  1  0  0  0
  3  2  1  0  0  0
  3  4  2  0  0  0
  5  3  1  0  0  0
  6  5  1  0  0  0
  7  6  1  0  0  0
  7  8  2  0  0  0
 18  7  1  0  0  0
 10  9  2  0  0  0
 10 11  1  0  0  0
 12 10  1  0  0  0
 13 12  1  0  0  0
 14 13  1  0  0  0
 15 14  1  0  0  0
 16 15  1  0  0  0
 17 16  1  0  0  0
 17 18  1  0  0  0
 17 19  1  0  0  0
 19 20  2  0  0  0
 19 21  1  0  0  0
 21 22  1  0  0  0
 22 23  1  0  0  0
 22 25  1  0  0  0
 23 24  2  0  0  0
 23 26  1  0  0  0
 26 27  1  0  0  0
 26 32  1  0  0  0
 27 28  1  0  0  0
 27 30  1  0  0  0
 28 29  2  0  0  0
 28 33  1  0  0  0
 30 31  1  0  0  0
 31 32  1  0  0  0
 33 34  1  0  0  0
 34 35  1  0  0  0
 34 37  1  0  0  0
 35 36  2  0  0  0
 35 44  1  0  0  0
 37 38  1  0  0  0
 38 39  1  0  0  0
 39 40  1  0  0  0
 40 41  1  0  0  0
 41 42  2  0  0  0
 41 43  1  0  0  0
 44 45  1  0  0  0
 45 46  1  0  0  0
 45 48  1  0  0  0
 46 47  2  0  0  0
 46 53  1  0  0  0
 48 49  1  0  0  0
 49 50  1  0  0  0
 50 51  1  0  0  0
 51 52  1  0  0  0
 53 54  1  0  0  0
 54 55  1  0  0  0
 54 57  1  0  0  0
 55 56  1  0  0  0
 55 62  2  0  0  0
 57 58  1  0  0  0
 58 59  1  0  0  0
 59 60  2  0  0  0
 59 61  1  0  0  0
  1 63  1  0  0  0
  1 64  1  0  0  0
  1 65  1  0  0  0
  2 66  1  0  0  0
  2 67  1  0  0  0
  5 68  1  0  0  0
  6 69  1  0  0  0
  6 70  1  0  0  0
 11 71  1  0  0  0
 11 72  1  0  0  0
 11 73  1  0  0  0
 12 74  1  0  0  0
 13 75  1  0  0  0
 13 76  1  0  0  0
 14 77  1  0  0  0
 14 78  1  0  0  0
 15 79  1  0  0  0
 15 80  1  0  0  0
 16 81  1  0  0  0
 16 82  1  0  0  0
 17 83  1  0  0  0
 18 84  1  0  0  0
 21 85  1  0  0  0
 22 86  1  0  0  0
 25 87  1  0  0  0
 25 88  1  0  0  0
 25 89  1  0  0  0
 27 90  1  0  0  0
 30 91  1  0  0  0
 30 92  1  0  0  0
 31 93  1  0  0  0
 31 94  1  0  0  0
 32 95  1  0  0  0
 32 96  1  0  0  0
 33 97  1  0  0  0
 34 98  1  0  0  0
 37 99  1  0  0  0
 37100  1  0  0  0
 38101  1  0  0  0
 38102  1  0  0  0
 39103  1  0  0  0
 39104  1  0  0  0
 40105  1  0  0  0
 42106  1  0  0  0
 43107  1  0  0  0
 43108  1  0  0  0
 44109  1  0  0  0
 45110  1  0  0  0
 48111  1  0  0  0
 48112  1  0  0  0
 49113  1  0  0  0
 49114  1  0  0  0
 50115  1  0  0  0
 50116  1  0  0  0
 51117  1  0  0  0
 51118  1  0  0  0
 52119  1  0  0  0
 52120  1  0  0  0
 52121  1  0  0  0
 53122  1  0  0  0
 54123  1  0  0  0
 56124  1  0  0  0
 57125  1  0  0  0
 57126  1  0  0  0
 58127  1  0  0  0
 58128  1  0  0  0
 61129  1  0  0  0
 61130  1  0  0  0
M  END
$$$$
