2jb5_ligand
  -I-interpret- 

 57 58  0  0  0  0  0  0  0  0999 V2000
   20.3810   10.1310   35.3680 O   0  0  0  0  0
   20.6020    8.5300   35.7960 S   0  0  0  0  0
   19.7350    8.1740   37.2010 O   0  0  0  0  0
   20.0870    7.5200   34.5470 O   0  0  0  0  0
   22.3410    8.2720   36.1250 C   0  0  0  0  0
   23.0560    7.5130   35.0270 C   0  0  0  0  0
   24.2270    6.8060   35.5840 N   0  0  0  0  0
   25.4410    7.4420   35.9490 C   0  0  0  0  0
   25.7770    8.8320   35.8470 C   0  0  0  0  0
   27.0480    9.2750   36.2890 C   0  0  0  0  0
   27.9710    8.3270   36.8230 C   0  0  0  0  0
   29.5050    8.8560   37.3890 S   0  0  0  0  0
   29.6640   10.5310   37.3280 O   0  0  0  0  0
   30.7370    8.1360   36.4930 O   0  0  0  0  0
   29.7040    8.3130   38.9740 O   0  0  0  0  0
   27.6380    6.9460   36.9130 C   0  0  0  0  0
   26.3650    6.4930   36.4710 C   0  0  0  0  0
   25.7730    5.0910   36.4690 C   0  0  0  0  0
   25.7480    4.5900   37.9370 C   0  0  0  0  0
   26.6570    4.2500   35.5070 C   0  0  0  0  0
   24.3730    5.3930   35.8790 C   0  0  0  0  0
   23.3190    4.4740   35.6430 C   0  0  0  0  0
   23.3520    2.9810   35.9340 C   0  0  0  0  0
   22.2110    2.1300   35.6630 C   0  0  0  0  0
   22.2470    0.7020   35.9540 C   0  0  0  0  0
   23.4760    0.0110   36.5590 C   0  0  0  0  0
   21.0350   -0.0210   35.6300 C   0  0  0  0  0
   20.8990   -1.4480   35.8560 C   0  0  0  0  0
   19.6690   -2.1030   35.5100 C   0  0  0  0  0
   19.4410   -3.5110   35.6950 C   0  0  0  0  0
   19.8709    7.2529   37.4348 H   0  0  0  0  0
   22.4181    7.6799   37.0369 H   0  0  0  0  0
   22.8091    9.2532   36.2040 H   0  0  0  0  0
   23.3902    8.2156   34.2636 H   0  0  0  0  0
   22.3723    6.7859   34.5890 H   0  0  0  0  0
   25.0608    9.5418   35.4330 H   0  0  0  0  0
   27.3179   10.3289   36.2218 H   0  0  0  0  0
   29.6116    7.3578   38.9978 H   0  0  0  0  0
   28.3583    6.2365   37.3204 H   0  0  0  0  0
   26.7641    4.5734   38.3312 H   0  0  0  0  0
   25.1346    5.2611   38.5382 H   0  0  0  0  0
   25.3278    3.5848   37.9694 H   0  0  0  0  0
   26.6278    4.6904   34.5104 H   0  0  0  0  0
   27.6839    4.2425   35.8724 H   0  0  0  0  0
   26.2773    3.2291   35.4657 H   0  0  0  0  0
   22.4006    4.8742   35.2135 H   0  0  0  0  0
   24.2554    2.5411   36.3564 H   0  0  0  0  0
   21.3089    2.5657   35.2335 H   0  0  0  0  0
   23.2037   -0.4430   37.5118 H   0  0  0  0  0
   23.8306   -0.7606   35.8756 H   0  0  0  0  0
   24.2638    0.7474   36.7179 H   0  0  0  0  0
   20.1952    0.5258   35.2013 H   0  0  0  0  0
   21.7235   -2.0177   36.2847 H   0  0  0  0  0
   18.8657   -1.5014   35.0847 H   0  0  0  0  0
   20.1720   -4.0753   35.1159 H   0  0  0  0  0
   19.5432   -3.7586   36.7516 H   0  0  0  0  0
   18.4356   -3.7624   35.3572 H   0  0  0  0  0
  1  2  2  0  0  0
  2  3  1  0  0  0
  2  4  2  0  0  0
  2  5  1  0  0  0
  5  6  1  0  0  0
  6  7  1  0  0  0
  7  8  1  0  0  0
  7 21  1  0  0  0
  8  9  4  0  0  0
  8 17  4  0  0  0
  9 10  4  0  0  0
 10 11  4  0  0  0
 11 12  1  0  0  0
 11 16  4  0  0  0
 12 13  2  0  0  0
 12 14  2  0  0  0
 12 15  1  0  0  0
 16 17  4  0  0  0
 17 18  1  0  0  0
 18 19  1  0  0  0
 18 20  1  0  0  0
 18 21  1  0  0  0
 21 22  2  0  0  0
 22 23  1  0  0  0
 23 24  2  0  0  0
 24 25  1  0  0  0
 25 26  1  0  0  0
 25 27  2  0  0  0
 27 28  1  0  0  0
 28 29  2  0  0  0
 29 30  1  0  0  0
  3 31  1  0  0  0
  5 32  1  0  0  0
  5 33  1  0  0  0
  6 34  1  0  0  0
  6 35  1  0  0  0
  9 36  1  0  0  0
 10 37  1  0  0  0
 15 38  1  0  0  0
 16 39  1  0  0  0
 19 40  1  0  0  0
 19 41  1  0  0  0
 19 42  1  0  0  0
 20 43  1  0  0  0
 20 44  1  0  0  0
 20 45  1  0  0  0
 22 46  1  0  0  0
 23 47  1  0  0  0
 24 48  1  0  0  0
 26 49  1  0  0  0
 26 50  1  0  0  0
 26 51  1  0  0  0
 27 52  1  0  0  0
 28 53  1  0  0  0
 29 54  1  0  0  0
 30 55  1  0  0  0
 30 56  1  0  0  0
 30 57  1  0  0  0
M  END
$$$$
