1u65_ligand
  -I-interpret- 

 82 88  0  0  0  0  0  0  0  0999 V2000
  -17.1880  113.1980   39.6920 N   0  0  0  0  0
  -14.7920  114.6650   41.9130 N   0  0  0  0  0
  -22.3930  109.6920   38.4690 O   0  0  0  0  0
  -22.3400  110.7420   40.4830 O   0  0  0  0  0
  -13.1470  115.6670   43.3350 O   0  0  0  0  0
  -10.6340  116.6170   39.7580 O   0  0  0  0  0
  -10.2530  116.5940   37.5360 O   0  0  0  0  0
  -12.0750  114.3160   37.6060 O   0  0  0  0  0
  -18.4570  112.5880   39.9820 C   0  0  0  0  0
  -21.0510  111.3550   40.4030 C   0  0  0  0  0
  -14.5250  114.5560   39.4770 C   0  0  0  0  0
  -16.8580  113.6310   42.1470 C   0  0  0  0  0
  -19.0140  112.4670   41.4010 C   0  0  0  0  0
  -18.1540  113.0190   42.4880 C   0  0  0  0  0
  -22.9990  109.9900   39.4260 C   0  0  0  0  0
  -15.2680  114.2870   40.5960 C   0  0  0  0  0
  -20.3510  111.8210   41.5400 C   0  0  0  0  0
  -19.1750  112.0970   38.7460 C   0  0  0  0  0
  -20.4190  111.5130   39.0130 C   0  0  0  0  0
  -16.5110  113.6550   40.7390 C   0  0  0  0  0
  -12.7150  115.6460   40.8750 C   0  0  0  0  0
  -13.2220  115.2500   39.6060 C   0  0  0  0  0
  -13.4830  115.3720   42.1550 C   0  0  0  0  0
  -11.3470  116.3710   41.0370 C   0  0  0  0  0
  -15.7620  114.2810   42.9830 C   0  0  0  0  0
  -11.0060  116.2960   38.4640 C   0  0  0  0  0
  -13.3480  116.1900   37.2330 C   0  0  0  0  0
  -12.4080  115.5560   38.2690 C   0  0  0  0  0
  -18.6660  112.9340   43.9550 C   0  0  0  0  0
  -19.4490  114.1850   44.5460 C   0  0  0  0  0
  -13.8850  117.4950   37.5520 C   0  0  0  0  0
  -24.3080  109.6750   39.6580 N   0  0  0  0  0
  -25.9180  105.8270   38.9850 N   0  3  0  0  0
  -24.4430  107.3940   40.2980 C   0  0  0  0  0
  -25.7120  109.8060   39.1260 C   0  0  0  0  0
  -25.7680  107.2530   39.5760 C   0  0  0  0  0
  -24.2460  108.8320   40.8410 C   0  0  0  0  0
  -27.0820  105.7300   37.9090 C   0  0  0  0  0
  -26.8590  104.4570   37.1480 C   0  0  0  0  0
  -26.2050  104.8090   40.0480 C   0  0  0  0  0
  -26.3350  103.3520   39.5280 C   0  0  0  0  0
  -27.0490  103.2300   38.0940 C   0  0  0  0  0
  -25.9180  108.3650   38.4450 C   0  0  0  0  0
  -11.5854  114.5056   36.8023 H   0  0  0  0  0
  -14.8914  114.2602   38.4939 H   0  0  0  0  0
  -20.7938  111.7067   42.5294 H   0  0  0  0  0
  -18.7629  112.1890   37.7411 H   0  0  0  0  0
  -20.9872  111.1386   38.1614 H   0  0  0  0  0
  -11.5494  117.3439   41.4849 H   0  0  0  0  0
  -10.7101  115.7252   41.6414 H   0  0  0  0  0
  -16.1046  115.1164   43.5937 H   0  0  0  0  0
  -15.3431  113.6304   43.7507 H   0  0  0  0  0
  -14.2067  115.5226   37.1600 H   0  0  0  0  0
  -12.7518  116.3241   36.3304 H   0  0  0  0  0
  -17.7704  112.8373   44.5687 H   0  0  0  0  0
  -19.3834  112.1134   43.9637 H   0  0  0  0  0
  -18.8018  115.0617   44.5216 H   0  0  0  0  0
  -20.3390  114.3719   43.9451 H   0  0  0  0  0
  -19.7412  113.9761   45.5751 H   0  0  0  0  0
  -14.4610  117.4337   38.4754 H   0  0  0  0  0
  -13.0656  118.2024   37.6797 H   0  0  0  0  0
  -14.5316  117.8287   36.7404 H   0  0  0  0  0
  -25.0218  105.6326   38.5384 H   0  0  0  0  0
  -23.6399  107.1766   39.5938 H   0  0  0  0  0
  -24.4317  106.7014   41.1396 H   0  0  0  0  0
  -25.8471  110.6416   38.4392 H   0  0  0  0  0
  -26.4526  110.0425   39.8899 H   0  0  0  0  0
  -26.5707  107.4039   40.2978 H   0  0  0  0  0
  -25.0048  109.1004   41.5760 H   0  0  0  0  0
  -23.3021  108.9431   41.3748 H   0  0  0  0  0
  -27.0660  106.5906   37.2403 H   0  0  0  0  0
  -28.0590  105.7280   38.3923 H   0  0  0  0  0
  -25.8442  104.4497   36.7503 H   0  0  0  0  0
  -27.5791  104.3959   36.3320 H   0  0  0  0  0
  -27.1638  105.0750   40.4931 H   0  0  0  0  0
  -25.3636  104.8260   40.7407 H   0  0  0  0  0
  -26.9517  102.8077   40.2432 H   0  0  0  0  0
  -25.3251  102.9561   39.4207 H   0  0  0  0  0
  -26.5962  102.3753   37.5915 H   0  0  0  0  0
  -28.1189  103.1451   38.2842 H   0  0  0  0  0
  -25.1722  108.2092   37.6655 H   0  0  0  0  0
  -26.9061  108.3042   37.9889 H   0  0  0  0  0
  9  1  4  0  0  0
  1 20  4  0  0  0
 16  2  1  0  0  0
  2 23  1  0  0  0
 25  2  1  0  0  0
 15  3  2  0  0  0
  4 10  1  0  0  0
 15  4  1  0  0  0
 23  5  2  0  0  0
 24  6  1  0  0  0
 26  6  1  0  0  0
 26  7  2  0  0  0
 28  8  1  0  0  0
 13  9  4  0  0  0
 18  9  4  0  0  0
 10 17  4  0  0  0
 10 19  4  0  0  0
 16 11  2  0  0  0
 11 22  1  0  0  0
 14 12  4  0  0  0
 12 20  4  0  0  0
 12 25  1  0  0  0
 13 14  4  0  0  0
 17 13  4  0  0  0
 14 29  1  0  0  0
 32 15  1  0  0  0
 20 16  1  0  0  0
 19 18  4  0  0  0
 22 21  2  0  0  0
 23 21  1  0  0  0
 21 24  1  0  0  0
 22 28  1  0  0  0
 28 26  1  0  0  0
 28 27  1  0  0  0
 27 31  1  0  0  0
 29 30  1  0  0  0
 32 35  1  0  0  0
 37 32  1  0  0  0
 36 33  1  0  0  0
 33 38  1  0  0  0
 33 40  1  0  0  0
 34 36  1  0  0  0
 34 37  1  0  0  0
 35 43  1  0  0  0
 36 43  1  0  0  0
 38 39  1  0  0  0
 39 42  1  0  0  0
 40 41  1  0  0  0
 41 42  1  0  0  0
  8 44  1  0  0  0
 11 45  1  0  0  0
 17 46  1  0  0  0
 18 47  1  0  0  0
 19 48  1  0  0  0
 24 49  1  0  0  0
 24 50  1  0  0  0
 25 51  1  0  0  0
 25 52  1  0  0  0
 27 53  1  0  0  0
 27 54  1  0  0  0
 29 55  1  0  0  0
 29 56  1  0  0  0
 30 57  1  0  0  0
 30 58  1  0  0  0
 30 59  1  0  0  0
 31 60  1  0  0  0
 31 61  1  0  0  0
 31 62  1  0  0  0
 33 63  1  0  0  0
 34 64  1  0  0  0
 34 65  1  0  0  0
 35 66  1  0  0  0
 35 67  1  0  0  0
 36 68  1  0  0  0
 37 69  1  0  0  0
 37 70  1  0  0  0
 38 71  1  0  0  0
 38 72  1  0  0  0
 39 73  1  0  0  0
 39 74  1  0  0  0
 40 75  1  0  0  0
 40 76  1  0  0  0
 41 77  1  0  0  0
 41 78  1  0  0  0
 42 79  1  0  0  0
 42 80  1  0  0  0
 43 81  1  0  0  0
 43 82  1  0  0  0
M  END
$$$$
