3ibi_ligand
  -I-interpret- 

 32 31  0  0  0  0  0  0  0  0999 V2000
   -4.6580    1.9510   14.4930 C   0  0  0  0  0
   -5.2710   -0.5540   16.0610 N   0  0  0  0  0
   -7.0460    1.1170   16.2820 O   0  0  0  0  0
   -5.7060    0.8470   16.6520 S   0  0  0  0  0
   -5.3980    3.1770   13.9770 C   0  0  0  0  0
   -5.3650    0.8830   18.0280 O   0  0  0  0  0
   -4.8030    4.4940   14.4150 C   0  0  0  0  0
   -4.7890    1.9390   15.9590 O   0  0  0  0  0
   -3.6880    4.9990   13.5300 C   0  0  0  0  0
   -2.8810    6.1030   14.1580 C   0  0  0  0  0
   -2.1790    6.9960   13.1630 C   0  0  0  0  0
   -1.0890    7.8710   13.7560 C   0  0  0  0  0
   -1.5530    8.8460   14.8090 C   0  0  0  0  0
   -3.6076    1.9907   14.2047 H   0  0  0  0  0
   -5.0815    1.0423   14.0652 H   0  0  0  0  0
   -5.9313   -1.1022   15.5098 H   0  0  0  0  0
   -4.3301   -0.9093   16.2310 H   0  0  0  0  0
   -6.4099    3.1332   14.3797 H   0  0  0  0  0
   -5.3455    3.1481   12.8887 H   0  0  0  0  0
   -4.3792    4.3397   15.4073 H   0  0  0  0  0
   -5.6019    5.2345   14.3775 H   0  0  0  0  0
   -4.1429    5.3988   12.6238 H   0  0  0  0  0
   -3.0130    4.1639   13.3427 H   0  0  0  0  0
   -2.1105    5.6321   14.7685 H   0  0  0  0  0
   -3.5737    6.7289   14.7206 H   0  0  0  0  0
   -2.9334    7.6651   12.7492 H   0  0  0  0  0
   -1.7003    6.3434   12.4329 H   0  0  0  0  0
   -0.6823    8.4640   12.9368 H   0  0  0  0  0
   -0.3778    7.2015   14.2399 H   0  0  0  0  0
   -2.2934    9.5196   14.3776 H   0  0  0  0  0
   -1.9987    8.2976   15.6389 H   0  0  0  0  0
   -0.7010    9.4229   15.1688 H   0  0  0  0  0
  1  5  1  0  0  0
  8  1  1  0  0  0
  4  2  1  0  0  0
  4  3  2  0  0  0
  4  6  2  0  0  0
  4  8  1  0  0  0
  5  7  1  0  0  0
  7  9  1  0  0  0
  9 10  1  0  0  0
 10 11  1  0  0  0
 11 12  1  0  0  0
 12 13  1  0  0  0
  1 14  1  0  0  0
  1 15  1  0  0  0
  2 16  1  0  0  0
  2 17  1  0  0  0
  5 18  1  0  0  0
  5 19  1  0  0  0
  7 20  1  0  0  0
  7 21  1  0  0  0
  9 22  1  0  0  0
  9 23  1  0  0  0
 10 24  1  0  0  0
 10 25  1  0  0  0
 11 26  1  0  0  0
 11 27  1  0  0  0
 12 28  1  0  0  0
 12 29  1  0  0  0
 13 30  1  0  0  0
 13 31  1  0  0  0
 13 32  1  0  0  0
M  END
$$$$
