4d2s_ligand
  -I-interpret- 

 58 62  0  0  0  0  0  0  0  0999 V2000
   -3.6250   14.3810    1.2300 C   0  0  0  0  0
   -3.5830   15.5740    0.3900 N   0  3  0  0  0
   -3.7270   19.1780    1.0780 O   0  0  0  0  0
   -4.7970   16.3690    0.5630 C   0  0  0  0  0
   -6.1420   24.1570    0.3580 N   0  0  0  0  0
   -3.4780   23.9600    0.4260 O   0  0  0  0  0
   -4.8100   17.5660   -0.3870 C   0  0  0  0  0
   -7.7080   25.7100   -0.4360 N   0  0  0  0  0
   -3.5740   18.4200   -0.1810 C   0  0  0  0  0
   -7.8520   23.3630   -0.9290 N   0  0  0  0  0
   -2.3040   17.5950   -0.2340 C   0  0  0  0  0
   -9.9230   20.2860   -2.9340 N   0  0  0  0  0
   -2.4110   16.3910    0.7080 C   0  0  0  0  0
  -13.1200   21.5040   -4.3950 N   0  0  0  0  0
   -4.3280   20.4080    0.9070 C   0  0  0  0  0
   -5.7160   20.4980    0.8890 C   0  0  0  0  0
   -6.3270   21.7270    0.7200 C   0  0  0  0  0
   -5.5580   22.8790    0.5390 C   0  0  0  0  0
   -4.1460   22.7740    0.5750 C   0  0  0  0  0
   -3.5370   21.5420    0.7770 C   0  0  0  0  0
   -2.0610   23.9640    0.6140 C   0  0  0  0  0
   -7.2740   24.4360   -0.3550 C   0  0  0  0  0
   -8.8210   25.8930   -1.1710 C   0  0  0  0  0
   -9.4950   24.8620   -1.7990 C   0  0  0  0  0
   -8.9610   23.5880   -1.6490 C   0  0  0  0  0
   -9.5840   22.4070   -2.2650 C   0  0  0  0  0
   -9.0710   21.1330   -2.2780 C   0  0  0  0  0
  -11.0250   20.9910   -3.3680 C   0  0  0  0  0
  -10.8600   22.3340   -2.9760 C   0  0  0  0  0
  -11.8520   23.2520   -3.3100 C   0  0  0  0  0
  -12.9500   22.7820   -4.0190 C   0  0  0  0  0
  -12.1640   20.6180   -4.0760 C   0  0  0  0  0
   -2.7259   13.7881    1.0620 H   0  0  0  0  0
   -3.6758   14.6775    2.2777 H   0  0  0  0  0
   -4.5046   13.7897    0.9754 H   0  0  0  0  0
   -3.5204   15.2702   -0.5817 H   0  0  0  0  0
   -4.8301   16.7369    1.5885 H   0  0  0  0  0
   -5.6601   15.7403    0.3441 H   0  0  0  0  0
   -5.6720   24.9453    0.8030 H   0  0  0  0  0
   -5.6952   18.1691   -0.1850 H   0  0  0  0  0
   -4.8225   17.2028   -1.4146 H   0  0  0  0  0
   -3.4773   19.1339   -0.9990 H   0  0  0  0  0
   -1.4636   18.2158    0.0766 H   0  0  0  0  0
   -2.1548   17.2372   -1.2527 H   0  0  0  0  0
   -1.5173   15.7778    0.5924 H   0  0  0  0  0
   -2.5080   16.7562    1.7304 H   0  0  0  0  0
   -6.3220   19.5998    1.0081 H   0  0  0  0  0
   -7.4147   21.7972    0.7281 H   0  0  0  0  0
   -2.4511   21.4662    0.8328 H   0  0  0  0  0
   -1.8292   23.6345    1.6268 H   0  0  0  0  0
   -1.5985   23.2871   -0.1044 H   0  0  0  0  0
   -1.6785   24.9734    0.4624 H   0  0  0  0  0
   -9.2106   26.9055   -1.2764 H   0  0  0  0  0
  -10.3988   25.0395   -2.3818 H   0  0  0  0  0
   -8.1218   20.8387   -1.8303 H   0  0  0  0  0
  -11.7700   24.3010   -3.0255 H   0  0  0  0  0
  -13.7259   23.4986   -4.2883 H   0  0  0  0  0
  -12.2826   19.5779   -4.3796 H   0  0  0  0  0
  2  1  1  0  0  0
  4  2  1  0  0  0
 13  2  1  0  0  0
  3  9  1  0  0  0
 15  3  1  0  0  0
  7  4  1  0  0  0
  5 18  1  0  0  0
 22  5  1  0  0  0
 19  6  1  0  0  0
  6 21  1  0  0  0
  9  7  1  0  0  0
 22  8  4  0  0  0
 23  8  4  0  0  0
  9 11  1  0  0  0
 10 22  4  0  0  0
 25 10  4  0  0  0
 11 13  1  0  0  0
 12 27  4  0  0  0
 28 12  4  0  0  0
 14 31  4  0  0  0
 32 14  4  0  0  0
 16 15  4  0  0  0
 20 15  4  0  0  0
 17 16  4  0  0  0
 18 17  4  0  0  0
 18 19  4  0  0  0
 19 20  4  0  0  0
 24 23  4  0  0  0
 25 24  4  0  0  0
 26 25  1  0  0  0
 26 27  4  0  0  0
 29 26  4  0  0  0
 28 29  4  0  0  0
 28 32  4  0  0  0
 29 30  4  0  0  0
 30 31  4  0  0  0
  1 33  1  0  0  0
  1 34  1  0  0  0
  1 35  1  0  0  0
  2 36  1  0  0  0
  4 37  1  0  0  0
  4 38  1  0  0  0
  5 39  1  0  0  0
  7 40  1  0  0  0
  7 41  1  0  0  0
  9 42  1  0  0  0
 11 43  1  0  0  0
 11 44  1  0  0  0
 13 45  1  0  0  0
 13 46  1  0  0  0
 16 47  1  0  0  0
 17 48  1  0  0  0
 20 49  1  0  0  0
 21 50  1  0  0  0
 21 51  1  0  0  0
 21 52  1  0  0  0
 23 53  1  0  0  0
 24 54  1  0  0  0
 27 55  1  0  0  0
 30 56  1  0  0  0
 31 57  1  0  0  0
 32 58  1  0  0  0
M  END
$$$$
