### 
### Created by X-TOOL on Mon Sep 10 21:13:20 2018
### 

@<TRIPOS>MOLECULE
4p4e_ligand
   43    43     1     0     0
SMALL
GAST_HUCK


@<TRIPOS>ATOM
      1 CAJ        23.7870   44.1940   44.2490 C.ar      1 2G4        -0.0603
      2 CAH        24.7010   44.0060   45.2930 C.ar      1 2G4        -0.0686
      3 CAG        25.6930   44.9540   45.5170 C.ar      1 2G4        -0.0687
      4 CAI        25.8100   46.1080   44.7210 C.ar      1 2G4        -0.0686
      5 CAK        24.8980   46.3060   43.6730 C.ar      1 2G4        -0.0603
      6 CAV        23.8950   45.3500   43.4510 C.ar      1 2G4        -0.0430
      7 CAP        22.9280   45.5750   42.2920 C.3       1 2G4        -0.0191
      8 CAM        21.7490   46.3270   42.8330 C.3       1 2G4        -0.0408
      9 CAL        20.9380   45.4550   43.8030 C.3       1 2G4        -0.0223
     10 CAN        19.4510   45.8550   43.6590 C.3       1 2G4         0.0842
     11 OAS        18.7390   45.0330   44.5560 O.3       1 2G4        -0.2612
     12 PAX        17.6190   44.1150   43.9950 P.3       1 2G4         0.2031
     13 OAF        16.9500   43.4530   45.1570 O.co2     1 2G4        -0.6076
     14 OAC        18.2040   43.0450   43.0280 O.co2     1 2G4        -0.6076
     15 N          16.5450   45.0930   43.2010 N.am      1 2G4        -0.2605
     16 CA         16.0130   44.5850   41.8990 C.3       1 2G4         0.0893
     17 C          17.0480   44.7220   40.7410 C.2       1 2G4         0.0564
     18 OXT        17.9110   45.6240   40.8400 O.co2     1 2G4        -0.5670
     19 O          16.9550   43.9080   39.7800 O.co2     1 2G4        -0.5670
     20 CB         14.6970   45.3120   41.4250 C.3       1 2G4        -0.0099
     21 CG         14.9570   46.8160   41.3660 C.3       1 2G4         0.0034
     22 CD         13.8300   47.6030   40.6410 C.2       1 2G4         0.0350
     23 OE2        13.0990   46.9980   39.8170 O.co2     1 2G4        -0.5690
     24 OE1        13.7940   48.8590   40.8310 O.co2     1 2G4        -0.5690
     25 H1         23.0098   43.4628   44.0581 H         1 2G4         0.0557
     26 H2         24.6355   43.1263   45.9230 H         1 2G4         0.0599
     27 H3         26.3959   44.7996   46.3276 H         1 2G4         0.0559
     28 H4         26.5924   46.8330   44.9142 H         1 2G4         0.0599
     29 H5         24.9674   47.1857   43.0434 H         1 2G4         0.0557
     30 H6         22.6013   44.6082   41.8814 H         1 2G4         0.0426
     31 H7         23.4182   46.1622   41.5016 H         1 2G4         0.0426
     32 H8         21.1024   46.6320   41.9970 H         1 2G4         0.0288
     33 H9         22.1060   47.2209   43.3655 H         1 2G4         0.0288
     34 H10        21.2750   45.6292   44.8355 H         1 2G4         0.0293
     35 H11        21.0669   44.3924   43.5496 H         1 2G4         0.0293
     36 H12        19.1071   45.6835   42.6283 H         1 2G4         0.0623
     37 H13        19.3132   46.9146   43.9201 H         1 2G4         0.0623
     38 H14        16.2662   45.9784   43.5730 H         1 2G4         0.1677
     39 H15        15.7846   43.5179   42.0371 H         1 2G4         0.0681
     40 H16        13.8841   45.1054   42.1367 H         1 2G4         0.0319
     41 H17        14.4124   44.9470   40.4271 H         1 2G4         0.0319
     42 H18        15.9028   46.9868   40.8309 H         1 2G4         0.0432
     43 H19        15.0436   47.1967   42.3944 H         1 2G4         0.0432
@<TRIPOS>BOND
     1    1    2 ar 
     2    1    6 ar 
     3    2    3 ar 
     4    3    4 ar 
     5    4    5 ar 
     6    5    6 ar 
     7    6    7 1  
     8    7    8 1  
     9    8    9 1  
    10    9   10 1  
    11   10   11 1  
    12   11   12 1  
    13   12   13 ar 
    14   12   14 ar 
    15   12   15 am 
    16   15   16 1  
    17   16   17 1  
    18   16   20 1  
    19   17   18 ar 
    20   17   19 ar 
    21   20   21 1  
    22   21   22 1  
    23   22   23 ar 
    24   22   24 ar 
    25    1   25 1  
    26    2   26 1  
    27    3   27 1  
    28    4   28 1  
    29    5   29 1  
    30    7   30 1  
    31    7   31 1  
    32    8   32 1  
    33    8   33 1  
    34    9   34 1  
    35    9   35 1  
    36   10   36 1  
    37   10   37 1  
    38   15   38 1  
    39   16   39 1  
    40   20   40 1  
    41   20   41 1  
    42   21   42 1  
    43   21   43 1  
@<TRIPOS>SUBSTRUCTURE
     1 2G4         1

