4p4e_ligand
  -I-interpret- 

 46 46  0  0  0  0  0  0  0  0999 V2000
   23.7870   44.1940   44.2490 C   0  0  0  0  0
   24.7010   44.0060   45.2930 C   0  0  0  0  0
   25.6930   44.9540   45.5170 C   0  0  0  0  0
   25.8100   46.1080   44.7210 C   0  0  0  0  0
   24.8980   46.3060   43.6730 C   0  0  0  0  0
   23.8950   45.3500   43.4510 C   0  0  0  0  0
   22.9280   45.5750   42.2920 C   0  0  0  0  0
   21.7490   46.3270   42.8330 C   0  0  0  0  0
   20.9380   45.4550   43.8030 C   0  0  0  0  0
   19.4510   45.8550   43.6590 C   0  0  0  0  0
   18.7390   45.0330   44.5560 O   0  0  0  0  0
   17.6190   44.1150   43.9950 P   0  0  0  0  0
   16.9500   43.4530   45.1570 O   0  0  0  0  0
   18.2040   43.0450   43.0280 O   0  0  0  0  0
   16.5450   45.0930   43.2010 N   0  0  0  0  0
   16.0130   44.5850   41.8990 C   0  0  0  0  0
   17.0480   44.7220   40.7410 C   0  0  0  0  0
   17.9110   45.6240   40.8400 O   0  0  0  0  0
   16.9550   43.9080   39.7800 O   0  0  0  0  0
   14.6970   45.3120   41.4250 C   0  0  0  0  0
   14.9570   46.8160   41.3660 C   0  0  0  0  0
   13.8300   47.6030   40.6410 C   0  0  0  0  0
   13.0990   46.9980   39.8170 O   0  0  0  0  0
   13.7940   48.8590   40.8310 O   0  0  0  0  0
   23.0055   43.4588   44.0571 H   0  0  0  0  0
   24.6351   43.1214   45.9265 H   0  0  0  0  0
   26.3998   44.7988   46.3321 H   0  0  0  0  0
   26.5968   46.8370   44.9152 H   0  0  0  0  0
   24.9678   47.1905   43.0399 H   0  0  0  0  0
   22.6118   44.6223   41.8672 H   0  0  0  0  0
   23.4106   46.1418   41.4957 H   0  0  0  0  0
   21.1064   46.6153   42.0011 H   0  0  0  0  0
   22.1101   47.2043   43.3698 H   0  0  0  0  0
   21.2762   45.6102   44.8275 H   0  0  0  0  0
   21.0723   44.3991   43.5683 H   0  0  0  0  0
   19.1024   45.7172   42.6355 H   0  0  0  0  0
   19.3021   46.9103   43.8874 H   0  0  0  0  0
   18.6300   43.4832   42.2876 H   0  0  0  0  0
   16.2606   45.9961   43.5805 H   0  0  0  0  0
   15.7951   43.5366   42.1028 H   0  0  0  0  0
   16.2156   43.3155   39.9344 H   0  0  0  0  0
   13.8885   45.1049   42.1261 H   0  0  0  0  0
   14.4100   44.9485   40.4383 H   0  0  0  0  0
   15.8802   46.9703   40.8074 H   0  0  0  0  0
   15.0098   47.1829   42.3910 H   0  0  0  0  0
   14.4366   49.0984   41.5029 H   0  0  0  0  0
  1  2  4  0  0  0
  1  6  4  0  0  0
  2  3  4  0  0  0
  3  4  4  0  0  0
  4  5  4  0  0  0
  5  6  4  0  0  0
  6  7  1  0  0  0
  7  8  1  0  0  0
  8  9  1  0  0  0
  9 10  1  0  0  0
 10 11  1  0  0  0
 11 12  1  0  0  0
 12 13  2  0  0  0
 12 14  1  0  0  0
 12 15  1  0  0  0
 15 16  1  0  0  0
 16 17  1  0  0  0
 16 20  1  0  0  0
 17 18  2  0  0  0
 17 19  1  0  0  0
 20 21  1  0  0  0
 21 22  1  0  0  0
 22 23  2  0  0  0
 22 24  1  0  0  0
  1 25  1  0  0  0
  2 26  1  0  0  0
  3 27  1  0  0  0
  4 28  1  0  0  0
  5 29  1  0  0  0
  7 30  1  0  0  0
  7 31  1  0  0  0
  8 32  1  0  0  0
  8 33  1  0  0  0
  9 34  1  0  0  0
  9 35  1  0  0  0
 10 36  1  0  0  0
 10 37  1  0  0  0
 14 38  1  0  0  0
 15 39  1  0  0  0
 16 40  1  0  0  0
 19 41  1  0  0  0
 20 42  1  0  0  0
 20 43  1  0  0  0
 21 44  1  0  0  0
 21 45  1  0  0  0
 24 46  1  0  0  0
M  END
$$$$
