3ncr_ligand
  -I-interpret- 

 42 44  0  0  0  0  0  0  0  0999 V2000
   15.8530   14.6000   24.2590 P   0  0  0  0  0
   15.8170   13.3490   24.9740 O   0  0  0  0  0
   16.6310   14.5550   23.0280 O   0  0  0  0  0
   14.5210   15.1260   24.0790 O   0  0  0  0  0
   16.1880   16.2930   26.6120 P   0  0  0  0  0
   15.7380   15.1140   27.3440 O   0  0  0  0  0
   15.3530   17.4610   26.5900 O   0  0  0  0  0
   16.5540   15.7750   25.1720 O   0  0  0  0  0
   17.6030   16.6710   27.2060 O   0  0  0  0  0
   18.0460   17.9730   27.4090 C   0  0  0  0  0
   19.3010   18.0220   28.2650 C   0  0  0  0  0
   19.0260   17.5170   29.5560 O   0  0  0  0  0
   20.4440   17.1630   27.7550 C   0  0  0  0  0
   21.2000   17.7200   26.6830 O   0  0  0  0  0
   21.2320   16.8730   29.0000 C   0  0  0  0  0
   22.0410   17.9660   29.3990 O   0  0  0  0  0
   20.1340   16.7740   30.0380 C   0  0  0  0  0
   19.6950   15.3990   30.3300 N   0  0  0  0  0
   18.7140   14.7840   29.7140 C   0  0  0  0  0
   18.5050   13.5590   30.2010 N   0  0  0  0  0
   19.4000   13.3540   31.1680 C   0  0  0  0  0
   19.7540   12.2760   32.0930 C   0  0  0  0  0
   19.1090   11.1150   32.1260 N   0  0  0  0  0
   20.7260   12.5200   32.9340 N   0  0  0  0  0
   21.4030   13.6530   32.9570 C   0  0  0  0  0
   21.1510   14.6560   32.1690 N   0  0  0  0  0
   20.1830   14.5750   31.2490 C   0  0  0  0  0
   16.6114   15.4174   22.6067 H   0  0  0  0  0
   14.5684   15.9576   23.6016 H   0  0  0  0  0
   16.3972   14.4203   27.2674 H   0  0  0  0  0
   17.2598   18.5233   27.9259 H   0  0  0  0  0
   18.2795   18.4084   26.4374 H   0  0  0  0  0
   19.5947   19.0716   28.2493 H   0  0  0  0  0
   20.0855   16.2575   27.2655 H   0  0  0  0  0
   21.8953   17.1078   26.4313 H   0  0  0  0  0
   21.8841   16.0097   28.8675 H   0  0  0  0  0
   22.5226   17.7321   30.1958 H   0  0  0  0  0
   20.5347   17.1638   30.9737 H   0  0  0  0  0
   18.1369   15.2220   28.8996 H   0  0  0  0  0
   18.3308   10.9456   31.4887 H   0  0  0  0  0
   19.3920   10.3930   32.7886 H   0  0  0  0  0
   22.2169   13.7530   33.6751 H   0  0  0  0  0
  1  2  2  0  0  0
  1  3  1  0  0  0
  1  4  1  0  0  0
  8  1  1  0  0  0
  5  6  1  0  0  0
  5  7  2  0  0  0
  5  8  1  0  0  0
  5  9  1  0  0  0
  9 10  1  0  0  0
 10 11  1  0  0  0
 11 12  1  0  0  0
 11 13  1  0  0  0
 12 17  1  0  0  0
 13 14  1  0  0  0
 13 15  1  0  0  0
 15 16  1  0  0  0
 15 17  1  0  0  0
 17 18  1  0  0  0
 18 19  4  0  0  0
 18 27  4  0  0  0
 19 20  4  0  0  0
 20 21  4  0  0  0
 21 22  4  0  0  0
 21 27  4  0  0  0
 22 23  1  0  0  0
 22 24  4  0  0  0
 24 25  4  0  0  0
 25 26  4  0  0  0
 26 27  4  0  0  0
  3 28  1  0  0  0
  4 29  1  0  0  0
  6 30  1  0  0  0
 10 31  1  0  0  0
 10 32  1  0  0  0
 11 33  1  0  0  0
 13 34  1  0  0  0
 14 35  1  0  0  0
 15 36  1  0  0  0
 16 37  1  0  0  0
 17 38  1  0  0  0
 19 39  1  0  0  0
 23 40  1  0  0  0
 23 41  1  0  0  0
 25 42  1  0  0  0
M  END
$$$$
