### 
### Created by X-TOOL on Mon Sep 10 21:13:02 2018
### 

@<TRIPOS>MOLECULE
3ncr_ligand
   39    41     1     0     0
SMALL
GAST_HUCK


@<TRIPOS>ATOM
      1 PB         15.8530   14.6000   24.2590 P.3       1 ADP         0.2069
      2 O1B        15.8170   13.3490   24.9740 O.co2     1 ADP        -0.5891
      3 O2B        16.6310   14.5550   23.0280 O.co2     1 ADP        -0.5891
      4 O3B        14.5210   15.1260   24.0790 O.co2     1 ADP        -0.5891
      5 PA         16.1880   16.2930   26.6120 P.3       1 ADP         0.3276
      6 O1A        15.7380   15.1140   27.3440 O.co2     1 ADP        -0.5556
      7 O2A        15.3530   17.4610   26.5900 O.co2     1 ADP        -0.5556
      8 O3A        16.5540   15.7750   25.1720 O.3       1 ADP        -0.1548
      9 O5'        17.6030   16.6710   27.2060 O.3       1 ADP        -0.2436
     10 C5'        18.0460   17.9730   27.4090 C.3       1 ADP         0.1132
     11 C4'        19.3010   18.0220   28.2650 C.3       1 ADP         0.1189
     12 O4'        19.0260   17.5170   29.5560 O.3       1 ADP        -0.3364
     13 C3'        20.4440   17.1630   27.7550 C.3       1 ADP         0.1149
     14 O3'        21.2000   17.7200   26.6830 O.3       1 ADP        -0.3864
     15 C2'        21.2320   16.8730   29.0000 C.3       1 ADP         0.1385
     16 O2'        22.0410   17.9660   29.3990 O.3       1 ADP        -0.3836
     17 C1'        20.1340   16.7740   30.0380 C.3       1 ADP         0.2010
     18 N9         19.6950   15.3990   30.3300 N.pl3     1 ADP        -0.1919
     19 C8         18.7140   14.7840   29.7140 C.2       1 ADP         0.1123
     20 N7         18.5050   13.5590   30.2010 N.2       1 ADP        -0.2958
     21 C5         19.4000   13.3540   31.1680 C.ar      1 ADP         0.1045
     22 C6         19.7540   12.2760   32.0930 C.ar      1 ADP         0.1298
     23 N6         19.1090   11.1150   32.1260 N.pl3     1 ADP        -0.3152
     24 N1         20.7260   12.5200   32.9340 N.ar      1 ADP        -0.2698
     25 C2         21.4030   13.6530   32.9570 C.ar      1 ADP         0.0533
     26 N3         21.1510   14.6560   32.1690 N.ar      1 ADP        -0.2714
     27 C4         20.1830   14.5750   31.2490 C.ar      1 ADP         0.1613
     28 H1         17.2513   18.5440   27.9114 H         1 ADP         0.0648
     29 H2         18.2645   18.4298   26.4325 H         1 ADP         0.0648
     30 H3         19.6335   19.0686   28.3290 H         1 ADP         0.0651
     31 H4         20.0268   16.2181   27.3767 H         1 ADP         0.0648
     32 H5         20.6281   17.8741   25.9403 H         1 ADP         0.2100
     33 H6         21.8273   15.9530   28.9048 H         1 ADP         0.0676
     34 H7         22.5176   17.7345   30.1875 H         1 ADP         0.2101
     35 H8         20.4988   17.2228   30.9737 H         1 ADP         0.0996
     36 H9         18.1374   15.2216   28.9004 H         1 ADP         0.1349
     37 H10        19.3948   10.3859   32.7951 H         1 ADP         0.1820
     38 H11        18.3232   10.9440   31.4825 H         1 ADP         0.1820
     39 H12        22.2124   13.7525   33.6711 H         1 ADP         0.0996
@<TRIPOS>BOND
     1    1    2 ar 
     2    1    3 ar 
     3    1    4 ar 
     4    8    1 1  
     5    5    6 ar 
     6    5    7 ar 
     7    5    8 1  
     8    5    9 1  
     9    9   10 1  
    10   10   11 1  
    11   11   12 1  
    12   11   13 1  
    13   12   17 1  
    14   13   14 1  
    15   13   15 1  
    16   15   16 1  
    17   15   17 1  
    18   17   18 1  
    19   18   19 1  
    20   18   27 1  
    21   19   20 2  
    22   20   21 1  
    23   21   22 ar 
    24   21   27 ar 
    25   22   23 1  
    26   22   24 ar 
    27   24   25 ar 
    28   25   26 ar 
    29   26   27 ar 
    30   10   28 1  
    31   10   29 1  
    32   11   30 1  
    33   13   31 1  
    34   14   32 1  
    35   15   33 1  
    36   16   34 1  
    37   17   35 1  
    38   19   36 1  
    39   23   37 1  
    40   23   38 1  
    41   25   39 1  
@<TRIPOS>SUBSTRUCTURE
     1 ADP         1

