6c2y_ligand
  -I-interpret- 

 63 67  0  0  0  0  0  0  0  0999 V2000
  -19.9980   28.5950   16.2080 O   0  0  0  0  0
  -19.5570   28.3340   17.2760 C   0  0  0  0  0
  -18.3410   29.0730   17.8230 C   0  0  0  0  0
  -18.5810   29.7290   19.1210 C   0  0  0  0  0
  -19.9880   29.7340   19.7260 C   0  0  0  0  0
  -17.6210   30.6530   19.6380 N   0  0  0  0  0
  -16.4710   31.0780   18.8030 C   0  0  0  0  0
  -16.2820   30.5620   17.4130 N   0  0  0  0  0
  -17.2940   29.5860   16.8870 C   0  0  0  0  0
  -16.4830   28.3610   16.4130 C   0  0  0  0  0
  -15.3020   28.0450   17.0660 C   0  0  0  0  0
  -14.5550   26.9510   16.6610 C   0  0  0  0  0
  -13.2480   26.6190   17.3900 C   0  0  0  0  0
  -12.9940   27.1720   18.7150 N   0  0  0  0  0
  -11.7460   26.8600   19.4000 C   0  0  0  0  0
  -11.7230   25.4010   19.8750 C   0  0  0  0  0
  -12.4840   24.4030   19.4150 N   0  0  0  0  0
  -12.1490   23.2850   20.1010 C   0  0  0  0  0
  -12.7520   21.8900   19.9260 C   0  0  0  0  0
  -11.7090   21.0140   19.6000 O   0  0  0  0  0
  -12.1050   19.9180   18.8290 C   0  0  0  0  0
  -11.1900   23.6070   20.9600 N   0  0  0  0  0
  -10.9330   24.9080   20.8160 O   0  0  0  0  0
  -12.4440   25.9180   16.8760 O   0  0  0  0  0
  -14.9890   26.1760   15.6010 C   0  0  0  0  0
  -14.2550   25.1000   15.1980 F   0  0  0  0  0
  -16.1730   26.4890   14.9460 C   0  0  0  0  0
  -16.9220   27.5840   15.3550 C   0  0  0  0  0
  -15.6890   31.8450   19.2490 O   0  0  0  0  0
  -20.1360   27.3330   18.1550 N   0  0  0  0  0
  -21.3320   26.5780   17.8490 C   0  0  0  0  0
  -22.2760   27.1100   16.9780 C   0  0  0  0  0
  -23.4670   26.4070   16.7060 C   0  0  0  0  0
  -24.6100   26.6370   15.8710 C   0  0  0  0  0
  -25.4410   25.6200   16.0180 N   0  0  0  0  0
  -24.9010   24.7570   16.8960 N   0  0  0  0  0
  -23.7080   25.2070   17.3270 C   0  0  0  0  0
  -22.7610   24.6760   18.2370 C   0  0  0  0  0
  -21.5870   25.3700   18.5020 C   0  0  0  0  0
  -17.6544   28.2724   18.0981 H   0  0  0  0  0
  -18.2194   28.8492   19.6532 H   0  0  0  0  0
  -19.9251   29.5095   20.7908 H   0  0  0  0  0
  -20.4386   30.7167   19.5866 H   0  0  0  0  0
  -20.5982   28.9794   19.2297 H   0  0  0  0  0
  -17.7269   31.0211   20.5834 H   0  0  0  0  0
  -15.4925   30.8627   16.8415 H   0  0  0  0  0
  -17.8571   30.1347   16.1320 H   0  0  0  0  0
  -14.9604   28.6584   17.8997 H   0  0  0  0  0
  -13.6864   27.7743   19.1603 H   0  0  0  0  0
  -11.6547   27.5104   20.2699 H   0  0  0  0  0
  -10.9203   27.0126   18.7050 H   0  0  0  0  0
  -13.5026   21.8973   19.1357 H   0  0  0  0  0
  -13.2428   21.5705   20.8453 H   0  0  0  0  0
  -12.8505   19.3409   19.3761 H   0  0  0  0  0
  -12.5335   20.2711   17.8910 H   0  0  0  0  0
  -11.2388   19.2900   18.6206 H   0  0  0  0  0
  -16.5137   25.8757   14.1118 H   0  0  0  0  0
  -17.8529   27.8311   14.8446 H   0  0  0  0  0
  -19.6702   27.1508   19.0440 H   0  0  0  0  0
  -22.0944   28.0744   16.5036 H   0  0  0  0  0
  -24.7664   27.5017   15.2261 H   0  0  0  0  0
  -22.9535   23.7228   18.7294 H   0  0  0  0  0
  -20.8670   24.9729   19.2175 H   0  0  0  0  0
  1  2  2  0  0  0
  2  3  1  0  0  0
  2 30  1  0  0  0
  3  4  1  0  0  0
  3  9  1  0  0  0
  4  5  1  0  0  0
  4  6  1  0  0  0
  6  7  1  0  0  0
  7  8  1  0  0  0
  7 29  2  0  0  0
  8  9  1  0  0  0
  9 10  1  0  0  0
 10 11  4  0  0  0
 10 28  4  0  0  0
 11 12  4  0  0  0
 12 13  1  0  0  0
 12 25  4  0  0  0
 13 14  1  0  0  0
 13 24  2  0  0  0
 14 15  1  0  0  0
 15 16  1  0  0  0
 16 17  4  0  0  0
 16 23  4  0  0  0
 17 18  4  0  0  0
 18 19  1  0  0  0
 18 22  4  0  0  0
 19 20  1  0  0  0
 20 21  1  0  0  0
 22 23  4  0  0  0
 25 26  1  0  0  0
 25 27  4  0  0  0
 27 28  4  0  0  0
 30 31  1  0  0  0
 31 32  4  0  0  0
 31 39  4  0  0  0
 32 33  4  0  0  0
 33 34  4  0  0  0
 33 37  4  0  0  0
 34 35  4  0  0  0
 35 36  4  0  0  0
 36 37  4  0  0  0
 37 38  4  0  0  0
 38 39  4  0  0  0
  3 40  1  0  0  0
  4 41  1  0  0  0
  5 42  1  0  0  0
  5 43  1  0  0  0
  5 44  1  0  0  0
  6 45  1  0  0  0
  8 46  1  0  0  0
  9 47  1  0  0  0
 11 48  1  0  0  0
 14 49  1  0  0  0
 15 50  1  0  0  0
 15 51  1  0  0  0
 19 52  1  0  0  0
 19 53  1  0  0  0
 21 54  1  0  0  0
 21 55  1  0  0  0
 21 56  1  0  0  0
 27 57  1  0  0  0
 28 58  1  0  0  0
 30 59  1  0  0  0
 32 60  1  0  0  0
 34 61  1  0  0  0
 38 62  1  0  0  0
 39 63  1  0  0  0
M  END
$$$$
