2x6k_ligand
  -I-interpret- 

 42 46  0  0  0  0  0  0  0  0999 V2000
   20.9070   38.1250    3.5490 N   0  0  0  0  0
   22.1610   38.0530    3.0680 C   0  0  0  0  0
   23.1070   37.1930    3.6680 C   0  0  0  0  0
   22.7340   36.4190    4.7590 C   0  0  0  0  0
   21.4250   36.4920    5.2640 C   0  0  0  0  0
   20.5210   37.3190    4.6860 C   0  0  0  0  0
   19.2710   37.1890    5.4070 O   0  0  0  0  0
   19.4480   36.2280    6.4770 C   0  0  0  0  0
   20.7340   35.7910    6.4170 C   0  0  0  0  0
   21.1680   34.9040    7.2820 N   0  0  0  0  0
   18.5700   35.7180    7.4710 C   0  0  0  0  0
   17.1840   36.1460    7.6180 N   0  0  0  0  0
   16.7700   37.0380    6.5150 C   0  0  0  0  0
   15.9240   38.2060    7.0130 C   0  0  0  0  0
   14.9370   37.8270    7.9890 O   0  0  0  0  0
   15.4280   37.0730    9.1090 C   0  0  0  0  0
   16.2170   35.8280    8.6670 C   0  0  0  0  0
   19.0270   34.8180    8.3530 N   0  0  0  0  0
   20.2740   34.3910    8.2900 C   0  0  0  0  0
   20.8010   33.3910    9.3040 C   0  0  0  0  0
   20.1500   33.2040   10.4930 C   0  0  0  0  0
   20.6570   32.3020   11.4430 C   0  0  0  0  0
   21.9040   31.6110   11.1650 C   0  0  0  0  0
   22.6000   31.8460    9.9510 C   0  0  0  0  0
   23.8160   31.2050    9.6610 O   0  0  0  0  0
   22.0980   32.7070    9.0270 C   0  0  0  0  0
   22.4486   38.6616    2.2107 H   0  0  0  0  0
   24.1231   37.1371    3.2774 H   0  0  0  0  0
   23.4595   35.7524    5.2253 H   0  0  0  0  0
   16.1711   36.4576    5.8132 H   0  0  0  0  0
   17.6679   37.4419    6.0474 H   0  0  0  0  0
   15.3934   38.6153    6.1533 H   0  0  0  0  0
   16.5979   38.9182    7.4891 H   0  0  0  0  0
   14.5724   36.7421    9.6977 H   0  0  0  0  0
   16.0973   37.7137    9.6832 H   0  0  0  0  0
   16.7601   35.4412    9.5293 H   0  0  0  0  0
   15.5117   35.0958    8.2738 H   0  0  0  0  0
   19.2346   33.7570   10.7037 H   0  0  0  0  0
   20.1221   32.1231   12.3757 H   0  0  0  0  0
   22.3076   30.9077   11.8934 H   0  0  0  0  0
   24.1299   31.4910    8.8000 H   0  0  0  0  0
   22.6349   32.8951    8.0972 H   0  0  0  0  0
  1  2  4  0  0  0
  1  6  4  0  0  0
  2  3  4  0  0  0
  3  4  4  0  0  0
  4  5  4  0  0  0
  5  6  4  0  0  0
  5  9  4  0  0  0
  6  7  4  0  0  0
  7  8  4  0  0  0
  8  9  4  0  0  0
  8 11  4  0  0  0
  9 10  4  0  0  0
 10 19  4  0  0  0
 11 12  1  0  0  0
 11 18  4  0  0  0
 12 13  1  0  0  0
 12 17  1  0  0  0
 13 14  1  0  0  0
 14 15  1  0  0  0
 15 16  1  0  0  0
 16 17  1  0  0  0
 18 19  4  0  0  0
 19 20  1  0  0  0
 20 21  4  0  0  0
 20 26  4  0  0  0
 21 22  4  0  0  0
 22 23  4  0  0  0
 23 24  4  0  0  0
 24 25  1  0  0  0
 24 26  4  0  0  0
  2 27  1  0  0  0
  3 28  1  0  0  0
  4 29  1  0  0  0
 13 30  1  0  0  0
 13 31  1  0  0  0
 14 32  1  0  0  0
 14 33  1  0  0  0
 16 34  1  0  0  0
 16 35  1  0  0  0
 17 36  1  0  0  0
 17 37  1  0  0  0
 21 38  1  0  0  0
 22 39  1  0  0  0
 23 40  1  0  0  0
 25 41  1  0  0  0
 26 42  1  0  0  0
M  END
$$$$
