4oma_ligand
  -I-interpret- 

 36 37  0  0  0  0  0  0  0  0999 V2000
    4.4490   21.1930   14.3260 N   0  0  0  0  0
    5.3460   20.6340   15.1600 C   0  0  0  0  0
    5.2320   20.9000   16.5420 C   0  0  0  0  0
    6.4130   19.9120   14.5960 C   0  0  0  0  0
    7.2500   19.3920   15.5040 O   0  0  0  0  0
    6.5170   19.6070   13.2400 C   0  0  0  0  0
    7.5230   18.8370   12.6440 C   0  0  0  0  0
    5.5300   20.1810   12.3890 C   0  0  0  0  0
    4.4960   20.9550   12.9980 C   0  0  0  0  0
    5.4650   20.0730   10.9210 C   0  0  0  0  0
    5.0430   18.8020   10.5560 O   0  0  0  0  0
    5.3150   17.9910    9.1910 P   0  0  0  0  0
    5.0220   18.9410    8.1380 O   0  0  0  0  0
    6.8290   17.6980    9.3660 O   0  0  0  0  0
    4.5070   16.7900    9.2820 O   0  0  0  0  0
    8.5980   18.4460   13.5920 N   0  0  0  0  0
    9.7690   17.9220   13.1740 C   0  0  0  0  0
   10.8020   17.6380   13.9750 C   0  0  0  0  0
   10.8580   17.8600   15.3150 O   0  0  0  0  0
   11.8170   17.1440   13.2670 N   0  0  0  0  0
   11.2880   17.0750   11.7480 O   0  0  0  0  0
   10.0010   17.6080   11.8300 C   0  0  0  0  0
    5.3204   21.9729   16.7127 H   0  0  0  0  0
    4.2624   20.5527   16.8988 H   0  0  0  0  0
    6.0255   20.3790   17.0777 H   0  0  0  0  0
    7.9514   18.9147   15.0547 H   0  0  0  0  0
    7.9783   19.4390   11.8576 H   0  0  0  0  0
    7.0622   17.9224   12.2708 H   0  0  0  0  0
    3.7124   21.3708   12.3645 H   0  0  0  0  0
    6.4555   20.2552   10.5041 H   0  0  0  0  0
    4.7578   20.8090   10.5385 H   0  0  0  0  0
    6.9511   17.0640   10.0765 H   0  0  0  0  0
    4.8108   16.2564   10.0200 H   0  0  0  0  0
    8.4458   18.5780   14.5919 H   0  0  0  0  0
   12.7355   16.8678   13.6142 H   0  0  0  0  0
    9.3065   17.7527   11.0024 H   0  0  0  0  0
  1  2  4  0  0  0
  1  9  4  0  0  0
  2  3  1  0  0  0
  2  4  4  0  0  0
  4  5  1  0  0  0
  4  6  4  0  0  0
  6  7  1  0  0  0
  6  8  4  0  0  0
  7 16  1  0  0  0
  8  9  4  0  0  0
  8 10  1  0  0  0
 10 11  1  0  0  0
 11 12  1  0  0  0
 12 13  2  0  0  0
 12 14  1  0  0  0
 12 15  1  0  0  0
 16 17  1  0  0  0
 17 18  1  0  0  0
 17 22  2  0  0  0
 18 19  2  0  0  0
 18 20  1  0  0  0
 20 21  1  0  0  0
 21 22  1  0  0  0
  3 23  1  0  0  0
  3 24  1  0  0  0
  3 25  1  0  0  0
  5 26  1  0  0  0
  7 27  1  0  0  0
  7 28  1  0  0  0
  9 29  1  0  0  0
 10 30  1  0  0  0
 10 31  1  0  0  0
 14 32  1  0  0  0
 15 33  1  0  0  0
 16 34  1  0  0  0
 20 35  1  0  0  0
 22 36  1  0  0  0
M  END
$$$$
