2xc0_ligand
  -I-interpret- 

 62 65  0  0  0  0  0  0  0  0999 V2000
    8.2440   70.3370    2.7020 S   0  0  0  0  0
    8.9930   66.4940    2.6590 C   0  0  0  0  0
    9.7050   66.9950    3.9520 C   0  0  0  0  0
    8.9480   68.8530    2.6600 N   0  0  0  0  0
    8.1710   65.2490    2.9200 C   0  0  0  0  0
    6.7750   58.8400    3.0600 N   0  0  0  0  0
   11.0630   66.3590    4.0220 C   0  0  0  0  0
    8.1200   67.7040    2.2680 C   0  0  0  0  0
    9.8060   68.5100    3.7910 C   0  0  0  0  0
    5.8150   58.4860    2.1870 C   0  0  0  0  0
    7.2490   60.1590    3.0490 C   0  0  0  0  0
    8.7610   64.0620    2.7470 N   0  0  0  0  0
    8.0550   60.5510    2.0030 C   0  0  0  0  0
   11.6470   66.1740    5.2030 N   0  0  0  0  0
    8.1880   62.7810    2.9250 C   0  0  0  0  0
    8.5120   61.8550    1.9570 C   0  0  0  0  0
   14.7540   64.3340    4.4280 C   0  0  0  0  0
   13.5710   65.0330    4.2120 C   0  0  0  0  0
    7.6500   70.4110    1.4110 O   0  0  0  0  0
    9.3240   71.1870    3.0760 O   0  0  0  0  0
    7.2970   57.9240    3.9290 C   0  0  0  0  0
   12.8680   65.5150    5.3280 C   0  0  0  0  0
    7.0150   65.3130    3.2990 O   0  0  0  0  0
   11.6300   66.0170    3.0120 O   0  0  0  0  0
    5.3130   57.1700    2.1880 C   0  0  0  0  0
   15.1850   64.0920    5.7280 C   0  0  0  0  0
    5.3530   59.3220    1.4200 O   0  0  0  0  0
    6.8980   61.0850    4.0300 C   0  0  0  0  0
    7.3880   62.4000    3.9920 C   0  0  0  0  0
    6.8180   56.6670    3.9690 C   0  0  0  0  0
    5.7990   56.2750    3.0870 C   0  0  0  0  0
   14.4680   64.5530    6.8210 C   0  0  0  0  0
    7.0290   70.1850    4.0370 C   0  0  0  0  0
    9.3150   62.2610    0.9500 F   0  0  0  0  0
   15.4930   63.8570    3.3840 F   0  0  0  0  0
   13.2960   65.2550    6.6140 C   0  0  0  0  0
   16.3370   63.3930    5.9560 O   0  0  0  0  0
   16.4570   62.7470    7.2150 C   0  0  0  0  0
    9.6814   66.1943    1.8688 H   0  0  0  0  0
    9.1743   66.7398    4.8692 H   0  0  0  0  0
    7.1473   67.6983    2.7598 H   0  0  0  0  0
    7.8616   67.7125    1.2091 H   0  0  0  0  0
   10.8357   68.8203    3.6136 H   0  0  0  0  0
    9.4887   69.0253    4.6976 H   0  0  0  0  0
    9.7374   64.0823    2.4526 H   0  0  0  0  0
    8.3290   59.8422    1.2216 H   0  0  0  0  0
   11.1867   66.5254    6.0426 H   0  0  0  0  0
   13.1989   65.2024    3.2016 H   0  0  0  0  0
    8.1089   58.2140    4.5960 H   0  0  0  0  0
    4.5433   56.8731    1.4756 H   0  0  0  0  0
    6.2328   60.7834    4.8391 H   0  0  0  0  0
    7.1447   63.1072    4.7849 H   0  0  0  0  0
    7.2216   55.9529    4.6868 H   0  0  0  0  0
    5.4009   55.2609    3.1231 H   0  0  0  0  0
   14.8250   64.3637    7.8333 H   0  0  0  0  0
    6.3689   71.0523    4.0262 H   0  0  0  0  0
    6.4421   69.2782    3.8909 H   0  0  0  0  0
    7.5476   70.1333    4.9944 H   0  0  0  0  0
   12.7105   65.6029    7.4650 H   0  0  0  0  0
   16.4007   63.4904    8.0102 H   0  0  0  0  0
   15.6471   62.0268    7.3311 H   0  0  0  0  0
   17.4150   62.2297    7.2667 H   0  0  0  0  0
  4  1  1  0  0  0
  1 19  2  0  0  0
  1 20  2  0  0  0
  1 33  1  0  0  0
  3  2  1  0  0  0
  2  5  1  0  0  0
  2  8  1  0  0  0
  7  3  1  0  0  0
  3  9  1  0  0  0
  4  8  1  0  0  0
  9  4  1  0  0  0
  5 12  1  0  0  0
  5 23  2  0  0  0
  6 10  1  0  0  0
 11  6  1  0  0  0
  6 21  1  0  0  0
 14  7  1  0  0  0
  7 24  2  0  0  0
 10 25  1  0  0  0
 10 27  2  0  0  0
 13 11  4  0  0  0
 11 28  4  0  0  0
 12 15  1  0  0  0
 16 13  4  0  0  0
 22 14  1  0  0  0
 15 16  4  0  0  0
 15 29  4  0  0  0
 16 34  1  0  0  0
 18 17  4  0  0  0
 17 26  4  0  0  0
 17 35  1  0  0  0
 18 22  4  0  0  0
 21 30  2  0  0  0
 22 36  4  0  0  0
 25 31  2  0  0  0
 26 32  4  0  0  0
 26 37  1  0  0  0
 28 29  4  0  0  0
 30 31  1  0  0  0
 32 36  4  0  0  0
 37 38  1  0  0  0
  2 39  1  0  0  0
  3 40  1  0  0  0
  8 41  1  0  0  0
  8 42  1  0  0  0
  9 43  1  0  0  0
  9 44  1  0  0  0
 12 45  1  0  0  0
 13 46  1  0  0  0
 14 47  1  0  0  0
 18 48  1  0  0  0
 21 49  1  0  0  0
 25 50  1  0  0  0
 28 51  1  0  0  0
 29 52  1  0  0  0
 30 53  1  0  0  0
 31 54  1  0  0  0
 32 55  1  0  0  0
 33 56  1  0  0  0
 33 57  1  0  0  0
 33 58  1  0  0  0
 36 59  1  0  0  0
 38 60  1  0  0  0
 38 61  1  0  0  0
 38 62  1  0  0  0
M  END
$$$$
