### 
### Created by X-TOOL on Mon Sep 10 21:12:53 2018
### 

@<TRIPOS>MOLECULE
1zhk_ligand
  203   206     1     0     0
SMALL
GAST_HUCK


@<TRIPOS>ATOM
      1 N          12.3860   14.7250   18.8280 N.4       1 LEU         0.2379
      2 CA         13.5110   14.3190   17.9350 C.3       1 LEU         0.0654
      3 C          14.8490   14.6090   18.6040 C.2       1 LEU         0.2292
      4 O          15.0920   15.7220   19.0450 O.2       1 LEU        -0.3905
      5 CB         13.4490   15.0960   16.6240 C.3       1 LEU         0.0102
      6 CG         14.4960   14.6980   15.5880 C.3       1 LEU        -0.0394
      7 CD1        14.0620   13.4000   14.9170 C.3       1 LEU        -0.0623
      8 CD2        14.6460   15.8170   14.5580 C.3       1 LEU        -0.0623
      9 N          15.7390   13.6090   18.6730 N.am      1 PRO        -0.2471
     10 CA         17.0480   13.8130   19.3010 C.3       1 PRO         0.1339
     11 C          17.9420   14.6640   18.4030 C.2       1 PRO         0.2041
     12 O          17.6040   14.9200   17.2410 O.2       1 PRO        -0.3944
     13 CB         17.5690   12.3880   19.4750 C.3       1 PRO        -0.0104
     14 CG         17.0240   11.7020   18.2500 C.3       1 PRO        -0.0281
     15 CD         15.6020   12.2370   18.1460 C.3       1 PRO         0.0371
     16 N          19.0740   15.1010   18.9360 N.am      1 GLU        -0.2636
     17 CA         19.9860   15.9350   18.1680 C.3       1 GLU         0.1327
     18 C          20.5050   15.1930   16.9510 C.2       1 GLU         0.2065
     19 O          21.0570   14.1020   17.0700 O.2       1 GLU        -0.3942
     20 CB         21.1740   16.3960   19.0180 C.3       1 GLU        -0.0008
     21 CG         22.2060   17.1250   18.1690 C.3       1 GLU         0.0044
     22 CD         23.2970   17.7970   18.9680 C.2       1 GLU         0.0350
     23 OE1        23.5830   17.3480   20.0960 O.co2     1 GLU        -0.5690
     24 OE2        23.8860   18.7770   18.4460 O.co2     1 GLU        -0.5690
     25 N          20.3330   15.7840   15.7600 N.am      1 PRO        -0.2498
     26 CA         20.7810   15.1910   14.4950 C.3       1 PRO         0.1338
     27 C          22.2980   15.0640   14.4350 C.2       1 PRO         0.2041
     28 O          23.0230   15.8240   15.0760 O.2       1 PRO        -0.3944
     29 CB         20.2680   16.1790   13.4460 C.3       1 PRO        -0.0104
     30 CG         19.0670   16.7900   14.1080 C.3       1 PRO        -0.0281
     31 CD         19.5770   17.0230   15.5100 C.3       1 PRO         0.0369
     32 N          22.7680   14.1080   13.6460 N.am      1 LEU        -0.2637
     33 CA         24.1980   13.8890   13.4810 C.3       1 LEU         0.1314
     34 C          24.7590   14.9920   12.6020 C.2       1 LEU         0.2064
     35 O          24.0450   15.5610   11.7720 O.2       1 LEU        -0.3942
     36 CB         24.4600   12.5430   12.8040 C.3       1 LEU        -0.0101
     37 CG         23.9470   11.2930   13.5190 C.3       1 LEU        -0.0425
     38 CD1        24.1670   10.0730   12.6200 C.3       1 LEU        -0.0625
     39 CD2        24.6680   11.1290   14.8480 C.3       1 LEU        -0.0625
     40 N          26.0430   15.3270   12.7910 N.am      1 PRO        -0.2498
     41 CA         26.6610   16.3730   11.9760 C.3       1 PRO         0.1338
     42 C          26.9130   15.8060   10.5780 C.2       1 PRO         0.2041
     43 O          26.7600   14.6040   10.3570 O.2       1 PRO        -0.3944
     44 CB         27.9510   16.6800   12.7340 C.3       1 PRO        -0.0104
     45 CG         28.3060   15.3630   13.3360 C.3       1 PRO        -0.0281
     46 CD         26.9660   14.8600   13.8400 C.3       1 PRO         0.0369
     47 N          27.2780   16.6660    9.6350 N.am      1 GLN        -0.2636
     48 CA         27.5450   16.2100    8.2780 C.3       1 GLN         0.1330
     49 C          28.7400   15.2650    8.2720 C.2       1 GLN         0.2038
     50 O          28.7550   14.2620    7.5530 O.2       1 GLN        -0.3944
     51 CB         27.8150   17.4080    7.3640 C.3       1 GLN         0.0045
     52 CG         26.5560   18.0700    6.8400 C.3       1 GLN         0.0412
     53 CD         25.8420   17.2240    5.7990 C.2       1 GLN         0.1737
     54 OE1        25.4780   16.0710    6.0500 O.2       1 GLN        -0.3973
     55 NE2        25.6380   17.7980    4.6200 N.am      1 GLN        -0.3009
     56 N          29.7340   15.5800    9.0910 N.am      1 GLY        -0.2664
     57 CA         30.9160   14.7420    9.1580 C.3       1 GLY         0.1201
     58 C          30.8370   13.6710   10.2300 C.2       1 GLY         0.2007
     59 O          29.7820   13.0710   10.4590 O.2       1 GLY        -0.3947
     60 N          31.9660   13.4340   10.8890 N.am      1 GLN        -0.2638
     61 CA         32.0580   12.4330   11.9440 C.3       1 GLN         0.1330
     62 C          31.5530   13.0100   13.2660 C.2       1 GLN         0.2040
     63 O          31.8800   14.1410   13.6230 O.2       1 GLN        -0.3944
     64 CB         33.5170   11.9810   12.0740 C.3       1 GLN         0.0045
     65 CG         33.7980   10.9330   13.1360 C.3       1 GLN         0.0412
     66 CD         35.2040   10.3680   13.0170 C.2       1 GLN         0.1737
     67 OE1        35.5240    9.6540   12.0610 O.2       1 GLN        -0.3973
     68 NE2        36.0550   10.6940   13.9810 N.am      1 GLN        -0.3009
     69 N          30.7270   12.2390   13.9710 N.am      1 LEU        -0.2637
     70 CA         30.2000   12.6700   15.2630 C.3       1 LEU         0.1312
     71 C          31.3970   12.7780   16.2010 C.2       1 LEU         0.2040
     72 O          32.1760   11.8290   16.3350 O.2       1 LEU        -0.3944
     73 CB         29.2040   11.6420   15.8030 C.3       1 LEU        -0.0101
     74 CG         28.5310   11.9450   17.1440 C.3       1 LEU        -0.0425
     75 CD1        27.6970   13.2190   17.0360 C.3       1 LEU        -0.0625
     76 CD2        27.6440   10.7680   17.5350 C.3       1 LEU        -0.0625
     77 N          31.5460   13.9290   16.8510 N.am      1 THR        -0.2613
     78 CA         32.6820   14.1410   17.7430 C.3       1 THR         0.1565
     79 C          32.5770   13.4010   19.0620 C.2       1 THR         0.2065
     80 O          31.6260   13.5810   19.8180 O.2       1 THR        -0.3943
     81 CB         32.8750   15.6340   18.0630 C.3       1 THR         0.0924
     82 OG1        32.7470   16.3970   16.8610 O.3       1 THR        -0.3874
     83 CG2        34.2580   15.8710   18.6560 C.3       1 THR        -0.0346
     84 N          33.5700   12.5680   19.3410 N.am      1 ALA        -0.2639
     85 CA         33.5920   11.8290   20.5930 C.3       1 ALA         0.1282
     86 C          34.0620   12.7700   21.7050 C.2       1 ALA         0.2032
     87 O          34.4390   13.9160   21.4390 O.2       1 ALA        -0.3944
     88 CB         34.5350   10.6450   20.4670 C.3       1 ALA        -0.0244
     89 N          34.0070   12.3070   22.9500 N.am      1 TYR        -0.2679
     90 CA         34.4720   13.1070   24.0770 C.3       1 TYR         0.1025
     91 C          36.0020   13.0320   24.0760 C.2       1 TYR         0.0619
     92 O          36.5300   12.1550   23.3600 O.co2     1 TYR        -0.5665
     93 CB         33.9470   12.5360   25.4020 C.3       1 TYR         0.0108
     94 CG         32.4700   12.7540   25.6780 C.ar      1 TYR        -0.0499
     95 CD1        31.4960   12.3360   24.7720 C.ar      1 TYR        -0.0686
     96 CD2        32.0500   13.3540   26.8650 C.ar      1 TYR        -0.0686
     97 CE1        30.1260   12.5090   25.0460 C.ar      1 TYR        -0.0398
     98 CE2        30.6850   13.5340   27.1470 C.ar      1 TYR        -0.0398
     99 CZ         29.7360   13.1070   26.2320 C.ar      1 TYR         0.0805
    100 OH         28.3990   13.2680   26.5090 O.3       1 TYR        -0.3376
    101 OXT        36.6510   13.8220   24.7880 O.co2     1 TYR        -0.5665
    102 H1         11.5082   14.5277   18.3734 H         1 LEU         0.2015
    103 H2         12.4499   15.7122   19.0213 H         1 LEU         0.2015
    104 H3         12.4401   14.2092   19.6923 H         1 LEU         0.2015
    105 H4         13.4328   13.2419   17.7260 H         1 LEU         0.1098
    106 H5         13.5844   16.1633   16.8532 H         1 LEU         0.0348
    107 H6         12.4543   14.9394   16.1813 H         1 LEU         0.0348
    108 H7         15.4627   14.5393   16.0883 H         1 LEU         0.0299
    109 H8         14.8120   13.1058   14.1680 H         1 LEU         0.0232
    110 H9         13.0902   13.5493   14.4237 H         1 LEU         0.0232
    111 H10        13.9706   12.6081   15.6750 H         1 LEU         0.0232
    112 H11        14.9592   16.7419   15.0644 H         1 LEU         0.0232
    113 H12        13.6824   15.9832   14.0541 H         1 LEU         0.0232
    114 H13        15.4044   15.5315   13.8141 H         1 LEU         0.0232
    115 H14        16.9445   14.3078   20.2779 H         1 PRO         0.0802
    116 H15        17.1792   11.9299   20.3960 H         1 PRO         0.0313
    117 H16        18.6686   12.3638   19.4903 H         1 PRO         0.0313
    118 H17        17.0246   10.6095   18.3781 H         1 PRO         0.0287
    119 H18        17.6100   11.9669   17.3576 H         1 PRO         0.0287
    120 H19        15.2553   12.2446   17.1021 H         1 PRO         0.0524
    121 H20        14.9078   11.6430   18.7586 H         1 PRO         0.0524
    122 H21        19.3041   14.8546   19.8774 H         1 GLU         0.1883
    123 H22        19.4339   16.8237   17.8284 H         1 GLU         0.0801
    124 H23        21.6463   15.5174   19.4816 H         1 GLU         0.0330
    125 H24        20.8114   17.0748   19.8039 H         1 GLU         0.0330
    126 H25        21.6866   17.8940   17.5784 H         1 GLU         0.0433
    127 H26        22.6734   16.3956   17.4912 H         1 GLU         0.0433
    128 H27        20.3304   14.1980   14.3503 H         1 PRO         0.0802
    129 H28        19.9852   15.6586   12.5191 H         1 PRO         0.0313
    130 H29        21.0258   16.9438   13.2206 H         1 PRO         0.0313
    131 H30        18.2109   16.0993   14.1022 H         1 PRO         0.0287
    132 H31        18.7792   17.7348   13.6237 H         1 PRO         0.0287
    133 H32        20.2290   17.9076   15.5580 H         1 PRO         0.0524
    134 H33        18.7486   17.1388   16.2243 H         1 PRO         0.0524
    135 H34        22.1247   13.5230   13.1521 H         1 LEU         0.1883
    136 H35        24.6891   13.9076   14.4651 H         1 LEU         0.0800
    137 H36        25.5487   12.4359   12.6894 H         1 LEU         0.0315
    138 H37        23.9880   12.5740   11.8109 H         1 LEU         0.0315
    139 H38        22.8697   11.4039   13.7118 H         1 LEU         0.0298
    140 H39        23.7993    9.1705   13.1302 H         1 LEU         0.0232
    141 H40        25.2407    9.9626   12.4080 H         1 LEU         0.0232
    142 H41        23.6190   10.2095   11.6761 H         1 LEU         0.0232
    143 H42        24.4931   12.0177   15.4721 H         1 LEU         0.0232
    144 H43        25.7471   11.0140   14.6680 H         1 LEU         0.0232
    145 H44        24.2853   10.2367   15.3651 H         1 LEU         0.0232
    146 H45        26.0247   17.2676   11.9069 H         1 PRO         0.0802
    147 H46        27.7814   17.4381   13.5128 H         1 PRO         0.0313
    148 H47        28.7390   17.0273   12.0496 H         1 PRO         0.0313
    149 H48        29.0216   15.4838   14.1626 H         1 PRO         0.0287
    150 H49        28.7280   14.6822   12.5821 H         1 PRO         0.0287
    151 H50        26.9564   13.7630   13.9200 H         1 PRO         0.0524
    152 H51        26.7161   15.3011   14.8162 H         1 PRO         0.0524
    153 H52        27.3705   17.6363    9.8586 H         1 GLN         0.1883
    154 H53        26.6627   15.6699    7.9041 H         1 GLN         0.0801
    155 H54        28.4091   17.0627    6.5051 H         1 GLN         0.0337
    156 H55        28.3899   18.1549    7.9310 H         1 GLN         0.0337
    157 H56        26.8278   19.0338    6.3848 H         1 GLN         0.0504
    158 H57        25.8714   18.2429    7.6835 H         1 GLN         0.0504
    159 H58        25.1732   17.2938    3.8921 H         1 GLN         0.1814
    160 H59        25.9490   18.7347    4.4594 H         1 GLN         0.1814
    161 H60        29.6686   16.3971    9.6638 H         1 GLY         0.1881
    162 H61        31.7855   15.3821    9.3684 H         1 GLY         0.0763
    163 H62        31.0501   14.2501    8.1833 H         1 GLY         0.0763
    164 H63        32.7820   13.9615   10.6525 H         1 GLN         0.1883
    165 H64        31.4361   11.5666   11.6746 H         1 GLN         0.0801
    166 H65        34.1244   12.8678   12.3077 H         1 GLN         0.0337
    167 H66        33.8290   11.5682   11.1033 H         1 GLN         0.0337
    168 H67        33.0744   10.1119   13.0256 H         1 GLN         0.0504
    169 H68        33.6824   11.3927   14.1286 H         1 GLN         0.0504
    170 H69        36.9942   10.3516   13.9557 H         1 GLN         0.1814
    171 H70        35.7573   11.2822   14.7329 H         1 GLN         0.1814
    172 H71        30.4620   11.3458   13.6078 H         1 LEU         0.1883
    173 H72        29.7029   13.6463   15.1643 H         1 LEU         0.0800
    174 H73        29.7416   10.6886   15.9125 H         1 LEU         0.0315
    175 H74        28.4074   11.5297   15.0528 H         1 LEU         0.0315
    176 H75        29.3042   12.0868   17.9135 H         1 LEU         0.0298
    177 H76        27.2184   13.4271   18.0043 H         1 LEU         0.0232
    178 H77        26.9232   13.0865   16.2655 H         1 LEU         0.0232
    179 H78        28.3484   14.0615   16.7605 H         1 LEU         0.0232
    180 H79        28.2557    9.8568   17.6096 H         1 LEU         0.0232
    181 H80        26.8657   10.6256   16.7708 H         1 LEU         0.0232
    182 H81        27.1707   10.9724   18.5067 H         1 LEU         0.0232
    183 H82        30.8721   14.6574   16.7272 H         1 THR         0.1884
    184 H83        33.5789   13.7774   17.2202 H         1 THR         0.0826
    185 H84        32.1089   15.9532   18.7849 H         1 THR         0.0639
    186 H85        33.4073   16.1174   16.2380 H         1 THR         0.2101
    187 H86        34.3826   16.9408   18.8798 H         1 THR         0.0257
    188 H87        35.0256   15.5557   17.9339 H         1 THR         0.0257
    189 H88        34.3646   15.2878   19.5825 H         1 THR         0.0257
    190 H89        34.3127   12.4465   18.6825 H         1 ALA         0.1883
    191 H90        32.5805   11.4642   20.8248 H         1 ALA         0.0797
    192 H91        34.5510   10.0866   21.4146 H         1 ALA         0.0277
    193 H92        35.5483   11.0061   20.2371 H         1 ALA         0.0277
    194 H93        34.1887    9.9848   19.6582 H         1 ALA         0.0277
    195 H94        33.6395   11.3921   23.1169 H         1 TYR         0.1877
    196 H95        34.1380   14.1489   23.9641 H         1 TYR         0.0747
    197 H96        34.5154   13.0036   26.2195 H         1 TYR         0.0446
    198 H97        34.1331   11.4519   25.3993 H         1 TYR         0.0446
    199 H98        31.7987   11.8701   23.8412 H         1 TYR         0.0530
    200 H99        32.7901   13.6877   27.5833 H         1 TYR         0.0530
    201 H100       29.3810   12.1759   24.3325 H         1 TYR         0.0525
    202 H101       30.3766   14.0037   28.0740 H         1 TYR         0.0525
    203 H102       28.2099   14.1917   26.6255 H         1 TYR         0.2458
@<TRIPOS>BOND
     1    1    2 1  
     2    2    3 1  
     3    2    5 1  
     4    3    4 2  
     5    3    9 am 
     6    5    6 1  
     7    6    7 1  
     8    6    8 1  
     9    9   10 1  
    10    9   15 1  
    11   10   11 1  
    12   10   13 1  
    13   11   12 2  
    14   11   16 am 
    15   13   14 1  
    16   14   15 1  
    17   16   17 1  
    18   17   18 1  
    19   17   20 1  
    20   18   19 2  
    21   18   25 am 
    22   20   21 1  
    23   21   22 1  
    24   22   23 ar 
    25   22   24 ar 
    26   25   26 1  
    27   25   31 1  
    28   26   27 1  
    29   26   29 1  
    30   27   28 2  
    31   27   32 am 
    32   29   30 1  
    33   30   31 1  
    34   32   33 1  
    35   33   34 1  
    36   33   36 1  
    37   34   35 2  
    38   34   40 am 
    39   36   37 1  
    40   37   38 1  
    41   37   39 1  
    42   40   41 1  
    43   40   46 1  
    44   41   42 1  
    45   41   44 1  
    46   42   43 2  
    47   42   47 am 
    48   44   45 1  
    49   45   46 1  
    50   47   48 1  
    51   48   49 1  
    52   48   51 1  
    53   49   50 2  
    54   49   56 am 
    55   51   52 1  
    56   52   53 1  
    57   53   54 2  
    58   53   55 am 
    59   56   57 1  
    60   57   58 1  
    61   58   59 2  
    62   58   60 am 
    63   60   61 1  
    64   61   62 1  
    65   61   64 1  
    66   62   63 2  
    67   62   69 am 
    68   64   65 1  
    69   65   66 1  
    70   66   67 2  
    71   66   68 am 
    72   69   70 1  
    73   70   71 1  
    74   70   73 1  
    75   71   72 2  
    76   71   77 am 
    77   73   74 1  
    78   74   75 1  
    79   74   76 1  
    80   77   78 1  
    81   78   79 1  
    82   78   81 1  
    83   79   80 2  
    84   79   84 am 
    85   81   82 1  
    86   81   83 1  
    87   84   85 1  
    88   85   86 1  
    89   85   88 1  
    90   86   87 2  
    91   86   89 am 
    92   89   90 1  
    93   90   91 1  
    94   90   93 1  
    95   91   92 ar 
    96   91  101 ar 
    97   93   94 1  
    98   94   95 ar 
    99   94   96 ar 
   100   95   97 ar 
   101   96   98 ar 
   102   97   99 ar 
   103   98   99 ar 
   104   99  100 1  
   105    1  102 1  
   106    1  103 1  
   107    1  104 1  
   108    2  105 1  
   109    5  106 1  
   110    5  107 1  
   111    6  108 1  
   112    7  109 1  
   113    7  110 1  
   114    7  111 1  
   115    8  112 1  
   116    8  113 1  
   117    8  114 1  
   118   10  115 1  
   119   13  116 1  
   120   13  117 1  
   121   14  118 1  
   122   14  119 1  
   123   15  120 1  
   124   15  121 1  
   125   16  122 1  
   126   17  123 1  
   127   20  124 1  
   128   20  125 1  
   129   21  126 1  
   130   21  127 1  
   131   26  128 1  
   132   29  129 1  
   133   29  130 1  
   134   30  131 1  
   135   30  132 1  
   136   31  133 1  
   137   31  134 1  
   138   32  135 1  
   139   33  136 1  
   140   36  137 1  
   141   36  138 1  
   142   37  139 1  
   143   38  140 1  
   144   38  141 1  
   145   38  142 1  
   146   39  143 1  
   147   39  144 1  
   148   39  145 1  
   149   41  146 1  
   150   44  147 1  
   151   44  148 1  
   152   45  149 1  
   153   45  150 1  
   154   46  151 1  
   155   46  152 1  
   156   47  153 1  
   157   48  154 1  
   158   51  155 1  
   159   51  156 1  
   160   52  157 1  
   161   52  158 1  
   162   55  159 1  
   163   55  160 1  
   164   56  161 1  
   165   57  162 1  
   166   57  163 1  
   167   60  164 1  
   168   61  165 1  
   169   64  166 1  
   170   64  167 1  
   171   65  168 1  
   172   65  169 1  
   173   68  170 1  
   174   68  171 1  
   175   69  172 1  
   176   70  173 1  
   177   73  174 1  
   178   73  175 1  
   179   74  176 1  
   180   75  177 1  
   181   75  178 1  
   182   75  179 1  
   183   76  180 1  
   184   76  181 1  
   185   76  182 1  
   186   77  183 1  
   187   78  184 1  
   188   81  185 1  
   189   82  186 1  
   190   83  187 1  
   191   83  188 1  
   192   83  189 1  
   193   84  190 1  
   194   85  191 1  
   195   88  192 1  
   196   88  193 1  
   197   88  194 1  
   198   89  195 1  
   199   90  196 1  
   200   93  197 1  
   201   93  198 1  
   202   95  199 1  
   203   96  200 1  
   204   97  201 1  
   205   98  202 1  
   206  100  203 1  
@<TRIPOS>SUBSTRUCTURE
     1 LEU         1

