1zhk_ligand
  -I-interpret- 

205208  0  0  0  0  0  0  0  0999 V2000
   12.3860   14.7250   18.8280 N   0  3  0  0  0
   13.5110   14.3190   17.9350 C   0  0  0  0  0
   14.8490   14.6090   18.6040 C   0  0  0  0  0
   15.0920   15.7220   19.0450 O   0  0  0  0  0
   13.4490   15.0960   16.6240 C   0  0  0  0  0
   14.4960   14.6980   15.5880 C   0  0  0  0  0
   14.0620   13.4000   14.9170 C   0  0  0  0  0
   14.6460   15.8170   14.5580 C   0  0  0  0  0
   15.7390   13.6090   18.6730 N   0  0  0  0  0
   17.0480   13.8130   19.3010 C   0  0  0  0  0
   17.9420   14.6640   18.4030 C   0  0  0  0  0
   17.6040   14.9200   17.2410 O   0  0  0  0  0
   17.5690   12.3880   19.4750 C   0  0  0  0  0
   17.0240   11.7020   18.2500 C   0  0  0  0  0
   15.6020   12.2370   18.1460 C   0  0  0  0  0
   19.0740   15.1010   18.9360 N   0  0  0  0  0
   19.9860   15.9350   18.1680 C   0  0  0  0  0
   20.5050   15.1930   16.9510 C   0  0  0  0  0
   21.0570   14.1020   17.0700 O   0  0  0  0  0
   21.1740   16.3960   19.0180 C   0  0  0  0  0
   22.2060   17.1250   18.1690 C   0  0  0  0  0
   23.2970   17.7970   18.9680 C   0  0  0  0  0
   23.5830   17.3480   20.0960 O   0  0  0  0  0
   23.8860   18.7770   18.4460 O   0  0  0  0  0
   20.3330   15.7840   15.7600 N   0  0  0  0  0
   20.7810   15.1910   14.4950 C   0  0  0  0  0
   22.2980   15.0640   14.4350 C   0  0  0  0  0
   23.0230   15.8240   15.0760 O   0  0  0  0  0
   20.2680   16.1790   13.4460 C   0  0  0  0  0
   19.0670   16.7900   14.1080 C   0  0  0  0  0
   19.5770   17.0230   15.5100 C   0  0  0  0  0
   22.7680   14.1080   13.6460 N   0  0  0  0  0
   24.1980   13.8890   13.4810 C   0  0  0  0  0
   24.7590   14.9920   12.6020 C   0  0  0  0  0
   24.0450   15.5610   11.7720 O   0  0  0  0  0
   24.4600   12.5430   12.8040 C   0  0  0  0  0
   23.9470   11.2930   13.5190 C   0  0  0  0  0
   24.1670   10.0730   12.6200 C   0  0  0  0  0
   24.6680   11.1290   14.8480 C   0  0  0  0  0
   26.0430   15.3270   12.7910 N   0  0  0  0  0
   26.6610   16.3730   11.9760 C   0  0  0  0  0
   26.9130   15.8060   10.5780 C   0  0  0  0  0
   26.7600   14.6040   10.3570 O   0  0  0  0  0
   27.9510   16.6800   12.7340 C   0  0  0  0  0
   28.3060   15.3630   13.3360 C   0  0  0  0  0
   26.9660   14.8600   13.8400 C   0  0  0  0  0
   27.2780   16.6660    9.6350 N   0  0  0  0  0
   27.5450   16.2100    8.2780 C   0  0  0  0  0
   28.7400   15.2650    8.2720 C   0  0  0  0  0
   28.7550   14.2620    7.5530 O   0  0  0  0  0
   27.8150   17.4080    7.3640 C   0  0  0  0  0
   26.5560   18.0700    6.8400 C   0  0  0  0  0
   25.8420   17.2240    5.7990 C   0  0  0  0  0
   25.4780   16.0710    6.0500 O   0  0  0  0  0
   25.6380   17.7980    4.6200 N   0  0  0  0  0
   29.7340   15.5800    9.0910 N   0  0  0  0  0
   30.9160   14.7420    9.1580 C   0  0  0  0  0
   30.8370   13.6710   10.2300 C   0  0  0  0  0
   29.7820   13.0710   10.4590 O   0  0  0  0  0
   31.9660   13.4340   10.8890 N   0  0  0  0  0
   32.0580   12.4330   11.9440 C   0  0  0  0  0
   31.5530   13.0100   13.2660 C   0  0  0  0  0
   31.8800   14.1410   13.6230 O   0  0  0  0  0
   33.5170   11.9810   12.0740 C   0  0  0  0  0
   33.7980   10.9330   13.1360 C   0  0  0  0  0
   35.2040   10.3680   13.0170 C   0  0  0  0  0
   35.5240    9.6540   12.0610 O   0  0  0  0  0
   36.0550   10.6940   13.9810 N   0  0  0  0  0
   30.7270   12.2390   13.9710 N   0  0  0  0  0
   30.2000   12.6700   15.2630 C   0  0  0  0  0
   31.3970   12.7780   16.2010 C   0  0  0  0  0
   32.1760   11.8290   16.3350 O   0  0  0  0  0
   29.2040   11.6420   15.8030 C   0  0  0  0  0
   28.5310   11.9450   17.1440 C   0  0  0  0  0
   27.6970   13.2190   17.0360 C   0  0  0  0  0
   27.6440   10.7680   17.5350 C   0  0  0  0  0
   31.5460   13.9290   16.8510 N   0  0  0  0  0
   32.6820   14.1410   17.7430 C   0  0  0  0  0
   32.5770   13.4010   19.0620 C   0  0  0  0  0
   31.6260   13.5810   19.8180 O   0  0  0  0  0
   32.8750   15.6340   18.0630 C   0  0  0  0  0
   32.7470   16.3970   16.8610 O   0  0  0  0  0
   34.2580   15.8710   18.6560 C   0  0  0  0  0
   33.5700   12.5680   19.3410 N   0  0  0  0  0
   33.5920   11.8290   20.5930 C   0  0  0  0  0
   34.0620   12.7700   21.7050 C   0  0  0  0  0
   34.4390   13.9160   21.4390 O   0  0  0  0  0
   34.5350   10.6450   20.4670 C   0  0  0  0  0
   34.0070   12.3070   22.9500 N   0  0  0  0  0
   34.4720   13.1070   24.0770 C   0  0  0  0  0
   36.0020   13.0320   24.0760 C   0  0  0  0  0
   36.5300   12.1550   23.3600 O   0  0  0  0  0
   33.9470   12.5360   25.4020 C   0  0  0  0  0
   32.4700   12.7540   25.6780 C   0  0  0  0  0
   31.4960   12.3360   24.7720 C   0  0  0  0  0
   32.0500   13.3540   26.8650 C   0  0  0  0  0
   30.1260   12.5090   25.0460 C   0  0  0  0  0
   30.6850   13.5340   27.1470 C   0  0  0  0  0
   29.7360   13.1070   26.2320 C   0  0  0  0  0
   28.3990   13.2680   26.5090 O   0  0  0  0  0
   36.6510   13.8220   24.7880 O   0  0  0  0  0
   12.4389   14.1988   19.7002 H   0  0  0  0  0
   12.4546   15.7230   19.0270 H   0  0  0  0  0
   11.4984   14.5297   18.3649 H   0  0  0  0  0
   13.4190   13.2506   17.7396 H   0  0  0  0  0
   13.6313   16.1422   16.8695 H   0  0  0  0  0
   12.4744   14.8894   16.1817 H   0  0  0  0  0
   15.4614   14.5415   16.0693 H   0  0  0  0  0
   13.1038   13.5521   14.4201 H   0  0  0  0  0
   14.8109   13.1043   14.1822 H   0  0  0  0  0
   13.9621   12.6187   15.6705 H   0  0  0  0  0
   15.3976   15.5328   13.8215 H   0  0  0  0  0
   13.6906   15.9806   14.0594 H   0  0  0  0  0
   14.9563   16.7329   15.0610 H   0  0  0  0  0
   17.0123   14.3526   20.2474 H   0  0  0  0  0
   17.2495   11.9230   20.4076 H   0  0  0  0  0
   18.6548   12.3324   19.5531 H   0  0  0  0  0
   17.0568   10.6155   18.3303 H   0  0  0  0  0
   17.6146   11.9091   17.3576 H   0  0  0  0  0
   15.2069   12.2065   17.1306 H   0  0  0  0  0
   14.8781   11.6373   18.6978 H   0  0  0  0  0
   19.3087   14.8496   19.8963 H   0  0  0  0  0
   19.4217   16.8101   17.8457 H   0  0  0  0  0
   21.6451   15.5196   19.4631 H   0  0  0  0  0
   20.8093   17.0785   19.7857 H   0  0  0  0  0
   21.6793   17.9063   17.6210 H   0  0  0  0  0
   22.6841   16.3806   17.5323 H   0  0  0  0  0
   23.5085   18.9521   17.5809 H   0  0  0  0  0
   20.4085   14.1767   14.3512 H   0  0  0  0  0
   20.0263   15.6980   12.4982 H   0  0  0  0  0
   21.0161   16.9205   13.1656 H   0  0  0  0  0
   18.1796   16.1583   14.0674 H   0  0  0  0  0
   18.7143   17.6971   13.6172 H   0  0  0  0  0
   20.1775   17.9271   15.6102 H   0  0  0  0  0
   18.7852   17.2040   16.2369 H   0  0  0  0  0
   22.1119   13.5113   13.1422 H   0  0  0  0  0
   24.6742   13.8923   14.4615 H   0  0  0  0  0
   25.5441   12.4375   12.7625 H   0  0  0  0  0
   23.9284   12.5804   11.8531 H   0  0  0  0  0
   22.8804   11.3901   13.7214 H   0  0  0  0  0
   23.6235   10.2095   11.6851 H   0  0  0  0  0
   25.2312    9.9647   12.4106 H   0  0  0  0  0
   23.8023    9.1795   13.1266 H   0  0  0  0  0
   25.7386   11.0295   14.6692 H   0  0  0  0  0
   24.4822   12.0038   15.4711 H   0  0  0  0  0
   24.2981   10.2366   15.3528 H   0  0  0  0  0
   26.0636   17.2736   11.8342 H   0  0  0  0  0
   27.8270   17.4659   13.4790 H   0  0  0  0  0
   28.7361   17.0760   12.0898 H   0  0  0  0  0
   29.0560   15.4416   14.1231 H   0  0  0  0  0
   28.7781   14.6829   12.6270 H   0  0  0  0  0
   26.9397   13.7801   13.9858 H   0  0  0  0  0
   26.7127   15.2331   14.8324 H   0  0  0  0  0
   27.3724   17.6557    9.8631 H   0  0  0  0  0
   26.6709   15.6755    7.9060 H   0  0  0  0  0
   28.3735   17.0417    6.5026 H   0  0  0  0  0
   28.3540   18.1513    7.9514 H   0  0  0  0  0
   26.8422   19.0106    6.3694 H   0  0  0  0  0
   25.8767   18.2122    7.6805 H   0  0  0  0  0
   25.1635   17.2839    3.8777 H   0  0  0  0  0
   25.9557   18.7533    4.4561 H   0  0  0  0  0
   29.6673   16.4135    9.6752 H   0  0  0  0  0
   31.7616   15.3861    9.3994 H   0  0  0  0  0
   31.0154   14.2375    8.1969 H   0  0  0  0  0
   32.7983   13.9720   10.6478 H   0  0  0  0  0
   31.4354   11.5745   11.6921 H   0  0  0  0  0
   34.0868   12.8654   12.3589 H   0  0  0  0  0
   33.7828   11.5276   11.1191 H   0  0  0  0  0
   33.0890   10.1155   13.0053 H   0  0  0  0  0
   33.7004   11.4033   14.1145 H   0  0  0  0  0
   37.0155   10.3522   13.9505 H   0  0  0  0  0
   35.7488   11.2865   14.7528 H   0  0  0  0  0
   30.4567   11.3279   13.6006 H   0  0  0  0  0
   29.6748   13.6210   15.1744 H   0  0  0  0  0
   29.7811   10.7314   15.9640 H   0  0  0  0  0
   28.3965   11.6043   15.0718 H   0  0  0  0  0
   29.2933   12.0948   17.9085 H   0  0  0  0  0
   28.3436   14.0529   16.7629 H   0  0  0  0  0
   26.9307   13.0864   16.2722 H   0  0  0  0  0
   27.2233   13.4241   17.9960 H   0  0  0  0  0
   26.8838   10.6172   16.7685 H   0  0  0  0  0
   28.2540    9.8692   17.6252 H   0  0  0  0  0
   27.1623   10.9791   18.4897 H   0  0  0  0  0
   30.8586   14.6720   16.7247 H   0  0  0  0  0
   33.5343   13.7435   17.1919 H   0  0  0  0  0
   32.1174   15.9409   18.7841 H   0  0  0  0  0
   32.8673   17.3284   17.0602 H   0  0  0  0  0
   34.3623   15.2926   19.5739 H   0  0  0  0  0
   35.0176   15.5581   17.9396 H   0  0  0  0  0
   34.3802   16.9313   18.8773 H   0  0  0  0  0
   34.3276   12.4441   18.6693 H   0  0  0  0  0
   32.5963   11.4543   20.8303 H   0  0  0  0  0
   34.1908    9.9917   19.6653 H   0  0  0  0  0
   35.5386   11.0041   20.2392 H   0  0  0  0  0
   34.5500   10.0925   21.4065 H   0  0  0  0  0
   33.6321   11.3738   23.1202 H   0  0  0  0  0
   34.1145   14.1324   23.9824 H   0  0  0  0  0
   35.8452   11.6637   22.9004 H   0  0  0  0  0
   34.4874   13.0530   26.1950 H   0  0  0  0  0
   34.0942   11.4572   25.3515 H   0  0  0  0  0
   31.8004   11.8675   23.8361 H   0  0  0  0  0
   32.7942   13.6895   27.5873 H   0  0  0  0  0
   29.3768   12.1741   24.3286 H   0  0  0  0  0
   30.3749   14.0063   28.0791 H   0  0  0  0  0
   28.2995   13.6954   27.3628 H   0  0  0  0  0
  1  2  1  0  0  0
  2  3  1  0  0  0
  2  5  1  0  0  0
  3  4  2  0  0  0
  3  9  1  0  0  0
  5  6  1  0  0  0
  6  7  1  0  0  0
  6  8  1  0  0  0
  9 10  1  0  0  0
  9 15  1  0  0  0
 10 11  1  0  0  0
 10 13  1  0  0  0
 11 12  2  0  0  0
 11 16  1  0  0  0
 13 14  1  0  0  0
 14 15  1  0  0  0
 16 17  1  0  0  0
 17 18  1  0  0  0
 17 20  1  0  0  0
 18 19  2  0  0  0
 18 25  1  0  0  0
 20 21  1  0  0  0
 21 22  1  0  0  0
 22 23  2  0  0  0
 22 24  1  0  0  0
 25 26  1  0  0  0
 25 31  1  0  0  0
 26 27  1  0  0  0
 26 29  1  0  0  0
 27 28  2  0  0  0
 27 32  1  0  0  0
 29 30  1  0  0  0
 30 31  1  0  0  0
 32 33  1  0  0  0
 33 34  1  0  0  0
 33 36  1  0  0  0
 34 35  2  0  0  0
 34 40  1  0  0  0
 36 37  1  0  0  0
 37 38  1  0  0  0
 37 39  1  0  0  0
 40 41  1  0  0  0
 40 46  1  0  0  0
 41 42  1  0  0  0
 41 44  1  0  0  0
 42 43  2  0  0  0
 42 47  1  0  0  0
 44 45  1  0  0  0
 45 46  1  0  0  0
 47 48  1  0  0  0
 48 49  1  0  0  0
 48 51  1  0  0  0
 49 50  2  0  0  0
 49 56  1  0  0  0
 51 52  1  0  0  0
 52 53  1  0  0  0
 53 54  2  0  0  0
 53 55  1  0  0  0
 56 57  1  0  0  0
 57 58  1  0  0  0
 58 59  2  0  0  0
 58 60  1  0  0  0
 60 61  1  0  0  0
 61 62  1  0  0  0
 61 64  1  0  0  0
 62 63  2  0  0  0
 62 69  1  0  0  0
 64 65  1  0  0  0
 65 66  1  0  0  0
 66 67  2  0  0  0
 66 68  1  0  0  0
 69 70  1  0  0  0
 70 71  1  0  0  0
 70 73  1  0  0  0
 71 72  2  0  0  0
 71 77  1  0  0  0
 73 74  1  0  0  0
 74 75  1  0  0  0
 74 76  1  0  0  0
 77 78  1  0  0  0
 78 79  1  0  0  0
 78 81  1  0  0  0
 79 80  2  0  0  0
 79 84  1  0  0  0
 81 82  1  0  0  0
 81 83  1  0  0  0
 84 85  1  0  0  0
 85 86  1  0  0  0
 85 88  1  0  0  0
 86 87  2  0  0  0
 86 89  1  0  0  0
 89 90  1  0  0  0
 90 91  1  0  0  0
 90 93  1  0  0  0
 91 92  1  0  0  0
 91101  2  0  0  0
 93 94  1  0  0  0
 94 95  4  0  0  0
 94 96  4  0  0  0
 95 97  4  0  0  0
 96 98  4  0  0  0
 97 99  4  0  0  0
 98 99  4  0  0  0
 99100  1  0  0  0
  1102  1  0  0  0
  1103  1  0  0  0
  1104  1  0  0  0
  2105  1  0  0  0
  5106  1  0  0  0
  5107  1  0  0  0
  6108  1  0  0  0
  7109  1  0  0  0
  7110  1  0  0  0
  7111  1  0  0  0
  8112  1  0  0  0
  8113  1  0  0  0
  8114  1  0  0  0
 10115  1  0  0  0
 13116  1  0  0  0
 13117  1  0  0  0
 14118  1  0  0  0
 14119  1  0  0  0
 15120  1  0  0  0
 15121  1  0  0  0
 16122  1  0  0  0
 17123  1  0  0  0
 20124  1  0  0  0
 20125  1  0  0  0
 21126  1  0  0  0
 21127  1  0  0  0
 24128  1  0  0  0
 26129  1  0  0  0
 29130  1  0  0  0
 29131  1  0  0  0
 30132  1  0  0  0
 30133  1  0  0  0
 31134  1  0  0  0
 31135  1  0  0  0
 32136  1  0  0  0
 33137  1  0  0  0
 36138  1  0  0  0
 36139  1  0  0  0
 37140  1  0  0  0
 38141  1  0  0  0
 38142  1  0  0  0
 38143  1  0  0  0
 39144  1  0  0  0
 39145  1  0  0  0
 39146  1  0  0  0
 41147  1  0  0  0
 44148  1  0  0  0
 44149  1  0  0  0
 45150  1  0  0  0
 45151  1  0  0  0
 46152  1  0  0  0
 46153  1  0  0  0
 47154  1  0  0  0
 48155  1  0  0  0
 51156  1  0  0  0
 51157  1  0  0  0
 52158  1  0  0  0
 52159  1  0  0  0
 55160  1  0  0  0
 55161  1  0  0  0
 56162  1  0  0  0
 57163  1  0  0  0
 57164  1  0  0  0
 60165  1  0  0  0
 61166  1  0  0  0
 64167  1  0  0  0
 64168  1  0  0  0
 65169  1  0  0  0
 65170  1  0  0  0
 68171  1  0  0  0
 68172  1  0  0  0
 69173  1  0  0  0
 70174  1  0  0  0
 73175  1  0  0  0
 73176  1  0  0  0
 74177  1  0  0  0
 75178  1  0  0  0
 75179  1  0  0  0
 75180  1  0  0  0
 76181  1  0  0  0
 76182  1  0  0  0
 76183  1  0  0  0
 77184  1  0  0  0
 78185  1  0  0  0
 81186  1  0  0  0
 82187  1  0  0  0
 83188  1  0  0  0
 83189  1  0  0  0
 83190  1  0  0  0
 84191  1  0  0  0
 85192  1  0  0  0
 88193  1  0  0  0
 88194  1  0  0  0
 88195  1  0  0  0
 89196  1  0  0  0
 90197  1  0  0  0
 92198  1  0  0  0
 93199  1  0  0  0
 93200  1  0  0  0
 95201  1  0  0  0
 96202  1  0  0  0
 97203  1  0  0  0
 98204  1  0  0  0
100205  1  0  0  0
M  END
$$$$
