1wzy_ligand
  -I-interpret- 

 47 51  0  0  0  0  0  0  0  0999 V2000
    2.0450    9.4760   41.2540 C   0  0  0  0  0
    2.2660    9.0370   42.6210 C   0  0  0  0  0
    3.5810    8.8170   43.0880 C   0  0  0  0  0
    4.7630    9.0150   42.3420 C   0  0  0  0  0
    4.5680    9.4050   40.9410 C   0  0  0  0  0
    3.2260    9.6450   40.4130 C   0  0  0  0  0
    3.9230    8.3070   44.4180 N   0  0  0  0  0
    5.3350    8.2570   44.4640 C   0  0  0  0  0
    5.9080    8.7200   43.2030 C   0  0  0  0  0
    7.3170    8.9150   42.8500 C   0  0  0  0  0
    5.9070    7.7740   45.7160 C   0  0  0  0  0
    5.1730    6.7990   46.5250 C   0  0  0  0  0
    5.6820    6.2580   47.7760 C   0  0  0  0  0
    6.9880    6.6520   48.2680 C   0  0  0  0  0
    7.7450    7.6220   47.5000 C   0  0  0  0  0
    7.2010    8.1750   46.2730 C   0  0  0  0  0
    8.3290    7.8690   43.0010 C   0  0  0  0  0
    9.7430    8.0310   42.6790 C   0  0  0  0  0
   10.3300    9.2460   42.1470 C   0  0  0  0  0
    9.4080   10.3150   42.0010 N   0  0  0  0  0
    7.8580   10.1350   42.3520 N   0  0  0  0  0
   10.7430    6.9950   42.6320 C   0  0  0  0  0
   11.8930    7.5550   42.0390 N   0  0  0  0  0
   11.6460    8.9790   41.6930 N   0  0  0  0  0
   10.5930    5.6300   42.9600 N   0  0  0  0  0
   12.5110    9.6130   40.7630 C   0  0  0  0  0
   12.2240    9.3830   39.3590 C   0  0  0  0  0
   11.2810    8.4130   38.8260 C   0  0  0  0  0
    1.0423    9.6705   40.8734 H   0  0  0  0  0
    1.4174    8.8774   43.2862 H   0  0  0  0  0
    5.4328    9.5170   40.2870 H   0  0  0  0  0
    3.1055    9.9550   39.3750 H   0  0  0  0  0
    4.1980    6.4621   46.1729 H   0  0  0  0  0
    5.0782    5.5525   48.3467 H   0  0  0  0  0
    7.3897    6.2308   49.1896 H   0  0  0  0  0
    8.7290    7.9379   47.8465 H   0  0  0  0  0
    7.7843    8.9257   45.7398 H   0  0  0  0  0
    8.0037    6.9005   43.3808 H   0  0  0  0  0
    9.6891    5.2774   43.2746 H   0  0  0  0  0
   11.3886    4.9964   42.8824 H   0  0  0  0  0
   13.5040    9.2006   40.9417 H   0  0  0  0  0
   12.3977   10.6850   40.9246 H   0  0  0  0  0
   13.1753    8.9935   38.9965 H   0  0  0  0  0
   11.7641   10.3270   39.0666 H   0  0  0  0  0
   11.5760    7.4115   39.1391 H   0  0  0  0  0
   10.2825    8.6337   39.2033 H   0  0  0  0  0
   11.2801    8.4693   37.7375 H   0  0  0  0  0
  1  2  4  0  0  0
  1  6  4  0  0  0
  2  3  4  0  0  0
  3  4  4  0  0  0
  3  7  4  0  0  0
  4  5  4  0  0  0
  4  9  4  0  0  0
  5  6  4  0  0  0
  7  8  4  0  0  0
  8  9  4  0  0  0
  8 11  1  0  0  0
  9 10  1  0  0  0
 10 17  4  0  0  0
 10 21  4  0  0  0
 11 12  4  0  0  0
 11 16  4  0  0  0
 12 13  4  0  0  0
 13 14  4  0  0  0
 14 15  4  0  0  0
 15 16  4  0  0  0
 17 18  4  0  0  0
 18 19  4  0  0  0
 18 22  4  0  0  0
 19 20  4  0  0  0
 19 24  4  0  0  0
 20 21  4  0  0  0
 22 23  4  0  0  0
 22 25  1  0  0  0
 23 24  4  0  0  0
 24 26  1  0  0  0
 26 27  1  0  0  0
 27 28  1  0  0  0
  1 29  1  0  0  0
  2 30  1  0  0  0
  5 31  1  0  0  0
  6 32  1  0  0  0
 12 33  1  0  0  0
 13 34  1  0  0  0
 14 35  1  0  0  0
 15 36  1  0  0  0
 16 37  1  0  0  0
 17 38  1  0  0  0
 25 39  1  0  0  0
 25 40  1  0  0  0
 26 41  1  0  0  0
 26 42  1  0  0  0
 27 43  1  0  0  0
 27 44  1  0  0  0
 28 45  1  0  0  0
 28 46  1  0  0  0
 28 47  1  0  0  0
M  END
$$$$
