6g39_ligand
  -I-interpret- 

 33 35  0  0  0  0  0  0  0  0999 V2000
   65.3740   31.1140    9.9870 O   0  0  0  0  0
   64.3600   31.9080   10.5990 C   0  0  0  0  0
   64.1300   31.5120   12.0390 C   0  0  0  0  0
   63.9350   30.0860   12.1090 O   0  0  0  0  0
   64.5540   29.5590   13.2670 C   0  0  0  0  0
   65.6160   28.6470   12.8630 N   0  0  0  0  0
   66.2670   28.6300   11.6500 C   0  0  0  0  0
   67.2050   27.6370   11.6600 C   0  0  0  0  0
   67.1650   26.9990   12.9300 C   0  0  0  0  0
   67.8440   25.9530   13.6030 C   0  0  0  0  0
   67.4720   25.6420   14.8650 N   0  0  0  0  0
   66.4910   26.3500   15.4250 C   0  0  0  0  0
   65.7920   27.3620   14.9080 N   0  0  0  0  0
   66.1530   27.6600   13.6520 C   0  0  0  0  0
   68.8580   25.2800   13.0610 N   0  0  0  0  0
   65.0550   30.7420   14.0860 C   0  0  0  0  0
   64.0510   31.1300   15.0120 O   0  0  0  0  0
   65.2860   31.7850   12.9960 C   0  0  0  0  0
   65.2680   33.1100   13.5280 O   0  0  0  0  0
   68.4460   27.0810   10.0630 I   0  0  0  0  0
   65.4917   31.3937    9.0762 H   0  0  0  0  0
   63.4302   31.7590   10.0500 H   0  0  0  0  0
   64.6806   32.9496   10.5771 H   0  0  0  0  0
   63.2760   32.1167   12.3443 H   0  0  0  0  0
   63.8675   28.9801   13.8848 H   0  0  0  0  0
   66.0661   29.3015   10.8152 H   0  0  0  0  0
   66.2240   26.0635   16.4422 H   0  0  0  0  0
   69.1779   25.5101   12.1202 H   0  0  0  0  0
   69.3144   24.5346   13.5868 H   0  0  0  0  0
   65.9447   30.5608   14.6890 H   0  0  0  0  0
   63.9449   30.4428   15.6739 H   0  0  0  0  0
   66.2596   31.7158   12.5108 H   0  0  0  0  0
   65.4158   33.7403   12.8191 H   0  0  0  0  0
  1  2  1  0  0  0
  2  3  1  0  0  0
  3  4  1  0  0  0
  3 18  1  0  0  0
  4  5  1  0  0  0
  5  6  1  0  0  0
  5 16  1  0  0  0
  6  7  4  0  0  0
  6 14  4  0  0  0
  7  8  4  0  0  0
  8  9  4  0  0  0
  8 20  1  0  0  0
  9 10  4  0  0  0
  9 14  4  0  0  0
 10 11  4  0  0  0
 10 15  1  0  0  0
 11 12  4  0  0  0
 12 13  4  0  0  0
 13 14  4  0  0  0
 16 17  1  0  0  0
 16 18  1  0  0  0
 18 19  1  0  0  0
  1 21  1  0  0  0
  2 22  1  0  0  0
  2 23  1  0  0  0
  3 24  1  0  0  0
  5 25  1  0  0  0
  7 26  1  0  0  0
 12 27  1  0  0  0
 15 28  1  0  0  0
 15 29  1  0  0  0
 16 30  1  0  0  0
 17 31  1  0  0  0
 18 32  1  0  0  0
 19 33  1  0  0  0
M  END
$$$$
