5mts_ligand
  -I-interpret- 

 50 53  0  0  0  0  0  0  0  0999 V2000
  -39.1650    1.2540   12.4340 N   0  0  0  0  0
  -37.2040   -0.6800   10.1100 C   0  0  0  0  0
  -36.9080   -0.3140   11.5960 C   0  0  0  0  0
  -35.5180   -0.7610   12.1200 C   0  0  0  0  0
  -40.1400   -0.8160   24.8240 C   0  0  0  0  0
  -38.8000    1.3380   13.7320 C   0  0  0  0  0
  -37.4350    1.7750   15.4100 C   0  0  0  0  0
  -38.9200    0.4650   18.5420 C   0  0  0  0  0
  -38.2210    1.7290   11.4730 C   0  0  0  0  0
  -38.6210    1.4800    9.9990 C   0  0  0  0  0
  -37.7140    2.1680    9.1330 O   0  0  0  0  0
  -38.5670   -0.0380    9.6780 C   0  0  0  0  0
  -38.7850   -0.1980    8.2790 O   0  0  0  0  0
  -37.0990   -2.1050    9.8950 O   0  0  0  0  0
  -36.9400    1.1180   11.6960 O   0  0  0  0  0
  -34.4350   -0.1680   11.3930 O   0  0  0  0  0
  -39.8450    0.9070   15.0330 S   0  0  0  0  0
  -38.5430    1.3260   16.1100 C   0  0  0  0  0
  -37.5950    1.7720   14.1150 N   0  0  0  0  0
  -38.5180    1.3220   17.5140 C   0  0  0  0  0
  -37.9590    2.3370   17.9970 O   0  0  0  0  0
  -39.5310   -1.2970   19.8220 N   0  0  0  0  0
  -38.9660    1.2110   20.1210 S   0  0  0  0  0
  -39.9470    0.5790   22.9060 N   0  0  0  0  0
  -39.8660   -1.9120   24.0610 N   0  0  0  0  0
  -39.2410   -0.8960   18.5660 C   0  0  0  0  0
  -39.4340   -0.3300   20.7550 C   0  0  0  0  0
  -39.6770   -0.5130   22.1230 C   0  0  0  0  0
  -40.1780    0.4650   24.2320 C   0  0  0  0  0
  -39.6310   -1.7970   22.7290 C   0  0  0  0  0
  -39.3090   -1.8500   17.4500 C   0  0  0  0  0
  -40.0682    0.8711   12.1546 H   0  0  0  0  0
  -36.4475   -0.2541    9.4509 H   0  0  0  0  0
  -37.6569   -0.8335   12.1938 H   0  0  0  0  0
  -35.4479   -1.8423   12.0013 H   0  0  0  0  0
  -35.4353   -0.4449   13.1599 H   0  0  0  0  0
  -40.3298   -0.9288   25.8914 H   0  0  0  0  0
  -36.5151    2.1005   15.8958 H   0  0  0  0  0
  -38.1884    2.8086   11.6193 H   0  0  0  0  0
  -39.6356    1.8475    9.8455 H   0  0  0  0  0
  -37.9647    2.0117    8.2196 H   0  0  0  0  0
  -39.3409   -0.5554   10.2449 H   0  0  0  0  0
  -38.7559   -1.1314    8.0564 H   0  0  0  0  0
  -36.2364   -2.4088   10.1869 H   0  0  0  0  0
  -33.6011   -0.4760   11.7555 H   0  0  0  0  0
  -40.3903    1.3478   24.8351 H   0  0  0  0  0
  -39.4093   -2.6807   22.1306 H   0  0  0  0  0
  -40.0525   -1.5109   16.7286 H   0  0  0  0  0
  -38.3339   -1.9121   16.9668 H   0  0  0  0  0
  -39.5909   -2.8320   17.8298 H   0  0  0  0  0
  6  1  1  0  0  0
  1  9  1  0  0  0
  3  2  1  0  0  0
 12  2  1  0  0  0
  2 14  1  0  0  0
  3  4  1  0  0  0
 15  3  1  0  0  0
  4 16  1  0  0  0
  5 25  4  0  0  0
 29  5  4  0  0  0
 17  6  4  0  0  0
  6 19  4  0  0  0
 18  7  4  0  0  0
  7 19  4  0  0  0
  8 20  1  0  0  0
 23  8  4  0  0  0
  8 26  4  0  0  0
  9 10  1  0  0  0
  9 15  1  0  0  0
 10 11  1  0  0  0
 10 12  1  0  0  0
 12 13  1  0  0  0
 18 17  4  0  0  0
 20 18  1  0  0  0
 20 21  2  0  0  0
 22 26  4  0  0  0
 27 22  4  0  0  0
 27 23  4  0  0  0
 28 24  4  0  0  0
 24 29  4  0  0  0
 25 30  4  0  0  0
 26 31  1  0  0  0
 27 28  1  0  0  0
 28 30  4  0  0  0
  1 32  1  0  0  0
  2 33  1  0  0  0
  3 34  1  0  0  0
  4 35  1  0  0  0
  4 36  1  0  0  0
  5 37  1  0  0  0
  7 38  1  0  0  0
  9 39  1  0  0  0
 10 40  1  0  0  0
 11 41  1  0  0  0
 12 42  1  0  0  0
 13 43  1  0  0  0
 14 44  1  0  0  0
 16 45  1  0  0  0
 29 46  1  0  0  0
 30 47  1  0  0  0
 31 48  1  0  0  0
 31 49  1  0  0  0
 31 50  1  0  0  0
M  END
$$$$
