3p76_ligand
  -I-interpret- 

 58 60  0  0  0  0  0  0  0  0999 V2000
   -6.3340   20.9290   -3.8250 N   0  0  0  0  0
   -5.0740   21.2430   -3.1830 C   0  0  0  0  0
   -5.0700   22.7470   -3.0480 C   0  0  0  0  0
   -4.9710   23.5140   -4.0160 O   0  0  0  0  0
   -5.1690   23.1210   -1.7410 N   0  0  0  0  0
   -5.1380   24.5040   -1.6360 O   0  0  0  0  0
   -6.8880   19.6340   -3.7030 C   0  0  0  0  0
   -6.3350   18.7090   -3.0520 O   0  0  0  0  0
   -8.1050   19.4590   -4.3600 N   0  0  0  0  0
   -8.8200   20.5060   -5.1040 C   0  0  0  0  0
   -9.3190   19.9930   -6.4180 C   0  0  0  0  0
  -10.3240   18.8520   -6.1880 C   0  0  0  0  0
   -9.5060   17.7230   -5.5370 C   0  0  0  0  0
   -8.7660   18.1420   -4.2670 C   0  0  0  0  0
  -10.9280   18.3230   -7.4850 C   0  0  0  0  0
  -11.8010   17.1880   -7.4950 C   0  0  0  0  0
  -12.3450   16.7190   -8.7170 C   0  0  0  0  0
  -12.0070   17.3920   -9.9230 C   0  0  0  0  0
  -11.1660   18.4940   -9.9340 C   0  0  0  0  0
  -10.6570   18.9400   -8.7270 C   0  0  0  0  0
  -12.4520   16.9970  -11.1910 C   0  0  0  0  0
  -12.6090   16.6110  -12.2990 C   0  0  0  0  0
  -12.7910   16.1400  -13.6180 C   0  0  0  0  0
  -12.0180   15.0120  -14.0100 C   0  0  0  0  0
  -12.1550   14.4770  -15.3090 C   0  0  0  0  0
  -13.0580   15.0880  -16.2130 C   0  0  0  0  0
  -13.8190   16.2170  -15.8140 C   0  0  0  0  0
  -13.6920   16.7520  -14.5030 C   0  0  0  0  0
   -3.8040   20.6620   -3.8300 C   0  0  0  0  0
   -3.6170   21.0070   -5.3020 C   0  0  0  0  0
   -2.6750   21.1780   -3.0930 O   0  0  0  0  0
   -6.8221   21.6430   -4.3657 H   0  0  0  0  0
   -5.0215   20.7415   -2.2166 H   0  0  0  0  0
   -5.2536   22.4774   -0.9542 H   0  0  0  0  0
   -5.2084   24.7553   -0.7122 H   0  0  0  0  0
   -8.1320   21.3304   -5.2915 H   0  0  0  0  0
   -9.6746   20.8316   -4.5110 H   0  0  0  0  0
   -8.4772   19.6182   -7.0003 H   0  0  0  0  0
   -9.8119   20.8028   -6.9559 H   0  0  0  0  0
  -11.1556   19.2087   -5.5803 H   0  0  0  0  0
   -8.7533   17.4110   -6.2610 H   0  0  0  0  0
  -10.2069   16.9364   -5.2575 H   0  0  0  0  0
   -9.5065   18.2088   -3.4699 H   0  0  0  0  0
   -7.9858   17.4018   -4.0897 H   0  0  0  0  0
  -12.0478   16.6835   -6.5608 H   0  0  0  0  0
  -13.0115   15.8566   -8.7319 H   0  0  0  0  0
  -10.9126   18.9955  -10.8680 H   0  0  0  0  0
  -10.0101   19.8173   -8.7347 H   0  0  0  0  0
  -11.3189   14.5602  -13.3063 H   0  0  0  0  0
  -11.5741   13.6059  -15.6121 H   0  0  0  0  0
  -13.1689   14.6886  -17.2211 H   0  0  0  0  0
  -14.5086   16.6792  -16.5204 H   0  0  0  0  0
  -14.2798   17.6160  -14.1929 H   0  0  0  0  0
   -3.8940   19.5765   -3.7900 H   0  0  0  0  0
   -3.5604   22.0896   -5.4158 H   0  0  0  0  0
   -2.6951   20.5534   -5.6659 H   0  0  0  0  0
   -4.4622   20.6240   -5.8738 H   0  0  0  0  0
   -2.7789   20.9679   -2.1621 H   0  0  0  0  0
  1  2  1  0  0  0
  1  7  1  0  0  0
  2  3  1  0  0  0
  2 29  1  0  0  0
  3  4  2  0  0  0
  3  5  1  0  0  0
  5  6  1  0  0  0
  7  8  2  0  0  0
  7  9  1  0  0  0
  9 10  1  0  0  0
  9 14  1  0  0  0
 10 11  1  0  0  0
 11 12  1  0  0  0
 12 13  1  0  0  0
 12 15  1  0  0  0
 13 14  1  0  0  0
 15 16  4  0  0  0
 15 20  4  0  0  0
 16 17  4  0  0  0
 17 18  4  0  0  0
 18 19  4  0  0  0
 18 21  1  0  0  0
 19 20  4  0  0  0
 21 22  3  0  0  0
 22 23  1  0  0  0
 23 24  4  0  0  0
 23 28  4  0  0  0
 24 25  4  0  0  0
 25 26  4  0  0  0
 26 27  4  0  0  0
 27 28  4  0  0  0
 29 30  1  0  0  0
 29 31  1  0  0  0
  1 32  1  0  0  0
  2 33  1  0  0  0
  5 34  1  0  0  0
  6 35  1  0  0  0
 10 36  1  0  0  0
 10 37  1  0  0  0
 11 38  1  0  0  0
 11 39  1  0  0  0
 12 40  1  0  0  0
 13 41  1  0  0  0
 13 42  1  0  0  0
 14 43  1  0  0  0
 14 44  1  0  0  0
 16 45  1  0  0  0
 17 46  1  0  0  0
 19 47  1  0  0  0
 20 48  1  0  0  0
 24 49  1  0  0  0
 25 50  1  0  0  0
 26 51  1  0  0  0
 27 52  1  0  0  0
 28 53  1  0  0  0
 29 54  1  0  0  0
 30 55  1  0  0  0
 30 56  1  0  0  0
 30 57  1  0  0  0
 31 58  1  0  0  0
M  END
$$$$
