5etq_ligand
  -I-interpret- 

 30 32  0  0  0  0  0  0  0  0999 V2000
  -11.6460   -7.0920  -27.7750 C   0  0  0  0  0
  -11.0560   -5.9290  -28.0690 N   0  0  0  0  0
  -11.5070   -5.2450  -29.1320 C   0  0  0  0  0
  -12.5020   -5.6230  -29.9470 N   0  0  0  0  0
  -13.0700   -6.8020  -29.6430 C   0  0  0  0  0
  -12.6740   -7.5560  -28.5660 C   0  0  0  0  0
  -11.1690   -7.7500  -26.6960 O   0  0  0  0  0
  -10.8840   -4.0180  -29.4220 N   0  0  0  0  0
  -14.0850   -7.4130  -30.3220 N   0  0  0  0  0
  -14.3150   -8.5350  -29.6700 C   0  0  0  0  0
  -13.4790   -8.6630  -28.5870 N   0  0  0  0  0
  -15.5180   -9.7390  -30.0960 S   0  0  0  0  0
  -17.0610   -8.7950  -30.6720 C   0  0  0  0  0
  -17.5680   -7.8010  -29.6450 C   0  0  0  0  0
  -18.4150   -8.1770  -28.6150 C   0  0  0  0  0
  -18.8160   -7.2590  -27.6600 C   0  0  0  0  0
  -18.3770   -5.9520  -27.7250 C   0  0  0  0  0
  -17.5370   -5.5580  -28.7380 C   0  0  0  0  0
  -17.1570   -6.4850  -29.6880 C   0  0  0  0  0
  -18.7140   -5.0000  -26.7370 C   0  0  0  0  0
  -18.9580   -4.2110  -25.9200 N   0  0  0  0  0
  -10.2864   -5.5723  -27.5026 H   0  0  0  0  0
  -11.1951   -3.4641  -30.2200 H   0  0  0  0  0
  -10.1210   -3.6820  -28.8343 H   0  0  0  0  0
  -17.8513   -9.5257  -30.8441 H   0  0  0  0  0
  -16.7922   -8.2367  -31.5688 H   0  0  0  0  0
  -18.7691   -9.2062  -28.5562 H   0  0  0  0  0
  -19.4808   -7.5692  -26.8538 H   0  0  0  0  0
  -17.1765   -4.5307  -28.7909 H   0  0  0  0  0
  -16.5076   -6.1648  -30.5028 H   0  0  0  0  0
  1  2  1  0  0  0
  1  6  1  0  0  0
  1  7  2  0  0  0
  2  3  1  0  0  0
  3  4  2  0  0  0
  3  8  1  0  0  0
  4  5  1  0  0  0
  5  6  4  0  0  0
  5  9  4  0  0  0
  6 11  4  0  0  0
  9 10  4  0  0  0
 10 11  4  0  0  0
 10 12  1  0  0  0
 12 13  1  0  0  0
 13 14  1  0  0  0
 14 15  4  0  0  0
 14 19  4  0  0  0
 15 16  4  0  0  0
 16 17  4  0  0  0
 17 18  4  0  0  0
 17 20  1  0  0  0
 18 19  4  0  0  0
 20 21  3  0  0  0
  2 22  1  0  0  0
  8 23  1  0  0  0
  8 24  1  0  0  0
 13 25  1  0  0  0
 13 26  1  0  0  0
 15 27  1  0  0  0
 16 28  1  0  0  0
 18 29  1  0  0  0
 19 30  1  0  0  0
M  END
$$$$
