5ulp_ligand
  -I-interpret- 

 62 65  0  0  0  0  0  0  0  0999 V2000
   -6.4940   -7.5520   30.1300 N   0  0  0  0  0
   -6.2530   -6.8570   28.9380 C   0  0  0  0  0
   -6.2710   -7.5360   27.7680 N   0  0  0  0  0
   -6.0490   -6.8440   26.6110 C   0  0  0  0  0
   -5.7860   -5.5390   26.4640 N   0  0  0  0  0
   -5.7740   -4.8820   27.6340 C   0  0  0  0  0
   -5.9840   -5.4830   28.9170 C   0  0  0  0  0
   -5.8920   -4.5040   29.9100 N   0  0  0  0  0
   -5.6240   -3.3700   29.2540 C   0  0  0  0  0
   -5.5590   -3.5450   27.8670 N   0  0  0  0  0
   -5.2900   -2.5640   26.8490 C   0  0  0  0  0
   -3.9040   -2.2670   26.8500 O   0  0  0  0  0
   -3.6760   -1.0190   26.2190 C   0  0  0  0  0
   -2.5050   -0.3000   26.9170 C   0  0  0  0  0
   -2.0080    0.8980   26.1990 N   0  3  0  0  0
   -1.1190    0.4060   25.0820 C   0  0  0  0  0
   -0.6150    1.5180   24.1450 C   0  0  0  0  0
    0.1110    0.9290   22.9570 C   0  0  0  0  0
    1.4280    0.3870   23.4010 N   0  3  0  0  0
    0.3550    1.9470   21.8210 C   0  0  0  0  0
    1.5210    2.1660   21.5000 O   0  0  0  0  0
   -0.6680    2.4600   21.2760 O   0  0  0  0  0
   -1.2590    1.7920   27.1530 C   0  0  0  0  0
   -2.1660    2.2780   28.2740 C   0  0  0  0  0
   -3.1850    3.1880   28.0090 C   0  0  0  0  0
   -4.0450    3.6380   29.0090 C   0  0  0  0  0
   -3.8910    3.1550   30.3030 C   0  0  0  0  0
   -4.7090    3.5780   31.2780 F   0  0  0  0  0
   -2.8910    2.2350   30.6080 C   0  0  0  0  0
   -2.0490    1.8000   29.5840 C   0  0  0  0  0
   -5.0510   -0.2630   26.3700 C   0  0  0  0  0
   -5.6190   -0.0150   25.1010 O   0  0  0  0  0
   -5.9510   -1.2190   27.1990 C   0  0  0  0  0
   -7.2850   -1.1950   26.7530 O   0  0  0  0  0
   -6.6794   -8.5547   30.1072 H   0  0  0  0  0
   -6.4841   -7.0554   31.0209 H   0  0  0  0  0
   -6.0913   -7.4277   25.6915 H   0  0  0  0  0
   -5.4721   -2.4102   29.7477 H   0  0  0  0  0
   -5.6546   -2.9694   25.9052 H   0  0  0  0  0
   -3.3875   -1.0879   25.1701 H   0  0  0  0  0
   -1.6785   -1.0088   26.9677 H   0  0  0  0  0
   -2.8688    0.0365   27.8879 H   0  0  0  0  0
   -2.7742    1.4499   25.8134 H   0  0  0  0  0
   -1.7106   -0.2817   24.4777 H   0  0  0  0  0
   -0.2426   -0.0490   25.5436 H   0  0  0  0  0
    0.0739    2.1577   24.6967 H   0  0  0  0  0
   -1.4704    2.0905   23.7863 H   0  0  0  0  0
   -0.5313    0.1438   22.5581 H   0  0  0  0  0
    1.9183   -0.0106   22.5998 H   0  0  0  0  0
    1.9861    1.1401   23.8032 H   0  0  0  0  0
    1.2769   -0.3378   24.1026 H   0  0  0  0  0
   -1.4590    2.1290   21.7076 H   0  0  0  0  0
   -0.8895    2.6575   26.6030 H   0  0  0  0  0
   -0.4370    1.2251   27.5901 H   0  0  0  0  0
   -3.3139    3.5587   26.9921 H   0  0  0  0  0
   -4.8287    4.3598   28.7791 H   0  0  0  0  0
   -2.7687    1.8627   31.6251 H   0  0  0  0  0
   -1.2765    1.0654   29.8114 H   0  0  0  0  0
   -4.9356    0.7062   26.8553 H   0  0  0  0  0
   -6.4544    0.4452   25.2100 H   0  0  0  0  0
   -6.0109   -0.9814   28.2611 H   0  0  0  0  0
   -7.6817   -0.3505   26.9790 H   0  0  0  0  0
  1  2  1  0  0  0
  2  3  4  0  0  0
  2  7  4  0  0  0
  3  4  4  0  0  0
  4  5  4  0  0  0
  5  6  4  0  0  0
  6  7  4  0  0  0
  6 10  4  0  0  0
  7  8  4  0  0  0
  8  9  4  0  0  0
  9 10  4  0  0  0
 10 11  1  0  0  0
 11 12  1  0  0  0
 11 33  1  0  0  0
 12 13  1  0  0  0
 13 14  1  0  0  0
 13 31  1  0  0  0
 14 15  1  0  0  0
 15 16  1  0  0  0
 15 23  1  0  0  0
 16 17  1  0  0  0
 17 18  1  0  0  0
 18 19  1  0  0  0
 18 20  1  0  0  0
 20 21  2  0  0  0
 20 22  1  0  0  0
 23 24  1  0  0  0
 24 25  4  0  0  0
 24 30  4  0  0  0
 25 26  4  0  0  0
 26 27  4  0  0  0
 27 28  1  0  0  0
 27 29  4  0  0  0
 29 30  4  0  0  0
 31 32  1  0  0  0
 31 33  1  0  0  0
 33 34  1  0  0  0
  1 35  1  0  0  0
  1 36  1  0  0  0
  4 37  1  0  0  0
  9 38  1  0  0  0
 11 39  1  0  0  0
 13 40  1  0  0  0
 14 41  1  0  0  0
 14 42  1  0  0  0
 15 43  1  0  0  0
 16 44  1  0  0  0
 16 45  1  0  0  0
 17 46  1  0  0  0
 17 47  1  0  0  0
 18 48  1  0  0  0
 19 49  1  0  0  0
 19 50  1  0  0  0
 19 51  1  0  0  0
 22 52  1  0  0  0
 23 53  1  0  0  0
 23 54  1  0  0  0
 25 55  1  0  0  0
 26 56  1  0  0  0
 29 57  1  0  0  0
 30 58  1  0  0  0
 31 59  1  0  0  0
 32 60  1  0  0  0
 33 61  1  0  0  0
 34 62  1  0  0  0
M  END
$$$$
