4jzi_ligand
  -I-interpret- 

 66 69  0  0  0  0  0  0  0  0999 V2000
   12.9620   62.5560   26.5210 O   0  0  0  0  0
   14.1550   62.7850   26.6470 C   0  0  0  0  0
   14.8300   62.7040   27.7910 N   0  0  0  0  0
   14.3010   62.3530   29.1030 C   0  0  0  0  0
   12.8900   61.7880   29.1160 C   0  0  0  0  0
   12.4430   61.5960   30.5600 C   0  0  0  0  0
   12.2390   62.9710   31.1620 C   0  0  0  0  0
   11.6240   62.9010   32.4670 N   0  3  0  0  0
   13.6390   63.5640   31.2750 C   0  0  0  0  0
   14.3090   63.6570   29.9020 C   0  0  0  0  0
   14.9550   63.2060   25.4600 C   0  0  0  0  0
   15.9390   62.3930   24.9100 C   0  0  0  0  0
   14.7220   64.4550   24.9160 C   0  0  0  0  0
   15.4640   64.8630   23.8230 C   0  0  0  0  0
   15.2300   66.1020   23.3040 O   0  0  0  0  0
   14.8340   66.3180   22.0180 C   0  0  0  0  0
   13.4800   66.3280   21.7440 C   0  0  0  0  0
   13.0560   66.5900   20.4490 C   0  0  0  0  0
   13.9720   66.8280   19.4220 C   0  0  0  0  0
   13.4570   67.1100   18.0270 C   0  0  0  0  0
   12.2680   67.5360   17.8710 N   0  0  0  0  0
   14.2380   66.9320   16.9600 N   0  0  0  0  0
   15.3350   66.8270   19.7130 C   0  0  0  0  0
   15.7630   66.5740   21.0120 C   0  0  0  0  0
   16.4150   64.0660   23.2830 N   0  0  0  0  0
   16.6660   62.8450   23.8020 C   0  0  0  0  0
   17.6420   62.0920   23.2160 O   0  0  0  0  0
   18.2510   61.0910   23.9140 C   0  0  0  0  0
   18.8820   61.3510   25.1370 C   0  0  0  0  0
   19.4840   60.3160   25.8410 C   0  0  0  0  0
   19.4680   59.0220   25.3220 C   0  0  0  0  0
   20.1350   57.9210   26.0960 C   0  0  0  0  0
   20.0970   56.6710   25.6770 N   0  0  0  0  0
   20.7560   58.1900   27.1480 N   0  0  0  0  0
   18.8390   58.7760   24.1050 C   0  0  0  0  0
   18.2250   59.8060   23.4010 C   0  0  0  0  0
   15.8278   62.9104   27.7446 H   0  0  0  0  0
   14.9206   61.5546   29.5114 H   0  0  0  0  0
   12.8740   60.8298   28.5967 H   0  0  0  0  0
   12.2139   62.4784   28.6116 H   0  0  0  0  0
   13.1961   61.0428   31.1211 H   0  0  0  0  0
   11.5169   61.0224   30.5986 H   0  0  0  0  0
   11.5724   63.5739   30.5453 H   0  0  0  0  0
   10.6888   62.5032   32.3799 H   0  0  0  0  0
   12.1901   62.3114   33.0771 H   0  0  0  0  0
   11.5603   63.8391   32.8623 H   0  0  0  0  0
   14.2411   62.9186   31.9145 H   0  0  0  0  0
   13.5606   64.5672   31.6941 H   0  0  0  0  0
   13.7480   64.3899   29.3222 H   0  0  0  0  0
   15.3529   63.9197   30.0735 H   0  0  0  0  0
   16.1431   61.4114   25.3378 H   0  0  0  0  0
   13.9628   65.1101   25.3433 H   0  0  0  0  0
   12.7549   66.1328   22.5340 H   0  0  0  0  0
   11.9886   66.6104   20.2293 H   0  0  0  0  0
   11.6690   67.6852   18.6830 H   0  0  0  0  0
   13.8810   67.1371   16.0268 H   0  0  0  0  0
   15.1920   66.5908   17.0775 H   0  0  0  0  0
   16.0627   67.0237   18.9257 H   0  0  0  0  0
   16.8281   66.5760   21.2435 H   0  0  0  0  0
   18.9007   62.3651   25.5362 H   0  0  0  0  0
   19.9679   60.5150   26.7972 H   0  0  0  0  0
   20.5697   55.9402   26.2089 H   0  0  0  0  0
   19.5949   56.4351   24.8211 H   0  0  0  0  0
   20.8080   59.1540   27.4772 H   0  0  0  0  0
   18.8276   57.7644   23.6992 H   0  0  0  0  0
   17.7273   59.6029   22.4528 H   0  0  0  0  0
  1  2  2  0  0  0
  2  3  1  0  0  0
  2 11  1  0  0  0
  3  4  1  0  0  0
  4  5  1  0  0  0
  4 10  1  0  0  0
  5  6  1  0  0  0
  6  7  1  0  0  0
  7  8  1  0  0  0
  7  9  1  0  0  0
  9 10  1  0  0  0
 11 12  4  0  0  0
 11 13  4  0  0  0
 12 26  4  0  0  0
 13 14  4  0  0  0
 14 15  1  0  0  0
 14 25  4  0  0  0
 15 16  1  0  0  0
 16 17  4  0  0  0
 16 24  4  0  0  0
 17 18  4  0  0  0
 18 19  4  0  0  0
 19 20  1  0  0  0
 19 23  4  0  0  0
 20 21  2  0  0  0
 20 22  1  0  0  0
 23 24  4  0  0  0
 25 26  4  0  0  0
 26 27  1  0  0  0
 27 28  1  0  0  0
 28 29  4  0  0  0
 28 36  4  0  0  0
 29 30  4  0  0  0
 30 31  4  0  0  0
 31 32  1  0  0  0
 31 35  4  0  0  0
 32 33  1  0  0  0
 32 34  2  0  0  0
 35 36  4  0  0  0
  3 37  1  0  0  0
  4 38  1  0  0  0
  5 39  1  0  0  0
  5 40  1  0  0  0
  6 41  1  0  0  0
  6 42  1  0  0  0
  7 43  1  0  0  0
  8 44  1  0  0  0
  8 45  1  0  0  0
  8 46  1  0  0  0
  9 47  1  0  0  0
  9 48  1  0  0  0
 10 49  1  0  0  0
 10 50  1  0  0  0
 12 51  1  0  0  0
 13 52  1  0  0  0
 17 53  1  0  0  0
 18 54  1  0  0  0
 21 55  1  0  0  0
 22 56  1  0  0  0
 22 57  1  0  0  0
 23 58  1  0  0  0
 24 59  1  0  0  0
 29 60  1  0  0  0
 30 61  1  0  0  0
 33 62  1  0  0  0
 33 63  1  0  0  0
 34 64  1  0  0  0
 35 65  1  0  0  0
 36 66  1  0  0  0
M  END
$$$$
