4pb1_ligand
  -I-interpret- 

 29 30  0  0  0  0  0  0  0  0999 V2000
   51.4600  -20.3990   -8.1120 N   0  0  0  0  0
   50.7730  -20.7170   -9.2860 N   0  0  0  0  0
   49.8370  -21.6190   -8.9080 C   0  0  0  0  0
   48.0420  -23.2100   -9.2640 N   0  0  0  0  0
   48.7610  -21.9650  -10.9710 O   0  0  0  0  0
   49.9550  -21.8310   -7.5740 N   0  0  0  0  0
   50.9600  -21.0720   -7.0780 C   0  0  0  0  0
   48.8360  -22.2810   -9.7930 C   0  0  0  0  0
   52.5590  -19.4100   -8.2430 C   0  0  0  0  0
   51.9770  -18.0140   -8.3920 C   0  0  0  0  0
   52.7440  -17.2650   -9.3350 O   0  0  0  0  0
   52.1310  -17.3850   -7.0260 C   0  0  0  0  0
   52.4130  -15.9870   -7.1320 O   0  0  0  0  0
   53.2960  -18.1310   -6.4020 C   0  0  0  0  0
   53.3330  -19.4130   -7.0380 O   0  0  0  0  0
   53.1170  -18.2870   -4.9000 C   0  0  0  0  0
   51.8300  -18.8550   -4.6360 O   0  0  0  0  0
   47.3477  -23.6789   -9.8458 H   0  0  0  0  0
   48.1281  -23.4526   -8.2770 H   0  0  0  0  0
   51.2927  -21.0220   -6.0412 H   0  0  0  0  0
   53.1665  -19.6707   -9.1096 H   0  0  0  0  0
   50.9433  -18.0364   -8.7371 H   0  0  0  0  0
   52.3701  -16.3852   -9.4232 H   0  0  0  0  0
   51.2219  -17.4587   -6.4292 H   0  0  0  0  0
   52.5059  -15.6129   -6.2528 H   0  0  0  0  0
   54.2269  -17.5824   -6.5453 H   0  0  0  0  0
   53.1920  -17.3116   -4.4194 H   0  0  0  0  0
   53.8938  -18.9417   -4.5050 H   0  0  0  0  0
   51.7138  -18.9548   -3.6883 H   0  0  0  0  0
  1  2  4  0  0  0
  1  7  4  0  0  0
  1  9  1  0  0  0
  2  3  4  0  0  0
  3  6  4  0  0  0
  3  8  1  0  0  0
  8  4  1  0  0  0
  8  5  2  0  0  0
  6  7  4  0  0  0
  9 10  1  0  0  0
  9 15  1  0  0  0
 10 11  1  0  0  0
 10 12  1  0  0  0
 12 13  1  0  0  0
 12 14  1  0  0  0
 14 15  1  0  0  0
 14 16  1  0  0  0
 16 17  1  0  0  0
  4 18  1  0  0  0
  4 19  1  0  0  0
  7 20  1  0  0  0
  9 21  1  0  0  0
 10 22  1  0  0  0
 11 23  1  0  0  0
 12 24  1  0  0  0
 13 25  1  0  0  0
 14 26  1  0  0  0
 16 27  1  0  0  0
 16 28  1  0  0  0
 17 29  1  0  0  0
M  END
$$$$
