4l0i_ligand
  -I-interpret- 

 36 38  0  0  0  0  0  0  0  0999 V2000
   -8.3700   37.6860   -3.5530 C   0  0  0  0  0
   -8.1030   38.3310   -4.9130 C   0  0  0  0  0
   -7.2450   37.4170   -5.6210 O   0  0  0  0  0
   -6.1600   37.8590   -6.3240 C   0  0  0  0  0
   -5.0990   38.0840   -5.7500 O   0  0  0  0  0
   -6.3010   37.7850   -7.7430 C   0  0  0  0  0
   -5.6410   36.7760   -8.4650 C   0  0  0  0  0
   -5.7750   36.6500   -9.8460 C   0  0  0  0  0
   -7.1330   38.6430   -8.4800 C   0  0  0  0  0
   -7.2830   38.5150   -9.8690 C   0  0  0  0  0
   -6.6100   37.5130  -10.5870 C   0  0  0  0  0
   -6.7020   37.3510  -11.9930 C   0  0  0  0  0
   -5.9320   36.3360  -12.4850 O   0  0  0  0  0
   -5.7890   36.0920  -13.8310 C   0  0  0  0  0
   -4.8820   35.1050  -14.2530 C   0  0  0  0  0
   -4.7220   34.8700  -15.6150 C   0  0  0  0  0
   -5.4690   35.6150  -16.5420 C   0  0  0  0  0
   -6.3770   36.5870  -16.1040 C   0  0  0  0  0
   -6.5670   36.8140  -14.7380 C   0  0  0  0  0
   -7.4480   37.8030  -14.2610 C   0  0  0  0  0
   -8.1480   38.4630  -15.0400 O   0  0  0  0  0
   -7.4700   38.1020  -12.8920 C   0  0  0  0  0
   -8.8552   36.7209   -3.6990 H   0  0  0  0  0
   -7.4254   37.5435   -3.0282 H   0  0  0  0  0
   -9.0192   38.3353   -2.9655 H   0  0  0  0  0
   -7.6342   39.3088   -4.8022 H   0  0  0  0  0
   -9.0310   38.5051   -5.4575 H   0  0  0  0  0
   -5.0055   36.0712   -7.9287 H   0  0  0  0  0
   -5.2224   35.8672  -10.3657 H   0  0  0  0  0
   -7.6774   39.4303   -7.9585 H   0  0  0  0  0
   -7.9350   39.2072  -10.4017 H   0  0  0  0  0
   -4.3113   34.5311  -13.5229 H   0  0  0  0  0
   -4.0201   34.1112  -15.9609 H   0  0  0  0  0
   -5.3412   35.4355  -17.6095 H   0  0  0  0  0
   -6.9393   37.1704  -16.8331 H   0  0  0  0  0
   -8.0872   38.9222  -12.5254 H   0  0  0  0  0
  1  2  1  0  0  0
  2  3  1  0  0  0
  3  4  1  0  0  0
  4  5  2  0  0  0
  4  6  1  0  0  0
  6  7  4  0  0  0
  6  9  4  0  0  0
  7  8  4  0  0  0
  8 11  4  0  0  0
  9 10  4  0  0  0
 10 11  4  0  0  0
 11 12  1  0  0  0
 12 13  1  0  0  0
 12 22  2  0  0  0
 13 14  1  0  0  0
 14 15  4  0  0  0
 14 19  4  0  0  0
 15 16  4  0  0  0
 16 17  4  0  0  0
 17 18  4  0  0  0
 18 19  4  0  0  0
 19 20  1  0  0  0
 20 21  2  0  0  0
 20 22  1  0  0  0
  1 23  1  0  0  0
  1 24  1  0  0  0
  1 25  1  0  0  0
  2 26  1  0  0  0
  2 27  1  0  0  0
  7 28  1  0  0  0
  8 29  1  0  0  0
  9 30  1  0  0  0
 10 31  1  0  0  0
 15 32  1  0  0  0
 16 33  1  0  0  0
 17 34  1  0  0  0
 18 35  1  0  0  0
 22 36  1  0  0  0
M  END
$$$$
