4d1j_ligand
  -I-interpret- 

 25 25  0  0  0  0  0  0  0  0999 V2000
   64.0640   28.8140   33.2550 C   0  0  0  0  0
   62.8040   27.9600   33.3220 C   0  0  0  0  0
   62.0920   27.8680   32.0360 O   0  0  0  0  0
   61.8360   28.5690   34.3460 C   0  0  0  0  0
   60.6510   27.7810   34.5220 O   0  0  0  0  0
   62.5420   28.7350   35.6850 C   0  0  0  0  0
   62.9970   27.4590   36.1680 O   0  0  0  0  0
   63.6950   29.7050   35.5130 C   0  0  0  0  0
   64.6740   29.0830   34.5730 N   0  3  0  0  0
   64.4120   30.0010   36.8250 C   0  0  0  0  0
   63.6360   30.7150   37.7600 O   0  0  0  0  0
   63.7821   29.7753   32.8255 H   0  0  0  0  0
   64.7971   28.2651   32.6639 H   0  0  0  0  0
   63.1257   26.9570   33.6023 H   0  0  0  0  0
   62.6758   27.4892   31.3747 H   0  0  0  0  0
   61.5257   29.5391   33.9579 H   0  0  0  0  0
   60.2081   27.6780   33.6765 H   0  0  0  0  0
   61.8508   29.1371   36.4257 H   0  0  0  0  0
   62.2461   26.8690   36.2662 H   0  0  0  0  0
   63.2953   30.6466   35.1366 H   0  0  0  0  0
   65.4521   29.7295   34.4428 H   0  0  0  0  0
   64.9860   28.1973   34.9712 H   0  0  0  0  0
   65.2769   30.6198   36.5860 H   0  0  0  0  0
   64.6600   29.0417   37.2791 H   0  0  0  0  0
   64.1520   30.8629   38.5559 H   0  0  0  0  0
  1  2  1  0  0  0
  1  9  1  0  0  0
  2  3  1  0  0  0
  2  4  1  0  0  0
  4  5  1  0  0  0
  4  6  1  0  0  0
  6  7  1  0  0  0
  6  8  1  0  0  0
  8  9  1  0  0  0
  8 10  1  0  0  0
 10 11  1  0  0  0
  1 12  1  0  0  0
  1 13  1  0  0  0
  2 14  1  0  0  0
  3 15  1  0  0  0
  4 16  1  0  0  0
  5 17  1  0  0  0
  6 18  1  0  0  0
  7 19  1  0  0  0
  8 20  1  0  0  0
  9 21  1  0  0  0
  9 22  1  0  0  0
 10 23  1  0  0  0
 10 24  1  0  0  0
 11 25  1  0  0  0
M  END
$$$$
