### 
### Created by X-TOOL on Mon Sep 10 21:12:56 2018
### 

@<TRIPOS>MOLECULE
2r5d_ligand
  229   235     1     0     0
SMALL
GAST_HUCK


@<TRIPOS>ATOM
      1 N          -8.8520  -17.4790   16.3790 N.4       1 DLY         0.2379
      2 CA         -8.8620  -16.6060   15.1870 C.3       1 DLY         0.0650
      3 C          -7.6540  -15.6480   15.0620 C.2       1 DLY         0.2265
      4 O          -7.6760  -14.7170   14.2480 O.2       1 DLY        -0.3907
      5 CB         -9.0820  -17.4470   13.9150 C.3       1 DLY         0.0080
      6 CG         -8.0400  -17.3160   12.8000 C.3       1 DLY        -0.0410
      7 CD         -7.5400  -18.6820   12.3230 C.3       1 DLY        -0.0123
      8 CE         -8.4620  -19.2900   11.2580 C.3       1 DLY        -0.0354
      9 NZ         -9.7810  -19.7300   11.8230 N.4       1 DLY         0.2185
     10 N          -6.6200  -15.8620   15.8780 N.am      1 GLY        -0.2637
     11 CA         -5.4360  -14.9940   15.8820 C.3       1 GLY         0.1202
     12 C          -4.6880  -14.9800   17.2050 C.2       1 GLY         0.2007
     13 O          -4.9550  -15.7900   18.0940 O.2       1 GLY        -0.3947
     14 N          -3.7460  -14.0500   17.3250 N.am      1 DAL        -0.2642
     15 CA         -2.8950  -13.8750   18.5140 C.3       1 DAL         0.1282
     16 CB         -1.7710  -12.8840   18.2140 C.3       1 DAL        -0.0244
     17 C          -2.3140  -15.1630   19.0590 C.2       1 DAL         0.2036
     18 O          -2.2560  -15.3740   20.2890 O.2       1 DAL        -0.3944
     19 N          -1.9130  -16.0380   18.1430 N.am      1 DCY        -0.2629
     20 CA         -1.2660  -17.2950   18.5080 C.3       1 DCY         0.1406
     21 C          -2.1790  -18.2400   19.2690 C.2       1 DCY         0.2048
     22 O          -1.6980  -19.1410   19.9420 O.2       1 DCY        -0.3944
     23 CB         -0.6970  -17.9760   17.2670 C.3       1 DCY         0.0443
     24 SG          0.8220  -17.1470   16.7700 S.3       1 DCY        -0.0882
     25 N          -3.4900  -18.0130   19.1780 N.am      1 DAS        -0.2621
     26 CA         -4.4670  -18.8930   19.8180 C.3       1 DAS         0.1423
     27 C          -4.6770  -18.5190   21.2790 C.2       1 DAS         0.2057
     28 O          -5.2860  -19.2880   22.0400 O.2       1 DAS        -0.3943
     29 CB         -5.8030  -18.8290   19.0670 C.3       1 DAS         0.0406
     30 CG         -5.6890  -19.3050   17.6210 C.2       1 DAS         0.0393
     31 OD1        -5.9490  -18.5150   16.6900 O.co2     1 DAS        -0.5688
     32 OD2        -5.3320  -20.4740   17.4170 O.co2     1 DAS        -0.5688
     33 N          -4.2090  -17.3400   21.6810 N.am      1 DTY        -0.2620
     34 CA         -4.5340  -16.8030   23.0360 C.3       1 DTY         0.1392
     35 C          -3.3470  -16.8170   23.9900 C.2       1 DTY         0.2082
     36 O          -2.2760  -16.3150   23.6510 O.2       1 DTY        -0.3940
     37 CB         -5.0480  -15.3670   22.9270 C.3       1 DTY         0.0164
     38 CG         -6.3710  -15.2650   22.2400 C.ar      1 DTY        -0.0493
     39 CD1        -7.5480  -15.1820   22.9850 C.ar      1 DTY        -0.0685
     40 CD2        -6.4610  -15.2940   20.8470 C.ar      1 DTY        -0.0685
     41 CE1        -8.7810  -15.1100   22.3600 C.ar      1 DTY        -0.0398
     42 CE2        -7.6900  -15.2180   20.2120 C.ar      1 DTY        -0.0398
     43 CZ         -8.8460  -15.1190   20.9770 C.ar      1 DTY         0.0805
     44 OH        -10.0690  -15.0570   20.3540 O.3       1 DTY        -0.3376
     45 N          -3.5380  -17.3710   25.2050 N.am      1 DPR        -0.2497
     46 CA         -2.4530  -17.3450   26.1980 C.3       1 DPR         0.1338
     47 CB         -3.1010  -17.9260   27.4480 C.3       1 DPR        -0.0104
     48 CG         -4.5830  -17.8910   27.1770 C.3       1 DPR        -0.0281
     49 CD         -4.7470  -18.0380   25.7250 C.3       1 DPR         0.0369
     50 C          -1.9160  -15.9270   26.4680 C.2       1 DPR         0.2041
     51 O          -0.6900  -15.7300   26.5090 O.2       1 DPR        -0.3944
     52 N          -2.8110  -14.9480   26.5810 N.am      1 DGL        -0.2636
     53 CA         -2.4230  -13.5690   26.9270 C.3       1 DGL         0.1325
     54 C          -1.7650  -12.8050   25.7770 C.2       1 DGL         0.2041
     55 O          -1.3430  -11.6480   25.9630 O.2       1 DGL        -0.3944
     56 CB         -3.6320  -12.7790   27.4680 C.3       1 DGL        -0.0008
     57 CG         -4.7140  -12.4880   26.4120 C.3       1 DGL         0.0044
     58 CD         -5.8020  -13.5650   26.2870 C.2       1 DGL         0.0350
     59 OE1        -5.5500  -14.7720   26.5560 O.co2     1 DGL        -0.5690
     60 OE2        -6.9440  -13.1740   25.9310 O.co2     1 DGL        -0.5690
     61 N          -1.6910  -13.4380   24.6030 N.am      1 DTR        -0.2627
     62 CA         -1.1570  -12.7750   23.3830 C.3       1 DTR         0.1352
     63 CB         -2.2430  -12.6490   22.3090 C.3       1 DTR         0.0042
     64 CG         -3.2980  -11.6040   22.6020 C.2       1 DTR        -0.0418
     65 CD1        -4.5760  -11.8300   23.0210 C.2       1 DTR         0.0167
     66 NE1        -5.2490  -10.6400   23.1920 N.pl3     1 DTR        -0.2890
     67 CE2        -4.4120   -9.6100   22.8450 C.ar      1 DTR         0.0603
     68 CZ2        -4.6320   -8.2350   22.8480 C.ar      1 DTR        -0.0443
     69 CH2        -3.5950   -7.4120   22.4380 C.ar      1 DTR        -0.0768
     70 CZ3        -2.3540   -7.9480   22.0570 C.ar      1 DTR        -0.0792
     71 CE3        -2.1340   -9.3330   22.0750 C.ar      1 DTR        -0.0747
     72 CD2        -3.1660  -10.1810   22.4780 C.ar      1 DTR        -0.0214
     73 C           0.0490  -13.5250   22.8110 C.2       1 DTR         0.2052
     74 O           0.5480  -13.1910   21.6970 O.2       1 DTR        -0.3942
     75 N           0.5250  -14.5150   23.5720 N.am      1 DGN        -0.2635
     76 CA          1.7380  -15.2820   23.1770 C.3       1 DGN         0.1330
     77 C           2.9450  -14.3840   22.8920 C.2       1 DGN         0.2041
     78 O           3.6620  -14.6160   21.8990 O.2       1 DGN        -0.3944
     79 CB          2.0810  -16.3930   24.1890 C.3       1 DGN         0.0045
     80 CG          1.0220  -17.5020   24.2810 C.3       1 DGN         0.0412
     81 CD          0.7760  -18.2000   22.9410 C.2       1 DGN         0.1737
     82 OE1         1.5880  -19.0030   22.4850 O.2       1 DGN        -0.3973
     83 NE2        -0.3450  -17.8810   22.3060 N.am      1 DGN        -0.3009
     84 N           3.1650  -13.3530   23.7170 N.am      1 DTR        -0.2627
     85 CA          4.2710  -12.4000   23.4450 C.3       1 DTR         0.1352
     86 CB          4.3290  -11.2800   24.4770 C.3       1 DTR         0.0042
     87 CG          3.0850  -10.4310   24.4850 C.2       1 DTR        -0.0418
     88 CD1         1.9410  -10.6350   25.2180 C.2       1 DTR         0.0167
     89 NE1         1.0230   -9.6460   24.9390 N.pl3     1 DTR        -0.2890
     90 CE2         1.5550   -8.7840   24.0150 C.ar      1 DTR         0.0603
     91 CZ2         1.0080   -7.6460   23.4280 C.ar      1 DTR        -0.0443
     92 CH2         1.7870   -6.9550   22.5250 C.ar      1 DTR        -0.0768
     93 CZ3         3.1030   -7.4010   22.1790 C.ar      1 DTR        -0.0792
     94 CE3         3.6420   -8.5360   22.7590 C.ar      1 DTR        -0.0747
     95 CD2         2.8600   -9.2520   23.6990 C.ar      1 DTR        -0.0214
     96 C           4.1900  -11.7790   22.0420 C.2       1 DTR         0.2052
     97 O           5.2120  -11.6020   21.3740 O.2       1 DTR        -0.3942
     98 N           2.9790  -11.4680   21.5860 N.am      1 DLE        -0.2636
     99 CA          2.7830  -10.8710   20.2620 C.3       1 DLE         0.1312
    100 CB          1.3830  -10.2700   20.1590 C.3       1 DLE        -0.0101
    101 CG          1.1040   -9.5080   18.8550 C.3       1 DLE        -0.0425
    102 CD1         2.1280   -8.3710   18.5670 C.3       1 DLE        -0.0625
    103 CD2        -0.3220   -8.9420   18.9100 C.3       1 DLE        -0.0625
    104 C           2.9880  -11.9080   19.1600 C.2       1 DLE         0.2039
    105 O           3.6930  -11.6490   18.1800 O.2       1 DLE        -0.3944
    106 N           2.3600  -13.0700   19.3150 N.am      1 DCY        -0.2629
    107 CA          2.6220  -14.2310   18.4590 C.3       1 DCY         0.1406
    108 C           4.1400  -14.4160   18.2490 C.2       1 DCY         0.2047
    109 O           4.6320  -14.5240   17.1000 O.2       1 DCY        -0.3944
    110 CB          2.0260  -15.4620   19.1430 C.3       1 DCY         0.0443
    111 SG          2.2250  -16.9730   18.2230 S.3       1 DCY        -0.0882
    112 N           4.8780  -14.4250   19.3630 N.am      1 DAL        -0.2640
    113 CA          6.3420  -14.5910   19.3370 C.3       1 DAL         0.1282
    114 CB          6.8750  -14.7300   20.7630 C.3       1 DAL        -0.0244
    115 C           7.0980  -13.4840   18.5900 C.2       1 DAL         0.2037
    116 O           8.1090  -13.7690   17.9360 O.2       1 DAL        -0.3944
    117 N           6.6290  -12.2400   18.7150 N.am      1 DAL        -0.2626
    118 CA          7.2350  -11.0640   18.0650 C.3       1 DAL         0.1392
    119 CB          6.6150   -9.8000   18.6200 C.3       1 DAL        -0.0230
    120 C           7.0780  -11.1040   16.5460 C.2       1 DAL         0.2568
    121 O           7.8950  -10.5270   15.7920 O.2       1 DAL        -0.3680
    122 H1         -9.6730  -18.0638   16.3741 H         1 DLY         0.2015
    123 H2         -8.8492  -16.9108   17.2116 H         1 DLY         0.2015
    124 H3         -8.0271  -18.0580   16.3645 H         1 DLY         0.2015
    125 H4         -9.7445  -15.9577   15.2917 H         1 DLY         0.1098
    126 H5        -10.0562  -17.1597   13.4928 H         1 DLY         0.0346
    127 H6         -9.1111  -18.5040   14.2181 H         1 DLY         0.0346
    128 H7         -7.1850  -16.7367   13.1785 H         1 DLY         0.0270
    129 H8         -8.4939  -16.7866   11.9493 H         1 DLY         0.0270
    130 H9         -7.4939  -19.3643   13.1846 H         1 DLY         0.0317
    131 H10        -6.5335  -18.5626   11.8955 H         1 DLY         0.0317
    132 H11        -7.9603  -20.1620   10.8133 H         1 DLY         0.0813
    133 H12        -8.6461  -18.5359   10.4786 H         1 DLY         0.0813
    134 H13       -10.3482  -20.1207   11.0870 H         1 DLY         0.1994
    135 H14       -10.2546  -18.9374   12.2274 H         1 DLY         0.1994
    136 H15        -9.6261  -20.4275   12.5340 H         1 DLY         0.1994
    137 H16        -6.6527  -16.6387   16.5071 H         1 GLY         0.1882
    138 H17        -5.7585  -13.9670   15.6555 H         1 GLY         0.0763
    139 H18        -4.7475  -15.3434   15.0985 H         1 GLY         0.0763
    140 H19        -3.6056  -13.4268   16.5556 H         1 DAL         0.1883
    141 H20        -3.5269  -13.4437   19.3043 H         1 DAL         0.0797
    142 H21        -1.1422  -12.7611   19.1082 H         1 DAL         0.0277
    143 H22        -2.2039  -11.9124   17.9338 H         1 DAL         0.0277
    144 H23        -1.1578  -13.2652   17.3842 H         1 DAL         0.0277
    145 H24        -2.0585  -15.8296   17.1758 H         1 DCY         0.1884
    146 H25        -0.4246  -17.0493   19.1726 H         1 DCY         0.0808
    147 H26        -1.4302  -17.9191   16.4489 H         1 DCY         0.0432
    148 H27        -0.4817  -19.0306   17.4938 H         1 DCY         0.0432
    149 H28        -3.8130  -17.2214   18.6593 H         1 DAS         0.1884
    150 H29        -4.0867  -19.9242   19.7740 H         1 DAS         0.0819
    151 H30        -6.1577  -17.7878   19.0678 H         1 DAS         0.0478
    152 H31        -6.5319  -19.4651   19.5905 H         1 DAS         0.0478
    153 H32        -3.6302  -16.8048   21.0657 H         1 DTY         0.1885
    154 H33        -5.3275  -17.4318   23.4660 H         1 DTY         0.0821
    155 H34        -4.3138  -14.7750   22.3609 H         1 DTY         0.0453
    156 H35        -5.1483  -14.9538   23.9415 H         1 DTY         0.0453
    157 H36        -7.4960  -15.1738   24.0677 H         1 DTY         0.0530
    158 H37        -5.5571  -15.3771   20.2544 H         1 DTY         0.0530
    159 H38        -9.6889  -15.0470   22.9489 H         1 DTY         0.0525
    160 H39        -7.7493  -15.2356   19.1298 H         1 DTY         0.0525
    161 H40       -10.7539  -14.9923   21.0091 H         1 DTY         0.2458
    162 H41        -1.6192  -17.9799   25.8640 H         1 DPR         0.0802
    163 H42        -2.8555  -17.3152   28.3293 H         1 DPR         0.0313
    164 H43        -2.7633  -18.9598   27.6127 H         1 DPR         0.0313
    165 H44        -5.0077  -16.9332   27.5119 H         1 DPR         0.0287
    166 H45        -5.0845  -18.7178   27.7013 H         1 DPR         0.0287
    167 H46        -4.7748  -19.0979   25.4322 H         1 DPR         0.0524
    168 H47        -5.6611  -17.5366   25.3743 H         1 DPR         0.0524
    169 H48        -3.7771  -15.1548   26.4262 H         1 DGL         0.1883
    170 H49        -1.6804  -13.6380   27.7355 H         1 DGL         0.0801
    171 H50        -3.2687  -11.8193   27.8643 H         1 DGL         0.0330
    172 H51        -4.0901  -13.3616   28.2809 H         1 DGL         0.0330
    173 H52        -4.2193  -12.3871   25.4347 H         1 DGL         0.0433
    174 H53        -5.2022  -11.5382   26.6757 H         1 DGL         0.0433
    175 H54        -2.0039  -14.3859   24.5424 H         1 DTR         0.1884
    176 H55        -0.8294  -11.7632   23.6639 H         1 DTR         0.0815
    177 H56        -2.7432  -13.6237   22.2103 H         1 DTR         0.0397
    178 H57        -1.7565  -12.3884   21.3575 H         1 DTR         0.0397
    179 H58        -5.0054  -12.8153   23.1963 H         1 DTR         0.0795
    180 H59        -6.2187  -10.5404   23.5248 H         1 DTR         0.2216
    181 H60        -5.5839   -7.8215   23.1610 H         1 DTR         0.0541
    182 H61        -3.7440   -6.3386   22.4110 H         1 DTR         0.0530
    183 H62        -1.5566   -7.2832   21.7453 H         1 DTR         0.0510
    184 H63        -1.1737   -9.7397   21.7794 H         1 DTR         0.0540
    185 H64         0.0564  -14.7454   24.4248 H         1 DGN         0.1883
    186 H65         1.4923  -15.7844   22.2298 H         1 DGN         0.0801
    187 H66         2.1890  -15.9344   25.1830 H         1 DGN         0.0337
    188 H67         3.0358  -16.8503   23.8904 H         1 DGN         0.0337
    189 H68         0.0763  -17.0573   24.6244 H         1 DGN         0.0504
    190 H69         1.3609  -18.2519   25.0108 H         1 DGN         0.0504
    191 H70        -0.5593  -18.3052   21.4261 H         1 DGN         0.1814
    192 H71        -0.9753  -17.2165   22.7074 H         1 DGN         0.1814
    193 H72         2.5824  -13.2241   24.5195 H         1 DTR         0.1884
    194 H73         5.2113  -12.9674   23.5076 H         1 DTR         0.0815
    195 H74         5.1922  -10.6370   24.2502 H         1 DTR         0.0397
    196 H75         4.4564  -11.7267   25.4741 H         1 DTR         0.0397
    197 H76         1.7832  -11.4561   25.9157 H         1 DTR         0.0795
    198 H77         0.0855   -9.5668   25.3582 H         1 DTR         0.2216
    199 H78         0.0051   -7.3152   23.6725 H         1 DTR         0.0541
    200 H79         1.3949   -6.0543   22.0667 H         1 DTR         0.0530
    201 H80         3.6841   -6.8428   21.4539 H         1 DTR         0.0510
    202 H81         4.6402   -8.8699   22.5000 H         1 DTR         0.0540
    203 H82         2.1814  -11.6465   22.1622 H         1 DLE         0.1883
    204 H83         3.5224  -10.0677   20.1281 H         1 DLE         0.0800
    205 H84         1.2473   -9.5725   20.9987 H         1 DLE         0.0315
    206 H85         0.6524  -11.0883   20.2402 H         1 DLE         0.0315
    207 H86         1.1632  -10.2266   18.0243 H         1 DLE         0.0298
    208 H87         1.8660   -7.8723   17.6222 H         1 DLE         0.0232
    209 H88         3.1383   -8.7988   18.4879 H         1 DLE         0.0232
    210 H89         2.1031   -7.6386   19.3873 H         1 DLE         0.0232
    211 H90        -1.0323   -9.7568   19.1140 H         1 DLE         0.0232
    212 H91        -0.5682   -8.4739   17.9455 H         1 DLE         0.0232
    213 H92        -0.3874   -8.1898   19.7100 H         1 DLE         0.0232
    214 H93         1.6817  -13.1553   20.0449 H         1 DCY         0.1884
    215 H94         2.1399  -14.0834   17.4814 H         1 DCY         0.0808
    216 H95         0.9502  -15.2875   19.2919 H         1 DCY         0.0432
    217 H96         2.5161  -15.5855   20.1200 H         1 DCY         0.0432
    218 H97         4.4206  -14.3152   20.2455 H         1 DAL         0.1883
    219 H98         6.5489  -15.5325   18.8071 H         1 DAL         0.0797
    220 H99         7.9677  -14.8535   20.7356 H         1 DAL         0.0277
    221 H100        6.4186  -15.6093   21.2410 H         1 DAL         0.0277
    222 H101        6.6224  -13.8273   21.3385 H         1 DAL         0.0277
    223 H102        5.8186  -12.0978   19.2833 H         1 DAL         0.1884
    224 H103        8.3101  -11.0586   18.2976 H         1 DAL         0.0813
    225 H104        7.0692   -8.9245   18.1331 H         1 DAL         0.0278
    226 H105        6.7929   -9.7498   19.7043 H         1 DAL         0.0278
    227 H106        5.5323   -9.8068   18.4259 H         1 DAL         0.0278
    228 O           6.0537  -11.7645   16.0136 O.3       1 NH2        -0.2910
    229 H107        5.5282  -12.1445   16.7078 H         1 NH2         0.2540
@<TRIPOS>BOND
     1    1    2 1  
     2    2    3 1  
     3    2    5 1  
     4    3    4 2  
     5    3   10 am 
     6    5    6 1  
     7    6    7 1  
     8    7    8 1  
     9    8    9 1  
    10   10   11 1  
    11   11   12 1  
    12   12   13 2  
    13   12   14 am 
    14   14   15 1  
    15   15   16 1  
    16   15   17 1  
    17   17   18 2  
    18   17   19 am 
    19   19   20 1  
    20   20   21 1  
    21   20   23 1  
    22   21   22 2  
    23   21   25 am 
    24   23   24 1  
    25   24  111 1  
    26   25   26 1  
    27   26   27 1  
    28   26   29 1  
    29   27   28 2  
    30   27   33 am 
    31   29   30 1  
    32   30   31 ar 
    33   30   32 ar 
    34   33   34 1  
    35   34   35 1  
    36   34   37 1  
    37   35   36 2  
    38   35   45 am 
    39   37   38 1  
    40   38   39 ar 
    41   38   40 ar 
    42   39   41 ar 
    43   40   42 ar 
    44   41   43 ar 
    45   42   43 ar 
    46   43   44 1  
    47   45   46 1  
    48   45   49 1  
    49   46   47 1  
    50   46   50 1  
    51   47   48 1  
    52   48   49 1  
    53   50   51 2  
    54   50   52 am 
    55   52   53 1  
    56   53   54 1  
    57   53   56 1  
    58   54   55 2  
    59   54   61 am 
    60   56   57 1  
    61   57   58 1  
    62   58   59 ar 
    63   58   60 ar 
    64   61   62 1  
    65   62   63 1  
    66   62   73 1  
    67   63   64 1  
    68   64   65 2  
    69   64   72 1  
    70   65   66 1  
    71   66   67 1  
    72   67   68 ar 
    73   67   72 ar 
    74   68   69 ar 
    75   69   70 ar 
    76   70   71 ar 
    77   71   72 ar 
    78   73   74 2  
    79   73   75 am 
    80   75   76 1  
    81   76   77 1  
    82   76   79 1  
    83   77   78 2  
    84   77   84 am 
    85   79   80 1  
    86   80   81 1  
    87   81   82 2  
    88   81   83 am 
    89   84   85 1  
    90   85   86 1  
    91   85   96 1  
    92   86   87 1  
    93   87   88 2  
    94   87   95 1  
    95   88   89 1  
    96   89   90 1  
    97   90   91 ar 
    98   90   95 ar 
    99   91   92 ar 
   100   92   93 ar 
   101   93   94 ar 
   102   94   95 ar 
   103   96   97 2  
   104   96   98 am 
   105   98   99 1  
   106   99  100 1  
   107   99  104 1  
   108  100  101 1  
   109  101  102 1  
   110  101  103 1  
   111  104  105 2  
   112  104  106 am 
   113  106  107 1  
   114  107  108 1  
   115  107  110 1  
   116  108  109 2  
   117  108  112 am 
   118  110  111 1  
   119  112  113 1  
   120  113  114 1  
   121  113  115 1  
   122  115  116 2  
   123  115  117 am 
   124  117  118 1  
   125  118  119 1  
   126  118  120 1  
   127  120  121 2  
   128    1  122 1  
   129    1  123 1  
   130    1  124 1  
   131    2  125 1  
   132    5  126 1  
   133    5  127 1  
   134    6  128 1  
   135    6  129 1  
   136    7  130 1  
   137    7  131 1  
   138    8  132 1  
   139    8  133 1  
   140    9  134 1  
   141    9  135 1  
   142    9  136 1  
   143   10  137 1  
   144   11  138 1  
   145   11  139 1  
   146   14  140 1  
   147   15  141 1  
   148   16  142 1  
   149   16  143 1  
   150   16  144 1  
   151   19  145 1  
   152   20  146 1  
   153   23  147 1  
   154   23  148 1  
   155   25  149 1  
   156   26  150 1  
   157   29  151 1  
   158   29  152 1  
   159   33  153 1  
   160   34  154 1  
   161   37  155 1  
   162   37  156 1  
   163   39  157 1  
   164   40  158 1  
   165   41  159 1  
   166   42  160 1  
   167   44  161 1  
   168   46  162 1  
   169   47  163 1  
   170   47  164 1  
   171   48  165 1  
   172   48  166 1  
   173   49  167 1  
   174   49  168 1  
   175   52  169 1  
   176   53  170 1  
   177   56  171 1  
   178   56  172 1  
   179   57  173 1  
   180   57  174 1  
   181   61  175 1  
   182   62  176 1  
   183   63  177 1  
   184   63  178 1  
   185   65  179 1  
   186   66  180 1  
   187   68  181 1  
   188   69  182 1  
   189   70  183 1  
   190   71  184 1  
   191   75  185 1  
   192   76  186 1  
   193   79  187 1  
   194   79  188 1  
   195   80  189 1  
   196   80  190 1  
   197   83  191 1  
   198   83  192 1  
   199   84  193 1  
   200   85  194 1  
   201   86  195 1  
   202   86  196 1  
   203   88  197 1  
   204   89  198 1  
   205   91  199 1  
   206   92  200 1  
   207   93  201 1  
   208   94  202 1  
   209   98  203 1  
   210   99  204 1  
   211  100  205 1  
   212  100  206 1  
   213  101  207 1  
   214  102  208 1  
   215  102  209 1  
   216  102  210 1  
   217  103  211 1  
   218  103  212 1  
   219  103  213 1  
   220  106  214 1  
   221  107  215 1  
   222  110  216 1  
   223  110  217 1  
   224  112  218 1  
   225  113  219 1  
   226  114  220 1  
   227  114  221 1  
   228  114  222 1  
   229  117  223 1  
   230  118  224 1  
   231  119  225 1  
   232  119  226 1  
   233  119  227 1  
   234  120  228 1  
   235  228  229 1  
@<TRIPOS>SUBSTRUCTURE
     1 DLY         1

