5o9o_ligand
  -I-interpret- 

 94 99  0  0  0  0  0  0  0  0999 V2000
   16.1760   13.5730   21.9470 C   0  0  0  0  0
   15.7400   12.1400   22.1520 C   0  0  0  0  0
   16.7770   11.4110   23.0280 C   0  0  0  0  0
   15.1570   14.2730   21.1060 C   0  0  0  0  0
    3.6370    7.4830   16.9230 C   0  0  0  0  0
    3.2150    7.9890   15.6940 C   0  0  0  0  0
    3.4520    7.2740   14.5270 C   0  0  0  0  0
    3.0310    7.7820   13.3010 C   0  0  0  0  0
    2.3680    9.0020   13.2350 C   0  0  0  0  0
    2.1260    9.7200   14.3990 C   0  0  0  0  0
    2.5510    9.2130   15.6210 C   0  0  0  0  0
    2.3050    9.9350   16.7780 C   0  0  0  0  0
    2.7280    9.4340   18.0040 C   0  0  0  0  0
    3.3860    8.2120   18.0840 C   0  0  0  0  0
    3.7940    7.7580   19.3370 C   0  0  0  0  0
    5.0330    8.4060   19.6790 O   0  0  0  0  0
    5.3120    8.2130   21.0500 C   0  0  0  0  0
    6.5280    9.0320   21.4760 C   0  0  0  0  0
    7.6990    8.5680   21.8780 C   0  0  0  0  0
    6.5690   10.3510   21.5760 N   0  0  0  0  0
    7.6880   10.6690   21.9620 N   0  0  0  0  0
    8.4270    9.6790   22.0820 N   0  0  0  0  0
    9.7480    9.9020   22.6740 C   0  0  0  0  0
   10.3140   11.2310   22.3000 C   0  0  0  0  0
   10.5980   11.0960   20.9040 O   0  0  0  0  0
    9.5580    9.8690   24.0720 O   0  0  0  0  0
   10.7780   10.0680   24.8210 C   0  0  0  0  0
   10.2460   10.3420   26.2320 C   0  0  0  0  0
    9.4350    9.2720   26.6490 O   0  0  0  0  0
   11.3590   11.3750   24.4480 C   0  0  0  0  0
   12.5900   11.5100   25.1770 O   0  0  0  0  0
   11.6400   11.3790   22.9530 C   0  0  0  0  0
   12.1950   12.6620   22.6080 O   0  0  0  0  0
   13.4620   12.7250   21.9800 C   0  0  0  0  0
   13.7910   14.2030   21.7780 C   0  0  0  0  0
   12.7640   14.7670   20.9200 O   0  0  0  0  0
   14.4650   12.0790   22.8000 O   0  0  0  0  0
   16.8580   12.0720   24.2780 O   0  0  0  0  0
   17.3780   13.5130   21.1660 O   0  0  0  0  0
   15.5350   15.6180   20.8950 O   0  0  0  0  0
   15.2340   16.2290   19.6750 C   0  0  0  0  0
   15.9940   15.4890   18.7470 O   0  0  0  0  0
   15.8030   16.0010   17.4060 C   0  0  0  0  0
   16.5540   15.0350   16.4500 C   0  0  0  0  0
   17.9510   14.9420   16.7970 O   0  0  0  0  0
   16.2640   17.4690   17.3710 C   0  0  0  0  0
   15.9720   17.9900   16.0720 O   0  0  0  0  0
   15.4630   18.2980   18.3620 C   0  0  0  0  0
   16.0400   19.5930   18.4430 O   0  0  0  0  0
   15.7030   17.6870   19.7180 C   0  0  0  0  0
   15.0070   18.3620   20.7810 O   0  0  0  0  0
   16.3057   14.0850   22.9005 H   0  0  0  0  0
   15.6619   11.6632   21.1749 H   0  0  0  0  0
   17.7506   11.4234   22.5381 H   0  0  0  0  0
   16.4746   10.3742   23.1756 H   0  0  0  0  0
   15.0973   13.7765   20.1375 H   0  0  0  0  0
    4.1579    6.5270   16.9751 H   0  0  0  0  0
    3.9678    6.3148   14.5711 H   0  0  0  0  0
    3.2225    7.2195   12.3872 H   0  0  0  0  0
    2.0390    9.3940   12.2726 H   0  0  0  0  0
    1.6052   10.6765   14.3542 H   0  0  0  0  0
    1.7828   10.8904   16.7271 H   0  0  0  0  0
    2.5416   10.0060   18.9130 H   0  0  0  0  0
    3.9347    6.6774   19.3125 H   0  0  0  0  0
    3.0342    7.9929   20.0824 H   0  0  0  0  0
    5.5219    7.1571   21.2208 H   0  0  0  0  0
    4.4493    8.5352   21.6331 H   0  0  0  0  0
    8.0022    7.5297   22.0122 H   0  0  0  0  0
   10.4451    9.1436   22.3178 H   0  0  0  0  0
    9.6516   12.0549   22.5655 H   0  0  0  0  0
   10.9711   11.9165   20.5737 H   0  0  0  0  0
   11.4846    9.2488   24.6881 H   0  0  0  0  0
    9.6576   11.2595   26.2243 H   0  0  0  0  0
   11.0848   10.4489   26.9198 H   0  0  0  0  0
    9.1043    9.4481   27.5329 H   0  0  0  0  0
   10.6823   12.1971   24.6809 H   0  0  0  0  0
   12.9987   12.3511   24.9598 H   0  0  0  0  0
   12.3305   10.5919   22.6501 H   0  0  0  0  0
   13.4477   12.2048   21.0222 H   0  0  0  0  0
   13.8183   14.7586   22.7153 H   0  0  0  0  0
   12.9456   15.6985   20.7752 H   0  0  0  0  0
   17.5019   11.6263   24.8333 H   0  0  0  0  0
   18.0638   13.0687   21.6699 H   0  0  0  0  0
   14.1715   16.2398   19.4318 H   0  0  0  0  0
   14.7634   16.0258   17.0792 H   0  0  0  0  0
   16.4723   15.4179   15.4327 H   0  0  0  0  0
   16.1073   14.0443   16.5340 H   0  0  0  0  0
   18.3905   14.3401   16.1919 H   0  0  0  0  0
   17.3260   17.5144   17.6120 H   0  0  0  0  0
   16.2515   18.9073   16.0261 H   0  0  0  0  0
   14.4138   18.3354   18.0689 H   0  0  0  0  0
   15.5415   20.1258   19.0669 H   0  0  0  0  0
   16.7686   17.7733   19.9305 H   0  0  0  0  0
   15.2927   19.2778   20.8182 H   0  0  0  0  0
  1  2  1  0  0  0
  4  1  1  0  0  0
  1 39  1  0  0  0
  2  3  1  0  0  0
  2 37  1  0  0  0
  3 38  1  0  0  0
 35  4  1  0  0  0
  4 40  1  0  0  0
  5  6  4  0  0  0
 14  5  4  0  0  0
  6  7  4  0  0  0
  6 11  4  0  0  0
  7  8  4  0  0  0
  8  9  4  0  0  0
 10  9  4  0  0  0
 11 10  4  0  0  0
 12 11  4  0  0  0
 13 12  4  0  0  0
 14 13  4  0  0  0
 15 14  1  0  0  0
 16 15  1  0  0  0
 17 16  1  0  0  0
 18 17  1  0  0  0
 19 18  4  0  0  0
 20 18  4  0  0  0
 22 19  4  0  0  0
 21 20  4  0  0  0
 22 21  4  0  0  0
 23 22  1  0  0  0
 24 23  1  0  0  0
 23 26  1  0  0  0
 24 25  1  0  0  0
 32 24  1  0  0  0
 27 26  1  0  0  0
 27 28  1  0  0  0
 30 27  1  0  0  0
 28 29  1  0  0  0
 30 31  1  0  0  0
 32 30  1  0  0  0
 33 32  1  0  0  0
 34 33  1  0  0  0
 34 35  1  0  0  0
 34 37  1  0  0  0
 35 36  1  0  0  0
 40 41  1  0  0  0
 41 42  1  0  0  0
 41 50  1  0  0  0
 42 43  1  0  0  0
 43 44  1  0  0  0
 43 46  1  0  0  0
 44 45  1  0  0  0
 46 47  1  0  0  0
 46 48  1  0  0  0
 48 49  1  0  0  0
 48 50  1  0  0  0
 50 51  1  0  0  0
  1 52  1  0  0  0
  2 53  1  0  0  0
  3 54  1  0  0  0
  3 55  1  0  0  0
  4 56  1  0  0  0
  5 57  1  0  0  0
  7 58  1  0  0  0
  8 59  1  0  0  0
  9 60  1  0  0  0
 10 61  1  0  0  0
 12 62  1  0  0  0
 13 63  1  0  0  0
 15 64  1  0  0  0
 15 65  1  0  0  0
 17 66  1  0  0  0
 17 67  1  0  0  0
 19 68  1  0  0  0
 23 69  1  0  0  0
 24 70  1  0  0  0
 25 71  1  0  0  0
 27 72  1  0  0  0
 28 73  1  0  0  0
 28 74  1  0  0  0
 29 75  1  0  0  0
 30 76  1  0  0  0
 31 77  1  0  0  0
 32 78  1  0  0  0
 34 79  1  0  0  0
 35 80  1  0  0  0
 36 81  1  0  0  0
 38 82  1  0  0  0
 39 83  1  0  0  0
 41 84  1  0  0  0
 43 85  1  0  0  0
 44 86  1  0  0  0
 44 87  1  0  0  0
 45 88  1  0  0  0
 46 89  1  0  0  0
 47 90  1  0  0  0
 48 91  1  0  0  0
 49 92  1  0  0  0
 50 93  1  0  0  0
 51 94  1  0  0  0
M  END
$$$$
