3vhc_ligand
  -I-interpret- 

 51 54  0  0  0  0  0  0  0  0999 V2000
   10.5510   -3.0840   15.3170 C   0  0  0  0  0
   10.3540   -1.6240   14.8670 C   0  0  0  0  0
    9.4560   -1.4000   13.8250 C   0  0  0  0  0
    9.2310   -0.1030   13.3320 C   0  0  0  0  0
    8.2350    0.0670   12.1790 C   0  0  0  0  0
    9.9510    0.9780   13.8670 C   0  0  0  0  0
   10.8670    0.7440   14.9100 C   0  0  0  0  0
   11.0660   -0.5520   15.4390 C   0  0  0  0  0
   12.0140   -0.7080   16.6320 C   0  0  0  0  0
   11.7030   -1.4300   17.5960 O   0  0  0  0  0
   13.0770    0.0870   16.6080 N   0  0  0  0  0
   14.1070    0.0960   17.6730 C   0  0  0  0  0
   14.6590    1.5010   17.9620 C   0  0  0  0  0
   15.4810    2.0470   16.7820 C   0  0  0  0  0
   14.4280    2.5160   15.9240 O   0  0  0  0  0
   14.6910    3.1360   14.7450 C   0  0  0  0  0
   13.6010    3.7910   14.1780 C   0  0  0  0  0
   15.9110    3.0880   14.0450 C   0  0  0  0  0
   15.9950    3.7090   12.8010 C   0  0  0  0  0
   14.9200    4.4060   12.2570 C   0  0  0  0  0
   13.6980    4.3960   12.9330 C   0  0  0  0  0
   12.3320    5.2910   12.2210 S   0  0  0  0  0
   10.9410    4.3110   12.6620 C   0  0  0  0  0
    9.7710    4.9510   12.6440 N   0  0  0  0  0
   11.0260    2.9480   12.9780 C   0  0  0  0  0
    9.8650    2.3070   13.4050 C   0  0  0  0  0
    8.7010    2.9900   13.4120 N   0  0  0  0  0
    8.6390    4.2890   13.0150 C   0  0  0  0  0
    7.4430    4.8950   12.9670 N   0  0  0  0  0
    9.5983   -3.4896   15.6574 H   0  0  0  0  0
   10.9200   -3.6746   14.4785 H   0  0  0  0  0
   11.2736   -3.1172   16.1324 H   0  0  0  0  0
    8.9208   -2.2421   13.3863 H   0  0  0  0  0
    8.5759   -0.5083   11.3183 H   0  0  0  0  0
    7.2543   -0.2915   12.4919 H   0  0  0  0  0
    8.1691    1.1212   11.9100 H   0  0  0  0  0
   11.4350    1.5798   15.3185 H   0  0  0  0  0
   13.1901    0.7224   15.8181 H   0  0  0  0  0
   14.9377   -0.5247   17.3371 H   0  0  0  0  0
   13.6426   -0.2731   18.5875 H   0  0  0  0  0
   15.3105    1.4400   18.8337 H   0  0  0  0  0
   13.8165    2.1715   18.1314 H   0  0  0  0  0
   16.1388    1.3115   16.3190 H   0  0  0  0  0
   16.2044    2.8136   17.0597 H   0  0  0  0  0
   12.6565    3.8291   14.7207 H   0  0  0  0  0
   16.7741    2.5744   14.4685 H   0  0  0  0  0
   16.9269    3.6475   12.2389 H   0  0  0  0  0
   15.0301    4.9505   11.3192 H   0  0  0  0  0
   11.9688    2.4077   12.8925 H   0  0  0  0  0
    7.3736    5.8620   12.6501 H   0  0  0  0  0
    6.6031    4.3887   13.2474 H   0  0  0  0  0
  1  2  1  0  0  0
  2  3  4  0  0  0
  2  8  4  0  0  0
  3  4  4  0  0  0
  4  5  1  0  0  0
  4  6  4  0  0  0
  6  7  4  0  0  0
  6 26  1  0  0  0
  7  8  4  0  0  0
  8  9  1  0  0  0
  9 10  2  0  0  0
  9 11  1  0  0  0
 11 12  1  0  0  0
 12 13  1  0  0  0
 13 14  1  0  0  0
 14 15  1  0  0  0
 15 16  1  0  0  0
 16 17  4  0  0  0
 16 18  4  0  0  0
 17 21  4  0  0  0
 18 19  4  0  0  0
 19 20  4  0  0  0
 20 21  4  0  0  0
 21 22  1  0  0  0
 22 23  1  0  0  0
 23 24  4  0  0  0
 23 25  4  0  0  0
 24 28  4  0  0  0
 25 26  4  0  0  0
 26 27  4  0  0  0
 27 28  4  0  0  0
 28 29  1  0  0  0
  1 30  1  0  0  0
  1 31  1  0  0  0
  1 32  1  0  0  0
  3 33  1  0  0  0
  5 34  1  0  0  0
  5 35  1  0  0  0
  5 36  1  0  0  0
  7 37  1  0  0  0
 11 38  1  0  0  0
 12 39  1  0  0  0
 12 40  1  0  0  0
 13 41  1  0  0  0
 13 42  1  0  0  0
 14 43  1  0  0  0
 14 44  1  0  0  0
 17 45  1  0  0  0
 18 46  1  0  0  0
 19 47  1  0  0  0
 20 48  1  0  0  0
 25 49  1  0  0  0
 29 50  1  0  0  0
 29 51  1  0  0  0
M  END
$$$$
