3vb4_ligand
  -I-interpret- 

 80 79  0  0  0  0  0  0  0  0999 V2000
    0.0720  -20.5130   36.9710 O   0  0  0  0  0
   -1.1260  -20.7210   37.1250 C   0  0  0  0  0
   -1.6020  -22.0700   37.3740 O   0  0  0  0  0
   -0.8350  -22.9940   38.1510 C   0  0  0  0  0
   -1.7800  -24.0870   38.6390 C   0  0  0  0  0
    0.2640  -23.5910   37.2710 C   0  0  0  0  0
   -0.2580  -22.2750   39.3690 C   0  0  0  0  0
   -2.0390  -19.7590   37.0600 N   0  0  0  0  0
   -1.6590  -18.3800   36.8470 C   0  0  0  0  0
   -0.9550  -17.8940   38.0800 C   0  0  0  0  0
   -1.3250  -18.2420   39.1950 O   0  0  0  0  0
   -2.9130  -17.5460   36.6000 C   0  0  0  0  0
    0.0700  -17.0790   37.8830 N   0  0  0  0  0
    0.8400  -16.5310   38.9830 C   0  0  0  0  0
    0.6120  -15.0480   39.1020 C   0  0  0  0  0
    0.7530  -14.3260   38.1250 O   0  0  0  0  0
    2.2720  -16.8270   38.5360 C   0  0  0  0  0
    3.3200  -15.9990   39.2770 C   0  0  0  0  0
    2.5540  -18.3230   38.6570 C   0  0  0  0  0
    0.2450  -14.5830   40.2950 N   0  0  0  0  0
    0.0160  -13.1660   40.5220 C   0  0  0  0  0
    1.3540  -12.4920   40.4060 C   0  0  0  0  0
    2.2180  -12.6720   41.2550 O   0  0  0  0  0
   -0.5050  -13.0400   41.9550 C   0  0  0  0  0
   -1.8920  -13.6580   42.1600 C   0  0  0  0  0
   -2.4690  -13.3260   43.5370 C   0  0  0  0  0
   -2.8560  -13.2600   41.0460 C   0  0  0  0  0
    2.9050   -9.5920   39.4260 C   0  0  0  0  0
    3.9240   -9.1710   40.0340 N   0  0  0  0  0
    2.8560  -11.0650   39.1490 C   0  0  0  0  0
    1.5620  -11.7220   39.3430 N   0  0  0  0  0
    3.1770  -11.2950   37.6770 C   0  0  0  0  0
    4.6660  -11.4870   37.4450 C   0  0  0  0  0
    4.8380  -11.8610   35.9930 C   0  0  0  0  0
    4.0710  -11.4280   35.1400 O   0  0  0  0  0
    5.8410  -12.6720   35.7180 N   0  0  0  0  0
   -1.2282  -24.7914   39.2614 H   0  0  0  0  0
   -2.5835  -23.6371   39.2221 H   0  0  0  0  0
   -2.2013  -24.6109   37.7811 H   0  0  0  0  0
    0.9197  -22.7941   36.9201 H   0  0  0  0  0
    0.8422  -24.3098   37.8516 H   0  0  0  0  0
   -0.1893  -24.0931   36.4163 H   0  0  0  0  0
    0.3154  -22.9819   39.9687 H   0  0  0  0  0
    0.3930  -21.4661   39.0372 H   0  0  0  0  0
   -1.0721  -21.8658   39.9672 H   0  0  0  0  0
   -3.0256  -19.9968   37.1621 H   0  0  0  0  0
   -1.0003  -18.2909   35.9831 H   0  0  0  0  0
   -3.4311  -17.9236   35.7184 H   0  0  0  0  0
   -3.5703  -17.6151   37.4667 H   0  0  0  0  0
   -2.6301  -16.5057   36.4390 H   0  0  0  0  0
    0.3259  -16.8289   36.9278 H   0  0  0  0  0
    0.5851  -16.9462   39.9580 H   0  0  0  0  0
    2.3522  -16.5293   37.4905 H   0  0  0  0  0
    3.1336  -14.9393   39.1028 H   0  0  0  0  0
    3.2588  -16.2092   40.3448 H   0  0  0  0  0
    4.3128  -16.2597   38.9104 H   0  0  0  0  0
    2.4289  -18.6322   39.6947 H   0  0  0  0  0
    1.8577  -18.8749   38.0256 H   0  0  0  0  0
    3.5760  -18.5259   38.3368 H   0  0  0  0  0
    0.1217  -15.2372   41.0678 H   0  0  0  0  0
   -0.6902  -12.7226   39.8200 H   0  0  0  0  0
   -0.5842  -11.9768   42.1816 H   0  0  0  0  0
    0.1897  -13.5738   42.6034 H   0  0  0  0  0
   -1.7647  -14.7396   42.1152 H   0  0  0  0  0
   -1.8055  -13.7128   44.3104 H   0  0  0  0  0
   -2.5586  -12.2447   43.6409 H   0  0  0  0  0
   -3.4526  -13.7847   43.6376 H   0  0  0  0  0
   -2.9616  -12.1753   41.0290 H   0  0  0  0  0
   -2.4643  -13.6033   40.0885 H   0  0  0  0  0
   -3.8282  -13.7182   41.2276 H   0  0  0  0  0
    2.1022   -8.9223   39.1178 H   0  0  0  0  0
    4.6589   -9.8225   40.3096 H   0  0  0  0  0
    3.5622  -11.4868   39.8642 H   0  0  0  0  0
    0.8170  -11.5881   38.6593 H   0  0  0  0  0
    2.8540  -10.4182   37.1158 H   0  0  0  0  0
    2.6612  -12.1985   37.3519 H   0  0  0  0  0
    5.0615  -12.2674   38.0951 H   0  0  0  0  0
    5.2147  -10.5742   37.6771 H   0  0  0  0  0
    6.0083  -12.9684   34.7565 H   0  0  0  0  0
    6.4494  -13.0028   36.4668 H   0  0  0  0  0
  2  1  2  0  0  0
  2  3  1  0  0  0
  8  2  1  0  0  0
  3  4  1  0  0  0
  4  5  1  0  0  0
  4  6  1  0  0  0
  4  7  1  0  0  0
  9  8  1  0  0  0
 10  9  1  0  0  0
  9 12  1  0  0  0
 10 11  2  0  0  0
 13 10  1  0  0  0
 14 13  1  0  0  0
 15 14  1  0  0  0
 14 17  1  0  0  0
 15 16  2  0  0  0
 20 15  1  0  0  0
 17 18  1  0  0  0
 17 19  1  0  0  0
 21 20  1  0  0  0
 22 21  1  0  0  0
 21 24  1  0  0  0
 22 23  2  0  0  0
 31 22  1  0  0  0
 24 25  1  0  0  0
 25 26  1  0  0  0
 25 27  1  0  0  0
 28 29  2  0  0  0
 30 28  1  0  0  0
 30 31  1  0  0  0
 30 32  1  0  0  0
 32 33  1  0  0  0
 33 34  1  0  0  0
 34 35  2  0  0  0
 34 36  1  0  0  0
  5 37  1  0  0  0
  5 38  1  0  0  0
  5 39  1  0  0  0
  6 40  1  0  0  0
  6 41  1  0  0  0
  6 42  1  0  0  0
  7 43  1  0  0  0
  7 44  1  0  0  0
  7 45  1  0  0  0
  8 46  1  0  0  0
  9 47  1  0  0  0
 12 48  1  0  0  0
 12 49  1  0  0  0
 12 50  1  0  0  0
 13 51  1  0  0  0
 14 52  1  0  0  0
 17 53  1  0  0  0
 18 54  1  0  0  0
 18 55  1  0  0  0
 18 56  1  0  0  0
 19 57  1  0  0  0
 19 58  1  0  0  0
 19 59  1  0  0  0
 20 60  1  0  0  0
 21 61  1  0  0  0
 24 62  1  0  0  0
 24 63  1  0  0  0
 25 64  1  0  0  0
 26 65  1  0  0  0
 26 66  1  0  0  0
 26 67  1  0  0  0
 27 68  1  0  0  0
 27 69  1  0  0  0
 27 70  1  0  0  0
 28 71  1  0  0  0
 29 72  1  0  0  0
 30 73  1  0  0  0
 31 74  1  0  0  0
 32 75  1  0  0  0
 32 76  1  0  0  0
 33 77  1  0  0  0
 33 78  1  0  0  0
 36 79  1  0  0  0
 36 80  1  0  0  0
M  END
$$$$
