### 
### Created by X-TOOL on Mon Sep 10 21:13:09 2018
### 

@<TRIPOS>MOLECULE
3vb4_ligand
   80    79     1     0     0
SMALL
GAST_HUCK


@<TRIPOS>ATOM
      1 O1          0.0720  -20.5130   36.9710 O.2       1 BOC        -0.3774
      2 C          -1.1260  -20.7210   37.1250 C.2       1 BOC         0.3223
      3 O2         -1.6020  -22.0700   37.3740 O.3       1 BOC        -0.2580
      4 CT         -0.8350  -22.9940   38.1510 C.3       1 BOC         0.0905
      5 C1         -1.7800  -24.0870   38.6390 C.3       1 BOC        -0.0320
      6 C2          0.2640  -23.5910   37.2710 C.3       1 BOC        -0.0320
      7 C3         -0.2580  -22.2750   39.3690 C.3       1 BOC        -0.0320
      8 N          -2.0390  -19.7590   37.0600 N.am      1 ALA        -0.2415
      9 CA         -1.6590  -18.3800   36.8470 C.3       1 ALA         0.1300
     10 C          -0.9550  -17.8940   38.0800 C.2       1 ALA         0.2036
     11 O          -1.3250  -18.2420   39.1950 O.2       1 ALA        -0.3944
     12 CB         -2.9130  -17.5460   36.6000 C.3       1 ALA        -0.0244
     13 N           0.0700  -17.0790   37.8830 N.am      1 VAL        -0.2635
     14 CA          0.8400  -16.5310   38.9830 C.3       1 VAL         0.1332
     15 C           0.6120  -15.0480   39.1020 C.2       1 VAL         0.2041
     16 O           0.7530  -14.3260   38.1250 O.2       1 VAL        -0.3944
     17 CB          2.2720  -16.8270   38.5360 C.3       1 VAL        -0.0063
     18 CG1         3.3200  -15.9990   39.2770 C.3       1 VAL        -0.0584
     19 CG2         2.5540  -18.3230   38.6570 C.3       1 VAL        -0.0584
     20 N           0.2450  -14.5830   40.2950 N.am      1 LEU        -0.2637
     21 CA          0.0160  -13.1660   40.5220 C.3       1 LEU         0.1313
     22 C           1.3540  -12.4920   40.4060 C.2       1 LEU         0.2048
     23 O           2.2180  -12.6720   41.2550 O.2       1 LEU        -0.3943
     24 CB         -0.5050  -13.0400   41.9550 C.3       1 LEU        -0.0101
     25 CG         -1.8920  -13.6580   42.1600 C.3       1 LEU        -0.0425
     26 CD1        -2.4690  -13.3260   43.5370 C.3       1 LEU        -0.0625
     27 CD2        -2.8560  -13.2600   41.0460 C.3       1 LEU        -0.0625
     28 C           2.9050   -9.5920   39.4260 C.2       1 0JU         0.0208
     29 NF          3.9240   -9.1710   40.0340 N.2       1 0JU        -0.3619
     30 CA          2.8560  -11.0650   39.1490 C.3       1 0JU         0.1028
     31 N           1.5620  -11.7220   39.3430 N.am      1 0JU        -0.2623
     32 CB          3.1770  -11.2950   37.6770 C.3       1 0JU         0.0052
     33 CG          4.6660  -11.4870   37.4450 C.3       1 0JU         0.0421
     34 CD          4.8380  -11.8610   35.9930 C.2       1 0JU         0.1738
     35 OE          4.0710  -11.4280   35.1400 O.2       1 0JU        -0.3973
     36 NE          5.8410  -12.6720   35.7180 N.am      1 0JU        -0.3009
     37 H          -1.2282  -24.7914   39.2614 H         1 BOC         0.0260
     38 H          -2.5835  -23.6371   39.2221 H         1 BOC         0.0260
     39 H          -2.2013  -24.6109   37.7811 H         1 BOC         0.0260
     40 H           0.9197  -22.7941   36.9201 H         1 BOC         0.0260
     41 H           0.8422  -24.3098   37.8516 H         1 BOC         0.0260
     42 H          -0.1893  -24.0931   36.4163 H         1 BOC         0.0260
     43 H           0.3154  -22.9819   39.9687 H         1 BOC         0.0260
     44 H           0.3930  -21.4661   39.0372 H         1 BOC         0.0260
     45 H          -1.0721  -21.8658   39.9672 H         1 BOC         0.0260
     46 H          -3.0256  -19.9968   37.1621 H         1 ALA         0.1899
     47 H          -1.0003  -18.2909   35.9831 H         1 ALA         0.0796
     48 H          -3.4311  -17.9236   35.7184 H         1 ALA         0.0277
     49 H          -3.5703  -17.6151   37.4667 H         1 ALA         0.0277
     50 H          -2.6301  -16.5057   36.4390 H         1 ALA         0.0277
     51 H           0.3259  -16.8289   36.9278 H         1 VAL         0.1883
     52 H           0.5851  -16.9462   39.9580 H         1 VAL         0.0802
     53 H           2.3522  -16.5293   37.4905 H         1 VAL         0.0343
     54 H           3.1336  -14.9393   39.1028 H         1 VAL         0.0234
     55 H           3.2588  -16.2092   40.3448 H         1 VAL         0.0234
     56 H           4.3128  -16.2597   38.9104 H         1 VAL         0.0234
     57 H           2.4289  -18.6322   39.6947 H         1 VAL         0.0234
     58 H           1.8577  -18.8749   38.0256 H         1 VAL         0.0234
     59 H           3.5760  -18.5259   38.3368 H         1 VAL         0.0234
     60 H           0.1217  -15.2372   41.0678 H         1 LEU         0.1883
     61 H          -0.6902  -12.7226   39.8200 H         1 LEU         0.0800
     62 H          -0.5842  -11.9768   42.1816 H         1 LEU         0.0315
     63 H           0.1897  -13.5738   42.6034 H         1 LEU         0.0315
     64 H          -1.7647  -14.7396   42.1152 H         1 LEU         0.0298
     65 H          -1.8055  -13.7128   44.3104 H         1 LEU         0.0232
     66 H          -2.5586  -12.2447   43.6409 H         1 LEU         0.0232
     67 H          -3.4526  -13.7847   43.6376 H         1 LEU         0.0232
     68 H          -2.9616  -12.1753   41.0290 H         1 LEU         0.0232
     69 H          -2.4643  -13.6033   40.0885 H         1 LEU         0.0232
     70 H          -3.8282  -13.7182   41.2276 H         1 LEU         0.0232
     71 H           2.1022   -8.9223   39.1178 H         1 0JU         0.1225
     72 H           4.6589   -9.8225   40.3096 H         1 0JU         0.1054
     73 H           3.5622  -11.4868   39.8642 H         1 0JU         0.0841
     74 H           0.8170  -11.5881   38.6593 H         1 0JU         0.1897
     75 H           2.8540  -10.4182   37.1158 H         1 0JU         0.0348
     76 H           2.6612  -12.1985   37.3519 H         1 0JU         0.0348
     77 H           5.0615  -12.2674   38.0951 H         1 0JU         0.0505
     78 H           5.2147  -10.5742   37.6771 H         1 0JU         0.0505
     79 H           6.0083  -12.9684   34.7565 H         1 0JU         0.1814
     80 H           6.4494  -13.0028   36.4668 H         1 0JU         0.1814
@<TRIPOS>BOND
     1    2    1 2  
     2    2    3 1  
     3    8    2 am 
     4    3    4 1  
     5    4    5 1  
     6    4    6 1  
     7    4    7 1  
     8    9    8 1  
     9   10    9 1  
    10    9   12 1  
    11   10   11 2  
    12   13   10 am 
    13   14   13 1  
    14   15   14 1  
    15   14   17 1  
    16   15   16 2  
    17   20   15 am 
    18   17   18 1  
    19   17   19 1  
    20   21   20 1  
    21   22   21 1  
    22   21   24 1  
    23   22   23 2  
    24   31   22 am 
    25   24   25 1  
    26   25   26 1  
    27   25   27 1  
    28   28   29 2  
    29   30   28 1  
    30   30   31 1  
    31   30   32 1  
    32   32   33 1  
    33   33   34 1  
    34   34   35 2  
    35   34   36 am 
    36    5   37 1  
    37    5   38 1  
    38    5   39 1  
    39    6   40 1  
    40    6   41 1  
    41    6   42 1  
    42    7   43 1  
    43    7   44 1  
    44    7   45 1  
    45    8   46 1  
    46    9   47 1  
    47   12   48 1  
    48   12   49 1  
    49   12   50 1  
    50   13   51 1  
    51   14   52 1  
    52   17   53 1  
    53   18   54 1  
    54   18   55 1  
    55   18   56 1  
    56   19   57 1  
    57   19   58 1  
    58   19   59 1  
    59   20   60 1  
    60   21   61 1  
    61   24   62 1  
    62   24   63 1  
    63   25   64 1  
    64   26   65 1  
    65   26   66 1  
    66   26   67 1  
    67   27   68 1  
    68   27   69 1  
    69   27   70 1  
    70   28   71 1  
    71   29   72 1  
    72   30   73 1  
    73   31   74 1  
    74   32   75 1  
    75   32   76 1  
    76   33   77 1  
    77   33   78 1  
    78   36   79 1  
    79   36   80 1  
@<TRIPOS>SUBSTRUCTURE
     1 BOC         1

