1aw1_ligand
  -I-interpret- 

 14 13  0  0  0  0  0  0  0  0999 V2000
   20.3150   19.1750   24.9780 P   0  0  0  0  0
   19.6310   18.0340   25.8910 O   0  0  0  0  0
   20.1290   18.8230   23.5130 O   0  0  0  0  0
   21.7620   19.2710   25.3980 O   0  0  0  0  0
   19.5650   20.4870   25.2820 O   0  0  0  0  0
   19.6320   18.1850   27.3200 C   0  0  0  0  0
   19.5230   16.8970   28.1590 C   0  0  0  0  0
   20.0850   16.9460   29.3010 O   0  0  0  0  0
   18.9590   15.9200   27.7740 O   0  0  0  0  0
   19.1913   18.7780   23.3124 H   0  0  0  0  0
   18.6492   20.4019   25.0069 H   0  0  0  0  0
   18.7446   18.7715   27.5581 H   0  0  0  0  0
   20.5972   18.6241   27.5724 H   0  0  0  0  0
   20.4813   17.8116   29.4245 H   0  0  0  0  0
  1  2  1  0  0  0
  1  3  1  0  0  0
  1  4  2  0  0  0
  1  5  1  0  0  0
  2  6  1  0  0  0
  6  7  1  0  0  0
  7  8  1  0  0  0
  7  9  2  0  0  0
  3 10  1  0  0  0
  5 11  1  0  0  0
  6 12  1  0  0  0
  6 13  1  0  0  0
  8 14  1  0  0  0
M  END
$$$$
