6d78_ligand
  -I-interpret- 

125124  0  0  0  0  0  0  0  0999 V2000
  -32.2860  -19.9090   -8.5750 N   0  3  0  0  0
  -32.8920  -19.1820   -7.4650 C   0  0  0  0  0
  -31.8460  -18.8020   -6.4190 C   0  0  0  0  0
  -30.7010  -19.2510   -6.4780 O   0  0  0  0  0
  -34.0010  -20.0100   -6.8340 C   0  0  0  0  0
  -32.2510  -17.9730   -5.4610 N   0  0  0  0  0
  -31.3340  -17.4750   -4.4470 C   0  0  0  0  0
  -31.0440  -18.5460   -3.4050 C   0  0  0  0  0
  -31.9480  -19.2530   -2.9490 O   0  0  0  0  0
  -31.9130  -16.2320   -3.7700 C   0  0  0  0  0
  -29.7720  -18.6580   -3.0270 N   0  0  0  0  0
  -29.3560  -19.6070   -2.0130 C   0  0  0  0  0
  -29.0000  -18.9320   -0.7060 C   0  0  0  0  0
  -28.6820  -19.5970    0.2840 O   0  0  0  0  0
  -29.0440  -17.5980   -0.7010 N   0  0  0  0  0
  -28.7770  -16.7860    0.4800 C   0  0  0  0  0
  -29.7320  -15.5990    0.4690 C   0  0  0  0  0
  -30.3670  -15.2900   -0.5400 O   0  0  0  0  0
  -27.3130  -16.2940    0.5450 C   0  0  0  0  0
  -26.9080  -15.6400   -0.7780 C   0  0  0  0  0
  -26.3680  -17.4320    0.9070 C   0  0  0  0  0
  -25.4940  -15.1020   -0.7820 C   0  0  0  0  0
  -29.8270  -14.9280    1.6150 N   0  0  0  0  0
  -30.6460  -13.7380    1.7120 C   0  0  0  0  0
  -32.1390  -13.9700    1.7070 C   0  0  0  0  0
  -32.8950  -13.0130    1.5160 O   0  0  0  0  0
  -32.5910  -15.2040    1.9040 N   0  0  0  0  0
  -34.0110  -15.5280    1.9860 C   0  0  0  0  0
  -34.3040  -15.8500    3.4470 C   0  0  0  0  0
  -34.0960  -16.9810    3.9030 O   0  0  0  0  0
  -34.3930  -16.6880    1.0600 C   0  0  0  0  0
  -34.0400  -16.3480   -0.3890 C   0  0  0  0  0
  -35.8790  -16.9990    1.1770 C   0  0  0  0  0
  -34.7750  -15.1370   -0.9250 C   0  0  0  0  0
  -34.7900  -14.8570    4.1870 N   0  0  0  0  0
  -35.0060  -14.9710    5.6210 C   0  0  0  0  0
  -36.4690  -14.7040    5.9530 C   0  0  0  0  0
  -37.1550  -13.9560    5.2500 O   0  0  0  0  0
  -34.1030  -13.9930    6.3880 C   0  0  0  0  0
  -34.1270  -14.0510    7.9160 C   0  0  0  0  0
  -33.6570  -15.4090    8.4110 C   0  0  0  0  0
  -33.2780  -12.9400    8.5030 C   0  0  0  0  0
  -36.9420  -15.3290    7.0300 N   0  0  0  0  0
  -38.3170  -15.1340    7.4680 C   0  0  0  0  0
  -38.5360  -13.7030    7.9480 C   0  0  0  0  0
  -37.6400  -13.0640    8.5060 O   0  0  0  0  0
  -38.6730  -16.1150    8.5880 C   0  0  0  0  0
  -37.7530  -15.9600    9.6760 O   0  0  0  0  0
  -38.6210  -17.5510    8.0830 C   0  0  0  0  0
  -39.7480  -13.2030    7.7250 N   0  0  0  0  0
  -40.0970  -11.8320    8.0850 C   0  0  0  0  0
  -40.3090  -11.6950    9.5890 C   0  0  0  0  0
  -40.4620  -12.6840   10.3080 O   0  0  0  0  0
  -41.3490  -11.3590    7.3210 C   0  0  0  0  0
  -41.1500  -11.5180    5.8220 C   0  0  0  0  0
  -42.5810  -12.1210    7.7910 C   0  0  0  0  0
  -40.3360  -10.5850   10.1210 O   0  0  0  0  0
  -31.5453  -19.3418   -8.9873 H   0  0  0  0  0
  -31.8935  -20.7857   -8.2318 H   0  0  0  0  0
  -32.9970  -20.1061   -9.2793 H   0  0  0  0  0
  -33.3226  -18.2610   -7.8580 H   0  0  0  0  0
  -33.5768  -20.9202   -6.4100 H   0  0  0  0  0
  -34.4820  -19.4304   -6.0460 H   0  0  0  0  0
  -34.7362  -20.2707   -7.5954 H   0  0  0  0  0
  -33.2275  -17.6794   -5.4366 H   0  0  0  0  0
  -30.3985  -17.2086   -4.9390 H   0  0  0  0  0
  -32.8385  -16.4963   -3.2585 H   0  0  0  0  0
  -31.1945  -15.8455   -3.0472 H   0  0  0  0  0
  -32.1173  -15.4713   -4.5235 H   0  0  0  0  0
  -29.0707  -18.0593   -3.4631 H   0  0  0  0  0
  -28.4695  -20.1253   -2.3783 H   0  0  0  0  0
  -30.1862  -20.2883   -1.8266 H   0  0  0  0  0
  -29.2773  -17.1203   -1.5715 H   0  0  0  0  0
  -28.9335  -17.4029    1.3649 H   0  0  0  0  0
  -27.2402  -15.5432    1.3318 H   0  0  0  0  0
  -27.5783  -14.7966   -0.9435 H   0  0  0  0  0
  -26.9680  -16.4052   -1.5519 H   0  0  0  0  0
  -26.6443  -17.8361    1.8809 H   0  0  0  0  0
  -26.4399  -18.2160    0.1532 H   0  0  0  0  0
  -25.3458  -17.0555    0.9451 H   0  0  0  0  0
  -25.3913  -14.3481   -0.0015 H   0  0  0  0  0
  -24.7957  -15.9178   -0.5951 H   0  0  0  0  0
  -25.2799  -14.6538   -1.7523 H   0  0  0  0  0
  -29.3165  -15.2563    2.4348 H   0  0  0  0  0
  -30.4235  -13.1367    0.8305 H   0  0  0  0  0
  -30.4080  -13.2760    2.6701 H   0  0  0  0  0
  -31.9134  -15.9600    2.0025 H   0  0  0  0  0
  -34.6128  -14.6840    1.6489 H   0  0  0  0  0
  -33.8286  -17.5699    1.3630 H   0  0  0  0  0
  -34.3257  -17.2017   -1.0036 H   0  0  0  0  0
  -32.9739  -16.1235   -0.4212 H   0  0  0  0  0
  -36.1111  -17.2757    2.2054 H   0  0  0  0  0
  -36.4564  -16.1178    0.8974 H   0  0  0  0  0
  -36.1295  -17.8253    0.5117 H   0  0  0  0  0
  -35.8490  -15.3185   -0.8854 H   0  0  0  0  0
  -34.5297  -14.2662   -0.3170 H   0  0  0  0  0
  -34.4733  -14.9579   -1.9570 H   0  0  0  0  0
  -35.0216  -13.9760    3.7281 H   0  0  0  0  0
  -34.7509  -15.9855    5.9272 H   0  0  0  0  0
  -34.4646  -12.9980    6.1285 H   0  0  0  0  0
  -33.0836  -14.2528    6.1026 H   0  0  0  0  0
  -35.1551  -13.9082    8.2488 H   0  0  0  0  0
  -34.3144  -16.1848    8.0186 H   0  0  0  0  0
  -32.6379  -15.5867    8.0676 H   0  0  0  0  0
  -33.6828  -15.4260    9.5006 H   0  0  0  0  0
  -32.2493  -13.0506    8.1599 H   0  0  0  0  0
  -33.6689  -11.9756    8.1784 H   0  0  0  0  0
  -33.3077  -12.9980    9.5911 H   0  0  0  0  0
  -36.3314  -15.9541    7.5562 H   0  0  0  0  0
  -38.9678  -15.3213    6.6139 H   0  0  0  0  0
  -39.6861  -15.8989    8.9270 H   0  0  0  0  0
  -37.9799  -16.5768   10.3758 H   0  0  0  0  0
  -39.3330  -17.6738    7.2669 H   0  0  0  0  0
  -37.6154  -17.7730    7.7260 H   0  0  0  0  0
  -38.8775  -18.2302    8.8960 H   0  0  0  0  0
  -40.4550  -13.7953    7.2893 H   0  0  0  0  0
  -39.2603  -11.1949    7.7986 H   0  0  0  0  0
  -40.4195  -13.4785    9.7708 H   0  0  0  0  0
  -41.5049  -10.3010    7.5316 H   0  0  0  0  0
  -40.2946  -10.9214    5.5050 H   0  0  0  0  0
  -40.9685  -12.5675    5.5902 H   0  0  0  0  0
  -42.0447  -11.1787    5.3000 H   0  0  0  0  0
  -42.4379  -13.1866    7.6117 H   0  0  0  0  0
  -42.7294  -11.9473    8.8568 H   0  0  0  0  0
  -43.4544  -11.7726    7.2397 H   0  0  0  0  0
  1  2  1  0  0  0
  2  3  1  0  0  0
  2  5  1  0  0  0
  3  4  2  0  0  0
  3  6  1  0  0  0
  6  7  1  0  0  0
  7  8  1  0  0  0
  7 10  1  0  0  0
  8  9  2  0  0  0
  8 11  1  0  0  0
 11 12  1  0  0  0
 12 13  1  0  0  0
 13 14  2  0  0  0
 13 15  1  0  0  0
 15 16  1  0  0  0
 16 17  1  0  0  0
 16 19  1  0  0  0
 17 18  2  0  0  0
 17 23  1  0  0  0
 19 20  1  0  0  0
 19 21  1  0  0  0
 20 22  1  0  0  0
 23 24  1  0  0  0
 24 25  1  0  0  0
 25 26  2  0  0  0
 25 27  1  0  0  0
 27 28  1  0  0  0
 28 29  1  0  0  0
 28 31  1  0  0  0
 29 30  2  0  0  0
 29 35  1  0  0  0
 31 32  1  0  0  0
 31 33  1  0  0  0
 32 34  1  0  0  0
 35 36  1  0  0  0
 36 37  1  0  0  0
 36 39  1  0  0  0
 37 38  2  0  0  0
 37 43  1  0  0  0
 39 40  1  0  0  0
 40 41  1  0  0  0
 40 42  1  0  0  0
 43 44  1  0  0  0
 44 45  1  0  0  0
 44 47  1  0  0  0
 45 46  2  0  0  0
 45 50  1  0  0  0
 47 48  1  0  0  0
 47 49  1  0  0  0
 50 51  1  0  0  0
 51 52  1  0  0  0
 51 54  1  0  0  0
 52 53  1  0  0  0
 52 57  2  0  0  0
 54 55  1  0  0  0
 54 56  1  0  0  0
  1 58  1  0  0  0
  1 59  1  0  0  0
  1 60  1  0  0  0
  2 61  1  0  0  0
  5 62  1  0  0  0
  5 63  1  0  0  0
  5 64  1  0  0  0
  6 65  1  0  0  0
  7 66  1  0  0  0
 10 67  1  0  0  0
 10 68  1  0  0  0
 10 69  1  0  0  0
 11 70  1  0  0  0
 12 71  1  0  0  0
 12 72  1  0  0  0
 15 73  1  0  0  0
 16 74  1  0  0  0
 19 75  1  0  0  0
 20 76  1  0  0  0
 20 77  1  0  0  0
 21 78  1  0  0  0
 21 79  1  0  0  0
 21 80  1  0  0  0
 22 81  1  0  0  0
 22 82  1  0  0  0
 22 83  1  0  0  0
 23 84  1  0  0  0
 24 85  1  0  0  0
 24 86  1  0  0  0
 27 87  1  0  0  0
 28 88  1  0  0  0
 31 89  1  0  0  0
 32 90  1  0  0  0
 32 91  1  0  0  0
 33 92  1  0  0  0
 33 93  1  0  0  0
 33 94  1  0  0  0
 34 95  1  0  0  0
 34 96  1  0  0  0
 34 97  1  0  0  0
 35 98  1  0  0  0
 36 99  1  0  0  0
 39100  1  0  0  0
 39101  1  0  0  0
 40102  1  0  0  0
 41103  1  0  0  0
 41104  1  0  0  0
 41105  1  0  0  0
 42106  1  0  0  0
 42107  1  0  0  0
 42108  1  0  0  0
 43109  1  0  0  0
 44110  1  0  0  0
 47111  1  0  0  0
 48112  1  0  0  0
 49113  1  0  0  0
 49114  1  0  0  0
 49115  1  0  0  0
 50116  1  0  0  0
 51117  1  0  0  0
 53118  1  0  0  0
 54119  1  0  0  0
 55120  1  0  0  0
 55121  1  0  0  0
 55122  1  0  0  0
 56123  1  0  0  0
 56124  1  0  0  0
 56125  1  0  0  0
M  END
$$$$
