5w99_ligand
  -I-interpret- 

 47 51  0  0  0  0  0  0  0  0999 V2000
   21.6860   -1.7720    2.9780 C   0  0  0  0  0
   20.6470   -1.4860    2.0010 C   0  0  0  0  0
   19.9350   -2.0970   -0.1560 C   0  0  0  0  0
   18.6070   -0.5900    1.0690 C   0  0  0  0  0
   18.2760    1.2400    5.0780 C   0  0  0  0  0
   19.3330    2.0240    5.0640 C   0  0  0  0  0
   17.0780    1.4460    6.1080 C   0  0  0  0  0
   26.7390   -1.1210    9.0990 N   0  3  0  0  0
   25.4100   -1.4900    9.3310 C   0  0  0  0  0
   24.3770   -1.2490    8.1580 C   0  0  0  0  0
   24.3220   -1.8020    6.9440 N   0  0  0  0  0
   23.1690   -1.3900    6.2210 C   0  0  0  0  0
   22.4430   -0.4770    6.9050 C   0  0  0  0  0
   23.1310   -0.1830    8.4590 S   0  0  0  0  0
   22.8150   -1.7670    4.9240 C   0  0  0  0  0
   21.6850   -1.3120    4.2590 N   0  0  0  0  0
   22.7350   -2.5840    2.6640 C   0  0  0  0  0
   23.8070   -2.7870    4.0330 S   0  0  0  0  0
   20.8240   -2.1640    0.8600 N   0  0  0  0  0
   18.7760   -1.3420   -0.0800 C   0  0  0  0  0
   19.5250   -0.6640    2.2090 C   0  0  0  0  0
   19.2460    0.1990    3.3900 C   0  0  0  0  0
   18.2190    0.2040    4.1290 N   0  0  0  0  0
   20.3640    1.4850    3.7720 S   0  0  0  0  0
   17.1330    2.4150    6.8340 O   0  0  0  0  0
   16.1880    0.6400    6.0210 O   0  0  0  0  0
   20.2450   -2.8190   -1.3110 C   0  0  0  0  0
   19.5390   -3.0620   -2.4140 N   0  0  0  0  0
   20.2120   -3.9150   -3.2910 C   0  0  0  0  0
   21.4350   -4.2790   -2.8800 C   0  0  0  0  0
   21.8970   -3.5720   -1.3780 S   0  0  0  0  0
   19.5810   -4.3490   -4.5760 C   0  0  0  0  0
   20.2830   -4.9810   -5.4310 O   0  0  0  0  0
   18.4050   -4.0240   -4.7890 O   0  0  0  0  0
   17.7545    0.0865    1.1289 H   0  0  0  0  0
   19.5265    2.8581    5.7385 H   0  0  0  0  0
   27.2974   -1.3270    9.9273 H   0  0  0  0  0
   27.1024   -1.6458    8.3034 H   0  0  0  0  0
   26.7830   -0.1220    8.8977 H   0  0  0  0  0
   25.0698   -0.8660   10.1575 H   0  0  0  0  0
   25.4264   -2.5676    9.4938 H   0  0  0  0  0
   21.5437    0.0080    6.5253 H   0  0  0  0  0
   22.8864   -3.0462    1.6885 H   0  0  0  0  0
   18.0375   -1.3405   -0.8817 H   0  0  0  0  0
   17.9622    2.8762    6.6879 H   0  0  0  0  0
   22.0762   -4.9577   -3.4425 H   0  0  0  0  0
   21.1602   -5.1344   -5.0725 H   0  0  0  0  0
  2  1  1  0  0  0
  1 16  4  0  0  0
  1 17  4  0  0  0
  2 19  4  0  0  0
 21  2  4  0  0  0
 19  3  4  0  0  0
 20  3  4  0  0  0
  3 27  1  0  0  0
  4 20  4  0  0  0
 21  4  4  0  0  0
  5  6  4  0  0  0
  5  7  1  0  0  0
 23  5  4  0  0  0
  6 24  4  0  0  0
  7 25  1  0  0  0
  7 26  2  0  0  0
  9  8  1  0  0  0
 10  9  1  0  0  0
 11 10  4  0  0  0
 14 10  4  0  0  0
 12 11  4  0  0  0
 12 13  4  0  0  0
 15 12  1  0  0  0
 13 14  4  0  0  0
 16 15  4  0  0  0
 18 15  4  0  0  0
 17 18  4  0  0  0
 22 21  1  0  0  0
 22 23  4  0  0  0
 22 24  4  0  0  0
 27 28  4  0  0  0
 27 31  4  0  0  0
 28 29  4  0  0  0
 29 30  4  0  0  0
 29 32  1  0  0  0
 30 31  4  0  0  0
 32 33  1  0  0  0
 32 34  2  0  0  0
  4 35  1  0  0  0
  6 36  1  0  0  0
  8 37  1  0  0  0
  8 38  1  0  0  0
  8 39  1  0  0  0
  9 40  1  0  0  0
  9 41  1  0  0  0
 13 42  1  0  0  0
 17 43  1  0  0  0
 20 44  1  0  0  0
 25 45  1  0  0  0
 30 46  1  0  0  0
 33 47  1  0  0  0
M  END
$$$$
