### 
### Created by X-TOOL on Mon Sep 10 21:12:51 2018
### 

@<TRIPOS>MOLECULE
1ryf_ligand
   40    42     1     0     0
SMALL
GAST_HUCK


@<TRIPOS>ATOM
      1 PB         -6.0300   71.8690   35.9780 P.3       1 GDP         0.2069
      2 O1B        -6.4980   70.8830   37.0280 O.co2     1 GDP        -0.5891
      3 O2B        -5.4230   71.2010   34.7190 O.co2     1 GDP        -0.5891
      4 O3B        -7.0300   72.9560   35.6890 O.co2     1 GDP        -0.5891
      5 O3A        -4.7530   72.5760   36.7200 O.3       1 GDP        -0.1548
      6 PA         -3.3350   72.9640   36.0270 P.3       1 GDP         0.3276
      7 O1A        -2.4450   71.7770   35.8540 O.co2     1 GDP        -0.5556
      8 O2A        -3.5640   73.9080   34.8500 O.co2     1 GDP        -0.5556
      9 O5         -2.6310   73.7990   37.2590 O.3       1 GDP        -0.2436
     10 C5         -3.3070   74.9420   37.7940 C.3       1 GDP         0.1132
     11 C4         -2.3600   75.8340   38.6380 C.3       1 GDP         0.1189
     12 O4         -1.7780   75.0490   39.6880 O.3       1 GDP        -0.3363
     13 C3         -1.2410   76.3290   37.7600 C.3       1 GDP         0.1150
     14 O3         -0.9220   77.6940   38.0290 O.3       1 GDP        -0.3864
     15 C2         -0.1180   75.3980   38.0630 C.3       1 GDP         0.1387
     16 O2          1.1330   75.9880   37.8510 O.3       1 GDP        -0.3836
     17 C1         -0.3550   75.0800   39.5530 C.3       1 GDP         0.1992
     18 N9          0.1870   73.7810   39.9830 N.pl3     1 GDP        -0.2101
     19 C8         -0.0090   72.5820   39.3620 C.2       1 GDP         0.0957
     20 N7          0.5980   71.5810   40.0710 N.2       1 GDP        -0.3235
     21 C5          1.2120   72.1760   41.1230 C.2       1 GDP         0.0926
     22 C6          1.9860   71.7050   42.1700 C.2       1 GDP         0.2135
     23 O6          2.2300   70.5090   42.2590 O.2       1 GDP        -0.4091
     24 N1          2.4700   72.6030   43.1190 N.am      1 GDP        -0.1839
     25 C2          2.1830   73.9470   43.0350 C.2       1 GDP         0.2340
     26 N2          2.7380   74.8500   43.8540 N.pl3     1 GDP        -0.2807
     27 N3          1.4560   74.4370   41.9810 N.2       1 GDP        -0.2765
     28 C4          0.9300   73.5530   41.0840 C.2       1 GDP         0.1159
     29 H1         -4.1344   74.5988   38.4325 H         1 GDP         0.0648
     30 H2         -3.7091   75.5387   36.9619 H         1 GDP         0.0648
     31 H3         -2.9184   76.6822   39.0607 H         1 GDP         0.0651
     32 H4         -1.5237   76.2422   36.7005 H         1 GDP         0.0648
     33 H5         -0.2145   77.9710   37.4587 H         1 GDP         0.2100
     34 H6         -0.1904   74.4868   37.4510 H         1 GDP         0.0676
     35 H7          1.2219   76.7495   38.4120 H         1 GDP         0.2101
     36 H8          0.0814   75.8737   40.1772 H         1 GDP         0.0998
     37 H9         -0.5669   72.4420   38.4373 H         1 GDP         0.1179
     38 H10         3.0345   72.2662   43.8727 H         1 GDP         0.2515
     39 H11         2.4977   75.8471   43.7597 H         1 GDP         0.1897
     40 H12         3.4050   74.5472   44.5781 H         1 GDP         0.1897
@<TRIPOS>BOND
     1    1    2 ar 
     2    1    3 ar 
     3    1    4 ar 
     4    1    5 1  
     5    5    6 1  
     6    6    7 ar 
     7    6    8 ar 
     8    6    9 1  
     9    9   10 1  
    10   10   11 1  
    11   11   12 1  
    12   11   13 1  
    13   12   17 1  
    14   13   14 1  
    15   13   15 1  
    16   15   16 1  
    17   15   17 1  
    18   17   18 1  
    19   18   19 1  
    20   18   28 1  
    21   19   20 2  
    22   20   21 1  
    23   21   22 1  
    24   21   28 2  
    25   22   23 2  
    26   22   24 am 
    27   24   25 1  
    28   25   26 1  
    29   25   27 2  
    30   27   28 1  
    31   10   29 1  
    32   10   30 1  
    33   11   31 1  
    34   13   32 1  
    35   14   33 1  
    36   15   34 1  
    37   16   35 1  
    38   17   36 1  
    39   19   37 1  
    40   24   38 1  
    41   26   39 1  
    42   26   40 1  
@<TRIPOS>SUBSTRUCTURE
     1 GDP         1

