1ryf_ligand
  -I-interpret- 

 43 45  0  0  0  0  0  0  0  0999 V2000
   -6.0300   71.8690   35.9780 P   0  0  0  0  0
   -6.4980   70.8830   37.0280 O   0  0  0  0  0
   -5.4230   71.2010   34.7190 O   0  0  0  0  0
   -7.0300   72.9560   35.6890 O   0  0  0  0  0
   -4.7530   72.5760   36.7200 O   0  0  0  0  0
   -3.3350   72.9640   36.0270 P   0  0  0  0  0
   -2.4450   71.7770   35.8540 O   0  0  0  0  0
   -3.5640   73.9080   34.8500 O   0  0  0  0  0
   -2.6310   73.7990   37.2590 O   0  0  0  0  0
   -3.3070   74.9420   37.7940 C   0  0  0  0  0
   -2.3600   75.8340   38.6380 C   0  0  0  0  0
   -1.7780   75.0490   39.6880 O   0  0  0  0  0
   -1.2410   76.3290   37.7600 C   0  0  0  0  0
   -0.9220   77.6940   38.0290 O   0  0  0  0  0
   -0.1180   75.3980   38.0630 C   0  0  0  0  0
    1.1330   75.9880   37.8510 O   0  0  0  0  0
   -0.3550   75.0800   39.5530 C   0  0  0  0  0
    0.1870   73.7810   39.9830 N   0  0  0  0  0
   -0.0090   72.5820   39.3620 C   0  0  0  0  0
    0.5980   71.5810   40.0710 N   0  0  0  0  0
    1.2120   72.1760   41.1230 C   0  0  0  0  0
    1.9860   71.7050   42.1700 C   0  0  0  0  0
    2.2300   70.5090   42.2590 O   0  0  0  0  0
    2.4700   72.6030   43.1190 N   0  0  0  0  0
    2.1830   73.9470   43.0350 C   0  0  0  0  0
    2.7380   74.8500   43.8540 N   0  0  0  0  0
    1.4560   74.4370   41.9810 N   0  0  0  0  0
    0.9300   73.5530   41.0840 C   0  0  0  0  0
   -5.8193   70.2183   37.1662 H   0  0  0  0  0
   -4.7987   70.5229   34.9874 H   0  0  0  0  0
   -4.1547   74.6154   35.1188 H   0  0  0  0  0
   -4.1111   74.5909   38.4407 H   0  0  0  0  0
   -3.6832   75.5364   36.9614 H   0  0  0  0  0
   -2.9255   76.6682   39.0533 H   0  0  0  0  0
   -1.4957   76.3260   36.7002 H   0  0  0  0  0
   -0.2071   77.9739   37.4527 H   0  0  0  0  0
   -0.1039   74.5167   37.4217 H   0  0  0  0  0
    1.8237   75.3542   38.0580 H   0  0  0  0  0
    0.1491   75.8235   40.1705 H   0  0  0  0  0
   -0.5674   72.4418   38.4365 H   0  0  0  0  0
    3.0457   72.2595   43.8877 H   0  0  0  0  0
    2.6090   75.8462   43.6771 H   0  0  0  0  0
    3.2897   74.5414   44.6545 H   0  0  0  0  0
  1  2  1  0  0  0
  1  3  1  0  0  0
  1  4  2  0  0  0
  1  5  1  0  0  0
  5  6  1  0  0  0
  6  7  2  0  0  0
  6  8  1  0  0  0
  6  9  1  0  0  0
  9 10  1  0  0  0
 10 11  1  0  0  0
 11 12  1  0  0  0
 11 13  1  0  0  0
 12 17  1  0  0  0
 13 14  1  0  0  0
 13 15  1  0  0  0
 15 16  1  0  0  0
 15 17  1  0  0  0
 17 18  1  0  0  0
 18 19  4  0  0  0
 18 28  4  0  0  0
 19 20  4  0  0  0
 20 21  4  0  0  0
 21 22  1  0  0  0
 21 28  4  0  0  0
 22 23  2  0  0  0
 22 24  1  0  0  0
 24 25  1  0  0  0
 25 26  1  0  0  0
 25 27  2  0  0  0
 27 28  1  0  0  0
  2 29  1  0  0  0
  3 30  1  0  0  0
  8 31  1  0  0  0
 10 32  1  0  0  0
 10 33  1  0  0  0
 11 34  1  0  0  0
 13 35  1  0  0  0
 14 36  1  0  0  0
 15 37  1  0  0  0
 16 38  1  0  0  0
 17 39  1  0  0  0
 19 40  1  0  0  0
 24 41  1  0  0  0
 26 42  1  0  0  0
 26 43  1  0  0  0
M  END
$$$$
