2xhr_ligand
  -I-interpret- 

 43 45  0  0  0  0  0  0  0  0999 V2000
   -3.6640   11.5530   23.7810 N   0  0  0  0  0
   -2.6920   11.1430   24.6330 C   0  0  0  0  0
   -3.0860   10.6510   25.8230 N   0  0  0  0  0
   -2.0980   10.2750   26.6350 C   0  0  0  0  0
   -2.5600    9.6230   28.1690 Cl  0  0  0  0  0
   -0.7730   10.3540   26.3100 C   0  0  0  0  0
   -0.4440   10.8730   25.0800 C   0  0  0  0  0
   -1.3960   11.2830   24.2290 N   0  0  0  0  0
    0.9770   11.0210   24.6610 C   0  0  0  0  0
    1.7510    9.8610   24.5460 C   0  0  0  0  0
    3.0980    9.9290   24.1900 C   0  0  0  0  0
    3.9040    8.8360   24.0350 O   0  0  0  0  0
    3.3430    7.5430   24.3540 C   0  0  0  0  0
    4.3800    6.5010   24.0370 C   0  0  0  0  0
    5.5680    6.5550   24.9600 N   0  3  0  0  0
    5.1550    6.6200   26.3980 C   0  0  0  0  0
    6.3890    6.6820   27.2870 C   0  0  0  0  0
    7.2430    7.7920   26.9430 O   0  0  0  0  0
    7.6690    7.6950   25.5750 C   0  0  0  0  0
    6.4840    7.6960   24.6240 C   0  0  0  0  0
    3.7110   11.1890   24.0060 C   0  0  0  0  0
    5.4010   11.3180   23.5970 Cl  0  0  0  0  0
    2.9700   12.3490   24.1530 C   0  0  0  0  0
    1.6200   12.2760   24.4890 C   0  0  0  0  0
    0.7360   13.7560   24.6570 Cl  0  0  0  0  0
   -4.6444   11.4814   24.0533 H   0  0  0  0  0
   -3.4148   11.9330   22.8678 H   0  0  0  0  0
   -0.0023   10.0167   27.0031 H   0  0  0  0  0
    1.2946    8.8898   24.7374 H   0  0  0  0  0
    2.4397    7.3679   23.7697 H   0  0  0  0  0
    3.0716    7.4981   25.4087 H   0  0  0  0  0
    4.7375    6.6853   23.0239 H   0  0  0  0  0
    3.9139    5.5224   24.1520 H   0  0  0  0  0
    6.0831    5.6857   24.8204 H   0  0  0  0  0
    4.5759    5.7308   26.6470 H   0  0  0  0  0
    4.5498    7.5121   26.5590 H   0  0  0  0  0
    6.9548    5.7602   27.1518 H   0  0  0  0  0
    6.0614    6.8092   28.3188 H   0  0  0  0  0
    8.2142    6.7598   25.4477 H   0  0  0  0  0
    8.2972    8.5559   25.3462 H   0  0  0  0  0
    5.9419    8.6366   24.7216 H   0  0  0  0  0
    6.8410    7.5845   23.6002 H   0  0  0  0  0
    3.4430   13.3199   24.0058 H   0  0  0  0  0
  1  2  1  0  0  0
  2  3  4  0  0  0
  2  8  4  0  0  0
  3  4  4  0  0  0
  4  5  1  0  0  0
  4  6  4  0  0  0
  6  7  4  0  0  0
  7  8  4  0  0  0
  7  9  1  0  0  0
  9 10  4  0  0  0
  9 24  4  0  0  0
 10 11  4  0  0  0
 11 12  1  0  0  0
 11 21  4  0  0  0
 12 13  1  0  0  0
 13 14  1  0  0  0
 14 15  1  0  0  0
 15 16  1  0  0  0
 15 20  1  0  0  0
 16 17  1  0  0  0
 17 18  1  0  0  0
 18 19  1  0  0  0
 19 20  1  0  0  0
 21 22  1  0  0  0
 21 23  4  0  0  0
 23 24  4  0  0  0
 24 25  1  0  0  0
  1 26  1  0  0  0
  1 27  1  0  0  0
  6 28  1  0  0  0
 10 29  1  0  0  0
 13 30  1  0  0  0
 13 31  1  0  0  0
 14 32  1  0  0  0
 14 33  1  0  0  0
 15 34  1  0  0  0
 16 35  1  0  0  0
 16 36  1  0  0  0
 17 37  1  0  0  0
 17 38  1  0  0  0
 19 39  1  0  0  0
 19 40  1  0  0  0
 20 41  1  0  0  0
 20 42  1  0  0  0
 23 43  1  0  0  0
M  END
$$$$
