### 
### Created by X-TOOL on Mon Sep 10 21:13:04 2018
### 

@<TRIPOS>MOLECULE
2xhr_ligand
   42    44     1     0     0
SMALL
GAST_HUCK


@<TRIPOS>ATOM
      1 N1         -3.6640   11.5530   23.7810 N.pl3     1 C0P        -0.3042
      2 C2         -2.6920   11.1430   24.6330 C.ar      1 C0P         0.1823
      3 N3         -3.0860   10.6510   25.8230 N.ar      1 C0P        -0.2414
      4 C4         -2.0980   10.2750   26.6350 C.ar      1 C0P         0.1195
      5 CL5        -2.5600    9.6230   28.1690 Cl        1 C0P        -0.0325
      6 C6         -0.7730   10.3540   26.3100 C.ar      1 C0P        -0.0024
      7 C7         -0.4440   10.8730   25.0800 C.ar      1 C0P         0.0484
      8 N8         -1.3960   11.2830   24.2290 N.ar      1 C0P        -0.2563
      9 C9          0.9770   11.0210   24.6610 C.ar      1 C0P         0.0077
     10 C10         1.7510    9.8610   24.5460 C.ar      1 C0P        -0.0189
     11 C11         3.0980    9.9290   24.1900 C.ar      1 C0P         0.1096
     12 O12         3.9040    8.8360   24.0350 O.3       1 C0P        -0.3182
     13 C13         3.3430    7.5430   24.3540 C.3       1 C0P         0.0524
     14 C14         4.3800    6.5010   24.0370 C.3       1 C0P        -0.0843
     15 N15         5.5680    6.5550   24.9600 N.4       1 C0P         0.4077
     16 C17         5.1550    6.6200   26.3980 C.3       1 C0P        -0.0888
     17 C18         6.3890    6.6820   27.2870 C.3       1 C0P         0.0291
     18 O19         7.2430    7.7920   26.9430 O.3       1 C0P        -0.3838
     19 C20         7.6690    7.6950   25.5750 C.3       1 C0P         0.0291
     20 C21         6.4840    7.6960   24.6240 C.3       1 C0P        -0.0888
     21 C22         3.7110   11.1890   24.0060 C.ar      1 C0P         0.0724
     22 CL23        5.4010   11.3180   23.5970 Cl        1 C0P        -0.0750
     23 C24         2.9700   12.3490   24.1530 C.ar      1 C0P        -0.0380
     24 C25         1.6200   12.2760   24.4890 C.ar      1 C0P         0.0430
     25 CL26        0.7360   13.7560   24.6570 Cl        1 C0P        -0.0760
     26 H          -4.6444   11.4814   24.0533 H         1 C0P         0.1824
     27 H          -3.4148   11.9330   22.8678 H         1 C0P         0.1824
     28 H          -0.0023   10.0167   27.0031 H         1 C0P         0.0647
     29 H           1.2946    8.8898   24.7374 H         1 C0P         0.0575
     30 H           2.4397    7.3679   23.7697 H         1 C0P         0.0594
     31 H           3.0716    7.4981   25.4087 H         1 C0P         0.0594
     32 H           4.7375    6.6853   23.0239 H         1 C0P         0.0044
     33 H           3.9139    5.5224   24.1520 H         1 C0P         0.0044
     34 H           4.5759    5.7308   26.6470 H         1 C0P         0.0040
     35 H           4.5498    7.5121   26.5590 H         1 C0P         0.0040
     36 H           6.9548    5.7602   27.1518 H         1 C0P         0.0539
     37 H           6.0614    6.8092   28.3188 H         1 C0P         0.0539
     38 H           8.2142    6.7598   25.4477 H         1 C0P         0.0539
     39 H           8.2972    8.5559   25.3462 H         1 C0P         0.0539
     40 H           5.9419    8.6366   24.7216 H         1 C0P         0.0040
     41 H           6.8410    7.5845   23.6002 H         1 C0P         0.0040
     42 H           3.4430   13.3199   24.0058 H         1 C0P         0.0611
@<TRIPOS>BOND
     1    1    2 1  
     2    2    3 ar 
     3    2    8 ar 
     4    3    4 ar 
     5    4    5 1  
     6    4    6 ar 
     7    6    7 ar 
     8    7    8 ar 
     9    7    9 1  
    10    9   10 ar 
    11    9   24 ar 
    12   10   11 ar 
    13   11   12 1  
    14   11   21 ar 
    15   12   13 1  
    16   13   14 1  
    17   14   15 1  
    18   15   16 1  
    19   15   20 1  
    20   16   17 1  
    21   17   18 1  
    22   18   19 1  
    23   19   20 1  
    24   21   22 1  
    25   21   23 ar 
    26   23   24 ar 
    27   24   25 1  
    28    1   26 1  
    29    1   27 1  
    30    6   28 1  
    31   10   29 1  
    32   13   30 1  
    33   13   31 1  
    34   14   32 1  
    35   14   33 1  
    36   16   34 1  
    37   16   35 1  
    38   17   36 1  
    39   17   37 1  
    40   19   38 1  
    41   19   39 1  
    42   20   40 1  
    43   20   41 1  
    44   23   42 1  
@<TRIPOS>SUBSTRUCTURE
     1 C0P         1

