### 
### Created by X-TOOL on Mon Sep 10 21:13:10 2018
### 

@<TRIPOS>MOLECULE
3rwg_ligand
  144   147     1     0     0
SMALL
GAST_HUCK


@<TRIPOS>ATOM
      1 N          11.3440   12.2670   18.3920 N.4       1 MET         0.2379
      2 CA         10.4770   11.7140   19.4250 C.3       1 MET         0.0658
      3 C           9.6360   10.5640   18.8820 C.2       1 MET         0.2268
      4 O           9.3390   10.5090   17.6880 O.2       1 MET        -0.3907
      5 CB          9.5690   12.8020   20.0020 C.3       1 MET         0.0168
      6 CG          8.4660   12.2760   20.9060 C.3       1 MET         0.0007
      7 SD          7.2370   13.5320   21.3070 S.3       1 MET        -0.1638
      8 CE          8.2140   14.6590   22.2980 C.3       1 MET        -0.0181
      9 N           9.2540    9.6480   19.7660 N.am      1 HIS        -0.2598
     10 CA          8.4450    8.4990   19.3770 C.3       1 HIS         0.1372
     11 C           7.2120    8.9360   18.5920 C.2       1 HIS         0.2079
     12 O           6.8390   10.1090   18.6050 O.2       1 HIS        -0.3940
     13 CB          8.0260    7.6960   20.6100 C.3       1 HIS         0.0145
     14 CG          9.1200    7.5190   21.6160 C.2       1 HIS        -0.0027
     15 ND1         9.8120    6.3360   21.7620 N.2       1 HIS        -0.3252
     16 CD2         9.6430    8.3760   22.5250 C.2       1 HIS         0.0291
     17 CE1        10.7130    6.4710   22.7190 C.2       1 HIS         0.0907
     18 NE2        10.6310    7.6990   23.1980 N.pl3     1 HIS        -0.2752
     19 N           6.5830    7.9840   17.9100 N.am      1 PRO        -0.2497
     20 CA          5.3860    8.2700   17.1130 C.3       1 PRO         0.1338
     21 C           4.1060    7.9440   17.8770 C.2       1 PRO         0.2041
     22 O           4.0260    6.9030   18.5280 O.2       1 PRO        -0.3944
     23 CB          5.5360    7.3310   15.9150 C.3       1 PRO        -0.0104
     24 CG          6.3380    6.1920   16.4350 C.3       1 PRO        -0.0281
     25 CD          7.2930    6.7840   17.4320 C.3       1 PRO         0.0369
     26 N           3.1600    8.8380   17.8900 N.am      1 ALA        -0.2640
     27 CA          1.9440    8.5440   18.5970 C.3       1 ALA         0.1282
     28 C           1.3320    7.2450   18.1140 C.2       1 ALA         0.2036
     29 O           0.6960    6.5700   18.8660 O.2       1 ALA        -0.3944
     30 CB          0.9870    9.6580   18.4840 C.3       1 ALA        -0.0244
     31 N           1.5460    6.9040   16.8460 N.am      1 GLN        -0.2636
     32 CA          1.0750    5.6480   16.2670 C.3       1 GLN         0.1330
     33 C           1.7140    4.4850   16.9080 C.2       1 GLN         0.2041
     34 O           2.8630    4.5330   17.1870 O.2       1 GLN        -0.3944
     35 CB          1.4130    5.5470   14.7790 C.3       1 GLN         0.0045
     36 CG          0.7200    6.5160   13.8860 C.3       1 GLN         0.0412
     37 CD          1.3750    7.8670   13.8580 C.2       1 GLN         0.1737
     38 OE1         2.1040    8.2360   14.7700 O.2       1 GLN        -0.3973
     39 NE2         1.1330    8.6140   12.7950 N.am      1 GLN        -0.3009
     40 N           0.9550    3.4260   17.1120 N.am      1 THR        -0.2613
     41 CA          1.4540    2.0560   17.1730 C.3       1 THR         0.1565
     42 C           0.3760    0.9770   17.1690 C.2       1 THR         0.2065
     43 O          -0.5310    1.0410   17.9300 O.2       1 THR        -0.3943
     44 CB          2.4540    1.7710   18.2980 C.3       1 THR         0.0924
     45 OG1         3.1330    0.5640   17.9730 O.3       1 THR        -0.3874
     46 CG2         1.7590    1.5610   19.5950 C.3       1 THR        -0.0346
     47 N           0.5130   -0.0020   16.3020 N.am      1 SER        -0.2615
     48 CA         -0.4320   -1.0770   16.2250 C.3       1 SER         0.1539
     49 C           0.1100   -2.3510   16.8120 C.2       1 SER         0.2062
     50 O           1.3020   -2.5130   16.9310 O.2       1 SER        -0.3943
     51 CB         -0.8520   -1.3180   14.7820 C.3       1 SER         0.0843
     52 OG         -2.0430   -2.0660   14.7780 O.3       1 SER        -0.3903
     53 N          -0.7960   -3.2730   17.1070 N.am      1 GLN        -0.2635
     54 CA         -0.5050   -4.4520   17.9140 C.3       1 GLN         0.1330
     55 C          -0.1260   -5.6400   17.0370 C.2       1 GLN         0.2036
     56 O          -0.2860   -5.6000   15.8170 O.2       1 GLN        -0.3944
     57 CB         -1.7050   -4.8090   18.7930 C.3       1 GLN         0.0045
     58 CG         -2.2040   -3.6620   19.6570 C.3       1 GLN         0.0412
     59 CD         -3.3780   -4.0590   20.5310 C.2       1 GLN         0.1737
     60 OE1        -4.3400   -3.3060   20.6770 O.2       1 GLN        -0.3973
     61 NE2        -3.3040   -5.2480   21.1170 N.am      1 GLN        -0.3009
     62 N           0.3770   -6.6970   17.6670 N.am      1 TRP        -0.2684
     63 CA          0.7800   -7.8990   16.9460 C.3       1 TRP         0.0986
     64 C          -0.4070   -8.8280   16.7160 C.2       1 TRP         0.0613
     65 O          -0.6500   -9.2750   15.5950 O.co2     1 TRP        -0.5665
     66 CB          1.8850   -8.6350   17.7060 C.3       1 TRP        -0.0013
     67 CG          3.2620   -8.1320   17.3980 C.2       1 TRP        -0.0424
     68 CD1         3.5870   -6.9930   16.7210 C.2       1 TRP         0.0166
     69 CD2         4.5030   -8.7530   17.7570 C.ar      1 TRP        -0.0214
     70 NE1         4.9520   -6.8660   16.6350 N.pl3     1 TRP        -0.2891
     71 CE2         5.5380   -7.9340   17.2640 C.ar      1 TRP         0.0603
     72 CE3         4.8390   -9.9220   18.4470 C.ar      1 TRP        -0.0747
     73 CZ2         6.8840   -8.2460   17.4390 C.ar      1 TRP        -0.0443
     74 CZ3         6.1760  -10.2300   18.6200 C.ar      1 TRP        -0.0792
     75 CH2         7.1820   -9.3950   18.1170 C.ar      1 TRP        -0.0768
     76 OXT        -1.1600   -9.0910   17.6950 O.co2     1 TRP        -0.5665
     77 H          11.9410   11.5285   18.0197 H         1 MET         0.2015
     78 H          10.7722   12.6545   17.6414 H         1 MET         0.2015
     79 H          11.9234   13.0036   18.7946 H         1 MET         0.2015
     80 H          11.1132   11.3253   20.2202 H         1 MET         0.1098
     81 H           9.0863   13.2987   19.1603 H         1 MET         0.0354
     82 H          10.1958   13.4576   20.6065 H         1 MET         0.0354
     83 H           8.9255   11.9477   21.8383 H         1 MET         0.0380
     84 H           7.9588   11.4676   20.3794 H         1 MET         0.0380
     85 H           8.6000   14.1323   23.1707 H         1 MET         0.0340
     86 H           9.0454   15.0368   21.7029 H         1 MET         0.0340
     87 H           7.5892   15.4915   22.6214 H         1 MET         0.0340
     88 H           9.5339    9.7514   20.7414 H         1 HIS         0.1886
     89 H           9.0536    7.8646   18.7327 H         1 HIS         0.0817
     90 H           7.7353    6.7028   20.2677 H         1 HIS         0.0420
     91 H           7.2214    8.2460   21.0981 H         1 HIS         0.0420
     92 H           9.3374    9.4090   22.6914 H         1 HIS         0.0729
     93 H          11.4060    5.7000   23.0558 H         1 HIS         0.1199
     94 H          11.2079    8.0827   23.9466 H         1 HIS         0.2361
     95 H           5.3081    9.3234   16.8441 H         1 PRO         0.0802
     96 H           6.0202    7.8202   15.0698 H         1 PRO         0.0313
     97 H           4.5708    7.0076   15.5253 H         1 PRO         0.0313
     98 H           6.8697    5.6824   15.6315 H         1 PRO         0.0287
     99 H           5.7013    5.4371   16.8963 H         1 PRO         0.0287
    100 H           7.5397    6.0932   18.2383 H         1 PRO         0.0524
    101 H           8.2643    7.0169   16.9957 H         1 PRO         0.0524
    102 H           3.2794    9.7291   17.4082 H         1 ALA         0.1883
    103 H           2.1905    8.4211   19.6516 H         1 ALA         0.0797
    104 H           1.4295   10.5598   18.9072 H         1 ALA         0.0277
    105 H           0.7500    9.8265   17.4335 H         1 ALA         0.0277
    106 H           0.0758    9.4091   19.0280 H         1 ALA         0.0277
    107 H           2.0634    7.5500   16.2498 H         1 GLN         0.1883
    108 H          -0.0037    5.6431   16.4235 H         1 GLN         0.0801
    109 H           1.0955    4.5545   14.4593 H         1 GLN         0.0337
    110 H           2.4788    5.7581   14.6919 H         1 GLN         0.0337
    111 H          -0.2935    6.6479   14.2648 H         1 GLN         0.0504
    112 H           0.7507    6.1128   12.8738 H         1 GLN         0.0504
    113 H           1.5602    9.5365   12.7119 H         1 GLN         0.1814
    114 H           0.5190    8.2681   12.0576 H         1 GLN         0.1814
    115 H          -0.0466    3.5742   17.2352 H         1 THR         0.1884
    116 H           1.9957    1.9940   16.2292 H         1 THR         0.0826
    117 H           3.1323    2.6189   18.3932 H         1 THR         0.0639
    118 H           3.7684    0.3598   18.6631 H         1 THR         0.2101
    119 H           1.1924    2.4562   19.8513 H         1 THR         0.0257
    120 H           1.0805    0.7123   19.5089 H         1 THR         0.0257
    121 H           2.4962    1.3611   20.3726 H         1 THR         0.0257
    122 H           1.3121    0.0037   15.6681 H         1 SER         0.1884
    123 H          -1.2999   -0.7788   16.8131 H         1 SER         0.0823
    124 H          -0.0698   -1.8644   14.2550 H         1 SER         0.0606
    125 H          -1.0119   -0.3645   14.2787 H         1 SER         0.0606
    126 H          -2.3173   -2.2240   13.8717 H         1 SER         0.2097
    127 H          -1.7443   -3.1514   16.7515 H         1 GLN         0.1883
    128 H           0.3449   -4.2162   18.5544 H         1 GLN         0.0801
    129 H          -1.3865   -5.6050   19.4660 H         1 GLN         0.0337
    130 H          -2.5208   -5.0897   18.1268 H         1 GLN         0.0337
    131 H          -2.5342   -2.8618   18.9946 H         1 GLN         0.0504
    132 H          -1.3878   -3.3545   20.3107 H         1 GLN         0.0504
    133 H          -4.0642   -5.5694   21.7163 H         1 GLN         0.1814
    134 H          -2.4869   -5.8401   20.9679 H         1 GLN         0.1814
    135 H           0.4839   -6.6666   18.6809 H         1 TRP         0.1876
    136 H           1.1647   -7.5910   15.9738 H         1 TRP         0.0741
    137 H           1.8453   -9.6825   17.4073 H         1 TRP         0.0390
    138 H           1.7101   -8.4779   18.7703 H         1 TRP         0.0390
    139 H           2.8675   -6.2860   16.3080 H         1 TRP         0.0795
    140 H           5.4488   -6.1015   16.1776 H         1 TRP         0.2216
    141 H           4.0623  -10.5776   18.8407 H         1 TRP         0.0540
    142 H           7.6700   -7.5986   17.0501 H         1 TRP         0.0541
    143 H           6.4517  -11.1377   19.1568 H         1 TRP         0.0510
    144 H           8.2262   -9.6677   18.2697 H         1 TRP         0.0530
@<TRIPOS>BOND
     1    1    2 1  
     2    2    3 1  
     3    2    5 1  
     4    3    4 2  
     5    3    9 am 
     6    5    6 1  
     7    6    7 1  
     8    7    8 1  
     9    9   10 1  
    10   10   11 1  
    11   10   13 1  
    12   11   12 2  
    13   11   19 am 
    14   13   14 1  
    15   14   15 1  
    16   14   16 2  
    17   15   17 2  
    18   16   18 1  
    19   17   18 1  
    20   19   20 1  
    21   19   25 1  
    22   20   21 1  
    23   20   23 1  
    24   21   22 2  
    25   21   26 am 
    26   23   24 1  
    27   24   25 1  
    28   26   27 1  
    29   27   28 1  
    30   27   30 1  
    31   28   29 2  
    32   28   31 am 
    33   31   32 1  
    34   32   33 1  
    35   32   35 1  
    36   33   34 2  
    37   33   40 am 
    38   35   36 1  
    39   36   37 1  
    40   37   38 2  
    41   37   39 am 
    42   40   41 1  
    43   41   42 1  
    44   41   44 1  
    45   42   43 2  
    46   42   47 am 
    47   44   45 1  
    48   44   46 1  
    49   47   48 1  
    50   48   49 1  
    51   48   51 1  
    52   49   50 2  
    53   49   53 am 
    54   51   52 1  
    55   53   54 1  
    56   54   55 1  
    57   54   57 1  
    58   55   56 2  
    59   55   62 am 
    60   57   58 1  
    61   58   59 1  
    62   59   60 2  
    63   59   61 am 
    64   62   63 1  
    65   63   64 1  
    66   63   66 1  
    67   64   65 ar 
    68   64   76 ar 
    69   66   67 1  
    70   67   68 2  
    71   67   69 1  
    72   68   70 1  
    73   69   71 ar 
    74   69   72 ar 
    75   70   71 1  
    76   71   73 ar 
    77   72   74 ar 
    78   73   75 ar 
    79   74   75 ar 
    80    1   77 1  
    81    1   78 1  
    82    1   79 1  
    83    2   80 1  
    84    5   81 1  
    85    5   82 1  
    86    6   83 1  
    87    6   84 1  
    88    8   85 1  
    89    8   86 1  
    90    8   87 1  
    91    9   88 1  
    92   10   89 1  
    93   13   90 1  
    94   13   91 1  
    95   16   92 1  
    96   17   93 1  
    97   18   94 1  
    98   20   95 1  
    99   23   96 1  
   100   23   97 1  
   101   24   98 1  
   102   24   99 1  
   103   25  100 1  
   104   25  101 1  
   105   26  102 1  
   106   27  103 1  
   107   30  104 1  
   108   30  105 1  
   109   30  106 1  
   110   31  107 1  
   111   32  108 1  
   112   35  109 1  
   113   35  110 1  
   114   36  111 1  
   115   36  112 1  
   116   39  113 1  
   117   39  114 1  
   118   40  115 1  
   119   41  116 1  
   120   44  117 1  
   121   45  118 1  
   122   46  119 1  
   123   46  120 1  
   124   46  121 1  
   125   47  122 1  
   126   48  123 1  
   127   51  124 1  
   128   51  125 1  
   129   52  126 1  
   130   53  127 1  
   131   54  128 1  
   132   57  129 1  
   133   57  130 1  
   134   58  131 1  
   135   58  132 1  
   136   61  133 1  
   137   61  134 1  
   138   62  135 1  
   139   63  136 1  
   140   66  137 1  
   141   66  138 1  
   142   68  139 1  
   143   70  140 1  
   144   72  141 1  
   145   73  142 1  
   146   74  143 1  
   147   75  144 1  
@<TRIPOS>SUBSTRUCTURE
     1 MET         1

