3rwg_ligand
  -I-interpret- 

143146  0  0  0  0  0  0  0  0999 V2000
   11.3440   12.2670   18.3920 N   0  3  0  0  0
   10.4770   11.7140   19.4250 C   0  0  0  0  0
    9.6360   10.5640   18.8820 C   0  0  0  0  0
    9.3390   10.5090   17.6880 O   0  0  0  0  0
    9.5690   12.8020   20.0020 C   0  0  0  0  0
    8.4660   12.2760   20.9060 C   0  0  0  0  0
    7.2370   13.5320   21.3070 S   0  0  0  0  0
    8.2140   14.6590   22.2980 C   0  0  0  0  0
    9.2540    9.6480   19.7660 N   0  0  0  0  0
    8.4450    8.4990   19.3770 C   0  0  0  0  0
    7.2120    8.9360   18.5920 C   0  0  0  0  0
    6.8390   10.1090   18.6050 O   0  0  0  0  0
    8.0260    7.6960   20.6100 C   0  0  0  0  0
    9.1200    7.5190   21.6160 C   0  0  0  0  0
    9.8120    6.3360   21.7620 N   0  0  0  0  0
    9.6430    8.3760   22.5250 C   0  0  0  0  0
   10.7130    6.4710   22.7190 C   0  0  0  0  0
   10.6310    7.6990   23.1980 N   0  0  0  0  0
    6.5830    7.9840   17.9100 N   0  0  0  0  0
    5.3860    8.2700   17.1130 C   0  0  0  0  0
    4.1060    7.9440   17.8770 C   0  0  0  0  0
    4.0260    6.9030   18.5280 O   0  0  0  0  0
    5.5360    7.3310   15.9150 C   0  0  0  0  0
    6.3380    6.1920   16.4350 C   0  0  0  0  0
    7.2930    6.7840   17.4320 C   0  0  0  0  0
    3.1600    8.8380   17.8900 N   0  0  0  0  0
    1.9440    8.5440   18.5970 C   0  0  0  0  0
    1.3320    7.2450   18.1140 C   0  0  0  0  0
    0.6960    6.5700   18.8660 O   0  0  0  0  0
    0.9870    9.6580   18.4840 C   0  0  0  0  0
    1.5460    6.9040   16.8460 N   0  0  0  0  0
    1.0750    5.6480   16.2670 C   0  0  0  0  0
    1.7140    4.4850   16.9080 C   0  0  0  0  0
    2.8630    4.5330   17.1870 O   0  0  0  0  0
    1.4130    5.5470   14.7790 C   0  0  0  0  0
    0.7200    6.5160   13.8860 C   0  0  0  0  0
    1.3750    7.8670   13.8580 C   0  0  0  0  0
    2.1040    8.2360   14.7700 O   0  0  0  0  0
    1.1330    8.6140   12.7950 N   0  0  0  0  0
    0.9550    3.4260   17.1120 N   0  0  0  0  0
    1.4540    2.0560   17.1730 C   0  0  0  0  0
    0.3760    0.9770   17.1690 C   0  0  0  0  0
   -0.5310    1.0410   17.9300 O   0  0  0  0  0
    2.4540    1.7710   18.2980 C   0  0  0  0  0
    3.1330    0.5640   17.9730 O   0  0  0  0  0
    1.7590    1.5610   19.5950 C   0  0  0  0  0
    0.5130   -0.0020   16.3020 N   0  0  0  0  0
   -0.4320   -1.0770   16.2250 C   0  0  0  0  0
    0.1100   -2.3510   16.8120 C   0  0  0  0  0
    1.3020   -2.5130   16.9310 O   0  0  0  0  0
   -0.8520   -1.3180   14.7820 C   0  0  0  0  0
   -2.0430   -2.0660   14.7780 O   0  0  0  0  0
   -0.7960   -3.2730   17.1070 N   0  0  0  0  0
   -0.5050   -4.4520   17.9140 C   0  0  0  0  0
   -0.1260   -5.6400   17.0370 C   0  0  0  0  0
   -0.2860   -5.6000   15.8170 O   0  0  0  0  0
   -1.7050   -4.8090   18.7930 C   0  0  0  0  0
   -2.2040   -3.6620   19.6570 C   0  0  0  0  0
   -3.3780   -4.0590   20.5310 C   0  0  0  0  0
   -4.3400   -3.3060   20.6770 O   0  0  0  0  0
   -3.3040   -5.2480   21.1170 N   0  0  0  0  0
    0.3770   -6.6970   17.6670 N   0  0  0  0  0
    0.7800   -7.8990   16.9460 C   0  0  0  0  0
   -0.4070   -8.8280   16.7160 C   0  0  0  0  0
   -0.6500   -9.2750   15.5950 O   0  0  0  0  0
    1.8850   -8.6350   17.7060 C   0  0  0  0  0
    3.2620   -8.1320   17.3980 C   0  0  0  0  0
    3.5870   -6.9930   16.7210 C   0  0  0  0  0
    4.5030   -8.7530   17.7570 C   0  0  0  0  0
    4.9520   -6.8660   16.6350 N   0  0  0  0  0
    5.5380   -7.9340   17.2640 C   0  0  0  0  0
    4.8390   -9.9220   18.4470 C   0  0  0  0  0
    6.8840   -8.2460   17.4390 C   0  0  0  0  0
    6.1760  -10.2300   18.6200 C   0  0  0  0  0
    7.1820   -9.3950   18.1170 C   0  0  0  0  0
   -1.1600   -9.0910   17.6950 O   0  0  0  0  0
   11.9410   11.5285   18.0197 H   0  0  0  0  0
   10.7722   12.6545   17.6414 H   0  0  0  0  0
   11.9234   13.0036   18.7946 H   0  0  0  0  0
   11.1132   11.3253   20.2202 H   0  0  0  0  0
    9.0863   13.2987   19.1603 H   0  0  0  0  0
   10.1958   13.4576   20.6065 H   0  0  0  0  0
    8.9255   11.9477   21.8383 H   0  0  0  0  0
    7.9588   11.4676   20.3794 H   0  0  0  0  0
    8.6000   14.1323   23.1707 H   0  0  0  0  0
    9.0454   15.0368   21.7029 H   0  0  0  0  0
    7.5892   15.4915   22.6214 H   0  0  0  0  0
    9.5339    9.7514   20.7414 H   0  0  0  0  0
    9.0536    7.8646   18.7327 H   0  0  0  0  0
    7.7353    6.7028   20.2677 H   0  0  0  0  0
    7.2214    8.2460   21.0981 H   0  0  0  0  0
    9.3374    9.4090   22.6914 H   0  0  0  0  0
   11.4060    5.7000   23.0558 H   0  0  0  0  0
    5.3081    9.3234   16.8441 H   0  0  0  0  0
    6.0202    7.8202   15.0698 H   0  0  0  0  0
    4.5708    7.0076   15.5253 H   0  0  0  0  0
    6.8697    5.6824   15.6315 H   0  0  0  0  0
    5.7013    5.4371   16.8963 H   0  0  0  0  0
    7.5397    6.0932   18.2383 H   0  0  0  0  0
    8.2643    7.0169   16.9957 H   0  0  0  0  0
    3.2794    9.7291   17.4082 H   0  0  0  0  0
    2.1905    8.4211   19.6516 H   0  0  0  0  0
    1.4295   10.5598   18.9072 H   0  0  0  0  0
    0.7500    9.8265   17.4335 H   0  0  0  0  0
    0.0758    9.4091   19.0280 H   0  0  0  0  0
    2.0634    7.5500   16.2498 H   0  0  0  0  0
   -0.0037    5.6431   16.4235 H   0  0  0  0  0
    1.0955    4.5545   14.4593 H   0  0  0  0  0
    2.4788    5.7581   14.6919 H   0  0  0  0  0
   -0.2935    6.6479   14.2648 H   0  0  0  0  0
    0.7507    6.1128   12.8738 H   0  0  0  0  0
    1.5602    9.5365   12.7119 H   0  0  0  0  0
    0.5190    8.2681   12.0576 H   0  0  0  0  0
   -0.0466    3.5742   17.2352 H   0  0  0  0  0
    1.9957    1.9940   16.2292 H   0  0  0  0  0
    3.1323    2.6189   18.3932 H   0  0  0  0  0
    3.7684    0.3598   18.6631 H   0  0  0  0  0
    1.1924    2.4562   19.8513 H   0  0  0  0  0
    1.0805    0.7123   19.5089 H   0  0  0  0  0
    2.4962    1.3611   20.3726 H   0  0  0  0  0
    1.3121    0.0037   15.6681 H   0  0  0  0  0
   -1.2999   -0.7788   16.8131 H   0  0  0  0  0
   -0.0698   -1.8644   14.2550 H   0  0  0  0  0
   -1.0119   -0.3645   14.2787 H   0  0  0  0  0
   -2.3173   -2.2240   13.8717 H   0  0  0  0  0
   -1.7443   -3.1514   16.7515 H   0  0  0  0  0
    0.3449   -4.2162   18.5544 H   0  0  0  0  0
   -1.3865   -5.6050   19.4660 H   0  0  0  0  0
   -2.5208   -5.0897   18.1268 H   0  0  0  0  0
   -2.5342   -2.8618   18.9946 H   0  0  0  0  0
   -1.3878   -3.3545   20.3107 H   0  0  0  0  0
   -4.0642   -5.5694   21.7163 H   0  0  0  0  0
   -2.4869   -5.8401   20.9679 H   0  0  0  0  0
    0.4839   -6.6666   18.6809 H   0  0  0  0  0
    1.1647   -7.5910   15.9738 H   0  0  0  0  0
    1.8453   -9.6825   17.4073 H   0  0  0  0  0
    1.7101   -8.4779   18.7703 H   0  0  0  0  0
    2.8675   -6.2860   16.3080 H   0  0  0  0  0
    4.0623  -10.5776   18.8407 H   0  0  0  0  0
    7.6700   -7.5986   17.0501 H   0  0  0  0  0
    6.4517  -11.1377   19.1568 H   0  0  0  0  0
    8.2262   -9.6677   18.2697 H   0  0  0  0  0
   -0.8196   -8.6619   18.4834 H   0  0  0  0  0
  1  2  1  0  0  0
  2  3  1  0  0  0
  2  5  1  0  0  0
  3  4  2  0  0  0
  3  9  1  0  0  0
  5  6  1  0  0  0
  6  7  1  0  0  0
  7  8  1  0  0  0
  9 10  1  0  0  0
 10 11  1  0  0  0
 10 13  1  0  0  0
 11 12  2  0  0  0
 11 19  1  0  0  0
 13 14  1  0  0  0
 14 15  4  0  0  0
 14 16  4  0  0  0
 15 17  4  0  0  0
 16 18  4  0  0  0
 17 18  4  0  0  0
 19 20  1  0  0  0
 19 25  1  0  0  0
 20 21  1  0  0  0
 20 23  1  0  0  0
 21 22  2  0  0  0
 21 26  1  0  0  0
 23 24  1  0  0  0
 24 25  1  0  0  0
 26 27  1  0  0  0
 27 28  1  0  0  0
 27 30  1  0  0  0
 28 29  2  0  0  0
 28 31  1  0  0  0
 31 32  1  0  0  0
 32 33  1  0  0  0
 32 35  1  0  0  0
 33 34  2  0  0  0
 33 40  1  0  0  0
 35 36  1  0  0  0
 36 37  1  0  0  0
 37 38  2  0  0  0
 37 39  1  0  0  0
 40 41  1  0  0  0
 41 42  1  0  0  0
 41 44  1  0  0  0
 42 43  2  0  0  0
 42 47  1  0  0  0
 44 45  1  0  0  0
 44 46  1  0  0  0
 47 48  1  0  0  0
 48 49  1  0  0  0
 48 51  1  0  0  0
 49 50  2  0  0  0
 49 53  1  0  0  0
 51 52  1  0  0  0
 53 54  1  0  0  0
 54 55  1  0  0  0
 54 57  1  0  0  0
 55 56  2  0  0  0
 55 62  1  0  0  0
 57 58  1  0  0  0
 58 59  1  0  0  0
 59 60  2  0  0  0
 59 61  1  0  0  0
 62 63  1  0  0  0
 63 64  1  0  0  0
 63 66  1  0  0  0
 64 65  2  0  0  0
 64 76  1  0  0  0
 66 67  1  0  0  0
 67 68  4  0  0  0
 67 69  4  0  0  0
 68 70  4  0  0  0
 69 71  4  0  0  0
 69 72  4  0  0  0
 70 71  4  0  0  0
 71 73  4  0  0  0
 72 74  4  0  0  0
 73 75  4  0  0  0
 74 75  4  0  0  0
  1 77  1  0  0  0
  1 78  1  0  0  0
  1 79  1  0  0  0
  2 80  1  0  0  0
  5 81  1  0  0  0
  5 82  1  0  0  0
  6 83  1  0  0  0
  6 84  1  0  0  0
  8 85  1  0  0  0
  8 86  1  0  0  0
  8 87  1  0  0  0
  9 88  1  0  0  0
 10 89  1  0  0  0
 13 90  1  0  0  0
 13 91  1  0  0  0
 16 92  1  0  0  0
 17 93  1  0  0  0
 20 94  1  0  0  0
 23 95  1  0  0  0
 23 96  1  0  0  0
 24 97  1  0  0  0
 24 98  1  0  0  0
 25 99  1  0  0  0
 25100  1  0  0  0
 26101  1  0  0  0
 27102  1  0  0  0
 30103  1  0  0  0
 30104  1  0  0  0
 30105  1  0  0  0
 31106  1  0  0  0
 32107  1  0  0  0
 35108  1  0  0  0
 35109  1  0  0  0
 36110  1  0  0  0
 36111  1  0  0  0
 39112  1  0  0  0
 39113  1  0  0  0
 40114  1  0  0  0
 41115  1  0  0  0
 44116  1  0  0  0
 45117  1  0  0  0
 46118  1  0  0  0
 46119  1  0  0  0
 46120  1  0  0  0
 47121  1  0  0  0
 48122  1  0  0  0
 51123  1  0  0  0
 51124  1  0  0  0
 52125  1  0  0  0
 53126  1  0  0  0
 54127  1  0  0  0
 57128  1  0  0  0
 57129  1  0  0  0
 58130  1  0  0  0
 58131  1  0  0  0
 61132  1  0  0  0
 61133  1  0  0  0
 62134  1  0  0  0
 63135  1  0  0  0
 66136  1  0  0  0
 66137  1  0  0  0
 68138  1  0  0  0
 72139  1  0  0  0
 73140  1  0  0  0
 74141  1  0  0  0
 75142  1  0  0  0
 76143  1  0  0  0
M  END
$$$$
