6esn_ligand
  -I-interpret- 

 57 59  0  0  0  0  0  0  0  0999 V2000
  -24.1210   -0.7380  -16.7300 C   0  0  0  0  0
  -23.9970   -2.1830  -16.2730 C   0  0  0  0  0
  -26.4380   -2.8070  -17.0550 O   0  0  0  0  0
  -25.3180   -4.1480  -15.2330 O   0  0  0  0  0
  -25.6770   -1.6880  -13.4370 C   0  0  0  0  0
  -26.2190   -0.8320  -12.5070 C   0  0  0  0  0
  -27.3350   -0.0730  -12.8240 C   0  0  0  0  0
  -27.9060   -0.1800  -14.0800 C   0  0  0  0  0
  -27.3870   -1.0480  -15.0150 C   0  0  0  0  0
  -27.9080    0.9270  -11.8650 C   0  0  0  0  0
  -28.1140    1.5130   -9.4540 C   0  0  0  0  0
  -27.8210    0.9880   -8.0690 C   0  0  0  0  0
  -28.0090    4.1800  -13.6290 C   0  0  0  0  0
  -28.6790    4.7070  -14.7010 C   0  0  0  0  0
  -28.1700    5.9610  -15.1470 C   0  0  0  0  0
  -29.7580    6.6310  -18.4260 C   0  0  0  0  0
  -28.5230    8.1050  -16.4250 C   0  0  0  0  0
  -28.5380    9.9210  -14.8750 C   0  0  0  0  0
  -30.3320    5.8400  -19.4470 C   0  0  0  0  0
  -25.5830   -2.8930  -15.8900 S   0  0  0  0  0
  -26.2710   -1.7840  -14.6820 C   0  0  0  0  0
  -27.5950    0.7090  -10.4540 N   0  0  0  0  0
  -28.7190    2.5650   -9.6320 O   0  0  0  0  0
  -27.3770    2.3040  -12.2180 C   0  0  0  0  0
  -26.3050    2.7410  -11.8320 O   0  0  0  0  0
  -28.2860    2.9900  -12.9760 N   0  0  0  0  0
  -27.1270    6.3720  -14.3400 C   0  0  0  0  0
  -26.7630    5.2410  -13.1020 S   0  0  0  0  0
  -28.6470    6.7250  -16.2840 C   0  0  0  0  0
  -29.2770    6.0140  -17.2890 C   0  0  0  0  0
  -29.6380    7.9940  -18.5680 C   0  0  0  0  0
  -29.0070    8.7130  -17.5740 C   0  0  0  0  0
  -28.8960   10.0320  -17.7300 F   0  0  0  0  0
  -27.8220    8.8470  -15.4720 O   0  0  0  0  0
  -30.7600    5.1580  -20.2830 N   0  0  0  0  0
  -24.7419   -0.6933  -17.6248 H   0  0  0  0  0
  -24.5796   -0.1459  -15.9380 H   0  0  0  0  0
  -23.1301   -0.3427  -16.9536 H   0  0  0  0  0
  -23.3845   -2.2060  -15.3716 H   0  0  0  0  0
  -23.5490   -2.7609  -17.0814 H   0  0  0  0  0
  -24.7943   -2.2806  -13.1968 H   0  0  0  0  0
  -25.7696   -0.7500  -11.5173 H   0  0  0  0  0
  -28.7747    0.4284  -14.3317 H   0  0  0  0  0
  -27.8491   -1.1504  -15.9969 H   0  0  0  0  0
  -28.9878    0.8228  -11.9712 H   0  0  0  0  0
  -27.2158    1.7146   -7.5269 H   0  0  0  0  0
  -28.7587    0.8255   -7.5375 H   0  0  0  0  0
  -27.2777    0.0462   -8.1462 H   0  0  0  0  0
  -29.5275    4.2105  -15.1719 H   0  0  0  0  0
  -28.8428   10.6267  -15.6477 H   0  0  0  0  0
  -29.4209    9.5305  -14.3690 H   0  0  0  0  0
  -27.8971   10.4260  -14.1523 H   0  0  0  0  0
  -26.9749   -0.0594  -10.1984 H   0  0  0  0  0
  -29.2249    2.6017  -13.0659 H   0  0  0  0  0
  -26.5931    7.3127  -14.4750 H   0  0  0  0  0
  -29.3970    4.9361  -17.1801 H   0  0  0  0  0
  -30.0344    8.4969  -19.4501 H   0  0  0  0  0
  2  1  1  0  0  0
 20  2  1  0  0  0
 20  3  2  0  0  0
 20  4  2  0  0  0
  6  5  4  0  0  0
  5 21  4  0  0  0
  7  6  4  0  0  0
  7  8  4  0  0  0
 10  7  1  0  0  0
  8  9  4  0  0  0
  9 21  4  0  0  0
 10 22  1  0  0  0
 24 10  1  0  0  0
 11 12  1  0  0  0
 22 11  1  0  0  0
 11 23  2  0  0  0
 14 13  4  0  0  0
 13 26  1  0  0  0
 28 13  4  0  0  0
 15 14  4  0  0  0
 15 27  4  0  0  0
 29 15  1  0  0  0
 16 19  1  0  0  0
 30 16  4  0  0  0
 16 31  4  0  0  0
 29 17  4  0  0  0
 17 32  4  0  0  0
 17 34  1  0  0  0
 34 18  1  0  0  0
 19 35  3  0  0  0
 21 20  1  0  0  0
 24 25  2  0  0  0
 26 24  1  0  0  0
 27 28  4  0  0  0
 29 30  4  0  0  0
 31 32  4  0  0  0
 32 33  1  0  0  0
  1 36  1  0  0  0
  1 37  1  0  0  0
  1 38  1  0  0  0
  2 39  1  0  0  0
  2 40  1  0  0  0
  5 41  1  0  0  0
  6 42  1  0  0  0
  8 43  1  0  0  0
  9 44  1  0  0  0
 10 45  1  0  0  0
 12 46  1  0  0  0
 12 47  1  0  0  0
 12 48  1  0  0  0
 14 49  1  0  0  0
 18 50  1  0  0  0
 18 51  1  0  0  0
 18 52  1  0  0  0
 22 53  1  0  0  0
 26 54  1  0  0  0
 27 55  1  0  0  0
 30 56  1  0  0  0
 31 57  1  0  0  0
M  END
$$$$
