6t1m_ligand
  -I-interpret- 

 48 51  0  0  0  0  0  0  0  0999 V2000
    0.2380   15.1680   15.9590 N   0  0  0  0  0
    3.1380   14.0010   12.3320 C   0  0  0  0  0
   -4.2320   14.8580   19.2320 N   0  0  0  0  0
    1.6770   14.8710   14.0450 C   0  0  0  0  0
   -6.6930   12.8900   19.4650 N   0  3  0  0  0
    2.7390   15.6300   14.5370 C   0  0  0  0  0
    3.9850   15.5830   13.9330 C   0  0  0  0  0
   -0.6760   14.9650   13.8880 O   0  0  0  0  0
    0.3040   14.9890   14.6160 C   0  0  0  0  0
    1.8980   14.0490   12.9430 C   0  0  0  0  0
    4.1930   14.7690   12.8230 C   0  0  0  0  0
    5.4980   14.6810   12.2230 C   0  0  0  0  0
    6.5480   14.6310   11.7780 N   0  0  0  0  0
   -0.9020   15.0860   16.8050 C   0  0  0  0  0
   -2.1740   14.6990   16.3530 C   0  0  0  0  0
   -3.2310   14.6530   17.2670 C   0  0  0  0  0
   -4.5590   14.2320   17.1150 N   0  0  0  0  0
   -5.1020   14.3740   18.3140 C   0  0  0  0  0
   -3.0150   15.0280   18.5890 C   0  0  0  0  0
   -1.7670   15.4220   19.0450 C   0  0  0  0  0
   -0.7080   15.4430   18.1470 C   0  0  0  0  0
   -6.5350   14.0930   18.6420 C   0  0  0  0  0
   -6.1340   13.1030   20.8170 C   0  0  0  0  0
   -6.7370   12.1800   21.8730 C   0  0  0  0  0
   -7.2380   10.9080   21.2640 C   0  0  0  0  0
   -8.3300   11.1900   20.2660 C   0  0  0  0  0
   -8.1190   12.5330   19.5810 C   0  0  0  0  0
    1.1196   15.3900   16.4216 H   0  0  0  0  0
    3.2909   13.3604   11.4635 H   0  0  0  0  0
   -6.1868   12.1299   19.0107 H   0  0  0  0  0
    2.5866   16.2680   15.4075 H   0  0  0  0  0
    4.8039   16.1845   14.3276 H   0  0  0  0  0
    1.0837   13.4357   12.5571 H   0  0  0  0  0
   -2.3346   14.4388   15.3068 H   0  0  0  0  0
   -1.6199   15.7092   20.0861 H   0  0  0  0  0
    0.2836   15.7399   18.4886 H   0  0  0  0  0
   -6.9252   14.9410   19.2049 H   0  0  0  0  0
   -7.0710   13.9348   17.7061 H   0  0  0  0  0
   -6.3599   14.1287   21.1087 H   0  0  0  0  0
   -5.0655   12.8934   20.7681 H   0  0  0  0  0
   -7.5761   12.6930   22.3428 H   0  0  0  0  0
   -5.9635   11.9344   22.6007 H   0  0  0  0  0
   -7.6381   10.2726   22.0541 H   0  0  0  0  0
   -6.4124   10.4129   20.7527 H   0  0  0  0  0
   -9.2839   11.2150   20.7928 H   0  0  0  0  0
   -8.3176   10.4075   19.5073 H   0  0  0  0  0
   -8.5317   12.4656   18.5744 H   0  0  0  0  0
   -8.6093   13.2982   20.1829 H   0  0  0  0  0
  1  9  1  0  0  0
 14  1  1  0  0  0
 10  2  4  0  0  0
  2 11  4  0  0  0
 18  3  4  0  0  0
  3 19  4  0  0  0
  4  6  4  0  0  0
  9  4  1  0  0  0
  4 10  4  0  0  0
 22  5  1  0  0  0
  5 23  1  0  0  0
  5 27  1  0  0  0
  6  7  4  0  0  0
  7 11  4  0  0  0
  9  8  2  0  0  0
 11 12  1  0  0  0
 12 13  3  0  0  0
 15 14  4  0  0  0
 14 21  4  0  0  0
 16 15  4  0  0  0
 17 16  4  0  0  0
 16 19  4  0  0  0
 18 17  4  0  0  0
 18 22  1  0  0  0
 19 20  4  0  0  0
 20 21  4  0  0  0
 23 24  1  0  0  0
 24 25  1  0  0  0
 25 26  1  0  0  0
 26 27  1  0  0  0
  1 28  1  0  0  0
  2 29  1  0  0  0
  5 30  1  0  0  0
  6 31  1  0  0  0
  7 32  1  0  0  0
 10 33  1  0  0  0
 15 34  1  0  0  0
 20 35  1  0  0  0
 21 36  1  0  0  0
 22 37  1  0  0  0
 22 38  1  0  0  0
 23 39  1  0  0  0
 23 40  1  0  0  0
 24 41  1  0  0  0
 24 42  1  0  0  0
 25 43  1  0  0  0
 25 44  1  0  0  0
 26 45  1  0  0  0
 26 46  1  0  0  0
 27 47  1  0  0  0
 27 48  1  0  0  0
M  END
$$$$
