### 
### Created by X-TOOL on Wed Jan  1 15:39:35 2020
### 

@<TRIPOS>MOLECULE
6bix_ligand
  197   198     1     0     0
SMALL
GAST_HUCK


@<TRIPOS>ATOM
      1 N         -50.1320   -8.0020    1.5750 N.4       1 GLU         0.2380
      2 CA        -49.2390   -8.4570    2.6250 C.3       1 GLU         0.0665
      3 C         -49.2640   -9.9820    2.7940 C.2       1 GLU         0.2269
      4 O         -48.3620  -10.5640    3.4080 O.2       1 GLU        -0.3907
      5 CB        -49.5830   -7.7670    3.9460 C.3       1 GLU         0.0194
      6 CG        -48.8220   -8.2970    5.1750 C.3       1 GLU         0.0075
      7 CD        -47.3280   -7.9950    5.1280 C.2       1 GLU         0.0351
      8 OE1       -46.6450   -8.1760    6.1660 O.co2     1 GLU        -0.5690
      9 OE2       -46.8400   -7.5580    4.0590 O.co2     1 GLU        -0.5690
     10 N         -50.2670  -10.6480    2.2300 N.am      1 THR        -0.2586
     11 CA        -50.3820  -12.0980    2.3470 C.3       1 THR         0.1566
     12 C         -50.0550  -12.7440    1.0100 C.2       1 THR         0.2065
     13 O         -50.6900  -12.4390   -0.0060 O.2       1 THR        -0.3943
     14 CB        -51.7710  -12.5210    2.8180 C.3       1 THR         0.0924
     15 OG1       -51.9950  -11.9900    4.1210 O.3       1 THR        -0.3874
     16 CG2       -51.8420  -14.0440    2.9170 C.3       1 THR        -0.0346
     17 N         -49.0520  -13.6230    1.0130 N.am      1 VAL        -0.2634
     18 CA        -48.7130  -14.3770   -0.1860 C.3       1 VAL         0.1333
     19 C         -49.8110  -15.3910   -0.4460 C.2       1 VAL         0.2042
     20 O         -50.2280  -16.1100    0.4640 O.2       1 VAL        -0.3944
     21 CB        -47.3590  -15.0770   -0.0310 C.3       1 VAL        -0.0063
     22 CG1       -47.2420  -16.1790   -1.0850 C.3       1 VAL        -0.0584
     23 CG2       -46.2190  -14.0880   -0.1350 C.3       1 VAL        -0.0584
     24 N         -50.2600  -15.4630   -1.6870 N.am      1 CYS        -0.2629
     25 CA        -51.4110  -16.2350   -2.1120 C.3       1 CYS         0.1398
     26 C         -50.9470  -17.4880   -2.8420 C.2       1 CYS         0.2072
     27 O         -50.0880  -17.3810   -3.7300 O.2       1 CYS        -0.3942
     28 CB        -52.2910  -15.3550   -3.0310 C.3       1 CYS         0.0311
     29 SG        -53.6770  -16.1600   -3.8440 S.3       1 CYS        -0.1735
     30 N         -51.4380  -18.6920   -2.4780 N.am      1 PRO        -0.2498
     31 CA        -51.0520  -19.9420   -3.1500 C.3       1 PRO         0.1338
     32 C         -51.8990  -20.2130   -4.3870 C.2       1 PRO         0.2041
     33 O         -53.0360  -19.7400   -4.4480 O.2       1 PRO        -0.3944
     34 CB        -51.3110  -21.0020   -2.0810 C.3       1 PRO        -0.0104
     35 CG        -52.4980  -20.4580   -1.3550 C.3       1 PRO        -0.0281
     36 CD        -52.3720  -18.9480   -1.3660 C.3       1 PRO         0.0369
     37 C1        -52.4490  -22.6820   -6.2140 C.2       1 CIR         0.2040
     38 O1        -51.7030  -23.3950   -5.4870 O.2       1 CIR        -0.3944
     39 C2        -52.0570  -21.2770   -6.4990 C.3       1 CIR         0.1310
     40 N2        -51.2670  -20.7680   -5.3960 N.am      1 CIR        -0.2637
     41 C3        -51.2280  -21.2360   -7.7500 C.3       1 CIR        -0.0106
     42 C4        -51.9790  -21.8160   -8.9420 C.3       1 CIR        -0.0288
     43 C5        -52.2810  -20.6810   -9.9030 C.3       1 CIR         0.0314
     44 N6        -53.1170  -19.7100   -9.2210 N.am      1 CIR        -0.2733
     45 C7        -54.4010  -19.3770   -9.7830 C.2       1 CIR         0.2548
     46 O7        -54.7650  -19.9140  -10.8130 O.2       1 CIR        -0.4010
     47 N8        -55.2660  -18.4200   -9.1420 N.am      1 CIR        -0.2870
     48 N         -53.7370  -23.1010   -6.2880 N.am      1 THR        -0.2613
     49 CA        -54.1730  -24.4320   -5.8990 C.3       1 THR         0.1565
     50 C         -53.7320  -25.4610   -6.9260 C.2       1 THR         0.2065
     51 O         -53.5420  -25.1450   -8.1030 O.2       1 THR        -0.3943
     52 CB        -55.7000  -24.5310   -5.7720 C.3       1 THR         0.0924
     53 OG1       -56.3010  -24.1180   -7.0060 O.3       1 THR        -0.3874
     54 CG2       -56.2150  -23.6610   -4.6340 C.3       1 THR        -0.0346
     55 N         -53.5740  -26.6920   -6.4780 N.am      1 THR        -0.2613
     56 CA        -53.3860  -27.8220   -7.3690 C.3       1 THR         0.1565
     57 C         -54.7120  -28.5630   -7.4810 C.2       1 THR         0.2065
     58 O         -55.4920  -28.5960   -6.5290 O.2       1 THR        -0.3943
     59 CB        -52.3100  -28.7630   -6.8320 C.3       1 THR         0.0924
     60 OG1       -52.7410  -29.2500   -5.5600 O.3       1 THR        -0.3874
     61 CG2       -50.9740  -28.0200   -6.6390 C.3       1 THR        -0.0346
     62 N         -54.9730  -29.1550   -8.6460 N.am      1 GLN        -0.2635
     63 CA        -56.2230  -29.8670   -8.8640 C.3       1 GLN         0.1330
     64 C         -55.9480  -31.3440   -9.0920 C.2       1 GLN         0.2040
     65 O         -54.8480  -31.7410   -9.5060 O.2       1 GLN        -0.3944
     66 CB        -56.9940  -29.3130  -10.0630 C.3       1 GLN         0.0045
     67 CG        -56.2320  -29.4690  -11.3490 C.3       1 GLN         0.0412
     68 CD        -55.4630  -28.2230  -11.6700 C.2       1 GLN         0.1737
     69 OE1       -55.6860  -27.1900  -11.0430 O.2       1 GLN        -0.3973
     70 NE2       -54.5730  -28.2940  -12.6560 N.am      1 GLN        -0.3009
     71 N         -56.9770  -32.1540   -8.8420 N.am      1 GLN        -0.2636
     72 CA        -56.8310  -33.6010   -8.9110 C.3       1 GLN         0.1330
     73 C         -56.9630  -34.0930  -10.3460 C.2       1 GLN         0.2041
     74 O         -57.8570  -33.6630  -11.0800 O.2       1 GLN        -0.3944
     75 CB        -57.8660  -34.2980   -8.0250 C.3       1 GLN         0.0045
     76 CG        -57.5800  -35.7920   -7.9030 C.3       1 GLN         0.0412
     77 CD        -58.4810  -36.4980   -6.9050 C.2       1 GLN         0.1737
     78 OE1       -59.1470  -37.4720   -7.2490 O.2       1 GLN        -0.3973
     79 NE2       -58.4920  -36.0210   -5.6610 N.am      1 GLN        -0.3009
     80 N         -56.0450  -34.9780  -10.7470 N.am      1 SER        -0.2616
     81 CA        -56.1440  -35.6830  -12.0150 C.3       1 SER         0.1541
     82 C         -57.4270  -36.5090  -12.0560 C.2       1 SER         0.2087
     83 O         -57.9890  -36.8360  -11.0110 O.2       1 SER        -0.3941
     84 CB        -54.9440  -36.6160  -12.1950 C.3       1 SER         0.0843
     85 OG        -53.7470  -35.8960  -12.4400 O.3       1 SER        -0.3903
     86 N         -57.8840  -36.8910  -13.2510 N.am      1 PRO        -0.2498
     87 CA        -58.9690  -37.8790  -13.3390 C.3       1 PRO         0.1337
     88 C         -58.4890  -39.2730  -12.9450 C.2       1 PRO         0.2035
     89 O         -57.3640  -39.6760  -13.2540 O.2       1 PRO        -0.3944
     90 CB        -59.3730  -37.8270  -14.8180 C.3       1 PRO        -0.0104
     91 CG        -58.1170  -37.3980  -15.5260 C.3       1 PRO        -0.0281
     92 CD        -57.4630  -36.4160  -14.5810 C.3       1 PRO         0.0369
     93 N         -59.3590  -40.0170  -12.2680 N.am      1 GLU        -0.2694
     94 CA        -59.0280  -41.3900  -11.8600 C.3       1 GLU         0.0959
     95 C         -59.4150  -42.4190  -12.9210 C.2       1 GLU         0.0602
     96 O         -59.3620  -42.1410  -14.1210 O.co2     1 GLU        -0.5666
     97 CB        -59.7080  -41.7350  -10.5290 C.3       1 GLU        -0.0064
     98 CG        -59.3700  -40.7650   -9.4000 C.3       1 GLU         0.0038
     99 CD        -60.2890  -40.8990   -8.1940 C.2       1 GLU         0.0350
    100 OE1       -61.4020  -40.3290   -8.2290 O.co2     1 GLU        -0.5690
    101 OE2       -59.8950  -41.5640   -7.2080 O.co2     1 GLU        -0.5690
    102 OXT       -59.7890  -43.5490  -12.6000 O.co2     1 GLU        -0.5666
    103 H1        -50.0809   -6.9979    1.5022 H         1 GLU         0.2015
    104 H2        -51.0768   -8.2752    1.7957 H         1 GLU         0.2015
    105 H3        -49.8584   -8.4168    0.6980 H         1 GLU         0.2015
    106 H4        -48.2155   -8.1681    2.3438 H         1 GLU         0.1099
    107 H5        -50.6597   -7.8979    4.1290 H         1 GLU         0.0363
    108 H6        -49.3565   -6.6958    3.8404 H         1 GLU         0.0363
    109 H7        -48.9575   -9.3874    5.2276 H         1 GLU         0.0434
    110 H8        -49.2453   -7.8310    6.0770 H         1 GLU         0.0434
    111 H9        -50.9588  -10.1434    1.7135 H         1 THR         0.1885
    112 H10       -49.6491  -12.4432    3.0910 H         1 THR         0.0826
    113 H11       -52.5339  -12.1507    2.1174 H         1 THR         0.0639
    114 H12       -51.3359  -12.3268    4.7166 H         1 THR         0.2101
    115 H13       -52.8446  -14.3430    3.2567 H         1 THR         0.0257
    116 H14       -51.0899  -14.4002    3.6363 H         1 THR         0.0257
    117 H15       -51.6427  -14.4854    1.9293 H         1 THR         0.0257
    118 H16       -48.5250  -13.7664    1.8507 H         1 VAL         0.1883
    119 H17       -48.6539  -13.6849   -1.0389 H         1 VAL         0.0802
    120 H18       -47.3176  -15.5418    0.9651 H         1 VAL         0.0343
    121 H19       -46.2715  -16.6859   -0.9792 H         1 VAL         0.0234
    122 H20       -47.3166  -15.7356   -2.0889 H         1 VAL         0.0234
    123 H21       -48.0537  -16.9081   -0.9449 H         1 VAL         0.0234
    124 H22       -46.3354  -13.3120    0.6359 H         1 VAL         0.0234
    125 H23       -46.2290  -13.6202   -1.1305 H         1 VAL         0.0234
    126 H24       -45.2637  -14.6126    0.0141 H         1 VAL         0.0234
    127 H25       -49.7678  -14.9450   -2.3866 H         1 CYS         0.1884
    128 H26       -51.9967  -16.5321   -1.2296 H         1 CYS         0.0808
    129 H27       -51.6410  -14.9401   -3.8155 H         1 CYS         0.0422
    130 H28       -52.6954  -14.5356   -2.4185 H         1 CYS         0.0422
    131 H29       -53.3348  -16.9067   -4.4282 H         1 CYS         0.1019
    132 H30       -49.9898  -19.9191   -3.4351 H         1 PRO         0.0802
    133 H31       -50.4475  -21.1044   -1.4073 H         1 PRO         0.0313
    134 H32       -51.5382  -21.9770   -2.5368 H         1 PRO         0.0313
    135 H33       -52.5094  -20.8283   -0.3193 H         1 PRO         0.0287
    136 H34       -53.4243  -20.7632   -1.8638 H         1 PRO         0.0287
    137 H35       -53.3464  -18.4730   -1.5528 H         1 PRO         0.0524
    138 H36       -51.9613  -18.5802   -0.4141 H         1 PRO         0.0524
    139 H37       -52.9579  -20.6593   -6.6287 H         1 CIR         0.0800
    140 H38       -50.2694  -20.8373   -5.4027 H         1 CIR         0.1883
    141 H39       -50.3098  -21.8198   -7.5887 H         1 CIR         0.0313
    142 H40       -50.9643  -20.1908   -7.9690 H         1 CIR         0.0313
    143 H41       -52.9180  -22.2779   -8.6029 H         1 CIR         0.0287
    144 H42       -51.3576  -22.5733   -9.4423 H         1 CIR         0.0287
    145 H43       -52.8102  -21.0721  -10.7845 H         1 CIR         0.0517
    146 H44       -51.3421  -20.2040  -10.2207 H         1 CIR         0.0517
    147 H45       -52.8064  -19.2787   -8.3739 H         1 CIR         0.1845
    148 H46       -56.1542  -18.2001   -9.5453 H         1 CIR         0.1808
    149 H47       -54.9783  -17.9755   -8.2937 H         1 CIR         0.1808
    150 H48       -54.4241  -22.4592   -6.6287 H         1 THR         0.1884
    151 H49       -53.7187  -24.6732   -4.9267 H         1 THR         0.0826
    152 H50       -55.9733  -25.5770   -5.5692 H         1 THR         0.0639
    153 H51       -56.0528  -23.2202   -7.1929 H         1 THR         0.2101
    154 H52       -57.3092  -23.7529   -4.5685 H         1 THR         0.0257
    155 H53       -55.9460  -22.6115   -4.8241 H         1 THR         0.0257
    156 H54       -55.7621  -23.9899   -3.6871 H         1 THR         0.0257
    157 H55       -53.5841  -26.8517   -5.4909 H         1 THR         0.1884
    158 H56       -53.0819  -27.4580   -8.3615 H         1 THR         0.0826
    159 H57       -52.1687  -29.6005   -7.5310 H         1 THR         0.0639
    160 H58       -53.5626  -29.7159   -5.6623 H         1 THR         0.2101
    161 H59       -50.2181  -28.7193   -6.2523 H         1 THR         0.0257
    162 H60       -51.1124  -27.1968   -5.9227 H         1 THR         0.0257
    163 H61       -50.6377  -27.6136   -7.6042 H         1 THR         0.0257
    164 H62       -54.2984  -29.1091   -9.3828 H         1 GLN         0.1883
    165 H63       -56.8467  -29.7549   -7.9649 H         1 GLN         0.0801
    166 H64       -57.1900  -28.2438   -9.8949 H         1 GLN         0.0337
    167 H65       -57.9491  -29.8517  -10.1496 H         1 GLN         0.0337
    168 H66       -56.9406  -29.6749  -12.1647 H         1 GLN         0.0504
    169 H67       -55.5301  -30.3103  -11.2519 H         1 GLN         0.0504
    170 H68       -54.0370  -27.4873  -12.9048 H         1 GLN         0.1814
    171 H69       -54.4399  -29.1541  -13.1485 H         1 GLN         0.1814
    172 H70       -57.8648  -31.7608   -8.6029 H         1 GLN         0.1883
    173 H71       -55.8274  -33.8630   -8.5447 H         1 GLN         0.0801
    174 H72       -58.8647  -34.1598   -8.4649 H         1 GLN         0.0337
    175 H73       -57.8411  -33.8460   -7.0225 H         1 GLN         0.0337
    176 H74       -56.5356  -35.9223   -7.5831 H         1 GLN         0.0504
    177 H75       -57.7218  -36.2561   -8.8901 H         1 GLN         0.0504
    178 H76       -59.0685  -36.4505   -4.9659 H         1 GLN         0.1814
    179 H77       -57.9237  -35.2335   -5.4224 H         1 GLN         0.1814
    180 H78       -55.2616  -35.1620  -10.1534 H         1 SER         0.1884
    181 H79       -56.1585  -34.9487  -12.8339 H         1 SER         0.0823
    182 H80       -55.1377  -37.2844  -13.0469 H         1 SER         0.0606
    183 H81       -54.8183  -37.2144  -11.2806 H         1 SER         0.0606
    184 H82       -53.5694  -35.3200  -11.7058 H         1 SER         0.2097
    185 H83       -59.8118  -37.5911  -12.6935 H         1 PRO         0.0802
    186 H84       -60.1799  -37.0965  -14.9771 H         1 PRO         0.0313
    187 H85       -59.7002  -38.8170  -15.1686 H         1 PRO         0.0313
    188 H86       -58.3573  -36.9138  -16.4840 H         1 PRO         0.0287
    189 H87       -57.4588  -38.2607  -15.7061 H         1 PRO         0.0287
    190 H88       -56.3679  -36.4436  -14.6805 H         1 PRO         0.0524
    191 H89       -57.8224  -35.3929  -14.7657 H         1 PRO         0.0524
    192 H90       -60.2532  -39.6361  -12.0326 H         1 GLU         0.1875
    193 H91       -57.9389  -41.4448  -11.7158 H         1 GLU         0.0727
    194 H92       -59.3900  -42.7439  -10.2273 H         1 GLU         0.0323
    195 H93       -60.7972  -41.7243  -10.6820 H         1 GLU         0.0323
    196 H94       -59.4493  -39.7383   -9.7867 H         1 GLU         0.0432
    197 H95       -58.3368  -40.9553   -9.0741 H         1 GLU         0.0432
@<TRIPOS>BOND
     1    2    1 1  
     2    3    2 1  
     3    2    5 1  
     4    3    4 2  
     5   10    3 am 
     6    5    6 1  
     7    6    7 1  
     8    7    8 ar 
     9    7    9 ar 
    10   11   10 1  
    11   12   11 1  
    12   11   14 1  
    13   12   13 2  
    14   17   12 am 
    15   14   15 1  
    16   14   16 1  
    17   18   17 1  
    18   19   18 1  
    19   18   21 1  
    20   19   20 2  
    21   24   19 am 
    22   21   22 1  
    23   21   23 1  
    24   25   24 1  
    25   26   25 1  
    26   25   28 1  
    27   26   27 2  
    28   30   26 am 
    29   28   29 1  
    30   31   30 1  
    31   30   36 1  
    32   32   31 1  
    33   31   34 1  
    34   32   33 2  
    35   40   32 am 
    36   34   35 1  
    37   35   36 1  
    38   37   38 2  
    39   39   37 1  
    40   37   48 am 
    41   39   40 1  
    42   39   41 1  
    43   41   42 1  
    44   42   43 1  
    45   43   44 1  
    46   44   45 am 
    47   45   46 2  
    48   45   47 am 
    49   48   49 1  
    50   49   50 1  
    51   49   52 1  
    52   50   51 2  
    53   50   55 am 
    54   52   53 1  
    55   52   54 1  
    56   55   56 1  
    57   56   57 1  
    58   56   59 1  
    59   57   58 2  
    60   57   62 am 
    61   59   60 1  
    62   59   61 1  
    63   62   63 1  
    64   63   64 1  
    65   63   66 1  
    66   64   65 2  
    67   64   71 am 
    68   66   67 1  
    69   67   68 1  
    70   68   69 2  
    71   68   70 am 
    72   71   72 1  
    73   72   73 1  
    74   72   75 1  
    75   73   74 2  
    76   73   80 am 
    77   75   76 1  
    78   76   77 1  
    79   77   78 2  
    80   77   79 am 
    81   80   81 1  
    82   81   82 1  
    83   81   84 1  
    84   82   83 2  
    85   82   86 am 
    86   84   85 1  
    87   86   87 1  
    88   86   92 1  
    89   87   88 1  
    90   87   90 1  
    91   88   89 2  
    92   88   93 am 
    93   90   91 1  
    94   91   92 1  
    95   93   94 1  
    96   94   95 1  
    97   94   97 1  
    98   95   96 ar 
    99   95  102 ar 
   100   97   98 1  
   101   98   99 1  
   102   99  100 ar 
   103   99  101 ar 
   104    1  103 1  
   105    1  104 1  
   106    1  105 1  
   107    2  106 1  
   108    5  107 1  
   109    5  108 1  
   110    6  109 1  
   111    6  110 1  
   112   10  111 1  
   113   11  112 1  
   114   14  113 1  
   115   15  114 1  
   116   16  115 1  
   117   16  116 1  
   118   16  117 1  
   119   17  118 1  
   120   18  119 1  
   121   21  120 1  
   122   22  121 1  
   123   22  122 1  
   124   22  123 1  
   125   23  124 1  
   126   23  125 1  
   127   23  126 1  
   128   24  127 1  
   129   25  128 1  
   130   28  129 1  
   131   28  130 1  
   132   29  131 1  
   133   31  132 1  
   134   34  133 1  
   135   34  134 1  
   136   35  135 1  
   137   35  136 1  
   138   36  137 1  
   139   36  138 1  
   140   39  139 1  
   141   40  140 1  
   142   41  141 1  
   143   41  142 1  
   144   42  143 1  
   145   42  144 1  
   146   43  145 1  
   147   43  146 1  
   148   44  147 1  
   149   47  148 1  
   150   47  149 1  
   151   48  150 1  
   152   49  151 1  
   153   52  152 1  
   154   53  153 1  
   155   54  154 1  
   156   54  155 1  
   157   54  156 1  
   158   55  157 1  
   159   56  158 1  
   160   59  159 1  
   161   60  160 1  
   162   61  161 1  
   163   61  162 1  
   164   61  163 1  
   165   62  164 1  
   166   63  165 1  
   167   66  166 1  
   168   66  167 1  
   169   67  168 1  
   170   67  169 1  
   171   70  170 1  
   172   70  171 1  
   173   71  172 1  
   174   72  173 1  
   175   75  174 1  
   176   75  175 1  
   177   76  176 1  
   178   76  177 1  
   179   79  178 1  
   180   79  179 1  
   181   80  180 1  
   182   81  181 1  
   183   84  182 1  
   184   84  183 1  
   185   85  184 1  
   186   87  185 1  
   187   90  186 1  
   188   90  187 1  
   189   91  188 1  
   190   91  189 1  
   191   92  190 1  
   192   92  191 1  
   193   93  192 1  
   194   94  193 1  
   195   97  194 1  
   196   97  195 1  
   197   98  196 1  
   198   98  197 1  
@<TRIPOS>SUBSTRUCTURE
     1 GLU         1

