6bix_ligand
  -I-interpret- 

200201  0  0  0  0  0  0  0  0999 V2000
  -50.1320   -8.0020    1.5750 N   0  3  0  0  0
  -49.2390   -8.4570    2.6250 C   0  0  0  0  0
  -49.2640   -9.9820    2.7940 C   0  0  0  0  0
  -48.3620  -10.5640    3.4080 O   0  0  0  0  0
  -49.5830   -7.7670    3.9460 C   0  0  0  0  0
  -48.8220   -8.2970    5.1750 C   0  0  0  0  0
  -47.3280   -7.9950    5.1280 C   0  0  0  0  0
  -46.6450   -8.1760    6.1660 O   0  0  0  0  0
  -46.8400   -7.5580    4.0590 O   0  0  0  0  0
  -50.2670  -10.6480    2.2300 N   0  0  0  0  0
  -50.3820  -12.0980    2.3470 C   0  0  0  0  0
  -50.0550  -12.7440    1.0100 C   0  0  0  0  0
  -50.6900  -12.4390   -0.0060 O   0  0  0  0  0
  -51.7710  -12.5210    2.8180 C   0  0  0  0  0
  -51.9950  -11.9900    4.1210 O   0  0  0  0  0
  -51.8420  -14.0440    2.9170 C   0  0  0  0  0
  -49.0520  -13.6230    1.0130 N   0  0  0  0  0
  -48.7130  -14.3770   -0.1860 C   0  0  0  0  0
  -49.8110  -15.3910   -0.4460 C   0  0  0  0  0
  -50.2280  -16.1100    0.4640 O   0  0  0  0  0
  -47.3590  -15.0770   -0.0310 C   0  0  0  0  0
  -47.2420  -16.1790   -1.0850 C   0  0  0  0  0
  -46.2190  -14.0880   -0.1350 C   0  0  0  0  0
  -50.2600  -15.4630   -1.6870 N   0  0  0  0  0
  -51.4110  -16.2350   -2.1120 C   0  0  0  0  0
  -50.9470  -17.4880   -2.8420 C   0  0  0  0  0
  -50.0880  -17.3810   -3.7300 O   0  0  0  0  0
  -52.2910  -15.3550   -3.0310 C   0  0  0  0  0
  -53.6770  -16.1600   -3.8440 S   0  0  0  0  0
  -51.4380  -18.6920   -2.4780 N   0  0  0  0  0
  -51.0520  -19.9420   -3.1500 C   0  0  0  0  0
  -51.8990  -20.2130   -4.3870 C   0  0  0  0  0
  -53.0360  -19.7400   -4.4480 O   0  0  0  0  0
  -51.3110  -21.0020   -2.0810 C   0  0  0  0  0
  -52.4980  -20.4580   -1.3550 C   0  0  0  0  0
  -52.3720  -18.9480   -1.3660 C   0  0  0  0  0
  -52.4490  -22.6820   -6.2140 C   0  0  0  0  0
  -51.7030  -23.3950   -5.4870 O   0  0  0  0  0
  -52.0570  -21.2770   -6.4990 C   0  0  0  0  0
  -51.2670  -20.7680   -5.3960 N   0  0  0  0  0
  -51.2280  -21.2360   -7.7500 C   0  0  0  0  0
  -51.9790  -21.8160   -8.9420 C   0  0  0  0  0
  -52.2810  -20.6810   -9.9030 C   0  0  0  0  0
  -53.1170  -19.7100   -9.2210 N   0  0  0  0  0
  -54.4010  -19.3770   -9.7830 C   0  0  0  0  0
  -54.7650  -19.9140  -10.8130 O   0  0  0  0  0
  -55.2660  -18.4200   -9.1420 N   0  0  0  0  0
  -53.7370  -23.1010   -6.2880 N   0  0  0  0  0
  -54.1730  -24.4320   -5.8990 C   0  0  0  0  0
  -53.7320  -25.4610   -6.9260 C   0  0  0  0  0
  -53.5420  -25.1450   -8.1030 O   0  0  0  0  0
  -55.7000  -24.5310   -5.7720 C   0  0  0  0  0
  -56.3010  -24.1180   -7.0060 O   0  0  0  0  0
  -56.2150  -23.6610   -4.6340 C   0  0  0  0  0
  -53.5740  -26.6920   -6.4780 N   0  0  0  0  0
  -53.3860  -27.8220   -7.3690 C   0  0  0  0  0
  -54.7120  -28.5630   -7.4810 C   0  0  0  0  0
  -55.4920  -28.5960   -6.5290 O   0  0  0  0  0
  -52.3100  -28.7630   -6.8320 C   0  0  0  0  0
  -52.7410  -29.2500   -5.5600 O   0  0  0  0  0
  -50.9740  -28.0200   -6.6390 C   0  0  0  0  0
  -54.9730  -29.1550   -8.6460 N   0  0  0  0  0
  -56.2230  -29.8670   -8.8640 C   0  0  0  0  0
  -55.9480  -31.3440   -9.0920 C   0  0  0  0  0
  -54.8480  -31.7410   -9.5060 O   0  0  0  0  0
  -56.9940  -29.3130  -10.0630 C   0  0  0  0  0
  -56.2320  -29.4690  -11.3490 C   0  0  0  0  0
  -55.4630  -28.2230  -11.6700 C   0  0  0  0  0
  -55.6860  -27.1900  -11.0430 O   0  0  0  0  0
  -54.5730  -28.2940  -12.6560 N   0  0  0  0  0
  -56.9770  -32.1540   -8.8420 N   0  0  0  0  0
  -56.8310  -33.6010   -8.9110 C   0  0  0  0  0
  -56.9630  -34.0930  -10.3460 C   0  0  0  0  0
  -57.8570  -33.6630  -11.0800 O   0  0  0  0  0
  -57.8660  -34.2980   -8.0250 C   0  0  0  0  0
  -57.5800  -35.7920   -7.9030 C   0  0  0  0  0
  -58.4810  -36.4980   -6.9050 C   0  0  0  0  0
  -59.1470  -37.4720   -7.2490 O   0  0  0  0  0
  -58.4920  -36.0210   -5.6610 N   0  0  0  0  0
  -56.0450  -34.9780  -10.7470 N   0  0  0  0  0
  -56.1440  -35.6830  -12.0150 C   0  0  0  0  0
  -57.4270  -36.5090  -12.0560 C   0  0  0  0  0
  -57.9890  -36.8360  -11.0110 O   0  0  0  0  0
  -54.9440  -36.6160  -12.1950 C   0  0  0  0  0
  -53.7470  -35.8960  -12.4400 O   0  0  0  0  0
  -57.8840  -36.8910  -13.2510 N   0  0  0  0  0
  -58.9690  -37.8790  -13.3390 C   0  0  0  0  0
  -58.4890  -39.2730  -12.9450 C   0  0  0  0  0
  -57.3640  -39.6760  -13.2540 O   0  0  0  0  0
  -59.3730  -37.8270  -14.8180 C   0  0  0  0  0
  -58.1170  -37.3980  -15.5260 C   0  0  0  0  0
  -57.4630  -36.4160  -14.5810 C   0  0  0  0  0
  -59.3590  -40.0170  -12.2680 N   0  0  0  0  0
  -59.0280  -41.3900  -11.8600 C   0  0  0  0  0
  -59.4150  -42.4190  -12.9210 C   0  0  0  0  0
  -59.3620  -42.1410  -14.1210 O   0  0  0  0  0
  -59.7080  -41.7350  -10.5290 C   0  0  0  0  0
  -59.3700  -40.7650   -9.4000 C   0  0  0  0  0
  -60.2890  -40.8990   -8.1940 C   0  0  0  0  0
  -61.4020  -40.3290   -8.2290 O   0  0  0  0  0
  -59.8950  -41.5640   -7.2080 O   0  0  0  0  0
  -59.7890  -43.5490  -12.6000 O   0  0  0  0  0
  -49.8924   -8.4690    0.7004 H   0  0  0  0  0
  -51.0945   -8.2252    1.8284 H   0  0  0  0  0
  -50.0345   -6.9931    1.4609 H   0  0  0  0  0
  -48.2257   -8.1858    2.3287 H   0  0  0  0  0
  -50.6420   -7.9488    4.1293 H   0  0  0  0  0
  -49.3079   -6.7182    3.8340 H   0  0  0  0  0
  -48.9409   -9.3803    5.1969 H   0  0  0  0  0
  -49.2323   -7.8048    6.0568 H   0  0  0  0  0
  -47.2102   -8.5134    6.8648 H   0  0  0  0  0
  -50.9727  -10.1333    1.7032 H   0  0  0  0  0
  -49.6695  -12.4353    3.0998 H   0  0  0  0  0
  -52.5155  -12.1552    2.1109 H   0  0  0  0  0
  -52.8670  -12.2510    4.4261 H   0  0  0  0  0
  -51.6444  -14.4801    1.9378 H   0  0  0  0  0
  -51.0963  -14.3956    3.6300 H   0  0  0  0  0
  -52.8359  -14.3390    3.2536 H   0  0  0  0  0
  -48.5145  -13.7693    1.8675 H   0  0  0  0  0
  -48.6312  -13.6945   -1.0319 H   0  0  0  0  0
  -47.2971  -15.5269    0.9599 H   0  0  0  0  0
  -48.0468  -16.9007   -0.9451 H   0  0  0  0  0
  -47.3161  -15.7384   -2.0792 H   0  0  0  0  0
  -46.2800  -16.6805   -0.9792 H   0  0  0  0  0
  -46.2504  -13.6005   -1.1094 H   0  0  0  0  0
  -46.3167  -13.3390    0.6508 H   0  0  0  0  0
  -45.2714  -14.6145   -0.0211 H   0  0  0  0  0
  -49.7580  -14.9347   -2.4006 H   0  0  0  0  0
  -51.9983  -16.5436   -1.2472 H   0  0  0  0  0
  -51.6355  -15.0101   -3.8306 H   0  0  0  0  0
  -52.7260  -14.5917   -2.3858 H   0  0  0  0  0
  -54.3269  -15.2724   -4.5915 H   0  0  0  0  0
  -50.0231  -19.9192   -3.5091 H   0  0  0  0  0
  -50.4530  -21.1647   -1.4287 H   0  0  0  0  0
  -51.4878  -21.9925   -2.5002 H   0  0  0  0  0
  -52.5299  -20.8344   -0.3326 H   0  0  0  0  0
  -53.4227  -20.7709   -1.8398 H   0  0  0  0  0
  -53.3313  -18.4484   -1.5011 H   0  0  0  0  0
  -52.0124  -18.5506   -0.4168 H   0  0  0  0  0
  -52.9521  -20.6684   -6.6275 H   0  0  0  0  0
  -50.2495  -20.8386   -5.4029 H   0  0  0  0  0
  -50.3298  -21.8316   -7.5868 H   0  0  0  0  0
  -50.9870  -20.1957   -7.9687 H   0  0  0  0  0
  -52.9052  -22.2860   -8.6113 H   0  0  0  0  0
  -51.3732  -22.5761   -9.4353 H   0  0  0  0  0
  -52.7986  -21.0654  -10.7819 H   0  0  0  0  0
  -51.3525  -20.2105  -10.2265 H   0  0  0  0  0
  -52.8002  -19.2701   -8.3570 H   0  0  0  0  0
  -56.1735  -18.1983   -9.5515 H   0  0  0  0  0
  -54.9710  -17.9641   -8.2786 H   0  0  0  0  0
  -54.4378  -22.4464   -6.6356 H   0  0  0  0  0
  -53.7172  -24.6280   -4.9284 H   0  0  0  0  0
  -55.9651  -25.5653   -5.5526 H   0  0  0  0  0
  -57.2562  -24.1782   -6.9313 H   0  0  0  0  0
  -55.7655  -23.9879   -3.6964 H   0  0  0  0  0
  -55.9478  -22.6214   -4.8236 H   0  0  0  0  0
  -57.2992  -23.7529   -4.5701 H   0  0  0  0  0
  -53.5843  -26.8549   -5.4712 H   0  0  0  0  0
  -53.0620  -27.4666   -8.3472 H   0  0  0  0  0
  -52.1607  -29.5750   -7.5437 H   0  0  0  0  0
  -52.0767  -29.8449   -5.2045 H   0  0  0  0  0
  -50.6419  -27.6177   -7.5961 H   0  0  0  0  0
  -51.1125  -27.2046   -5.9291 H   0  0  0  0  0
  -50.2259  -28.7139   -6.2558 H   0  0  0  0  0
  -54.2849  -29.1082   -9.3975 H   0  0  0  0  0
  -56.8332  -29.7300   -7.9712 H   0  0  0  0  0
  -57.1627  -28.2492   -9.8956 H   0  0  0  0  0
  -57.9274  -29.8688  -10.1522 H   0  0  0  0  0
  -56.9403  -29.6610  -12.1549 H   0  0  0  0  0
  -55.5302  -30.2962  -11.2423 H   0  0  0  0  0
  -54.0392  -27.4665  -12.9218 H   0  0  0  0  0
  -54.4243  -29.1760  -13.1463 H   0  0  0  0  0
  -57.8826  -31.7529   -8.5981 H   0  0  0  0  0
  -55.8344  -33.8495   -8.5461 H   0  0  0  0  0
  -58.8499  -34.1699   -8.4763 H   0  0  0  0  0
  -57.8236  -33.8554   -7.0298 H   0  0  0  0  0
  -56.5531  -35.9029   -7.5549 H   0  0  0  0  0
  -57.7560  -36.2415   -8.8803 H   0  0  0  0  0
  -59.0699  -36.4673   -4.9488 H   0  0  0  0  0
  -57.9226  -35.2095   -5.4209 H   0  0  0  0  0
  -55.2459  -35.1657  -10.1415 H   0  0  0  0  0
  -56.1568  -34.9471  -12.8190 H   0  0  0  0  0
  -55.1373  -37.2601  -13.0528 H   0  0  0  0  0
  -54.8162  -37.1897  -11.2770 H   0  0  0  0  0
  -53.0197  -36.5134  -12.5470 H   0  0  0  0  0
  -59.7955  -37.6617  -12.6624 H   0  0  0  0  0
  -60.2011  -37.1408  -14.9953 H   0  0  0  0  0
  -59.7421  -38.7871  -15.1786 H   0  0  0  0  0
  -58.3292  -36.9499  -16.4967 H   0  0  0  0  0
  -57.4663  -38.2434  -15.7497 H   0  0  0  0  0
  -56.3790  -36.3865  -14.6916 H   0  0  0  0  0
  -57.7640  -35.3861  -14.7727 H   0  0  0  0  0
  -60.2710  -39.6285  -12.0279 H   0  0  0  0  0
  -57.9457  -41.4317  -11.7376 H   0  0  0  0  0
  -59.0574  -41.2366  -14.2257 H   0  0  0  0  0
  -59.3557  -42.7217  -10.2283 H   0  0  0  0  0
  -60.7849  -41.6862  -10.6901 H   0  0  0  0  0
  -59.4844  -39.7536   -9.7900 H   0  0  0  0  0
  -58.3562  -40.9878   -9.0674 H   0  0  0  0  0
  -59.0193  -41.9135   -7.3885 H   0  0  0  0  0
  2  1  1  0  0  0
  3  2  1  0  0  0
  2  5  1  0  0  0
  3  4  2  0  0  0
 10  3  1  0  0  0
  5  6  1  0  0  0
  6  7  1  0  0  0
  7  8  1  0  0  0
  7  9  2  0  0  0
 11 10  1  0  0  0
 12 11  1  0  0  0
 11 14  1  0  0  0
 12 13  2  0  0  0
 17 12  1  0  0  0
 14 15  1  0  0  0
 14 16  1  0  0  0
 18 17  1  0  0  0
 19 18  1  0  0  0
 18 21  1  0  0  0
 19 20  2  0  0  0
 24 19  1  0  0  0
 21 22  1  0  0  0
 21 23  1  0  0  0
 25 24  1  0  0  0
 26 25  1  0  0  0
 25 28  1  0  0  0
 26 27  2  0  0  0
 30 26  1  0  0  0
 28 29  1  0  0  0
 31 30  1  0  0  0
 30 36  1  0  0  0
 32 31  1  0  0  0
 31 34  1  0  0  0
 32 33  2  0  0  0
 40 32  1  0  0  0
 34 35  1  0  0  0
 35 36  1  0  0  0
 37 38  2  0  0  0
 39 37  1  0  0  0
 37 48  1  0  0  0
 39 40  1  0  0  0
 39 41  1  0  0  0
 41 42  1  0  0  0
 42 43  1  0  0  0
 43 44  1  0  0  0
 44 45  1  0  0  0
 45 46  2  0  0  0
 45 47  1  0  0  0
 48 49  1  0  0  0
 49 50  1  0  0  0
 49 52  1  0  0  0
 50 51  2  0  0  0
 50 55  1  0  0  0
 52 53  1  0  0  0
 52 54  1  0  0  0
 55 56  1  0  0  0
 56 57  1  0  0  0
 56 59  1  0  0  0
 57 58  2  0  0  0
 57 62  1  0  0  0
 59 60  1  0  0  0
 59 61  1  0  0  0
 62 63  1  0  0  0
 63 64  1  0  0  0
 63 66  1  0  0  0
 64 65  2  0  0  0
 64 71  1  0  0  0
 66 67  1  0  0  0
 67 68  1  0  0  0
 68 69  2  0  0  0
 68 70  1  0  0  0
 71 72  1  0  0  0
 72 73  1  0  0  0
 72 75  1  0  0  0
 73 74  2  0  0  0
 73 80  1  0  0  0
 75 76  1  0  0  0
 76 77  1  0  0  0
 77 78  2  0  0  0
 77 79  1  0  0  0
 80 81  1  0  0  0
 81 82  1  0  0  0
 81 84  1  0  0  0
 82 83  2  0  0  0
 82 86  1  0  0  0
 84 85  1  0  0  0
 86 87  1  0  0  0
 86 92  1  0  0  0
 87 88  1  0  0  0
 87 90  1  0  0  0
 88 89  2  0  0  0
 88 93  1  0  0  0
 90 91  1  0  0  0
 91 92  1  0  0  0
 93 94  1  0  0  0
 94 95  1  0  0  0
 94 97  1  0  0  0
 95 96  1  0  0  0
 95102  2  0  0  0
 97 98  1  0  0  0
 98 99  1  0  0  0
 99100  2  0  0  0
 99101  1  0  0  0
  1103  1  0  0  0
  1104  1  0  0  0
  1105  1  0  0  0
  2106  1  0  0  0
  5107  1  0  0  0
  5108  1  0  0  0
  6109  1  0  0  0
  6110  1  0  0  0
  8111  1  0  0  0
 10112  1  0  0  0
 11113  1  0  0  0
 14114  1  0  0  0
 15115  1  0  0  0
 16116  1  0  0  0
 16117  1  0  0  0
 16118  1  0  0  0
 17119  1  0  0  0
 18120  1  0  0  0
 21121  1  0  0  0
 22122  1  0  0  0
 22123  1  0  0  0
 22124  1  0  0  0
 23125  1  0  0  0
 23126  1  0  0  0
 23127  1  0  0  0
 24128  1  0  0  0
 25129  1  0  0  0
 28130  1  0  0  0
 28131  1  0  0  0
 29132  1  0  0  0
 31133  1  0  0  0
 34134  1  0  0  0
 34135  1  0  0  0
 35136  1  0  0  0
 35137  1  0  0  0
 36138  1  0  0  0
 36139  1  0  0  0
 39140  1  0  0  0
 40141  1  0  0  0
 41142  1  0  0  0
 41143  1  0  0  0
 42144  1  0  0  0
 42145  1  0  0  0
 43146  1  0  0  0
 43147  1  0  0  0
 44148  1  0  0  0
 47149  1  0  0  0
 47150  1  0  0  0
 48151  1  0  0  0
 49152  1  0  0  0
 52153  1  0  0  0
 53154  1  0  0  0
 54155  1  0  0  0
 54156  1  0  0  0
 54157  1  0  0  0
 55158  1  0  0  0
 56159  1  0  0  0
 59160  1  0  0  0
 60161  1  0  0  0
 61162  1  0  0  0
 61163  1  0  0  0
 61164  1  0  0  0
 62165  1  0  0  0
 63166  1  0  0  0
 66167  1  0  0  0
 66168  1  0  0  0
 67169  1  0  0  0
 67170  1  0  0  0
 70171  1  0  0  0
 70172  1  0  0  0
 71173  1  0  0  0
 72174  1  0  0  0
 75175  1  0  0  0
 75176  1  0  0  0
 76177  1  0  0  0
 76178  1  0  0  0
 79179  1  0  0  0
 79180  1  0  0  0
 80181  1  0  0  0
 81182  1  0  0  0
 84183  1  0  0  0
 84184  1  0  0  0
 85185  1  0  0  0
 87186  1  0  0  0
 90187  1  0  0  0
 90188  1  0  0  0
 91189  1  0  0  0
 91190  1  0  0  0
 92191  1  0  0  0
 92192  1  0  0  0
 93193  1  0  0  0
 94194  1  0  0  0
 96195  1  0  0  0
 97196  1  0  0  0
 97197  1  0  0  0
 98198  1  0  0  0
 98199  1  0  0  0
101200  1  0  0  0
M  END
$$$$
