1wv7_ligand
  -I-interpret- 

 81 83  0  0  0  0  0  0  0  0999 V2000
   35.7740    6.9790   10.1450 C   0  0  0  0  0
   34.9010    7.2020   10.9750 O   0  0  0  0  0
   35.6940    7.3980    8.8290 N   0  0  0  0  0
   34.5660    8.2960    8.4030 C   0  0  0  0  0
   34.5740    8.6430    6.9450 C   0  0  0  0  0
   35.8950    9.2320    6.5120 C   0  0  0  0  0
   33.1820    7.6680    8.6590 C   0  0  0  0  0
   32.9490    6.4990    8.4180 O   0  0  0  0  0
   32.2920    8.4820    9.1540 N   0  0  0  0  0
   30.9790    7.9410    9.3810 C   0  0  0  0  0
   31.5000    6.5260   11.4320 C   0  0  0  0  0
   31.2590    6.2100   12.7690 C   0  0  0  0  0
   30.2530    6.8840   13.4990 C   0  0  0  0  0
   29.4200    7.7840   12.8200 C   0  0  0  0  0
   29.6320    8.0750   11.4820 C   0  0  0  0  0
   30.6960    7.4900   10.7870 C   0  0  0  0  0
   30.1390    6.7110   14.9680 C   0  0  0  0  0
   30.8910    5.8260   15.6130 N   0  0  0  0  0
   35.8570    9.6840    5.0940 C   0  0  0  0  0
   35.8560    8.9050    4.1830 O   0  0  0  0  0
   35.8520   10.9840    4.9390 N   0  0  0  0  0
   38.1050    7.0270   11.3580 C   0  0  0  0  0
   36.4140    5.1670   11.4510 N   0  0  0  0  0
   37.0170    6.1760   10.6080 C   0  0  0  0  0
   36.5060    3.5670   10.9480 S   0  0  0  0  0
   36.2900    3.7220    9.5530 O   0  0  0  0  0
   35.6000    2.9280   11.8390 O   0  0  0  0  0
   38.1460    2.9610   11.1240 C   0  0  0  0  0
   38.4220    2.5360   12.5240 C   0  0  0  0  0
   29.3480    7.5000   15.7080 N   0  0  0  0  0
   43.1090    4.8000   10.8560 C   0  0  0  0  0
   42.5070    4.6640   12.1520 C   0  0  0  0  0
   41.2310    5.1690   12.4430 C   0  0  0  0  0
   40.4820    5.8250   11.4020 C   0  0  0  0  0
   41.0740    5.9800   10.1360 C   0  0  0  0  0
   42.3970    5.4860    9.8220 C   0  0  0  0  0
   40.4810    5.2520   13.6020 N   0  0  0  0  0
   39.3170    5.8940   13.3500 C   0  0  0  0  0
   39.2480    6.2620   11.9990 C   0  0  0  0  0
   43.0580    5.6440    8.5930 O   0  0  0  0  0
   42.2790    5.3630    7.4420 C   0  0  0  0  0
   43.1820    5.5340    6.2220 C   0  0  0  0  0
   42.4650    5.1750    4.9230 C   0  0  0  0  0
   36.3960    7.0995    8.1519 H   0  0  0  0  0
   34.7303    9.1884    9.0070 H   0  0  0  0  0
   33.7950    9.3842    6.7664 H   0  0  0  0  0
   34.4051    7.7289    6.3758 H   0  0  0  0  0
   36.6619    8.4633    6.6073 H   0  0  0  0  0
   36.1097   10.0950    7.1422 H   0  0  0  0  0
   32.5157    9.4536    9.3694 H   0  0  0  0  0
   30.8955    7.0564    8.7496 H   0  0  0  0  0
   30.2726    8.7425    9.1651 H   0  0  0  0  0
   32.3048    6.0312   10.8884 H   0  0  0  0  0
   31.8520    5.4358   13.2559 H   0  0  0  0  0
   28.5958    8.2605   13.3508 H   0  0  0  0  0
   28.9643    8.7654   10.9666 H   0  0  0  0  0
   31.5593    5.2529   15.0979 H   0  0  0  0  0
   35.8469   11.3858    4.0015 H   0  0  0  0  0
   35.8532   11.5950    5.7557 H   0  0  0  0  0
   37.5840    7.5272   12.1744 H   0  0  0  0  0
   38.5595    7.6665   10.6013 H   0  0  0  0  0
   35.9480    5.4189   12.3227 H   0  0  0  0  0
   37.5943    5.7792    9.7729 H   0  0  0  0  0
   38.8397    3.7599   10.8621 H   0  0  0  0  0
   38.2675    2.0974   10.4702 H   0  0  0  0  0
   38.2939    3.3872   13.1927 H   0  0  0  0  0
   37.7282    1.7437   12.8053 H   0  0  0  0  0
   39.4452    2.1670   12.5953 H   0  0  0  0  0
   29.3407    7.4063   16.7237 H   0  0  0  0  0
   28.7532    8.1942   15.2556 H   0  0  0  0  0
   44.0980    4.3850   10.6618 H   0  0  0  0  0
   43.0609    4.1502   12.9377 H   0  0  0  0  0
   40.5115    6.4949    9.3571 H   0  0  0  0  0
   38.5437    6.0961   14.0912 H   0  0  0  0  0
   41.4276    6.0411    7.3836 H   0  0  0  0  0
   41.8871    4.3468    7.4862 H   0  0  0  0  0
   44.0363    4.8665    6.3348 H   0  0  0  0  0
   43.4840    6.5798    6.1661 H   0  0  0  0  0
   42.1411    4.1350    4.9637 H   0  0  0  0  0
   41.5972    5.8225    4.7976 H   0  0  0  0  0
   43.1465    5.3121    4.0835 H   0  0  0  0  0
  1  2  2  0  0  0
  1  3  1  0  0  0
 24  1  1  0  0  0
  3  4  1  0  0  0
  4  5  1  0  0  0
  4  7  1  0  0  0
  5  6  1  0  0  0
  6 19  1  0  0  0
  7  8  2  0  0  0
  7  9  1  0  0  0
  9 10  1  0  0  0
 10 16  1  0  0  0
 11 12  4  0  0  0
 16 11  4  0  0  0
 12 13  4  0  0  0
 14 13  4  0  0  0
 13 17  1  0  0  0
 15 14  4  0  0  0
 16 15  4  0  0  0
 17 18  2  0  0  0
 17 30  1  0  0  0
 19 20  2  0  0  0
 19 21  1  0  0  0
 22 24  1  0  0  0
 39 22  1  0  0  0
 24 23  1  0  0  0
 23 25  1  0  0  0
 25 26  2  0  0  0
 25 27  2  0  0  0
 25 28  1  0  0  0
 28 29  1  0  0  0
 32 31  4  0  0  0
 31 36  4  0  0  0
 33 32  4  0  0  0
 34 33  4  0  0  0
 33 37  4  0  0  0
 34 35  4  0  0  0
 34 39  4  0  0  0
 35 36  4  0  0  0
 36 40  1  0  0  0
 37 38  4  0  0  0
 38 39  4  0  0  0
 40 41  1  0  0  0
 41 42  1  0  0  0
 42 43  1  0  0  0
  3 44  1  0  0  0
  4 45  1  0  0  0
  5 46  1  0  0  0
  5 47  1  0  0  0
  6 48  1  0  0  0
  6 49  1  0  0  0
  9 50  1  0  0  0
 10 51  1  0  0  0
 10 52  1  0  0  0
 11 53  1  0  0  0
 12 54  1  0  0  0
 14 55  1  0  0  0
 15 56  1  0  0  0
 18 57  1  0  0  0
 21 58  1  0  0  0
 21 59  1  0  0  0
 22 60  1  0  0  0
 22 61  1  0  0  0
 23 62  1  0  0  0
 24 63  1  0  0  0
 28 64  1  0  0  0
 28 65  1  0  0  0
 29 66  1  0  0  0
 29 67  1  0  0  0
 29 68  1  0  0  0
 30 69  1  0  0  0
 30 70  1  0  0  0
 31 71  1  0  0  0
 32 72  1  0  0  0
 35 73  1  0  0  0
 38 74  1  0  0  0
 41 75  1  0  0  0
 41 76  1  0  0  0
 42 77  1  0  0  0
 42 78  1  0  0  0
 43 79  1  0  0  0
 43 80  1  0  0  0
 43 81  1  0  0  0
M  END
$$$$
