### 
### Created by X-TOOL on Mon Sep 10 21:13:14 2018
### 

@<TRIPOS>MOLECULE
4kby_ligand
   68    74     1     0     0
SMALL
GAST_HUCK


@<TRIPOS>ATOM
      1 P1        -17.5100  -14.4210   -6.2710 P.3       1 C2E         0.2557
      2 O2P       -16.5540  -13.5400   -5.5310 O.co2     1 C2E        -0.6177
      3 O1P       -18.5230  -13.4740   -6.9090 O.co2     1 C2E        -0.6177
      4 O5'       -16.8380  -15.1790   -7.4640 O.3       1 C2E        -0.2514
      5 C5'       -17.4650  -15.3100   -8.6900 C.3       1 C2E         0.1128
      6 C4'       -17.6770  -16.6290   -9.2930 C.3       1 C2E         0.1242
      7 O4'       -16.6910  -17.6120   -9.0410 O.3       1 C2E        -0.3359
      8 C3'       -18.8210  -17.2930   -8.7080 C.3       1 C2E         0.1540
      9 O3'       -20.0850  -16.6930   -8.9410 O.3       1 C2E        -0.2453
     10 C2'       -18.7500  -18.5820   -9.2980 C.3       1 C2E         0.1440
     11 O2'       -19.5260  -18.6070  -10.4800 O.3       1 C2E        -0.3832
     12 C1'       -17.3180  -18.7440   -9.5890 C.3       1 C2E         0.1996
     13 N9        -16.8300  -20.1290   -9.3030 N.pl3     1 C2E        -0.2101
     14 C8        -17.5550  -21.1490   -8.8300 C.2       1 C2E         0.0957
     15 N7        -16.7990  -22.2550   -8.7500 N.2       1 C2E        -0.3235
     16 C5        -15.5600  -21.9540   -9.1940 C.2       1 C2E         0.0926
     17 C6        -14.3680  -22.6800   -9.3410 C.2       1 C2E         0.2135
     18 O6        -14.3090  -24.0140   -8.9890 O.2       1 C2E        -0.4091
     19 N1        -13.2810  -22.0580   -9.8270 N.am      1 C2E        -0.1839
     20 C2        -13.3550  -20.7550  -10.1620 C.2       1 C2E         0.2340
     21 N2        -12.1890  -20.0980  -10.6830 N.pl3     1 C2E        -0.2807
     22 N3        -14.4710  -20.0290  -10.0410 N.2       1 C2E        -0.2765
     23 C4        -15.5820  -20.6010   -9.5590 C.2       1 C2E         0.1159
     24 P11       -21.2670  -17.3990   -8.1690 P.3       1 C2E         0.2557
     25 O21       -22.1360  -18.2070   -9.0570 O.co2     1 C2E        -0.6177
     26 O11       -22.1710  -16.2670   -7.6950 O.co2     1 C2E        -0.6177
     27 O5A       -20.7790  -18.1670   -6.8540 O.3       1 C2E        -0.2514
     28 C5A       -20.7400  -17.5440   -5.5820 C.3       1 C2E         0.1128
     29 C4A       -19.5060  -17.4550   -4.8560 C.3       1 C2E         0.1242
     30 O4A       -18.9040  -18.7810   -4.6420 O.3       1 C2E        -0.3359
     31 C3A       -18.4760  -16.7220   -5.6230 C.3       1 C2E         0.1540
     32 O3A       -18.3520  -15.3770   -5.2930 O.3       1 C2E        -0.2453
     33 C2A       -17.2100  -17.4670   -5.4240 C.3       1 C2E         0.1440
     34 O2A       -16.2010  -16.6740   -4.9690 O.3       1 C2E        -0.3832
     35 C1A       -17.5630  -18.4520   -4.3660 C.3       1 C2E         0.1996
     36 N91       -16.5940  -19.5660   -4.1710 N.pl3     1 C2E        -0.2101
     37 C81       -16.9130  -20.7080   -3.5640 C.2       1 C2E         0.0957
     38 N71       -15.8450  -21.5180   -3.5220 N.2       1 C2E        -0.3235
     39 C51       -14.7980  -20.8830   -4.0890 C.2       1 C2E         0.0926
     40 C61       -13.4550  -21.2210   -4.3140 C.2       1 C2E         0.2135
     41 O61       -12.9730  -22.4350   -3.9150 O.2       1 C2E        -0.4091
     42 N11       -12.6320  -20.3430   -4.9230 N.am      1 C2E        -0.1839
     43 C21       -13.1130  -19.1540   -5.3130 C.2       1 C2E         0.2340
     44 N21       -12.2320  -18.2140   -5.9830 N.pl3     1 C2E        -0.2807
     45 N31       -14.3910  -18.8050   -5.1080 N.2       1 C2E        -0.2765
     46 C41       -15.2700  -19.6370   -4.4990 C.2       1 C2E         0.1159
     47 H1        -16.8690  -14.7295   -9.4096 H         1 C2E         0.0647
     48 H2        -18.4592  -14.8517   -8.5832 H         1 C2E         0.0647
     49 H3        -17.8051  -16.4891  -10.3765 H         1 C2E         0.0655
     50 H4        -18.6826  -17.3624   -7.6190 H         1 C2E         0.0712
     51 H5        -19.1020  -19.3605   -8.6052 H         1 C2E         0.0681
     52 H6        -20.4300  -18.4058  -10.2683 H         1 C2E         0.2102
     53 H7        -17.1966  -18.6411  -10.6774 H         1 C2E         0.0998
     54 H8        -18.6059  -21.0904   -8.5505 H         1 C2E         0.1179
     55 H9        -12.4227  -22.5587   -9.9394 H         1 C2E         0.2515
     56 H10       -12.2319  -19.1023  -10.9430 H         1 C2E         0.1897
     57 H11       -11.3099  -20.6225  -10.7967 H         1 C2E         0.1897
     58 H12       -21.4453  -18.0921   -4.9400 H         1 C2E         0.0647
     59 H13       -21.0980  -16.5136   -5.7238 H         1 C2E         0.0647
     60 H14       -19.6943  -16.9585   -3.8927 H         1 C2E         0.0655
     61 H15       -18.7463  -16.7668   -6.6883 H         1 C2E         0.0712
     62 H16       -16.8990  -17.9653   -6.3540 H         1 C2E         0.0681
     63 H17       -16.0363  -15.9810   -5.5977 H         1 C2E         0.2102
     64 H18       -17.5603  -17.9138   -3.4066 H         1 C2E         0.0998
     65 H19       -17.8959  -20.9484   -3.1613 H         1 C2E         0.1179
     66 H20       -11.6727  -20.5766   -5.0820 H         1 C2E         0.2515
     67 H21       -12.5916  -17.2978   -6.2867 H         1 C2E         0.1897
     68 H22       -11.2475  -18.4634   -6.1546 H         1 C2E         0.1897
@<TRIPOS>BOND
     1    1    2 ar 
     2    1    3 ar 
     3    1    4 1  
     4    1   32 1  
     5    4    5 1  
     6    5    6 1  
     7    6    7 1  
     8    6    8 1  
     9    7   12 1  
    10    8    9 1  
    11    8   10 1  
    12    9   24 1  
    13   10   11 1  
    14   10   12 1  
    15   12   13 1  
    16   13   14 1  
    17   13   23 1  
    18   14   15 2  
    19   15   16 1  
    20   16   17 1  
    21   16   23 2  
    22   17   18 2  
    23   17   19 am 
    24   19   20 am 
    25   20   21 1  
    26   20   22 2  
    27   22   23 1  
    28   24   25 ar 
    29   24   26 ar 
    30   24   27 1  
    31   27   28 1  
    32   28   29 1  
    33   29   30 1  
    34   29   31 1  
    35   30   35 1  
    36   31   32 1  
    37   31   33 1  
    38   33   34 1  
    39   33   35 1  
    40   35   36 1  
    41   36   37 1  
    42   36   46 1  
    43   37   38 2  
    44   38   39 1  
    45   39   40 1  
    46   39   46 2  
    47   40   41 2  
    48   40   42 am 
    49   42   43 am 
    50   43   44 1  
    51   43   45 2  
    52   45   46 1  
    53    5   47 1  
    54    5   48 1  
    55    6   49 1  
    56    8   50 1  
    57   10   51 1  
    58   11   52 1  
    59   12   53 1  
    60   14   54 1  
    61   19   55 1  
    62   21   56 1  
    63   21   57 1  
    64   28   58 1  
    65   28   59 1  
    66   29   60 1  
    67   31   61 1  
    68   33   62 1  
    69   34   63 1  
    70   35   64 1  
    71   37   65 1  
    72   42   66 1  
    73   44   67 1  
    74   44   68 1  
@<TRIPOS>SUBSTRUCTURE
     1 C2E         1

