1fh9_ligand
  -I-interpret- 

 38 39  0  0  0  0  0  0  0  0999 V2000
   17.0240   65.6540   38.7720 C   0  0  0  0  0
   16.7500   64.6450   39.8890 C   0  0  0  0  0
   15.2930   64.1800   39.8510 C   0  0  0  0  0
   14.3450   65.3820   39.8410 C   0  0  0  0  0
   14.7300   66.3480   38.7160 C   0  0  0  0  0
   17.6140   63.5280   39.7340 O   0  0  0  0  0
   15.0250   63.3770   40.9910 O   0  0  0  0  0
   13.0080   64.9330   39.6550 O   0  0  0  0  0
   16.1090   66.7560   38.8640 O   0  0  0  0  0
   20.2840   68.0920   35.6370 C   0  0  0  0  0
   20.1080   68.9450   36.9630 C   0  0  0  0  0
   19.7760   67.9940   38.1890 C   0  0  0  0  0
   18.7680   66.9010   37.7820 C   0  0  0  0  0
   19.4320   65.9060   36.7850 C   0  0  0  0  0
   19.9320   66.7240   35.6370 N   0  0  0  0  0
   20.8960   67.6930   33.5380 O   0  0  0  0  0
   20.7740   68.6060   34.5160 N   0  0  0  0  0
   21.2120   69.7450   37.2520 O   0  0  0  0  0
   19.2280   68.7490   39.2790 O   0  0  0  0  0
   18.3660   66.1610   38.9280 O   0  0  0  0  0
   16.9027   65.1623   37.8068 H   0  0  0  0  0
   16.9337   65.1243   40.8505 H   0  0  0  0  0
   15.1332   63.6003   38.9419 H   0  0  0  0  0
   14.4219   65.9043   40.7946 H   0  0  0  0  0
   14.0888   67.2281   38.7643 H   0  0  0  0  0
   14.6054   65.8476   37.7557 H   0  0  0  0  0
   18.5266   63.8249   39.7585 H   0  0  0  0  0
   15.6196   62.6233   40.9971 H   0  0  0  0  0
   12.7733   64.3285   40.3628 H   0  0  0  0  0
   19.2724   69.6230   36.7893 H   0  0  0  0  0
   20.7085   67.5241   38.5014 H   0  0  0  0  0
   17.9086   67.3861   37.3191 H   0  0  0  0  0
   18.7163   65.1565   36.4473 H   0  0  0  0  0
   20.2481   65.3629   37.2615 H   0  0  0  0  0
   20.0307   66.2353   34.7472 H   0  0  0  0  0
   21.2530   68.1133   32.7522 H   0  0  0  0  0
   21.0477   70.2349   38.0611 H   0  0  0  0  0
   19.0337   68.1582   40.0103 H   0  0  0  0  0
  1  9  1  0  0  0
  1  2  1  0  0  0
  2  6  1  0  0  0
  2  3  1  0  0  0
  3  7  1  0  0  0
  3  4  1  0  0  0
  4  8  1  0  0  0
  5  4  1  0  0  0
  9  5  1  0  0  0
 10 17  2  0  0  0
 15 10  1  0  0  0
 11 10  1  0  0  0
 11 18  1  0  0  0
 12 11  1  0  0  0
 12 19  1  0  0  0
 13 12  1  0  0  0
 20 13  1  0  0  0
 13 14  1  0  0  0
 14 15  1  0  0  0
 17 16  1  0  0  0
 20  1  1  0  0  0
  1 21  1  0  0  0
  2 22  1  0  0  0
  3 23  1  0  0  0
  4 24  1  0  0  0
  5 25  1  0  0  0
  5 26  1  0  0  0
  6 27  1  0  0  0
  7 28  1  0  0  0
  8 29  1  0  0  0
 11 30  1  0  0  0
 12 31  1  0  0  0
 13 32  1  0  0  0
 14 33  1  0  0  0
 14 34  1  0  0  0
 15 35  1  0  0  0
 16 36  1  0  0  0
 18 37  1  0  0  0
 19 38  1  0  0  0
M  END
$$$$
