5ijp_ligand
  -I-interpret- 

 54 54  0  0  0  0  0  0  0  0999 V2000
  -16.8110  -10.8510   14.5910 O   0  0  0  0  0
  -17.9130  -10.0870   13.9340 P   0  0  0  0  0
  -18.9930   -9.6380   14.9210 O   0  0  0  0  0
  -18.5870  -10.8720   12.8040 O   0  0  0  0  0
  -17.3290   -8.7250   13.2650 O   0  0  0  0  0
  -17.9250   -7.8250   12.3070 C   0  0  0  0  0
  -16.8630   -7.4660   11.2770 C   0  0  0  0  0
  -16.5590   -8.6500   10.5090 O   0  0  0  0  0
  -15.1000   -9.3760   10.3700 P   0  0  0  0  0
  -15.0570  -10.4400   11.4690 O   0  0  0  0  0
  -13.9830   -8.3860   10.4800 O   0  0  0  0  0
  -15.1190  -10.0950    9.0180 O   0  0  0  0  0
  -18.4190   -6.5940   13.0540 C   0  0  0  0  0
  -19.5220   -6.9970   13.8940 O   0  0  0  0  0
  -20.1250   -6.4580   15.2740 P   0  0  0  0  0
  -19.3220   -5.2080   15.6640 O   0  0  0  0  0
  -20.0670   -7.5290   16.3130 O   0  0  0  0  0
  -21.5580   -6.0200   14.9600 O   0  0  0  0  0
  -18.9220   -5.5260   12.0930 C   0  0  0  0  0
  -19.2310   -4.3420   12.8580 O   0  0  0  0  0
  -20.5500   -3.4430   12.9610 P   0  0  0  0  0
  -21.7430   -4.3490   12.6270 O   0  0  0  0  0
  -20.4310   -2.3870   11.8580 O   0  0  0  0  0
  -20.6510   -2.8410   14.3240 O   0  0  0  0  0
  -17.8570   -5.1610   11.0680 C   0  0  0  0  0
  -18.4380   -4.2510   10.1100 O   0  0  0  0  0
  -17.6890   -2.9440    9.4260 P   0  0  0  0  0
  -18.1840   -2.8920    7.9780 O   0  0  0  0  0
  -18.0160   -1.7050   10.1910 O   0  0  0  0  0
  -16.1830   -3.2400    9.3960 O   0  0  0  0  0
  -17.3410   -6.3830   10.3190 C   0  0  0  0  0
  -18.3990   -6.9160    9.4930 O   0  0  0  0  0
  -18.4200   -7.2570    7.9170 P   0  0  0  0  0
  -19.2480   -6.2530    7.1970 O   0  0  0  0  0
  -16.9680   -7.2890    7.4280 O   0  0  0  0  0
  -18.9790   -8.6730    7.8110 O   0  0  0  0  0
  -19.6745   -9.1535   14.4493 H   0  0  0  0  0
  -19.2848  -10.3382   12.4170 H   0  0  0  0  0
  -18.7719   -8.2785   11.7921 H   0  0  0  0  0
  -15.9879   -7.0892   11.8064 H   0  0  0  0  0
  -15.7913  -11.0475   11.3536 H   0  0  0  0  0
  -15.8504  -10.7164    8.9976 H   0  0  0  0  0
  -17.5936   -6.1800   13.6332 H   0  0  0  0  0
  -19.3919   -4.5533   14.9654 H   0  0  0  0  0
  -21.5418   -5.3332   14.2895 H   0  0  0  0  0
  -19.7971   -5.9107   11.5693 H   0  0  0  0  0
  -21.6318   -4.7102   11.7445 H   0  0  0  0  0
  -20.3692   -2.8227   11.0048 H   0  0  0  0  0
  -17.0185   -4.7090   11.5977 H   0  0  0  0  0
  -17.9497   -3.7088    7.5314 H   0  0  0  0  0
  -16.0258   -4.0432    8.8942 H   0  0  0  0  0
  -16.4949   -6.0724    9.7060 H   0  0  0  0  0
  -16.4793   -7.9507    7.9230 H   0  0  0  0  0
  -18.4087   -9.2778    8.2912 H   0  0  0  0  0
  1  2  2  0  0  0
  2  3  1  0  0  0
  2  4  1  0  0  0
  2  5  1  0  0  0
  5  6  1  0  0  0
  6  7  1  0  0  0
  6 13  1  0  0  0
  7  8  1  0  0  0
  7 31  1  0  0  0
  8  9  1  0  0  0
  9 10  1  0  0  0
  9 11  2  0  0  0
  9 12  1  0  0  0
 13 14  1  0  0  0
 13 19  1  0  0  0
 14 15  1  0  0  0
 15 16  1  0  0  0
 15 17  2  0  0  0
 15 18  1  0  0  0
 19 20  1  0  0  0
 19 25  1  0  0  0
 20 21  1  0  0  0
 21 22  1  0  0  0
 21 23  1  0  0  0
 21 24  2  0  0  0
 25 26  1  0  0  0
 25 31  1  0  0  0
 26 27  1  0  0  0
 27 28  1  0  0  0
 27 29  2  0  0  0
 27 30  1  0  0  0
 31 32  1  0  0  0
 32 33  1  0  0  0
 33 34  2  0  0  0
 33 35  1  0  0  0
 33 36  1  0  0  0
  3 37  1  0  0  0
  4 38  1  0  0  0
  6 39  1  0  0  0
  7 40  1  0  0  0
 10 41  1  0  0  0
 12 42  1  0  0  0
 13 43  1  0  0  0
 16 44  1  0  0  0
 18 45  1  0  0  0
 19 46  1  0  0  0
 22 47  1  0  0  0
 23 48  1  0  0  0
 25 49  1  0  0  0
 28 50  1  0  0  0
 30 51  1  0  0  0
 31 52  1  0  0  0
 35 53  1  0  0  0
 36 54  1  0  0  0
M  END
$$$$
