### 
### Created by X-TOOL on Mon Sep 10 21:13:30 2018
### 

@<TRIPOS>MOLECULE
5ijp_ligand
   42    42     1     0     0
SMALL
GAST_HUCK


@<TRIPOS>ATOM
      1 O44       -16.8110  -10.8510   14.5910 O.co2     1 I6P        -0.5537
      2 P4        -17.9130  -10.0870   13.9340 P.3       1 I6P         0.2013
      3 O24       -18.9930   -9.6380   14.9210 O.co2     1 I6P        -0.5537
      4 O34       -18.5870  -10.8720   12.8040 O.co2     1 I6P        -0.5537
      5 O14       -17.3290   -8.7250   13.2650 O.3       1 I6P        -0.2668
      6 C4        -17.9250   -7.8250   12.3070 C.3       1 I6P         0.1556
      7 C3        -16.8630   -7.4660   11.2770 C.3       1 I6P         0.1556
      8 O13       -16.5590   -8.6500   10.5090 O.3       1 I6P        -0.2668
      9 P3        -15.1000   -9.3760   10.3700 P.3       1 I6P         0.2013
     10 O43       -15.0570  -10.4400   11.4690 O.co2     1 I6P        -0.5537
     11 O33       -13.9830   -8.3860   10.4800 O.co2     1 I6P        -0.5537
     12 O23       -15.1190  -10.0950    9.0180 O.co2     1 I6P        -0.5537
     13 C5        -18.4190   -6.5940   13.0540 C.3       1 I6P         0.1556
     14 O15       -19.5220   -6.9970   13.8940 O.3       1 I6P        -0.2668
     15 P5        -20.1250   -6.4580   15.2740 P.3       1 I6P         0.2013
     16 O45       -19.3220   -5.2080   15.6640 O.co2     1 I6P        -0.5537
     17 O35       -20.0670   -7.5290   16.3130 O.co2     1 I6P        -0.5537
     18 O25       -21.5580   -6.0200   14.9600 O.co2     1 I6P        -0.5537
     19 C6        -18.9220   -5.5260   12.0930 C.3       1 I6P         0.1556
     20 O16       -19.2310   -4.3420   12.8580 O.3       1 I6P        -0.2668
     21 P6        -20.5500   -3.4430   12.9610 P.3       1 I6P         0.2013
     22 O46       -21.7430   -4.3490   12.6270 O.co2     1 I6P        -0.5537
     23 O36       -20.4310   -2.3870   11.8580 O.co2     1 I6P        -0.5537
     24 O26       -20.6510   -2.8410   14.3240 O.co2     1 I6P        -0.5537
     25 C1        -17.8570   -5.1610   11.0680 C.3       1 I6P         0.1556
     26 O11       -18.4380   -4.2510   10.1100 O.3       1 I6P        -0.2668
     27 P1        -17.6890   -2.9440    9.4260 P.3       1 I6P         0.2013
     28 O41       -18.1840   -2.8920    7.9780 O.co2     1 I6P        -0.5537
     29 O31       -18.0160   -1.7050   10.1910 O.co2     1 I6P        -0.5537
     30 O21       -16.1830   -3.2400    9.3960 O.co2     1 I6P        -0.5537
     31 C2        -17.3410   -6.3830   10.3190 C.3       1 I6P         0.1556
     32 O12       -18.3990   -6.9160    9.4930 O.3       1 I6P        -0.2668
     33 P2        -18.4200   -7.2570    7.9170 P.3       1 I6P         0.2013
     34 O22       -19.2480   -6.2530    7.1970 O.co2     1 I6P        -0.5537
     35 O32       -16.9680   -7.2890    7.4280 O.co2     1 I6P        -0.5537
     36 O42       -18.9790   -8.6730    7.8110 O.co2     1 I6P        -0.5537
     37 H1        -18.7732   -8.3131   11.8047 H         1 I6P         0.0710
     38 H2        -15.9596   -7.1147   11.7970 H         1 I6P         0.0710
     39 H3        -17.6036   -6.1828   13.6673 H         1 I6P         0.0710
     40 H4        -19.8221   -5.8900   11.5759 H         1 I6P         0.0710
     41 H5        -17.0158   -4.6733   11.5823 H         1 I6P         0.0710
     42 H6        -16.4995   -6.0779    9.6797 H         1 I6P         0.0710
@<TRIPOS>BOND
     1    1    2 ar 
     2    2    3 ar 
     3    2    4 ar 
     4    2    5 1  
     5    5    6 1  
     6    6    7 1  
     7    6   13 1  
     8    7    8 1  
     9    7   31 1  
    10    8    9 1  
    11    9   10 ar 
    12    9   11 ar 
    13    9   12 ar 
    14   13   14 1  
    15   13   19 1  
    16   14   15 1  
    17   15   16 ar 
    18   15   17 ar 
    19   15   18 ar 
    20   19   20 1  
    21   19   25 1  
    22   20   21 1  
    23   21   22 ar 
    24   21   23 ar 
    25   21   24 ar 
    26   25   26 1  
    27   25   31 1  
    28   26   27 1  
    29   27   28 ar 
    30   27   29 ar 
    31   27   30 ar 
    32   31   32 1  
    33   32   33 1  
    34   33   34 ar 
    35   33   35 ar 
    36   33   36 ar 
    37    6   37 1  
    38    7   38 1  
    39   13   39 1  
    40   19   40 1  
    41   25   41 1  
    42   31   42 1  
@<TRIPOS>SUBSTRUCTURE
     1 I6P         1

