3zt3_ligand
  -I-interpret- 

 37 40  0  0  0  0  0  0  0  0999 V2000
  -30.8300   28.9060    0.8530 C   0  0  0  0  0
  -30.9620   27.6980    0.2230 C   0  0  0  0  0
  -31.7000   29.9440    0.5690 C   0  0  0  0  0
  -33.3270   32.2570    1.9100 C   0  0  0  0  0
  -31.9920   27.5060   -0.6750 C   0  0  0  0  0
  -32.6360   32.9460    2.9270 C   0  0  0  0  0
  -32.7350   29.7590   -0.3190 C   0  0  0  0  0
  -33.3900   32.7840    0.6220 C   0  0  0  0  0
  -32.7690   34.0270    0.3100 C   0  0  0  0  0
  -32.8610   28.5410   -0.9320 C   0  0  0  0  0
  -32.0140   34.1210    2.5610 C   0  0  0  0  0
  -32.0970   34.6550    1.3260 C   0  0  0  0  0
  -33.7760   30.7160   -0.7950 C   0  0  0  0  0
  -34.0950   32.0210   -0.4510 C   0  0  0  0  0
  -32.8230   34.6480   -1.0660 C   0  0  0  0  0
  -34.0220   28.5210   -1.8800 C   0  0  0  0  0
  -30.7460   35.8440    2.5540 C   0  0  0  0  0
  -34.4390   29.9960   -1.9620 C   0  0  0  0  0
  -31.8600   35.3140   -1.5410 O   0  0  0  0  0
  -33.9150   34.5140   -1.7120 O   0  0  0  0  0
  -31.3070   34.9130    3.4250 O   0  0  0  0  0
  -31.4280   35.8590    1.2840 O   0  0  0  0  0
  -35.8220   30.1920   -1.8620 O   0  0  0  0  0
  -30.0341   29.0514    1.5834 H   0  0  0  0  0
  -30.2575   26.8923    0.4295 H   0  0  0  0  0
  -31.5649   30.9124    1.0507 H   0  0  0  0  0
  -33.8142   31.3076    2.1323 H   0  0  0  0  0
  -32.1156   26.5453   -1.1749 H   0  0  0  0  0
  -32.5954   32.5698    3.9492 H   0  0  0  0  0
  -34.9020   32.5154   -0.9917 H   0  0  0  0  0
  -34.8309   27.8754   -1.5381 H   0  0  0  0  0
  -33.7612   28.1047   -2.8530 H   0  0  0  0  0
  -29.7044   35.5721    2.3829 H   0  0  0  0  0
  -30.8329   36.8331    3.0038 H   0  0  0  0  0
  -34.1322   30.3767   -2.9362 H   0  0  0  0  0
  -34.5258   33.9803   -1.1985 H   0  0  0  0  0
  -36.2608   29.7454   -2.5897 H   0  0  0  0  0
  1  2  4  0  0  0
  3  1  4  0  0  0
  5  2  4  0  0  0
  7  3  4  0  0  0
  4  6  4  0  0  0
  8  4  4  0  0  0
 10  5  4  0  0  0
  6 11  4  0  0  0
  7 10  4  0  0  0
 13  7  1  0  0  0
  8  9  4  0  0  0
 14  8  1  0  0  0
  9 12  4  0  0  0
  9 15  1  0  0  0
 10 16  1  0  0  0
 12 11  4  0  0  0
 11 21  1  0  0  0
 12 22  1  0  0  0
 13 14  2  0  0  0
 13 18  1  0  0  0
 15 19  2  0  0  0
 15 20  1  0  0  0
 16 18  1  0  0  0
 21 17  1  0  0  0
 17 22  1  0  0  0
 18 23  1  0  0  0
  1 24  1  0  0  0
  2 25  1  0  0  0
  3 26  1  0  0  0
  4 27  1  0  0  0
  5 28  1  0  0  0
  6 29  1  0  0  0
 14 30  1  0  0  0
 16 31  1  0  0  0
 16 32  1  0  0  0
 17 33  1  0  0  0
 17 34  1  0  0  0
 18 35  1  0  0  0
 20 36  1  0  0  0
 23 37  1  0  0  0
M  END
$$$$
