3g6g_ligand
  -I-interpret- 

 85 90  0  0  0  0  0  0  0  0999 V2000
   15.3240   38.0830    5.6990 C   0  0  0  0  0
   15.4190   39.2840    4.9690 C   0  0  0  0  0
   14.2580   39.9660    4.5920 C   0  0  0  0  0
   13.0210   39.4200    4.9660 C   0  0  0  0  0
   12.9430   38.2270    5.7040 C   0  0  0  0  0
   14.0870   37.5440    6.0870 C   0  0  0  0  0
   15.6520   41.4590    3.3330 C   0  0  0  0  0
   13.0540   35.8060    7.4560 C   0  0  0  0  0
   10.8710   35.9070    8.3140 C   0  0  0  0  0
   12.1980   34.0130    8.6400 C   0  0  0  0  0
   -1.1130   29.0840    6.8250 C   0  0  0  0  0
   -2.4800   29.7700    7.0010 C   0  0  0  0  0
   -3.4970   28.7220    6.8850 N   0  3  0  0  0
   -4.8520   29.3030    6.7730 C   0  0  0  0  0
   -3.4110   27.6770    7.9390 C   0  0  0  0  0
   -2.0120   27.0400    7.9010 C   0  0  0  0  0
   -0.9600   28.0990    7.9270 N   0  3  0  0  0
    0.4010   27.5160    8.0760 C   0  0  0  0  0
    1.4650   28.5640    8.3850 C   0  0  0  0  0
    2.6140   28.5870    7.6000 C   0  0  0  0  0
    3.5980   29.5380    7.8430 C   0  0  0  0  0
    1.3150   29.4900    9.4080 C   0  0  0  0  0
    2.3130   30.4440    9.6550 C   0  0  0  0  0
    3.4580   30.4650    8.8700 C   0  0  0  0  0
    4.6010   31.4760    9.0740 C   0  0  0  0  0
    5.4760   31.5530    8.2070 O   0  0  0  0  0
    4.5620   32.1840   10.2270 N   0  0  0  0  0
    5.4640   33.0670   10.6830 C   0  0  0  0  0
    6.5630   33.5540    9.9370 C   0  0  0  0  0
    5.3140   33.5010   11.9960 C   0  0  0  0  0
    6.2260   34.4080   12.5440 C   0  0  0  0  0
    7.3000   34.9070   11.8070 C   0  0  0  0  0
    8.2710   35.9050   12.4890 C   0  0  0  0  0
    7.4760   34.4900   10.4740 C   0  0  0  0  0
    8.5240   34.9560    9.7370 N   0  0  0  0  0
    8.5540   36.1790    9.1750 C   0  0  0  0  0
    7.4540   36.9420    9.2660 N   0  0  0  0  0
    7.3760   38.1630    8.7300 C   0  0  0  0  0
    8.4610   38.6890    8.0210 C   0  0  0  0  0
    9.6290   37.9170    7.8670 C   0  0  0  0  0
    9.6890   36.6500    8.4670 C   0  0  0  0  0
   11.8930   36.4630    7.6490 N   0  0  0  0  0
   11.0400   34.6610    8.8170 N   0  0  0  0  0
   13.2000   34.5610    7.9740 N   0  0  0  0  0
   14.0740   36.3800    6.7820 N   0  0  0  0  0
   14.3030   41.1520    3.8660 O   0  0  0  0  0
   16.2386   37.5561    5.9709 H   0  0  0  0  0
   16.3971   39.6815    4.6981 H   0  0  0  0  0
   12.1024   39.9314    4.6784 H   0  0  0  0  0
   11.9656   37.8314    5.9803 H   0  0  0  0  0
   16.3557   41.5515    4.1602 H   0  0  0  0  0
   15.9714   40.6543    2.6708 H   0  0  0  0  0
   15.6172   42.3962    2.7775 H   0  0  0  0  0
   12.3173   33.0118    9.0540 H   0  0  0  0  0
   -0.3104   29.8208    6.8592 H   0  0  0  0  0
   -1.0600   28.5841    5.8579 H   0  0  0  0  0
   -2.6281   30.5395    6.2433 H   0  0  0  0  0
   -2.5431   30.2660    7.9696 H   0  0  0  0  0
   -3.2965   28.2273    6.0158 H   0  0  0  0  0
   -5.0650   29.8988    7.6606 H   0  0  0  0  0
   -4.9021   29.9369    5.8877 H   0  0  0  0  0
   -5.5843   28.5001    6.6884 H   0  0  0  0  0
   -4.1674   26.9127    7.7608 H   0  0  0  0  0
   -3.5832   28.1267    8.9168 H   0  0  0  0  0
   -1.9100   26.4594    6.9842 H   0  0  0  0  0
   -1.8903   26.3959    8.7719 H   0  0  0  0  0
   -1.0966   28.6588    8.7686 H   0  0  0  0  0
    0.6654   27.0418    7.1308 H   0  0  0  0  0
    0.3731   26.8141    8.9095 H   0  0  0  0  0
    2.7418   27.8612    6.7969 H   0  0  0  0  0
    4.4920   29.5575    7.2198 H   0  0  0  0  0
    0.4156   29.4757   10.0235 H   0  0  0  0  0
    2.1900   31.1671   10.4613 H   0  0  0  0  0
    3.7481   32.0274   10.8216 H   0  0  0  0  0
    6.7101   33.1968    8.9178 H   0  0  0  0  0
    4.4837   33.1332   12.5989 H   0  0  0  0  0
    6.0941   34.7342   13.5757 H   0  0  0  0  0
    7.7178   36.7891   12.8060 H   0  0  0  0  0
    8.7276   35.4299   13.3573 H   0  0  0  0  0
    9.0478   36.1952   11.7815 H   0  0  0  0  0
    9.3295   34.3445    9.6041 H   0  0  0  0  0
    6.4652   38.7506    8.8453 H   0  0  0  0  0
    8.4030   39.6889    7.5909 H   0  0  0  0  0
   10.4725   38.2976    7.2911 H   0  0  0  0  0
   14.9557   35.8673    6.7981 H   0  0  0  0  0
  1  2  4  0  0  0
  6  1  4  0  0  0
  2  3  4  0  0  0
  4  3  4  0  0  0
  3 46  1  0  0  0
  5  4  4  0  0  0
  6  5  4  0  0  0
 45  6  1  0  0  0
 46  7  1  0  0  0
 42  8  4  0  0  0
  8 44  4  0  0  0
  8 45  1  0  0  0
 41  9  1  0  0  0
  9 42  4  0  0  0
  9 43  4  0  0  0
 43 10  4  0  0  0
 10 44  4  0  0  0
 11 12  1  0  0  0
 17 11  1  0  0  0
 12 13  1  0  0  0
 13 14  1  0  0  0
 15 13  1  0  0  0
 16 15  1  0  0  0
 17 16  1  0  0  0
 18 17  1  0  0  0
 19 18  1  0  0  0
 20 19  4  0  0  0
 22 19  4  0  0  0
 21 20  4  0  0  0
 24 21  4  0  0  0
 23 22  4  0  0  0
 24 23  4  0  0  0
 25 24  1  0  0  0
 25 26  2  0  0  0
 27 25  1  0  0  0
 28 27  1  0  0  0
 29 28  4  0  0  0
 28 30  4  0  0  0
 34 29  4  0  0  0
 31 30  4  0  0  0
 32 31  4  0  0  0
 32 33  1  0  0  0
 34 32  4  0  0  0
 35 34  1  0  0  0
 36 35  1  0  0  0
 36 37  4  0  0  0
 36 41  4  0  0  0
 37 38  4  0  0  0
 38 39  4  0  0  0
 39 40  4  0  0  0
 40 41  4  0  0  0
  1 47  1  0  0  0
  2 48  1  0  0  0
  4 49  1  0  0  0
  5 50  1  0  0  0
  7 51  1  0  0  0
  7 52  1  0  0  0
  7 53  1  0  0  0
 10 54  1  0  0  0
 11 55  1  0  0  0
 11 56  1  0  0  0
 12 57  1  0  0  0
 12 58  1  0  0  0
 13 59  1  0  0  0
 14 60  1  0  0  0
 14 61  1  0  0  0
 14 62  1  0  0  0
 15 63  1  0  0  0
 15 64  1  0  0  0
 16 65  1  0  0  0
 16 66  1  0  0  0
 17 67  1  0  0  0
 18 68  1  0  0  0
 18 69  1  0  0  0
 20 70  1  0  0  0
 21 71  1  0  0  0
 22 72  1  0  0  0
 23 73  1  0  0  0
 27 74  1  0  0  0
 29 75  1  0  0  0
 30 76  1  0  0  0
 31 77  1  0  0  0
 33 78  1  0  0  0
 33 79  1  0  0  0
 33 80  1  0  0  0
 35 81  1  0  0  0
 38 82  1  0  0  0
 39 83  1  0  0  0
 40 84  1  0  0  0
 45 85  1  0  0  0
M  END
$$$$
