### 
### Created by X-TOOL on Mon Sep 10 21:12:59 2018
### 

@<TRIPOS>MOLECULE
3ex2_ligand
   35    36     1     0     0
SMALL
GAST_HUCK


@<TRIPOS>ATOM
      1 O3P         2.0620   10.3530   30.7510 O.co2     1 6CN        -0.5537
      2 P           3.4550   10.8210   30.3570 P.3       1 6CN         0.2008
      3 O1P         4.3500   11.4250   31.4180 O.co2     1 6CN        -0.5537
      4 O2P         3.6230   11.3660   29.0050 O.co2     1 6CN        -0.5537
      5 O5'         4.1800    9.3710   30.1640 O.3       1 6CN        -0.2734
      6 C5'         4.1640    8.5200   28.9640 C.3       1 6CN         0.1071
      7 C4'         4.9100    7.2470   29.3530 C.3       1 6CN         0.1174
      8 C3'         6.4110    7.4270   29.1250 C.3       1 6CN         0.1141
      9 O3'         7.0990    6.5950   30.0930 O.3       1 6CN        -0.3864
     10 C2'         6.6370    6.9300   27.7200 C.3       1 6CN         0.1309
     11 O2'         7.9960    6.4890   27.4710 O.3       1 6CN        -0.3844
     12 O4'         4.5140    6.1480   28.4790 O.3       1 6CN        -0.3432
     13 C1'         5.5500    5.8720   27.4810 C.3       1 6CN         0.1774
     14 N1          4.9870    5.8040   26.0840 N.am      1 6CN        -0.1965
     15 C6          5.1450    4.6720   25.4360 C.3       1 6CN         0.1886
     16 C5          4.7460    4.6360   24.1590 C.3       1 6CN         0.0899
     17 C4          3.8740    5.5480   23.6310 C.2       1 6CN         0.2087
     18 O4          3.3700    5.3780   22.5020 O.2       1 6CN        -0.3867
     19 N3          3.6860    6.6700   24.2850 N.am      1 6CN        -0.1849
     20 C2          4.2190    6.8450   25.4960 C.2       1 6CN         0.2943
     21 O2          4.0050    7.9300   26.0480 O.2       1 6CN        -0.3912
     22 C7          4.5500    3.6600   26.2510 C.1       1 6CN         0.1208
     23 N8          4.0710    2.8520   26.9170 N.1       1 6CN        -0.3009
     24 H1          4.6736    9.0237   28.1294 H         1 6CN         0.0639
     25 H2          3.1293    8.2850   28.6738 H         1 6CN         0.0639
     26 H3          4.7032    7.0012   30.4050 H         1 6CN         0.0650
     27 H4          6.7201    8.4775   29.2293 H         1 6CN         0.0648
     28 H5          6.8600    6.8687   30.9707 H         1 6CN         0.2100
     29 H6          6.4525    7.7644   27.0274 H         1 6CN         0.0668
     30 H7          8.0710    6.1898   26.5725 H         1 6CN         0.2101
     31 H8          5.9878    4.8850   27.6912 H         1 6CN         0.0896
     32 H9          6.2268    4.4750   25.4059 H         1 6CN         0.0888
     33 H10         4.2806    3.6501   24.0131 H         1 6CN         0.0552
     34 H11         5.6610    4.7030   23.5521 H         1 6CN         0.0552
     35 H12         3.1395    7.3991   23.8731 H         1 6CN         0.2254
@<TRIPOS>BOND
     1    1    2 ar 
     2    2    3 ar 
     3    2    4 ar 
     4    2    5 1  
     5    5    6 1  
     6    6    7 1  
     7    7    8 1  
     8    7   12 1  
     9    8    9 1  
    10    8   10 1  
    11   10   11 1  
    12   10   13 1  
    13   12   13 1  
    14   13   14 1  
    15   14   15 1  
    16   14   20 am 
    17   15   16 1  
    18   15   22 1  
    19   16   17 1  
    20   17   18 2  
    21   17   19 am 
    22   19   20 am 
    23   20   21 2  
    24   22   23 3  
    25    6   24 1  
    26    6   25 1  
    27    7   26 1  
    28    8   27 1  
    29    9   28 1  
    30   10   29 1  
    31   11   30 1  
    32   13   31 1  
    33   15   32 1  
    34   16   33 1  
    35   16   34 1  
    36   19   35 1  
@<TRIPOS>SUBSTRUCTURE
     1 6CN         1

