5d6p_ligand
  -I-interpret- 

 31 32  0  0  0  0  0  0  0  0999 V2000
   -7.2670    5.0270    0.3990 C   0  0  0  0  0
   -5.2830    3.7270    1.1620 C   0  0  0  0  0
   -4.0380    3.2240    1.8240 C   0  0  0  0  0
   -3.4960    3.8540    2.9360 C   0  0  0  0  0
   -2.3900    3.0870    3.2410 C   0  0  0  0  0
   -2.3200    2.0330    2.3210 C   0  0  0  0  0
   -3.3590    2.1220    1.4620 N   0  0  0  0  0
   -6.1080    3.0380    0.1290 C   0  0  0  0  0
   -8.7360    6.8420    1.0960 C   0  0  0  0  0
   -5.8360    1.6850   -0.4650 C   0  0  0  0  0
   -8.0900    7.1710    2.1010 O   0  0  0  0  0
   -9.8800    7.4710    0.8470 N   0  0  0  0  0
  -10.4980    8.5760    1.5660 C   0  0  0  0  0
  -11.9980    8.4010    1.5190 C   0  0  0  0  0
   -8.3560    5.8800    0.2080 N   0  0  0  0  0
   -5.9900    5.2490    1.5420 S   0  0  0  0  0
   -7.1930    3.8170   -0.2300 N   0  0  0  0  0
   -4.5740    1.6900   -1.1310 O   0  0  0  0  0
   -3.8588    4.7452    3.4480 H   0  0  0  0  0
   -1.6912    3.2699    4.0573 H   0  0  0  0  0
   -1.5491    1.2627    2.3013 H   0  0  0  0  0
   -6.6198    1.4441   -1.1831 H   0  0  0  0  0
   -5.8188    0.9405    0.3309 H   0  0  0  0  0
  -10.3988    7.1314    0.0371 H   0  0  0  0  0
  -10.2196    9.5227    1.1029 H   0  0  0  0  0
  -10.1569    8.5828    2.6012 H   0  0  0  0  0
  -12.3301    8.4004    0.4808 H   0  0  0  0  0
  -12.2670    7.4547    1.9884 H   0  0  0  0  0
  -12.4752    9.2220    2.0540 H   0  0  0  0  0
   -8.9004    5.7770   -0.6484 H   0  0  0  0  0
   -4.4085    0.8224   -1.5072 H   0  0  0  0  0
 15  1  1  0  0  0
  1 16  4  0  0  0
  1 17  4  0  0  0
  2  3  1  0  0  0
  8  2  4  0  0  0
 16  2  4  0  0  0
  3  4  4  0  0  0
  3  7  4  0  0  0
  4  5  4  0  0  0
  6  5  4  0  0  0
  7  6  4  0  0  0
  8 10  1  0  0  0
 17  8  4  0  0  0
  9 11  2  0  0  0
  9 12  1  0  0  0
  9 15  1  0  0  0
 10 18  1  0  0  0
 12 13  1  0  0  0
 13 14  1  0  0  0
  4 19  1  0  0  0
  5 20  1  0  0  0
  6 21  1  0  0  0
 10 22  1  0  0  0
 10 23  1  0  0  0
 12 24  1  0  0  0
 13 25  1  0  0  0
 13 26  1  0  0  0
 14 27  1  0  0  0
 14 28  1  0  0  0
 14 29  1  0  0  0
 15 30  1  0  0  0
 18 31  1  0  0  0
M  END
$$$$
