3k3h_ligand
  -I-interpret- 

 39 41  0  0  0  0  0  0  0  0999 V2000
   78.0880   50.0110   40.0220 C   0  0  0  0  0
   78.7280   49.9150   38.7900 C   0  0  0  0  0
   80.0090   50.4320   38.6230 C   0  0  0  0  0
   80.6460   51.0480   39.6930 C   0  0  0  0  0
   72.4730   55.5060   40.2650 F   0  0  0  0  0
   80.0040   51.1470   40.9240 C   0  0  0  0  0
   73.7690   54.5420   38.7430 F   0  0  0  0  0
   78.7250   50.6300   41.0910 C   0  0  0  0  0
   74.2860   56.5550   39.5190 F   0  0  0  0  0
   78.1300   50.7570   42.3010 N   0  0  0  0  0
   78.6290   50.3750   43.3820 N   0  0  0  0  0
   77.8650   50.7350   44.4380 C   0  0  0  0  0
   76.9670   51.4020   42.5380 C   0  0  0  0  0
   76.7750   51.4130   43.9120 C   0  0  0  0  0
   76.0560   52.0070   41.7300 N   0  0  0  0  0
   74.9650   52.6270   42.2560 C   0  0  0  0  0
   74.7600   52.6490   43.6000 N   0  0  0  0  0
   75.6620   52.0460   44.4520 C   0  0  0  0  0
   75.4860   52.0920   45.6680 O   0  0  0  0  0
   73.9960   53.3530   41.3370 C   0  0  0  0  0
   74.5880   54.7140   40.9600 C   0  0  0  0  0
   74.5870   55.6410   42.1770 C   0  0  0  0  0
   73.7550   55.3440   39.8410 C   0  0  0  0  0
   76.5210   49.3210   40.2000 C   0  0  0  0  0
   78.2238   49.4329   37.9525 H   0  0  0  0  0
   80.5099   50.3541   37.6581 H   0  0  0  0  0
   81.6497   51.4543   39.5683 H   0  0  0  0  0
   80.5067   51.6322   41.7607 H   0  0  0  0  0
   78.0652   50.5332   45.4903 H   0  0  0  0  0
   76.1919   51.9960   40.7191 H   0  0  0  0  0
   73.0435   53.4959   41.8474 H   0  0  0  0  0
   73.8322   52.7619   40.4360 H   0  0  0  0  0
   75.6132   54.5723   40.6181 H   0  0  0  0  0
   73.5637   55.7789   42.5262 H   0  0  0  0  0
   75.1865   55.1963   42.9713 H   0  0  0  0  0
   75.0101   56.6059   41.8975 H   0  0  0  0  0
   75.8356   49.7927   39.4959 H   0  0  0  0  0
   76.5715   48.2510   39.9984 H   0  0  0  0  0
   76.1672   49.4839   41.2180 H   0  0  0  0  0
  1  2  4  0  0  0
  8  1  4  0  0  0
  1 24  1  0  0  0
  2  3  4  0  0  0
  4  3  4  0  0  0
  6  4  4  0  0  0
 23  5  1  0  0  0
  8  6  4  0  0  0
 23  7  1  0  0  0
 10  8  1  0  0  0
 23  9  1  0  0  0
 10 11  4  0  0  0
 13 10  4  0  0  0
 12 11  4  0  0  0
 14 12  4  0  0  0
 13 14  4  0  0  0
 15 13  1  0  0  0
 18 14  1  0  0  0
 16 15  1  0  0  0
 16 17  2  0  0  0
 20 16  1  0  0  0
 17 18  1  0  0  0
 18 19  2  0  0  0
 21 20  1  0  0  0
 21 22  1  0  0  0
 21 23  1  0  0  0
  2 25  1  0  0  0
  3 26  1  0  0  0
  4 27  1  0  0  0
  6 28  1  0  0  0
 12 29  1  0  0  0
 15 30  1  0  0  0
 20 31  1  0  0  0
 20 32  1  0  0  0
 21 33  1  0  0  0
 22 34  1  0  0  0
 22 35  1  0  0  0
 22 36  1  0  0  0
 24 37  1  0  0  0
 24 38  1  0  0  0
 24 39  1  0  0  0
M  END
$$$$
