5hx6_ligand
  -I-interpret- 

 47 50  0  0  0  0  0  0  0  0999 V2000
   16.6960   -2.3350   55.0950 C   0  0  0  0  0
   17.3650   -0.1100   56.6400 C   0  0  0  0  0
   16.2020   -0.8100   56.8960 C   0  0  0  0  0
   15.8850   -1.9310   56.1480 C   0  0  0  0  0
   18.2070   -0.5300   55.6300 C   0  0  0  0  0
   23.6270   -9.3540   60.0470 C   0  0  0  0  0
   22.6140   -9.8650   59.2540 C   0  0  0  0  0
   24.9470   -9.6150   59.7140 C   0  0  0  0  0
   20.5520   -8.7500   58.7840 C   0  0  0  0  0
   20.7080   -8.9150   57.2630 C   0  0  0  0  0
   16.4050   -3.6160   54.3510 C   0  0  0  0  0
   17.2390   -4.7690   54.8120 C   0  0  0  0  0
   18.3210   -4.8730   55.5940 C   0  0  0  0  0
   18.6020   -6.2360   55.6600 C   0  0  0  0  0
   21.8870  -12.5480   56.9390 C   0  0  0  0  0
   21.8730  -11.1200   57.2570 N   0  0  0  0  0
   22.9040  -10.5970   58.0970 C   0  0  0  0  0
   24.2390  -10.8420   57.7710 C   0  0  0  0  0
   25.2490  -10.3580   58.5920 C   0  0  0  0  0
   21.3230   -9.5920   59.6550 O   0  0  0  0  0
   19.6580   -8.2100   56.5410 N   0  0  0  0  0
   19.7260   -6.8750   56.3890 C   0  0  0  0  0
   20.6480   -6.1910   56.8460 O   0  0  0  0  0
   17.8880   -1.6500   54.8780 C   0  0  0  0  0
   16.8470   -6.0000   54.4090 O   0  0  0  0  0
   17.7510   -6.9570   54.9540 N   0  0  0  0  0
   20.7710  -10.3960   56.8760 C   0  0  0  0  0
   19.8630  -10.9000   56.2390 O   0  0  0  0  0
   17.6166    0.7696   57.2326 H   0  0  0  0  0
   15.5319   -0.4788   57.6893 H   0  0  0  0  0
   14.9888   -2.5031   56.3881 H   0  0  0  0  0
   19.1249    0.0203   55.4233 H   0  0  0  0  0
   23.3891   -8.7525   60.9243 H   0  0  0  0  0
   25.7507   -9.2309   60.3423 H   0  0  0  0  0
   19.5130   -9.0069   58.9904 H   0  0  0  0  0
   20.8952   -7.7371   58.9945 H   0  0  0  0  0
   21.6547   -8.4603   56.9714 H   0  0  0  0  0
   16.6315   -3.4450   53.2986 H   0  0  0  0  0
   15.3607   -3.8717   54.5303 H   0  0  0  0  0
   18.8667   -4.0624   56.0770 H   0  0  0  0  0
   22.8164  -12.7956   56.4261 H   0  0  0  0  0
   21.8144  -13.1250   57.8609 H   0  0  0  0  0
   21.0406  -12.7836   56.2939 H   0  0  0  0  0
   24.4878  -11.4111   56.8753 H   0  0  0  0  0
   26.2904  -10.5673   58.3474 H   0  0  0  0  0
   18.8711   -8.7283   56.1506 H   0  0  0  0  0
   18.5777   -1.9977   54.1089 H   0  0  0  0  0
  1  4  4  0  0  0
 11  1  1  0  0  0
  1 24  4  0  0  0
  3  2  4  0  0  0
  5  2  4  0  0  0
  4  3  4  0  0  0
 24  5  4  0  0  0
  7  6  4  0  0  0
  6  8  4  0  0  0
 17  7  4  0  0  0
 20  7  1  0  0  0
 19  8  4  0  0  0
 10  9  1  0  0  0
  9 20  1  0  0  0
 21 10  1  0  0  0
 10 27  1  0  0  0
 12 11  1  0  0  0
 13 12  4  0  0  0
 12 25  4  0  0  0
 14 13  4  0  0  0
 22 14  1  0  0  0
 14 26  4  0  0  0
 16 15  1  0  0  0
 16 17  1  0  0  0
 27 16  1  0  0  0
 17 18  4  0  0  0
 18 19  4  0  0  0
 21 22  1  0  0  0
 22 23  2  0  0  0
 25 26  4  0  0  0
 27 28  2  0  0  0
  2 29  1  0  0  0
  3 30  1  0  0  0
  4 31  1  0  0  0
  5 32  1  0  0  0
  6 33  1  0  0  0
  8 34  1  0  0  0
  9 35  1  0  0  0
  9 36  1  0  0  0
 10 37  1  0  0  0
 11 38  1  0  0  0
 11 39  1  0  0  0
 13 40  1  0  0  0
 15 41  1  0  0  0
 15 42  1  0  0  0
 15 43  1  0  0  0
 18 44  1  0  0  0
 19 45  1  0  0  0
 21 46  1  0  0  0
 24 47  1  0  0  0
M  END
$$$$
