5nba_ligand
  -I-interpret- 

 54 57  0  0  0  0  0  0  0  0999 V2000
   10.8120   10.3710    0.5950 C   0  0  0  0  0
    2.1730    7.5260    2.1980 C   0  0  0  0  0
    9.3960   10.1080    0.4130 C   0  0  0  0  0
    8.1420    8.5160    1.9650 C   0  0  0  0  0
    4.8790    7.6240    1.5290 C   0  0  0  0  0
    6.1960    7.3350    1.1270 C   0  0  0  0  0
    6.2980    5.9600    0.8730 C   0  0  0  0  0
    4.7510    4.0040    1.0560 C   0  0  0  0  0
    4.1720    6.4090    1.5500 C   0  0  0  0  0
    4.1980    8.8130    1.8450 C   0  0  0  0  0
    2.8460    8.7460    2.1590 C   0  0  0  0  0
    9.0830    9.4310    1.6790 N   0  0  0  0  0
    7.2580    8.2390    0.9800 N   0  0  0  0  0
   10.9350   10.8580    1.9730 C   0  0  0  0  0
    5.0620    5.3830    1.1720 N   0  0  0  0  0
    8.2050   11.2020    3.6650 O   0  0  0  0  0
    9.2460   10.5940    3.8610 C   0  0  0  0  0
    9.9500    9.9470    2.7050 C   0  0  0  0  0
   11.6470    9.3060    0.2880 F   0  0  0  0  0
    5.6450    3.2920    0.3710 N   0  0  0  0  0
    3.7220    3.5450    1.4930 O   0  0  0  0  0
    2.8090    6.3420    1.8720 C   0  0  0  0  0
    8.0320    8.0140    3.1080 O   0  0  0  0  0
    9.8190   10.4370    5.0840 N   0  0  0  0  0
    9.4120   11.0220    6.3230 C   0  0  0  0  0
    9.0200   12.3490    6.4420 C   0  0  0  0  0
    8.6730   12.8620    7.6930 C   0  0  0  0  0
    8.7240   12.0660    8.8280 C   0  0  0  0  0
    9.1330   10.7420    8.7000 C   0  0  0  0  0
    9.2420    9.9380    9.8690 O   0  0  0  0  0
    8.2180    9.2000   10.1920 C   0  0  0  0  0
    8.5050    8.6470   11.3690 F   0  0  0  0  0
    7.9360    8.2780    9.2890 F   0  0  0  0  0
    7.1210    9.9020   10.3120 F   0  0  0  0  0
    9.4860   10.2250    7.4610 C   0  0  0  0  0
   11.1618   11.1151   -0.1206 H   0  0  0  0  0
    1.1235    7.5047    2.4916 H   0  0  0  0  0
    9.1629    9.5209   -0.4753 H   0  0  0  0  0
    8.7981   10.9999    0.2255 H   0  0  0  0  0
    7.1817    5.4364    0.5083 H   0  0  0  0  0
    4.7209    9.7694    1.8437 H   0  0  0  0  0
    2.3017    9.6644    2.3789 H   0  0  0  0  0
    7.3694    8.7122    0.0833 H   0  0  0  0  0
   10.7131   11.9195    2.0829 H   0  0  0  0  0
   11.9508   10.8081    2.3652 H   0  0  0  0  0
   10.4684    9.1358    3.2162 H   0  0  0  0  0
    5.4782    2.3021    0.1902 H   0  0  0  0  0
    6.4962    3.7368    0.0274 H   0  0  0  0  0
    2.2716    5.3937    1.8656 H   0  0  0  0  0
   10.6371    9.8290    5.1218 H   0  0  0  0  0
    8.9834   12.9887    5.5602 H   0  0  0  0  0
    8.3578   13.9019    7.7792 H   0  0  0  0  0
    8.4488   12.4702    9.8022 H   0  0  0  0  0
    9.8222    9.1914    7.3794 H   0  0  0  0  0
  1  3  1  0  0  0
 14  1  1  0  0  0
  1 19  1  0  0  0
 11  2  4  0  0  0
 22  2  4  0  0  0
 12  3  1  0  0  0
 12  4  1  0  0  0
  4 13  1  0  0  0
  4 23  2  0  0  0
  6  5  4  0  0  0
  5  9  4  0  0  0
  5 10  4  0  0  0
  6  7  4  0  0  0
 13  6  1  0  0  0
  7 15  4  0  0  0
 15  8  1  0  0  0
  8 20  1  0  0  0
  8 21  2  0  0  0
 15  9  4  0  0  0
  9 22  4  0  0  0
 10 11  4  0  0  0
 18 12  1  0  0  0
 18 14  1  0  0  0
 17 16  2  0  0  0
 17 18  1  0  0  0
 17 24  1  0  0  0
 24 25  1  0  0  0
 25 26  4  0  0  0
 25 35  4  0  0  0
 26 27  4  0  0  0
 27 28  4  0  0  0
 28 29  4  0  0  0
 29 30  1  0  0  0
 29 35  4  0  0  0
 30 31  1  0  0  0
 31 32  1  0  0  0
 31 33  1  0  0  0
 31 34  1  0  0  0
  1 36  1  0  0  0
  2 37  1  0  0  0
  3 38  1  0  0  0
  3 39  1  0  0  0
  7 40  1  0  0  0
 10 41  1  0  0  0
 11 42  1  0  0  0
 13 43  1  0  0  0
 14 44  1  0  0  0
 14 45  1  0  0  0
 18 46  1  0  0  0
 20 47  1  0  0  0
 20 48  1  0  0  0
 22 49  1  0  0  0
 24 50  1  0  0  0
 26 51  1  0  0  0
 27 52  1  0  0  0
 28 53  1  0  0  0
 35 54  1  0  0  0
M  END
$$$$
