5tuo_ligand
  -I-interpret- 

 14 14  0  0  0  0  0  0  0  0999 V2000
    9.0790  -39.4540  -76.7550 S   0  0  0  0  0
    7.9800  -40.3400  -76.5860 O   0  0  0  0  0
    9.0450  -38.2280  -77.4700 O   0  0  0  0  0
    9.5870  -39.0700  -75.2260 N   0  0  0  0  0
   10.3080  -41.6220  -78.0260 N   0  0  0  0  0
   11.3210  -42.1720  -78.5380 N   0  0  0  0  0
   12.0770  -40.0160  -77.7840 S   0  0  0  0  0
   10.3530  -40.4120  -77.5080 C   0  0  0  0  0
   12.5010  -41.5670  -78.5750 C   0  0  0  0  0
   13.7140  -42.0070  -79.0850 N   0  0  0  0  0
    9.1104  -39.4659  -74.4158 H   0  0  0  0  0
   10.3764  -38.4376  -75.0946 H   0  0  0  0  0
   13.7825  -42.9303  -79.5131 H   0  0  0  0  0
   14.5373  -41.4072  -79.0318 H   0  0  0  0  0
  1  2  2  0  0  0
  1  3  2  0  0  0
  1  4  1  0  0  0
  8  1  1  0  0  0
  5  6  4  0  0  0
  5  8  4  0  0  0
  6  9  4  0  0  0
  8  7  4  0  0  0
  7  9  4  0  0  0
  9 10  1  0  0  0
  4 11  1  0  0  0
  4 12  1  0  0  0
 10 13  1  0  0  0
 10 14  1  0  0  0
M  END
$$$$
