5dgw_ligand
  -I-interpret- 

 89 92  0  0  0  0  0  0  0  0999 V2000
   20.9280   27.6140   14.7050 C   0  0  0  0  0
   21.5240   26.5320   15.3590 C   0  0  0  0  0
   20.7380   25.4540   15.7580 C   0  0  0  0  0
   19.3680   25.4620   15.5400 C   0  0  0  0  0
   18.8000   26.4980   14.8020 C   0  0  0  0  0
   19.5710   27.5970   14.4110 C   0  0  0  0  0
   18.3750   24.0780   15.9550 S   0  0  0  0  0
   17.3050   23.9720   14.9120 O   0  0  0  0  0
   19.2360   22.8470   15.9650 O   0  0  0  0  0
   17.6930   24.1800   17.4330 N   0  0  0  0  0
   18.6360   24.5200   18.4830 C   0  0  0  0  0
   18.3490   23.7730   19.7910 C   0  0  0  0  0
   18.3490   22.2520   19.6120 C   0  0  0  0  0
   19.3910   24.1550   20.8530 C   0  0  0  0  0
   16.4560   24.9320   17.4660 C   0  0  0  0  0
   15.2790   24.0520   17.8690 C   0  0  0  0  0
   14.1090   24.8320   18.1130 O   0  0  0  0  0
   14.9900   22.9080   16.8920 C   0  0  0  0  0
   14.1310   21.9330   17.5780 N   0  0  0  0  0
   14.3320   20.6190   17.6930 C   0  0  0  0  0
   15.3780   20.0800   17.3370 O   0  0  0  0  0
   13.2950   19.9090   18.2250 O   0  0  0  0  0
   13.5390   18.5040   18.3270 C   0  0  0  0  0
   12.5550   18.6510   20.5990 C   0  0  0  0  0
   11.3610   17.9840   20.1980 O   0  0  0  0  0
   11.1220   17.9720   18.8050 C   0  0  0  0  0
   10.5530   19.2020   18.3460 O   0  0  0  0  0
   10.6170   19.1660   16.9270 C   0  0  0  0  0
   11.7640   18.2380   16.5490 C   0  0  0  0  0
   12.2990   17.7440   17.8970 C   0  0  0  0  0
   14.2160   23.3950   15.6580 C   0  0  0  0  0
   12.5090   21.8900   14.5450 C   0  0  0  0  0
   12.1530   20.8070   13.7400 C   0  0  0  0  0
   13.1440   20.0650   13.1060 C   0  0  0  0  0
   14.4860   20.3860   13.2990 C   0  0  0  0  0
   14.8350   21.4620   14.1190 C   0  0  0  0  0
   13.8480   22.2120   14.7440 C   0  0  0  0  0
   21.6950   28.6950   14.3930 O   0  0  0  0  0
   22.9410   28.6240   15.0930 C   0  0  0  0  0
   13.7800   18.2000   19.8080 C   0  0  0  0  0
   11.1580   17.0920   15.8420 N   0  3  0  0  0
   10.7470   17.4690   14.4830 C   0  0  0  0  0
   10.7310   16.2140   13.5920 C   0  0  0  0  0
   22.5962   26.5320   15.5553 H   0  0  0  0  0
   21.2029   24.5971   16.2455 H   0  0  0  0  0
   17.7462   26.4515   14.5272 H   0  0  0  0  0
   19.1117   28.4315   13.8811 H   0  0  0  0  0
   18.5510   25.5888   18.6794 H   0  0  0  0  0
   19.6331   24.2375   18.1452 H   0  0  0  0  0
   17.3506   24.0698   20.1123 H   0  0  0  0  0
   17.5813   21.9724   18.8905 H   0  0  0  0  0
   19.3251   21.9302   19.2490 H   0  0  0  0  0
   18.1406   21.7748   20.5695 H   0  0  0  0  0
   20.3858   23.8872   20.4970 H   0  0  0  0  0
   19.3457   25.2288   21.0349 H   0  0  0  0  0
   19.1783   23.6192   21.7781 H   0  0  0  0  0
   16.2657   25.3281   16.4685 H   0  0  0  0  0
   16.5570   25.7314   18.2001 H   0  0  0  0  0
   15.5796   23.5716   18.8001 H   0  0  0  0  0
   13.3861   24.2525   18.3642 H   0  0  0  0  0
   15.9424   22.4843   16.5732 H   0  0  0  0  0
   13.2866   22.3020   18.0152 H   0  0  0  0  0
   14.3851   18.2157   17.7033 H   0  0  0  0  0
   12.7312   18.4167   21.6488 H   0  0  0  0  0
   12.4171   19.7174   20.4207 H   0  0  0  0  0
   10.4567   17.1117   18.7317 H   0  0  0  0  0
   10.7848   20.1654   16.5257 H   0  0  0  0  0
    9.6775   18.8031   16.5103 H   0  0  0  0  0
   12.5354   18.7015   15.9340 H   0  0  0  0  0
   12.6333   16.7066   17.8891 H   0  0  0  0  0
   14.8440   24.0893   15.0997 H   0  0  0  0  0
   13.2992   23.8839   15.9876 H   0  0  0  0  0
   11.7323   22.4882   15.0215 H   0  0  0  0  0
   11.1034   20.5439   13.6087 H   0  0  0  0  0
   12.8707   19.2322   12.4580 H   0  0  0  0  0
   15.2631   19.7981   12.8106 H   0  0  0  0  0
   15.8851   21.7133   14.2684 H   0  0  0  0  0
   22.7530   28.6127   16.1666 H   0  0  0  0  0
   23.4666   27.7135   14.8052 H   0  0  0  0  0
   23.5492   29.4920   14.8385 H   0  0  0  0  0
   14.6656   18.7305   20.1580 H   0  0  0  0  0
   13.9408   17.1310   19.9476 H   0  0  0  0  0
   10.3341   16.7866   16.3600 H   0  0  0  0  0
   11.8486   16.3440   15.7792 H   0  0  0  0  0
   11.4498   18.1966   14.0771 H   0  0  0  0  0
    9.7505   17.9099   14.5115 H   0  0  0  0  0
   11.7290   15.7766   13.5647 H   0  0  0  0  0
   10.0264   15.4893   13.9999 H   0  0  0  0  0
   10.4263   16.4905   12.5826 H   0  0  0  0  0
  2  1  4  0  0  0
  6  1  4  0  0  0
  1 38  1  0  0  0
  3  2  4  0  0  0
  4  3  4  0  0  0
  4  5  4  0  0  0
  7  4  1  0  0  0
  5  6  4  0  0  0
  7  8  2  0  0  0
  7  9  2  0  0  0
 10  7  1  0  0  0
 10 11  1  0  0  0
 15 10  1  0  0  0
 11 12  1  0  0  0
 12 13  1  0  0  0
 12 14  1  0  0  0
 16 15  1  0  0  0
 16 17  1  0  0  0
 18 16  1  0  0  0
 18 19  1  0  0  0
 31 18  1  0  0  0
 19 20  1  0  0  0
 20 21  2  0  0  0
 20 22  1  0  0  0
 22 23  1  0  0  0
 23 30  1  0  0  0
 23 40  1  0  0  0
 24 25  1  0  0  0
 40 24  1  0  0  0
 26 25  1  0  0  0
 26 27  1  0  0  0
 30 26  1  0  0  0
 28 27  1  0  0  0
 29 28  1  0  0  0
 30 29  1  0  0  0
 29 41  1  0  0  0
 37 31  1  0  0  0
 32 33  4  0  0  0
 32 37  4  0  0  0
 33 34  4  0  0  0
 34 35  4  0  0  0
 35 36  4  0  0  0
 36 37  4  0  0  0
 38 39  1  0  0  0
 41 42  1  0  0  0
 42 43  1  0  0  0
  2 44  1  0  0  0
  3 45  1  0  0  0
  5 46  1  0  0  0
  6 47  1  0  0  0
 11 48  1  0  0  0
 11 49  1  0  0  0
 12 50  1  0  0  0
 13 51  1  0  0  0
 13 52  1  0  0  0
 13 53  1  0  0  0
 14 54  1  0  0  0
 14 55  1  0  0  0
 14 56  1  0  0  0
 15 57  1  0  0  0
 15 58  1  0  0  0
 16 59  1  0  0  0
 17 60  1  0  0  0
 18 61  1  0  0  0
 19 62  1  0  0  0
 23 63  1  0  0  0
 24 64  1  0  0  0
 24 65  1  0  0  0
 26 66  1  0  0  0
 28 67  1  0  0  0
 28 68  1  0  0  0
 29 69  1  0  0  0
 30 70  1  0  0  0
 31 71  1  0  0  0
 31 72  1  0  0  0
 32 73  1  0  0  0
 33 74  1  0  0  0
 34 75  1  0  0  0
 35 76  1  0  0  0
 36 77  1  0  0  0
 39 78  1  0  0  0
 39 79  1  0  0  0
 39 80  1  0  0  0
 40 81  1  0  0  0
 40 82  1  0  0  0
 41 83  1  0  0  0
 41 84  1  0  0  0
 42 85  1  0  0  0
 42 86  1  0  0  0
 43 87  1  0  0  0
 43 88  1  0  0  0
 43 89  1  0  0  0
M  END
$$$$
