3pwd_ligand
  -I-interpret- 

 29 31  0  0  0  0  0  0  0  0999 V2000
   23.3690    9.4640   16.2220 C   0  0  0  0  0
   25.1950    6.3090   16.3890 N   0  0  0  0  0
   24.1450    8.3660   15.8930 C   0  0  0  0  0
   25.4870    5.3770   17.1230 O   0  0  0  0  0
   24.3990    7.3770   16.8210 C   0  0  0  0  0
   25.6000    6.3220   15.2410 O   0  0  0  0  0
   22.8380    9.5690   17.4970 C   0  0  0  0  0
   23.0830    8.5790   18.4340 C   0  0  0  0  0
   23.8690    7.4730   18.1110 C   0  0  0  0  0
   24.0990    6.4880   19.0800 C   0  0  0  0  0
   22.5310    8.7020   19.7050 C   0  0  0  0  0
   22.7640    7.7220   20.6620 C   0  0  0  0  0
   23.5440    6.6120   20.3600 C   0  0  0  0  0
   23.7610    5.6510   21.3300 O   0  0  0  0  0
   23.2290    5.7630   22.5940 C   0  0  0  0  0
   22.4350    6.8570   22.9540 C   0  0  0  0  0
   22.1840    7.8530   22.0220 C   0  0  0  0  0
   24.6580    8.2470   14.6440 O   0  0  0  0  0
   23.4550    4.8610   23.4310 O   0  0  0  0  0
   21.3450    9.0520   22.3640 C   0  0  0  0  0
   23.1770   10.2412   15.4823 H   0  0  0  0  0
   22.2269   10.4314   17.7631 H   0  0  0  0  0
   24.7129    5.6208   18.8367 H   0  0  0  0  0
   21.9155    9.5675   19.9502 H   0  0  0  0  0
   22.0172    6.9261   23.9584 H   0  0  0  0  0
   25.1669    7.4352   14.5843 H   0  0  0  0  0
   20.3469    8.7244   22.6549 H   0  0  0  0  0
   21.8064    9.5930   23.1901 H   0  0  0  0  0
   21.2753    9.7051   21.4941 H   0  0  0  0  0
  3  1  4  0  0  0
  1  7  4  0  0  0
  2  4  2  0  0  0
  5  2  1  0  0  0
  2  6  2  0  0  0
  3  5  4  0  0  0
  3 18  1  0  0  0
  5  9  4  0  0  0
  7  8  4  0  0  0
  8  9  4  0  0  0
  8 11  4  0  0  0
  9 10  4  0  0  0
 10 13  4  0  0  0
 11 12  4  0  0  0
 12 13  4  0  0  0
 12 17  1  0  0  0
 13 14  1  0  0  0
 14 15  1  0  0  0
 15 16  1  0  0  0
 15 19  2  0  0  0
 16 17  2  0  0  0
 17 20  1  0  0  0
  1 21  1  0  0  0
  7 22  1  0  0  0
 10 23  1  0  0  0
 11 24  1  0  0  0
 16 25  1  0  0  0
 18 26  1  0  0  0
 20 27  1  0  0  0
 20 28  1  0  0  0
 20 29  1  0  0  0
M  END
$$$$
