2p3i_ligand
  -I-interpret- 

 43 43  0  0  0  0  0  0  0  0999 V2000
   44.3530   10.2540   18.3400 C   0  0  0  0  0
   44.2540   11.4040   19.3330 C   0  0  0  0  0
   45.2980   12.4930   19.0700 C   0  0  0  0  0
   44.9200   13.3860   17.8750 C   0  0  0  0  0
   43.4860   13.9030   17.9810 C   0  0  0  0  0
   42.5540   12.6980   18.1730 C   0  0  0  0  0
   41.0750   13.0440   18.3060 C   0  0  0  0  0
   40.2110   11.7860   18.4090 C   0  0  0  0  0
   38.7810   12.0980   18.0010 C   0  0  0  0  0
   42.4110   15.7830   16.7950 C   0  0  0  0  0
   42.0880   16.3480   15.4430 C   0  0  0  0  0
   43.7150    9.8010   21.1110 C   0  0  0  0  0
   43.1560   14.6710   16.7940 N   0  0  0  0  0
   45.4670    9.7070   18.1760 O   0  0  0  0  0
   43.3160    9.8570   17.7510 O   0  0  0  0  0
   44.4890   10.9120   20.6470 O   0  0  0  0  0
   45.8710   14.4590   17.7890 O   0  0  0  0  0
   42.9470   11.9830   19.3680 O   0  0  0  0  0
   40.8630   13.8420   19.4840 O   0  0  0  0  0
   40.7230   10.7440   17.5680 O   0  0  0  0  0
   37.9900   10.9220   18.2470 O   0  0  0  0  0
   42.0110   16.2990   17.8280 O   0  0  0  0  0
   46.2459   12.0055   18.8420 H   0  0  0  0  0
   45.3610   13.1232   19.9572 H   0  0  0  0  0
   44.9559   12.7970   16.9585 H   0  0  0  0  0
   43.3692   14.5694   18.8356 H   0  0  0  0  0
   42.6592   12.1024   17.2662 H   0  0  0  0  0
   40.7867   13.5973   17.4122 H   0  0  0  0  0
   40.2325   11.4480   19.4451 H   0  0  0  0  0
   38.7381   12.3704   16.9465 H   0  0  0  0  0
   38.3974   12.9405   18.5764 H   0  0  0  0  0
   41.0069   16.3608   15.3048 H   0  0  0  0  0
   42.4766   17.3639   15.3729 H   0  0  0  0  0
   42.5467   15.7282   14.6726 H   0  0  0  0  0
   42.6577   10.0657   21.0981 H   0  0  0  0  0
   43.8843    8.9442   20.4588 H   0  0  0  0  0
   44.0156    9.5499   22.1282 H   0  0  0  0  0
   43.5163   14.3408   15.8987 H   0  0  0  0  0
   42.5721   10.4055   18.0105 H   0  0  0  0  0
   46.7571   14.0953   17.7240 H   0  0  0  0  0
   41.4002   14.6359   19.4322 H   0  0  0  0  0
   40.1660    9.9663   17.6489 H   0  0  0  0  0
   37.0789   11.0925   17.9970 H   0  0  0  0  0
  2  1  1  0  0  0
  1 14  2  0  0  0
  1 15  1  0  0  0
  3  2  1  0  0  0
  2 16  1  0  0  0
 18  2  1  0  0  0
  4  3  1  0  0  0
  5  4  1  0  0  0
  4 17  1  0  0  0
  5  6  1  0  0  0
 13  5  1  0  0  0
  6  7  1  0  0  0
  6 18  1  0  0  0
  7  8  1  0  0  0
  7 19  1  0  0  0
  8  9  1  0  0  0
  8 20  1  0  0  0
  9 21  1  0  0  0
 10 11  1  0  0  0
 10 13  1  0  0  0
 10 22  2  0  0  0
 16 12  1  0  0  0
  3 23  1  0  0  0
  3 24  1  0  0  0
  4 25  1  0  0  0
  5 26  1  0  0  0
  6 27  1  0  0  0
  7 28  1  0  0  0
  8 29  1  0  0  0
  9 30  1  0  0  0
  9 31  1  0  0  0
 11 32  1  0  0  0
 11 33  1  0  0  0
 11 34  1  0  0  0
 12 35  1  0  0  0
 12 36  1  0  0  0
 12 37  1  0  0  0
 13 38  1  0  0  0
 15 39  1  0  0  0
 17 40  1  0  0  0
 19 41  1  0  0  0
 20 42  1  0  0  0
 21 43  1  0  0  0
M  END
$$$$
