4l2x_ligand
  -I-interpret- 

 43 46  0  0  0  0  0  0  0  0999 V2000
   16.2970   32.8230  -10.5310 O   0  0  0  0  0
   16.5970   33.9440   -9.6000 P   0  0  0  0  0
   17.8390   33.9580   -8.7570 O   0  0  0  0  0
   16.5780   35.1250  -10.6780 O   0  0  0  0  0
   15.2270   34.0860   -8.3490 C   0  0  0  0  0
   15.5880   35.6040   -7.3550 P   0  0  0  0  0
   14.5830   35.6070   -6.1410 O   0  0  0  0  0
   16.8570   35.5030   -6.5980 O   0  0  0  0  0
   15.4560   36.5550   -8.4550 O   0  0  0  0  0
   15.0460   32.8310   -7.5130 N   0  0  0  0  0
   14.4800   31.7810   -8.1180 C   0  0  0  0  0
   13.4860   32.0900   -8.9230 N   0  0  0  0  0
   12.8250   31.1210   -9.6230 C   0  0  0  0  0
   13.2660   29.8310   -9.5000 N   0  0  0  0  0
   14.2920   29.5450   -8.6820 C   0  0  0  0  0
   15.0400   28.0720   -8.3880 S   0  0  0  0  0
   14.9370   30.4940   -7.9650 C   0  0  0  0  0
   15.9520   29.9310   -7.2130 C   0  0  0  0  0
   16.1000   28.5790   -7.3480 C   0  0  0  0  0
   17.0040   27.7080   -6.7980 C   0  0  0  0  0
   17.6800   27.9150   -5.6080 C   0  0  0  0  0
   18.5750   26.9740   -5.1170 C   0  0  0  0  0
   17.3060   26.5160   -7.4690 C   0  0  0  0  0
   18.2050   25.5770   -6.9840 C   0  0  0  0  0
   18.8450   25.7990   -5.7990 C   0  0  0  0  0
   19.7760   24.8160   -5.3800 C   0  0  0  0  0
   20.0750   24.5770   -3.9740 C   0  0  0  0  0
   19.2450   23.7300   -4.7100 C   0  0  0  0  0
   17.8549   34.7576   -8.2259 H   0  0  0  0  0
   16.7599   35.9596  -10.2399 H   0  0  0  0  0
   14.2604   34.1837   -8.8433 H   0  0  0  0  0
   14.8285   34.9154   -5.5221 H   0  0  0  0  0
   16.7689   34.8334   -5.9158 H   0  0  0  0  0
   15.3417   32.7909   -6.5376 H   0  0  0  0  0
   11.9743   31.3669  -10.2586 H   0  0  0  0  0
   16.5898   30.5245   -6.5580 H   0  0  0  0  0
   17.5066   28.8330   -5.0465 H   0  0  0  0  0
   19.0787   27.1650   -4.1694 H   0  0  0  0  0
   16.8103   26.3163   -8.4190 H   0  0  0  0  0
   18.3996   24.6646   -7.5477 H   0  0  0  0  0
   20.4053   25.0089   -6.2488 H   0  0  0  0  0
   20.5732   24.8528   -3.0446 H   0  0  0  0  0
   18.6184   22.8385   -4.7372 H   0  0  0  0  0
  1  2  2  0  0  0
  2  3  1  0  0  0
  2  4  1  0  0  0
  2  5  1  0  0  0
  5  6  1  0  0  0
  5 10  1  0  0  0
  6  7  1  0  0  0
  6  8  1  0  0  0
  6  9  2  0  0  0
 10 11  1  0  0  0
 11 12  4  0  0  0
 11 17  4  0  0  0
 12 13  4  0  0  0
 13 14  4  0  0  0
 14 15  4  0  0  0
 15 16  4  0  0  0
 15 17  4  0  0  0
 16 19  4  0  0  0
 17 18  4  0  0  0
 18 19  4  0  0  0
 19 20  1  0  0  0
 20 21  4  0  0  0
 20 23  4  0  0  0
 21 22  4  0  0  0
 22 25  4  0  0  0
 23 24  4  0  0  0
 24 25  4  0  0  0
 25 26  1  0  0  0
 26 27  1  0  0  0
 26 28  1  0  0  0
 27 28  2  0  0  0
  3 29  1  0  0  0
  4 30  1  0  0  0
  5 31  1  0  0  0
  7 32  1  0  0  0
  8 33  1  0  0  0
 10 34  1  0  0  0
 13 35  1  0  0  0
 18 36  1  0  0  0
 21 37  1  0  0  0
 22 38  1  0  0  0
 23 39  1  0  0  0
 24 40  1  0  0  0
 26 41  1  0  0  0
 27 42  1  0  0  0
 28 43  1  0  0  0
M  END
$$$$
