### 
### Created by X-TOOL on Mon Sep 10 21:13:19 2018
### 

@<TRIPOS>MOLECULE
4l2x_ligand
   39    42     1     0     0
SMALL
GAST_HUCK


@<TRIPOS>ATOM
      1 OAU        16.2970   32.8230  -10.5310 O.co2     1 YL2        -0.5597
      2 PAS        16.5970   33.9440   -9.6000 P.3       1 YL2         0.1034
      3 OAV        17.8390   33.9580   -8.7570 O.co2     1 YL2        -0.5597
      4 OAW        16.5780   35.1250  -10.6780 O.co2     1 YL2        -0.5597
      5 CAR        15.2270   34.0860   -8.3490 C.3       1 YL2         0.1816
      6 PAT        15.5880   35.6040   -7.3550 P.3       1 YL2         0.1034
      7 OAX        14.5830   35.6070   -6.1410 O.co2     1 YL2        -0.5597
      8 OAZ        16.8570   35.5030   -6.5980 O.co2     1 YL2        -0.5597
      9 OAY        15.4560   36.5550   -8.4550 O.co2     1 YL2        -0.5597
     10 NAJ        15.0460   32.8310   -7.5130 N.pl3     1 YL2        -0.2689
     11 C4         14.4800   31.7810   -8.1180 C.ar      1 YL2         0.1298
     12 N3         13.4860   32.0900   -8.9230 N.ar      1 YL2        -0.2644
     13 C2         12.8250   31.1210   -9.6230 C.ar      1 YL2         0.0581
     14 N1         13.2660   29.8310   -9.5000 N.ar      1 YL2        -0.2778
     15 C6         14.2920   29.5450   -8.6820 C.ar      1 YL2         0.1078
     16 SAE        15.0400   28.0720   -8.3880 S.3       1 YL2        -0.0149
     17 C5         14.9370   30.4940   -7.9650 C.ar      1 YL2         0.0457
     18 CAC        15.9520   29.9310   -7.2130 C.2       1 YL2        -0.0472
     19 CAD        16.1000   28.5790   -7.3480 C.2       1 YL2         0.0351
     20 CAK        17.0040   27.7080   -6.7980 C.ar      1 YL2        -0.0153
     21 CAP        17.6800   27.9150   -5.6080 C.ar      1 YL2        -0.0617
     22 CAO        18.5750   26.9740   -5.1170 C.ar      1 YL2        -0.0604
     23 CAL        17.3060   26.5160   -7.4690 C.ar      1 YL2        -0.0617
     24 CAM        18.2050   25.5770   -6.9840 C.ar      1 YL2        -0.0604
     25 CAN        18.8450   25.7990   -5.7990 C.ar      1 YL2        -0.0316
     26 CAQ        19.7760   24.8160   -5.3800 C.3       1 YL2         0.0339
     27 CBA        20.0750   24.5770   -3.9740 C.2       1 YL2        -0.0602
     28 CBB        19.2450   23.7300   -4.7100 C.2       1 YL2        -0.0602
     29 H          14.2822   34.2469   -8.8889 H         1 YL2         0.0956
     30 H          15.3446   32.7905   -6.5281 H         1 YL2         0.1896
     31 H          11.9790   31.3656  -10.2551 H         1 YL2         0.1008
     32 H          16.5892   30.5239   -6.5586 H         1 YL2         0.0435
     33 H          17.5076   28.8279   -5.0496 H         1 YL2         0.0600
     34 H          19.0759   27.1639   -4.1746 H         1 YL2         0.0542
     35 H          16.8130   26.3174   -8.4138 H         1 YL2         0.0600
     36 H          18.3985   24.6696   -7.5446 H         1 YL2         0.0542
     37 H          20.5693   24.7007   -6.1332 H         1 YL2         0.0597
     38 H          20.5727   24.8526   -3.0454 H         1 YL2         0.0634
     39 H          18.6190   22.8393   -4.7372 H         1 YL2         0.0634
@<TRIPOS>BOND
     1    1    2 ar 
     2    2    3 ar 
     3    2    4 ar 
     4    2    5 1  
     5    5    6 1  
     6    5   10 1  
     7    6    7 ar 
     8    6    8 ar 
     9    6    9 ar 
    10   10   11 1  
    11   11   12 ar 
    12   11   17 ar 
    13   12   13 ar 
    14   13   14 ar 
    15   14   15 ar 
    16   15   16 1  
    17   15   17 ar 
    18   16   19 1  
    19   17   18 1  
    20   18   19 2  
    21   19   20 1  
    22   20   21 ar 
    23   20   23 ar 
    24   21   22 ar 
    25   22   25 ar 
    26   23   24 ar 
    27   24   25 ar 
    28   25   26 1  
    29   26   27 1  
    30   26   28 1  
    31   27   28 2  
    32    5   29 1  
    33   10   30 1  
    34   13   31 1  
    35   18   32 1  
    36   21   33 1  
    37   22   34 1  
    38   23   35 1  
    39   24   36 1  
    40   26   37 1  
    41   27   38 1  
    42   28   39 1  
@<TRIPOS>SUBSTRUCTURE
     1 YL2         1

