2i1r_ligand
  -I-interpret- 

 42 45  0  0  0  0  0  0  0  0999 V2000
   11.0790   30.9090   71.0880 C   0  0  0  0  0
   11.1420   30.7290   72.4440 C   0  0  0  0  0
    9.8400   31.0430   72.9390 C   0  0  0  0  0
    9.0670   31.3960   71.8640 C   0  0  0  0  0
    9.8340   31.3110   70.7360 O   0  0  0  0  0
   12.2520   30.6740   70.1590 C   0  0  0  0  0
   12.5220   31.8070   69.1720 C   0  0  0  0  0
    7.6590   31.7860   71.8670 C   0  0  0  0  0
    7.1470   32.8490   72.5030 C   0  0  0  0  0
    7.8420   34.0640   73.4660 S   0  0  0  0  0
    6.4420   34.9050   73.8070 C   0  0  0  0  0
    5.5230   34.2860   73.2140 N   0  0  0  0  0
    5.7310   33.1860   72.4890 C   0  0  0  0  0
    6.2600   35.9920   74.5230 N   0  0  0  0  0
    7.2710   36.7960   75.1970 C   0  0  0  0  0
    8.0200   37.6100   74.1440 C   0  0  0  0  0
    6.6440   37.7210   76.2150 C   0  0  0  0  0
    5.5880   38.5590   75.9720 N   0  0  0  0  0
    5.3130   39.2250   77.1170 N   0  0  0  0  0
    6.1700   38.8070   78.0230 N   0  0  0  0  0
    7.0170   37.8580   77.4710 N   0  0  0  0  0
    7.3180   38.5130   73.2820 C   0  0  0  0  0
    8.0210   39.2660   72.3110 C   0  0  0  0  0
    9.4290   39.1230   72.1890 C   0  0  0  0  0
   10.1260   38.2300   73.0370 C   0  0  0  0  0
    9.4220   37.4740   74.0120 C   0  0  0  0  0
   10.0880   39.8350   71.2820 F   0  0  0  0  0
    4.8650   32.5680   71.9020 O   0  0  0  0  0
   12.0075   30.4115   73.0255 H   0  0  0  0  0
    9.5199   31.0083   73.9804 H   0  0  0  0  0
   12.0163   29.7886   69.5685 H   0  0  0  0  0
   13.1390   30.5813   70.7856 H   0  0  0  0  0
   11.6451   31.9548   68.5417 H   0  0  0  0  0
   12.7341   32.7237   69.7223 H   0  0  0  0  0
   13.3789   31.5487   68.5498 H   0  0  0  0  0
    6.9665   31.1597   71.3046 H   0  0  0  0  0
    4.5705   34.6426   73.2910 H   0  0  0  0  0
    7.9577   36.1373   75.7286 H   0  0  0  0  0
    6.2373   38.6210   73.3740 H   0  0  0  0  0
    7.4832   39.9539   71.6586 H   0  0  0  0  0
   11.2064   38.1219   72.9418 H   0  0  0  0  0
    9.9641   36.7863   74.6611 H   0  0  0  0  0
  1  2  4  0  0  0
  1  5  4  0  0  0
  1  6  1  0  0  0
  2  3  4  0  0  0
  3  4  4  0  0  0
  4  5  4  0  0  0
  4  8  1  0  0  0
  6  7  1  0  0  0
  8  9  2  0  0  0
  9 10  1  0  0  0
  9 13  1  0  0  0
 10 11  1  0  0  0
 11 12  1  0  0  0
 11 14  2  0  0  0
 12 13  1  0  0  0
 13 28  2  0  0  0
 14 15  1  0  0  0
 15 16  1  0  0  0
 15 17  1  0  0  0
 16 22  4  0  0  0
 16 26  4  0  0  0
 17 18  4  0  0  0
 17 21  4  0  0  0
 18 19  4  0  0  0
 19 20  4  0  0  0
 20 21  4  0  0  0
 22 23  4  0  0  0
 23 24  4  0  0  0
 24 25  4  0  0  0
 24 27  1  0  0  0
 25 26  4  0  0  0
  2 29  1  0  0  0
  3 30  1  0  0  0
  6 31  1  0  0  0
  6 32  1  0  0  0
  7 33  1  0  0  0
  7 34  1  0  0  0
  7 35  1  0  0  0
  8 36  1  0  0  0
 12 37  1  0  0  0
 15 38  1  0  0  0
 22 39  1  0  0  0
 23 40  1  0  0  0
 25 41  1  0  0  0
 26 42  1  0  0  0
M  END
$$$$
