5gso_ligand
  -I-interpret- 

 62 64  0  0  0  0  0  0  0  0999 V2000
  -22.8910   -3.3800   97.0690 C   0  0  0  0  0
  -24.0780   -4.2880   96.9010 C   0  0  0  0  0
  -22.4630   -3.4310   98.4960 C   0  0  0  0  0
  -15.9150   -3.9060   94.5530 C   0  0  0  0  0
  -24.8800   -3.9300   95.6570 C   0  0  0  0  0
  -25.3000   -2.6630   95.4570 C   0  0  0  0  0
  -25.1550   -4.9290   94.7390 C   0  0  0  0  0
  -26.0130   -2.3680   94.3210 C   0  0  0  0  0
  -26.2760   -3.3710   93.4080 C   0  0  0  0  0
  -25.8520   -4.6270   93.6060 C   0  0  0  0  0
  -20.7290   -2.9850   96.0980 C   0  0  0  0  0
  -19.5090   -3.5170   95.3840 C   0  0  0  0  0
  -17.3970   -1.3430  100.0100 C   0  0  0  0  0
  -18.1680   -3.1080   95.6250 C   0  0  0  0  0
  -23.9680   -2.2360  101.5320 C   0  0  0  0  0
  -17.4060   -3.9150   94.7250 C   0  0  0  0  0
  -18.3100   -2.3650   99.3580 C   0  0  0  0  0
  -22.7040   -2.3940  100.7770 C   0  0  0  0  0
  -21.6410   -1.3250  100.9950 C   0  0  0  0  0
  -20.3080   -1.2370  100.1890 C   0  0  0  0  0
  -19.4230   -0.2220  100.8760 C   0  0  0  0  0
  -19.5550   -2.5110  100.1190 C   0  0  0  0  0
  -26.9450   -3.1190   92.3150 F   0  0  0  0  0
  -21.7910   -3.8600   96.3630 N   0  0  0  0  0
  -19.4760   -4.4470   94.4700 N   0  0  0  0  0
  -18.0630   -0.0900  100.3610 N   0  3  0  0  0
  -23.0050   -2.4850   99.3910 N   0  0  0  0  0
  -18.2430   -4.6610   94.0770 O   0  0  0  0  0
  -24.4560   -3.3100  101.9010 O   0  0  0  0  0
  -21.6790   -4.2580   98.8340 O   0  0  0  0  0
  -20.7460   -1.8260   96.4380 O   0  0  0  0  0
  -20.0440    0.9900  100.8180 O   0  0  0  0  0
  -23.1819   -2.3868   96.7268 H   0  0  0  0  0
  -24.7236   -4.1784   97.7724 H   0  0  0  0  0
  -23.7187   -5.3119   96.7983 H   0  0  0  0  0
  -15.5921   -2.9117   94.2446 H   0  0  0  0  0
  -15.4399   -4.1666   95.4987 H   0  0  0  0  0
  -15.6340   -4.6332   93.7912 H   0  0  0  0  0
  -25.0764   -1.8849   96.1869 H   0  0  0  0  0
  -24.8171   -5.9493   94.9202 H   0  0  0  0  0
  -26.3677   -1.3531   94.1415 H   0  0  0  0  0
  -26.0624   -5.4008   92.8677 H   0  0  0  0  0
  -16.6142   -1.1028   99.2905 H   0  0  0  0  0
  -17.0274   -1.7834  100.9360 H   0  0  0  0  0
  -17.8075   -2.3577   96.3287 H   0  0  0  0  0
  -24.6892   -1.7574  100.8695 H   0  0  0  0  0
  -23.7469   -1.6512  102.4249 H   0  0  0  0  0
  -17.7988   -3.3273   99.3322 H   0  0  0  0  0
  -18.5516   -2.0282   98.3499 H   0  0  0  0  0
  -22.2542   -3.3052  101.1714 H   0  0  0  0  0
  -21.2947   -1.5354  102.0069 H   0  0  0  0  0
  -22.1579   -0.4111  100.7022 H   0  0  0  0  0
  -20.5727   -0.9660   99.1669 H   0  0  0  0  0
  -19.2917   -0.5909  101.8932 H   0  0  0  0  0
  -19.3027   -2.8167  101.1344 H   0  0  0  0  0
  -20.1787   -3.2511   99.6178 H   0  0  0  0  0
  -21.7589   -4.8287   96.0452 H   0  0  0  0  0
  -18.1303    0.4535   99.5005 H   0  0  0  0  0
  -17.5104    0.3330  101.1067 H   0  0  0  0  0
  -23.6686   -1.8096   99.0117 H   0  0  0  0  0
  -25.2694   -3.1420  102.3823 H   0  0  0  0  0
  -19.4966    1.6498  101.2500 H   0  0  0  0  0
  1  2  1  0  0  0
  3  1  1  0  0  0
  1 24  1  0  0  0
  2  5  1  0  0  0
 27  3  1  0  0  0
  3 30  2  0  0  0
 16  4  1  0  0  0
  5  6  4  0  0  0
  5  7  4  0  0  0
  6  8  4  0  0  0
  7 10  4  0  0  0
  8  9  4  0  0  0
 10  9  4  0  0  0
  9 23  1  0  0  0
 11 12  1  0  0  0
 24 11  1  0  0  0
 11 31  2  0  0  0
 12 14  4  0  0  0
 12 25  4  0  0  0
 17 13  1  0  0  0
 13 26  1  0  0  0
 14 16  4  0  0  0
 18 15  1  0  0  0
 15 29  1  0  0  0
 16 28  4  0  0  0
 22 17  1  0  0  0
 19 18  1  0  0  0
 18 27  1  0  0  0
 20 19  1  0  0  0
 20 21  1  0  0  0
 20 22  1  0  0  0
 21 26  1  0  0  0
 21 32  1  0  0  0
 25 28  4  0  0  0
  1 33  1  0  0  0
  2 34  1  0  0  0
  2 35  1  0  0  0
  4 36  1  0  0  0
  4 37  1  0  0  0
  4 38  1  0  0  0
  6 39  1  0  0  0
  7 40  1  0  0  0
  8 41  1  0  0  0
 10 42  1  0  0  0
 13 43  1  0  0  0
 13 44  1  0  0  0
 14 45  1  0  0  0
 15 46  1  0  0  0
 15 47  1  0  0  0
 17 48  1  0  0  0
 17 49  1  0  0  0
 18 50  1  0  0  0
 19 51  1  0  0  0
 19 52  1  0  0  0
 20 53  1  0  0  0
 21 54  1  0  0  0
 22 55  1  0  0  0
 22 56  1  0  0  0
 24 57  1  0  0  0
 26 58  1  0  0  0
 26 59  1  0  0  0
 27 60  1  0  0  0
 29 61  1  0  0  0
 32 62  1  0  0  0
M  END
$$$$
