3kad_ligand
  -I-interpret- 

 43 45  0  0  0  0  0  0  0  0999 V2000
   31.4660  -15.0670   -0.1880 C   0  0  0  0  0
   31.9410  -15.3660   -1.4600 C   0  0  0  0  0
   31.2360  -16.2400   -2.2790 C   0  0  0  0  0
   30.2850  -15.6430    0.2660 C   0  0  0  0  0
   29.5810  -16.5170   -0.5540 C   0  0  0  0  0
   30.0550  -16.8150   -1.8230 C   0  0  0  0  0
   29.1850  -17.6770   -2.3880 N   0  0  0  0  0
   28.1910  -17.9160   -1.5030 C   0  0  0  0  0
   28.4340  -17.2060   -0.3790 N   0  0  0  0  0
   27.0080  -18.8260   -1.7310 C   0  0  0  0  0
   25.8530  -18.0210   -2.3130 C   0  0  0  0  0
   26.1370  -17.6710   -3.6920 N   0  0  0  0  0
   26.4370  -16.4250   -4.0450 C   0  0  0  0  0
   26.4700  -15.4990   -3.2510 O   0  0  0  0  0
   26.7420  -16.1930   -5.5050 C   0  0  0  0  0
   28.0570  -15.4330   -5.6350 C   0  0  0  0  0
   28.5960  -15.5950   -7.0370 C   0  0  0  0  0
   28.2010  -16.6790   -7.8130 C   0  0  0  0  0
   28.6970  -16.8280   -9.1030 C   0  0  0  0  0
   29.5880  -15.8930   -9.6170 C   0  0  0  0  0
   29.9830  -14.8090   -8.8410 C   0  0  0  0  0
   29.4870  -14.6600   -7.5510 C   0  0  0  0  0
   24.5830  -18.8110   -2.1940 C   0  0  0  0  0
   24.1120  -19.3410   -3.2230 O   0  0  0  0  0
   24.0440  -18.9080   -1.0710 O   0  0  0  0  0
   32.0195  -14.3810    0.4532 H   0  0  0  0  0
   32.8673  -14.9145   -1.8153 H   0  0  0  0  0
   31.6080  -16.4741   -3.2764 H   0  0  0  0  0
   29.9118  -15.4096    1.2632 H   0  0  0  0  0
   26.7015  -19.2680   -0.7829 H   0  0  0  0  0
   27.2868  -19.6170   -2.4272 H   0  0  0  0  0
   25.7304  -17.0927   -1.7550 H   0  0  0  0  0
   26.1058  -18.3977   -4.4071 H   0  0  0  0  0
   25.9391  -15.6095   -5.9556 H   0  0  0  0  0
   26.8248  -17.1524   -6.0157 H   0  0  0  0  0
   28.7781  -15.8299   -4.9205 H   0  0  0  0  0
   27.8873  -14.3758   -5.4310 H   0  0  0  0  0
   27.5023  -17.4120   -7.4098 H   0  0  0  0  0
   28.3873  -17.6778   -9.7113 H   0  0  0  0  0
   29.9771  -16.0096  -10.6285 H   0  0  0  0  0
   30.6817  -14.0760   -9.2442 H   0  0  0  0  0
   29.7967  -13.8102   -6.9427 H   0  0  0  0  0
   24.6792  -19.1431   -3.9718 H   0  0  0  0  0
  1  2  4  0  0  0
  1  4  4  0  0  0
  2  3  4  0  0  0
  3  6  4  0  0  0
  4  5  4  0  0  0
  5  6  4  0  0  0
  5  9  4  0  0  0
  6  7  4  0  0  0
  7  8  4  0  0  0
  8  9  4  0  0  0
  8 10  1  0  0  0
 10 11  1  0  0  0
 11 12  1  0  0  0
 11 23  1  0  0  0
 12 13  1  0  0  0
 13 14  2  0  0  0
 13 15  1  0  0  0
 15 16  1  0  0  0
 16 17  1  0  0  0
 17 18  4  0  0  0
 17 22  4  0  0  0
 18 19  4  0  0  0
 19 20  4  0  0  0
 20 21  4  0  0  0
 21 22  4  0  0  0
 23 24  1  0  0  0
 23 25  2  0  0  0
  1 26  1  0  0  0
  2 27  1  0  0  0
  3 28  1  0  0  0
  4 29  1  0  0  0
 10 30  1  0  0  0
 10 31  1  0  0  0
 11 32  1  0  0  0
 12 33  1  0  0  0
 15 34  1  0  0  0
 15 35  1  0  0  0
 16 36  1  0  0  0
 16 37  1  0  0  0
 18 38  1  0  0  0
 19 39  1  0  0  0
 20 40  1  0  0  0
 21 41  1  0  0  0
 22 42  1  0  0  0
 24 43  1  0  0  0
M  END
$$$$
