4rcf_ligand
  -I-interpret- 

 52 57  0  0  0  0  0  0  0  0999 V2000
   71.0140   50.1410    8.7930 C   0  0  0  0  0
   72.5180   47.5700    5.8060 C   0  0  0  0  0
   70.1530   49.2550    8.1230 C   0  0  0  0  0
   70.6730   48.4280    7.1340 C   0  0  0  0  0
   67.5620   52.1430   11.4300 C   0  0  0  0  0
   69.2600   51.0800   10.0780 C   0  0  0  0  0
   68.2830   50.2330    9.5330 C   0  0  0  0  0
   68.6620   49.1920    8.4850 C   0  0  0  0  0
   68.8870   52.0140   11.0230 C   0  0  0  0  0
   66.5770   51.3080   10.9060 C   0  0  0  0  0
   66.9530   50.3550    9.9510 C   0  0  0  0  0
   67.7980   49.4210    7.3010 N   0  0  0  0  0
   66.2710   48.2230    6.0020 N   0  0  0  0  0
   72.3620   50.1580    8.4560 C   0  0  0  0  0
   72.4760   46.6580    3.5840 N   0  0  0  0  0
   64.1520   50.4260   11.0730 C   0  0  0  0  0
   62.7560   51.0580   11.0830 C   0  0  0  0  0
   62.5540   51.7630   12.3070 O   0  0  0  0  0
   63.5340   52.8020   12.4360 C   0  0  0  0  0
   64.8640   52.6220   12.0090 C   0  0  0  0  0
   65.2440   51.4560   11.3230 C   0  0  0  0  0
   69.8330   52.8130   11.5540 F   0  0  0  0  0
   70.5800   51.0080    9.7510 O   0  0  0  0  0
   68.2460   47.7730    8.9180 C   0  0  0  0  0
   67.4420   47.2470    7.8130 O   0  0  0  0  0
   67.1370   48.3170    7.0060 C   0  0  0  0  0
   72.8680   49.3170    7.4700 C   0  0  0  0  0
   72.0230   48.4370    6.7890 C   0  0  0  0  0
   73.5250   46.6610    6.1290 C   0  0  0  0  0
   73.9880   45.7910    5.1480 C   0  0  0  0  0
   73.4400   45.8120    3.8690 C   0  0  0  0  0
   72.0090   47.5210    4.4980 C   0  0  0  0  0
   71.0430   48.3690    4.1260 F   0  0  0  0  0
   70.0009   47.7485    6.6099 H   0  0  0  0  0
   67.2930   52.9027   12.1639 H   0  0  0  0  0
   66.1959   49.6963    9.5256 H   0  0  0  0  0
   67.7254   50.3011    6.7905 H   0  0  0  0  0
   66.0869   49.0328    5.4097 H   0  0  0  0  0
   73.0347   50.8422    8.9732 H   0  0  0  0  0
   64.3191   49.9826   10.0914 H   0  0  0  0  0
   64.1957   49.6821   11.8685 H   0  0  0  0  0
   62.0045   50.2739   10.9902 H   0  0  0  0  0
   62.6688   51.7531   10.2479 H   0  0  0  0  0
   63.2420   53.7556   12.8759 H   0  0  0  0  0
   65.6056   53.3945   12.2126 H   0  0  0  0  0
   65.8759   50.6836   10.8845 H   0  0  0  0  0
   67.6816   47.7892    9.8503 H   0  0  0  0  0
   69.1146   47.1445    9.1145 H   0  0  0  0  0
   73.9303   49.3448    7.2272 H   0  0  0  0  0
   73.9429   46.6329    7.1353 H   0  0  0  0  0
   74.7864   45.0871    5.3827 H   0  0  0  0  0
   73.8098   45.1280    3.1052 H   0  0  0  0  0
  3  1  4  0  0  0
  1 14  4  0  0  0
 23  1  1  0  0  0
 28  2  1  0  0  0
  2 29  4  0  0  0
  2 32  4  0  0  0
  3  4  4  0  0  0
  8  3  1  0  0  0
  4 28  4  0  0  0
  5  9  4  0  0  0
 10  5  4  0  0  0
  7  6  4  0  0  0
  9  6  4  0  0  0
  6 23  1  0  0  0
  7  8  1  0  0  0
 11  7  4  0  0  0
  8 12  1  0  0  0
  8 24  1  0  0  0
  9 22  1  0  0  0
 10 11  4  0  0  0
 21 10  1  0  0  0
 12 26  1  0  0  0
 26 13  2  0  0  0
 14 27  4  0  0  0
 15 31  4  0  0  0
 32 15  4  0  0  0
 16 17  1  0  0  0
 16 21  1  0  0  0
 17 18  1  0  0  0
 18 19  1  0  0  0
 19 20  2  0  0  0
 20 21  1  0  0  0
 24 25  1  0  0  0
 25 26  1  0  0  0
 27 28  4  0  0  0
 29 30  4  0  0  0
 30 31  4  0  0  0
 32 33  1  0  0  0
  4 34  1  0  0  0
  5 35  1  0  0  0
 11 36  1  0  0  0
 12 37  1  0  0  0
 13 38  1  0  0  0
 14 39  1  0  0  0
 16 40  1  0  0  0
 16 41  1  0  0  0
 17 42  1  0  0  0
 17 43  1  0  0  0
 19 44  1  0  0  0
 20 45  1  0  0  0
 21 46  1  0  0  0
 24 47  1  0  0  0
 24 48  1  0  0  0
 27 49  1  0  0  0
 29 50  1  0  0  0
 30 51  1  0  0  0
 31 52  1  0  0  0
M  END
$$$$
