6q96_ligand
  -I-interpret- 

 64 68  0  0  0  0  0  0  0  0999 V2000
  -14.7260   -1.5210   13.4180 C   0  0  0  0  0
  -16.0590   -2.2650   15.2210 C   0  0  0  0  0
  -17.0360    0.0100    9.7110 C   0  0  0  0  0
  -18.1730   -2.3090    9.8020 C   0  0  0  0  0
  -17.9390   -5.0400   12.8850 C   0  0  0  0  0
  -17.3750   -3.1550   17.0830 C   0  0  0  0  0
  -14.8940   -2.3050    9.1510 C   0  0  0  0  0
  -13.7030   -2.9220    9.6210 C   0  0  0  0  0
  -12.8360   -3.2090    8.4980 C   0  0  0  0  0
  -14.8120   -2.1350    7.6520 C   0  0  0  0  0
  -15.8840   -2.8480    6.8000 C   0  0  0  0  0
  -16.4830   -2.1740    5.7210 C   0  0  0  0  0
  -17.7290   -4.1810    5.1570 C   0  0  0  0  0
  -17.1240   -4.8630    6.2140 C   0  0  0  0  0
  -17.4150   -2.8360    4.9010 C   0  0  0  0  0
  -16.1900   -4.2020    7.0240 C   0  0  0  0  0
  -15.9870   -1.0320   17.3370 C   0  0  0  0  0
  -18.6700   -4.8810    4.3300 C   0  0  0  0  0
  -15.1080   -1.4340   14.7150 N   0  0  0  0  0
  -16.6430   -3.1850   14.4120 N   0  0  0  0  0
  -16.2970   -3.3110   13.1120 C   0  0  0  0  0
  -15.3130   -2.4770   12.5810 C   0  0  0  0  0
  -14.9360   -2.5360   11.2790 N   0  0  0  0  0
  -13.7570   -3.0540   10.8670 N   0  0  0  0  0
  -15.6370   -2.0610   10.2610 C   0  0  0  0  0
  -17.0140   -1.4130   10.3330 C   0  0  0  0  0
  -16.8970   -4.2520   12.2850 O   0  0  0  0  0
  -16.4570   -2.1630   16.5190 N   0  0  0  0  0
  -13.4740   -2.8000    7.3730 N   0  0  0  0  0
  -11.7480   -3.7430    8.6510 O   0  0  0  0  0
  -19.4250   -5.4440    3.6650 N   0  0  0  0  0
  -12.8860   -2.8560    6.1350 C   0  0  0  0  0
  -11.9520   -1.7330    5.8520 C   0  0  0  0  0
  -11.4390   -2.5540    3.6870 C   0  0  0  0  0
  -12.2470   -3.6100    3.8800 C   0  0  0  0  0
  -11.2900   -1.6380    4.6710 N   0  0  0  0  0
  -12.9930   -3.7770    5.1500 C   0  0  0  0  0
  -11.7930   -0.8800    6.7210 O   0  0  0  0  0
  -12.4360   -4.7940    2.6040 Cl  0  0  0  0  0
  -13.9630   -0.8478   13.0271 H   0  0  0  0  0
  -16.3351    0.6502   10.2467 H   0  0  0  0  0
  -16.7470   -0.0490    8.6617 H   0  0  0  0  0
  -18.0413    0.4240    9.7896 H   0  0  0  0  0
  -17.9901   -2.5553    8.7561 H   0  0  0  0  0
  -18.2202   -3.2258   10.3896 H   0  0  0  0  0
  -19.1165   -1.7704    9.8902 H   0  0  0  0  0
  -17.5326   -5.5933   13.7316 H   0  0  0  0  0
  -18.7378   -4.3827   13.2286 H   0  0  0  0  0
  -18.3339   -5.7394   12.1481 H   0  0  0  0  0
  -16.9071   -3.6332   17.9435 H   0  0  0  0  0
  -18.2946   -2.6606   17.3959 H   0  0  0  0  0
  -17.6041   -3.9069   16.3278 H   0  0  0  0  0
  -14.9484   -1.0868    7.3860 H   0  0  0  0  0
  -16.2242   -1.1346    5.5191 H   0  0  0  0  0
  -17.3767   -5.9052    6.4088 H   0  0  0  0  0
  -17.8898   -2.3092    4.0733 H   0  0  0  0  0
  -15.6976   -4.7415    7.8331 H   0  0  0  0  0
  -16.8425   -0.4397   17.6615 H   0  0  0  0  0
  -15.4551   -1.4123   18.2091 H   0  0  0  0  0
  -15.3168   -0.4100   16.7437 H   0  0  0  0  0
  -17.2112   -1.2993   11.3990 H   0  0  0  0  0
  -10.9068   -2.4362    2.7431 H   0  0  0  0  0
  -10.6597   -0.8503    4.5206 H   0  0  0  0  0
  -13.6325   -4.6483    5.2912 H   0  0  0  0  0
  1 19  4  0  0  0
 22  1  4  0  0  0
 19  2  4  0  0  0
 20  2  4  0  0  0
  2 28  1  0  0  0
 26  3  1  0  0  0
 26  4  1  0  0  0
 27  5  1  0  0  0
 28  6  1  0  0  0
  7  8  4  0  0  0
 10  7  1  0  0  0
  7 25  4  0  0  0
  9  8  1  0  0  0
  8 24  4  0  0  0
 29  9  1  0  0  0
  9 30  2  0  0  0
 10 11  1  0  0  0
 29 10  1  0  0  0
 11 12  4  0  0  0
 11 16  4  0  0  0
 12 15  4  0  0  0
 14 13  4  0  0  0
 15 13  4  0  0  0
 13 18  1  0  0  0
 16 14  4  0  0  0
 28 17  1  0  0  0
 18 31  3  0  0  0
 21 20  4  0  0  0
 22 21  4  0  0  0
 21 27  1  0  0  0
 23 22  1  0  0  0
 24 23  4  0  0  0
 25 23  4  0  0  0
 25 26  1  0  0  0
 32 29  1  0  0  0
 33 32  1  0  0  0
 32 37  2  0  0  0
 36 33  1  0  0  0
 33 38  2  0  0  0
 34 35  2  0  0  0
 34 36  1  0  0  0
 35 37  1  0  0  0
 35 39  1  0  0  0
  1 40  1  0  0  0
  3 41  1  0  0  0
  3 42  1  0  0  0
  3 43  1  0  0  0
  4 44  1  0  0  0
  4 45  1  0  0  0
  4 46  1  0  0  0
  5 47  1  0  0  0
  5 48  1  0  0  0
  5 49  1  0  0  0
  6 50  1  0  0  0
  6 51  1  0  0  0
  6 52  1  0  0  0
 10 53  1  0  0  0
 12 54  1  0  0  0
 14 55  1  0  0  0
 15 56  1  0  0  0
 16 57  1  0  0  0
 17 58  1  0  0  0
 17 59  1  0  0  0
 17 60  1  0  0  0
 26 61  1  0  0  0
 34 62  1  0  0  0
 36 63  1  0  0  0
 37 64  1  0  0  0
M  END
$$$$
