3ztd_ligand
  -I-interpret- 

 52 54  0  0  0  0  0  0  0  0999 V2000
  -56.7560   10.6350    5.4820 C   0  0  0  0  0
  -56.3720   11.6950    4.4410 C   0  0  0  0  0
  -55.1100   11.9720    4.0890 C   0  0  0  0  0
  -57.2640   12.4560    3.7980 N   0  0  0  0  0
  -56.5070   13.2520    2.9820 O   0  0  0  0  0
  -55.1540   12.9460    3.1880 C   0  0  0  0  0
  -53.9740   13.6390    2.4240 C   0  0  0  0  0
  -54.1200   13.2700    0.8960 C   0  0  0  0  0
  -53.9750   12.0930    0.5890 O   0  0  0  0  0
  -54.4500   14.1080   -0.1210 N   0  0  0  0  0
  -54.8700   15.5030    0.0140 C   0  0  0  0  0
  -55.8260   15.6990   -1.1830 C   0  0  0  0  0
  -57.1530   15.1540   -0.9350 O   0  0  0  0  0
  -55.0980   14.9200   -2.2620 C   0  0  0  0  0
  -54.6930   13.6720   -1.5060 C   0  0  0  0  0
  -53.4320   13.0760   -2.0730 C   0  0  0  0  0
  -52.3560   13.6000   -1.7870 O   0  0  0  0  0
  -53.6010   11.9660   -2.8200 N   0  0  0  0  0
  -52.4890   11.1660   -3.3910 C   0  0  0  0  0
  -51.9520   11.7350   -4.6990 C   0  0  0  0  0
  -52.7700   12.5080   -5.5430 C   0  0  0  0  0
  -52.2280   13.0170   -6.7380 C   0  0  0  0  0
  -50.6170   11.4850   -5.0650 C   0  0  0  0  0
  -50.0810   12.0000   -6.2560 C   0  0  0  0  0
  -50.8950   12.7570   -7.1020 C   0  0  0  0  0
  -50.3340   13.3330   -8.4100 C   0  0  0  0  0
  -48.6400   12.7770  -10.2080 C   0  0  0  0  0
  -50.9670   14.2330   -8.9780 O   0  0  0  0  0
  -49.0730   12.9080   -8.8280 O   0  0  0  0  0
  -56.3938    9.6599    5.1564 H   0  0  0  0  0
  -56.3053   10.8897    6.4412 H   0  0  0  0  0
  -57.8407   10.6052    5.5852 H   0  0  0  0  0
  -54.2120   11.4870    4.4718 H   0  0  0  0  0
  -53.0145   13.2951    2.8102 H   0  0  0  0  0
  -54.0121   14.7196    2.5615 H   0  0  0  0  0
  -54.0309   16.1986    0.0012 H   0  0  0  0  0
  -55.3473   15.7083    0.9722 H   0  0  0  0  0
  -56.0191   16.7443   -1.4241 H   0  0  0  0  0
  -57.7069   15.3004   -1.7053 H   0  0  0  0  0
  -54.2577   15.4589   -2.6998 H   0  0  0  0  0
  -55.7067   14.7197   -3.1437 H   0  0  0  0  0
  -55.4678   12.9084   -1.5744 H   0  0  0  0  0
  -54.5551   11.6561   -3.0046 H   0  0  0  0  0
  -52.8724   10.1668   -3.5976 H   0  0  0  0  0
  -51.6730   11.1707   -2.6684 H   0  0  0  0  0
  -53.8073   12.7096   -5.2757 H   0  0  0  0  0
  -52.8530   13.6238   -7.3932 H   0  0  0  0  0
  -49.9873   10.8805   -4.4121 H   0  0  0  0  0
  -49.0400   11.8110   -6.5180 H   0  0  0  0  0
  -49.2812   12.0611  -10.7222 H   0  0  0  0  0
  -48.7064   13.7464  -10.7019 H   0  0  0  0  0
  -47.6085   12.4255  -10.2320 H   0  0  0  0  0
  1  2  1  0  0  0
  2  3  4  0  0  0
  2  4  4  0  0  0
  3  6  4  0  0  0
  4  5  4  0  0  0
  5  6  4  0  0  0
  6  7  1  0  0  0
  7  8  1  0  0  0
  8  9  2  0  0  0
  8 10  1  0  0  0
 10 11  1  0  0  0
 10 15  1  0  0  0
 11 12  1  0  0  0
 12 13  1  0  0  0
 12 14  1  0  0  0
 14 15  1  0  0  0
 15 16  1  0  0  0
 16 17  2  0  0  0
 16 18  1  0  0  0
 18 19  1  0  0  0
 19 20  1  0  0  0
 20 21  4  0  0  0
 20 23  4  0  0  0
 21 22  4  0  0  0
 22 25  4  0  0  0
 23 24  4  0  0  0
 24 25  4  0  0  0
 25 26  1  0  0  0
 26 28  2  0  0  0
 26 29  1  0  0  0
 29 27  1  0  0  0
  1 30  1  0  0  0
  1 31  1  0  0  0
  1 32  1  0  0  0
  3 33  1  0  0  0
  7 34  1  0  0  0
  7 35  1  0  0  0
 11 36  1  0  0  0
 11 37  1  0  0  0
 12 38  1  0  0  0
 13 39  1  0  0  0
 14 40  1  0  0  0
 14 41  1  0  0  0
 15 42  1  0  0  0
 18 43  1  0  0  0
 19 44  1  0  0  0
 19 45  1  0  0  0
 21 46  1  0  0  0
 22 47  1  0  0  0
 23 48  1  0  0  0
 24 49  1  0  0  0
 27 50  1  0  0  0
 27 51  1  0  0  0
 27 52  1  0  0  0
M  END
$$$$
