1wun_ligand
  -I-interpret- 

 71 73  0  0  0  0  0  0  0  0999 V2000
   35.7730    7.0680   10.1130 C   0  0  0  0  0
   34.8520    7.2770   10.8820 O   0  0  0  0  0
   35.7950    7.5510    8.8350 N   0  0  0  0  0
   34.6750    8.3580    8.3860 C   0  0  0  0  0
   34.7970    8.6720    6.9000 C   0  0  0  0  0
   36.0620    9.4510    6.5140 C   0  0  0  0  0
   33.3730    7.5940    8.7050 C   0  0  0  0  0
   33.3080    6.3730    8.5780 O   0  0  0  0  0
   32.3690    8.3840    9.1360 N   0  0  0  0  0
   31.1260    7.7340    9.4310 C   0  0  0  0  0
   31.7550    6.6250   11.5950 C   0  0  0  0  0
   31.5200    6.3720   12.9460 C   0  0  0  0  0
   30.4610    6.9910   13.6330 C   0  0  0  0  0
   29.5880    7.8300   12.9270 C   0  0  0  0  0
   29.7950    8.0710   11.5580 C   0  0  0  0  0
   30.8830    7.4740   10.8900 C   0  0  0  0  0
   30.2960    6.7540   15.0730 C   0  0  0  0  0
   30.9440    5.7520   15.6580 N   0  0  0  0  0
   35.9090    9.8440    5.0660 C   0  0  0  0  0
   35.6410    9.0300    4.2120 O   0  0  0  0  0
   35.9960   11.1390    4.8280 N   0  0  0  0  0
   37.9740    7.1250   11.2960 C   0  0  0  0  0
   36.5520    5.1740   11.4790 N   0  0  0  0  0
   36.9920    6.2180   10.5740 C   0  0  0  0  0
   36.3910    3.5860   10.8490 S   0  0  0  0  0
   35.7540    3.7920    9.5960 O   0  0  0  0  0
   35.7240    2.8650   11.8770 O   0  0  0  0  0
   37.9750    2.9600   10.5980 C   0  0  0  0  0
   38.4440    2.6500   12.0240 C   0  0  0  0  0
   29.4830    7.4900   15.8250 N   0  0  0  0  0
   41.4320    4.5880   14.6690 C   0  0  0  0  0
   41.8850    4.7290   13.3120 C   0  0  0  0  0
   41.1220    5.3680   12.3400 C   0  0  0  0  0
   39.8230    5.8900   12.6930 C   0  0  0  0  0
   39.3820    5.7780   14.0210 C   0  0  0  0  0
   40.1640    5.1270   15.0380 C   0  0  0  0  0
   41.3380    5.6430   11.0040 N   0  0  0  0  0
   40.2610    6.2730   10.4920 C   0  0  0  0  0
   39.2880    6.4510   11.4890 C   0  0  0  0  0
   36.5778    7.3498    8.2128 H   0  0  0  0  0
   34.6662    9.3157    8.9064 H   0  0  0  0  0
   33.9446    9.2979    6.6358 H   0  0  0  0  0
   34.8383    7.7175    6.3753 H   0  0  0  0  0
   36.9522    8.8384    6.6567 H   0  0  0  0  0
   36.1807   10.3327    7.1438 H   0  0  0  0  0
   32.4877    9.3910    9.2463 H   0  0  0  0  0
   31.1509    6.7632    8.9361 H   0  0  0  0  0
   30.3322    8.3993    9.0913 H   0  0  0  0  0
   32.6066    6.1690   11.0900 H   0  0  0  0  0
   32.1708    5.6800   13.4805 H   0  0  0  0  0
   28.7472    8.2963   13.4406 H   0  0  0  0  0
   29.1122    8.7214   11.0113 H   0  0  0  0  0
   31.5548    5.1489   15.1070 H   0  0  0  0  0
   35.8339   11.4965    3.8866 H   0  0  0  0  0
   36.2254   11.7825    5.5855 H   0  0  0  0  0
   37.5633    7.3733   12.2747 H   0  0  0  0  0
   38.1275    8.0207   10.6941 H   0  0  0  0  0
   36.3452    5.3767   12.4570 H   0  0  0  0  0
   37.4679    5.7607    9.7065 H   0  0  0  0  0
   38.6305    3.6577   10.0768 H   0  0  0  0  0
   37.9889    2.0864    9.9463 H   0  0  0  0  0
   38.4410    3.5668   12.6135 H   0  0  0  0  0
   37.7697    1.9231   12.4769 H   0  0  0  0  0
   39.4536    2.2404   11.9921 H   0  0  0  0  0
   29.3733    7.2772   16.8165 H   0  0  0  0  0
   28.9691    8.2674   15.4103 H   0  0  0  0  0
   42.0497    4.0757   15.4066 H   0  0  0  0  0
   42.8577    4.3221   13.0357 H   0  0  0  0  0
   38.4135    6.1989   14.2910 H   0  0  0  0  0
   39.7979    5.0479   16.0616 H   0  0  0  0  0
   40.1605    6.5966    9.4560 H   0  0  0  0  0
  1  2  2  0  0  0
  1  3  1  0  0  0
 24  1  1  0  0  0
  3  4  1  0  0  0
  4  5  1  0  0  0
  4  7  1  0  0  0
  5  6  1  0  0  0
  6 19  1  0  0  0
  7  8  2  0  0  0
  7  9  1  0  0  0
  9 10  1  0  0  0
 10 16  1  0  0  0
 11 12  4  0  0  0
 16 11  4  0  0  0
 12 13  4  0  0  0
 14 13  4  0  0  0
 13 17  1  0  0  0
 15 14  4  0  0  0
 16 15  4  0  0  0
 17 18  2  0  0  0
 17 30  1  0  0  0
 19 20  2  0  0  0
 19 21  1  0  0  0
 22 24  1  0  0  0
 39 22  1  0  0  0
 24 23  1  0  0  0
 23 25  1  0  0  0
 25 26  2  0  0  0
 25 27  2  0  0  0
 25 28  1  0  0  0
 28 29  1  0  0  0
 32 31  4  0  0  0
 31 36  4  0  0  0
 33 32  4  0  0  0
 34 33  4  0  0  0
 33 37  4  0  0  0
 34 35  4  0  0  0
 34 39  4  0  0  0
 35 36  4  0  0  0
 37 38  4  0  0  0
 38 39  4  0  0  0
  3 40  1  0  0  0
  4 41  1  0  0  0
  5 42  1  0  0  0
  5 43  1  0  0  0
  6 44  1  0  0  0
  6 45  1  0  0  0
  9 46  1  0  0  0
 10 47  1  0  0  0
 10 48  1  0  0  0
 11 49  1  0  0  0
 12 50  1  0  0  0
 14 51  1  0  0  0
 15 52  1  0  0  0
 18 53  1  0  0  0
 21 54  1  0  0  0
 21 55  1  0  0  0
 22 56  1  0  0  0
 22 57  1  0  0  0
 23 58  1  0  0  0
 24 59  1  0  0  0
 28 60  1  0  0  0
 28 61  1  0  0  0
 29 62  1  0  0  0
 29 63  1  0  0  0
 29 64  1  0  0  0
 30 65  1  0  0  0
 30 66  1  0  0  0
 31 67  1  0  0  0
 32 68  1  0  0  0
 35 69  1  0  0  0
 36 70  1  0  0  0
 38 71  1  0  0  0
M  END
$$$$
