5zo7_ligand
  -I-interpret- 

 56 59  0  0  0  0  0  0  0  0999 V2000
   28.2240   -5.7980  -10.9730 O   0  0  0  0  0
   27.6460   -5.8150   -9.8860 C   0  0  0  0  0
   28.2290   -5.2690   -8.8300 O   0  0  0  0  0
   26.2960   -6.4410   -9.7550 C   0  0  0  0  0
   25.8510   -6.4380   -8.3620 N   0  3  0  0  0
   25.3590   -5.6110  -10.5890 C   0  0  0  0  0
   23.9810   -6.5840  -11.0540 S   0  0  0  0  0
   22.9000   -5.7020  -12.2230 C   0  0  0  0  0
   22.8240   -4.3500  -11.5770 C   0  0  0  0  0
   23.6790   -3.3220  -11.9400 C   0  0  0  0  0
   23.6300   -2.1190  -11.2610 C   0  0  0  0  0
   22.7690   -1.9330  -10.1870 C   0  0  0  0  0
   22.7070   -0.7540   -9.5180 O   0  0  0  0  0
   23.8280    0.1050   -9.3600 C   0  0  0  0  0
   21.9210   -2.9540   -9.7950 C   0  0  0  0  0
   21.9550   -4.1690  -10.4840 C   0  0  0  0  0
   23.4780   -5.8080  -13.6010 C   0  0  0  0  0
   24.5440   -6.6900  -13.8190 C   0  0  0  0  0
   25.0820   -6.8700  -15.0800 C   0  0  0  0  0
   24.5710   -6.1810  -16.1710 C   0  0  0  0  0
   23.4980   -5.3020  -16.0210 C   0  0  0  0  0
   22.9110   -5.0940  -14.7830 C   0  0  0  0  0
   21.7990   -4.0810  -14.7520 C   0  0  0  0  0
   20.5790   -4.3480  -13.8830 C   0  0  0  0  0
   20.4700   -5.7060  -13.2580 C   0  0  0  0  0
   21.5520   -6.3400  -12.4310 C   0  0  0  0  0
   19.2560   -6.3490  -13.4390 C   0  0  0  0  0
   19.0450   -7.5870  -12.8750 C   0  0  0  0  0
   20.0390   -8.2040  -12.1240 C   0  0  0  0  0
   21.2830   -7.6050  -11.9080 C   0  0  0  0  0
   27.6561   -5.3627   -8.0654 H   0  0  0  0  0
   26.3211   -7.4792  -10.0862 H   0  0  0  0  0
   26.4895   -7.0020   -7.8011 H   0  0  0  0  0
   25.8433   -5.4804   -8.0108 H   0  0  0  0  0
   24.9108   -6.8295   -8.3058 H   0  0  0  0  0
   25.8774   -5.2627  -11.4823 H   0  0  0  0  0
   25.0199   -4.7517  -10.0104 H   0  0  0  0  0
   24.3869   -3.4612  -12.7571 H   0  0  0  0  0
   24.2790   -1.3012  -11.5742 H   0  0  0  0  0
   24.6182   -0.4250   -8.8282 H   0  0  0  0  0
   24.1908    0.4111  -10.3412 H   0  0  0  0  0
   23.5319    0.9855   -8.7898 H   0  0  0  0  0
   21.2354   -2.8121   -8.9595 H   0  0  0  0  0
   21.3025   -4.9846  -10.1724 H   0  0  0  0  0
   24.9579   -7.2457  -12.9776 H   0  0  0  0  0
   25.9150   -7.5593  -15.2184 H   0  0  0  0  0
   25.0131   -6.3283  -17.1564 H   0  0  0  0  0
   23.1151   -4.7701  -16.8919 H   0  0  0  0  0
   21.4158   -4.0546  -15.7721 H   0  0  0  0  0
   22.2506   -3.1822  -14.3320 H   0  0  0  0  0
   19.7176   -4.2557  -14.5444 H   0  0  0  0  0
   20.6457   -3.6440  -13.0535 H   0  0  0  0  0
   18.4696   -5.8755  -14.0268 H   0  0  0  0  0
   18.0882   -8.0889  -13.0188 H   0  0  0  0  0
   19.8421   -9.1846  -11.6906 H   0  0  0  0  0
   22.0449   -8.1274  -11.3295 H   0  0  0  0  0
  1  2  2  0  0  0
  2  3  1  0  0  0
  2  4  1  0  0  0
  4  5  1  0  0  0
  4  6  1  0  0  0
  6  7  1  0  0  0
  7  8  1  0  0  0
  8  9  1  0  0  0
  8 17  1  0  0  0
  8 26  1  0  0  0
  9 10  4  0  0  0
  9 16  4  0  0  0
 10 11  4  0  0  0
 11 12  4  0  0  0
 12 13  1  0  0  0
 12 15  4  0  0  0
 13 14  1  0  0  0
 15 16  4  0  0  0
 17 18  4  0  0  0
 17 22  4  0  0  0
 18 19  4  0  0  0
 19 20  4  0  0  0
 20 21  4  0  0  0
 21 22  4  0  0  0
 22 23  1  0  0  0
 23 24  1  0  0  0
 24 25  1  0  0  0
 25 26  4  0  0  0
 25 27  4  0  0  0
 26 30  4  0  0  0
 27 28  4  0  0  0
 28 29  4  0  0  0
 29 30  4  0  0  0
  3 31  1  0  0  0
  4 32  1  0  0  0
  5 33  1  0  0  0
  5 34  1  0  0  0
  5 35  1  0  0  0
  6 36  1  0  0  0
  6 37  1  0  0  0
 10 38  1  0  0  0
 11 39  1  0  0  0
 14 40  1  0  0  0
 14 41  1  0  0  0
 14 42  1  0  0  0
 15 43  1  0  0  0
 16 44  1  0  0  0
 18 45  1  0  0  0
 19 46  1  0  0  0
 20 47  1  0  0  0
 21 48  1  0  0  0
 23 49  1  0  0  0
 23 50  1  0  0  0
 24 51  1  0  0  0
 24 52  1  0  0  0
 27 53  1  0  0  0
 28 54  1  0  0  0
 29 55  1  0  0  0
 30 56  1  0  0  0
M  END
$$$$
