6sy7_ligand
  -I-interpret- 

 37 39  0  0  0  0  0  0  0  0999 V2000
   46.5640  -48.3150  -88.9410 P   0  0  0  0  0
   47.3290  -49.3820  -89.7110 O   0  0  0  0  0
   45.0350  -48.4100  -88.9760 O   0  0  0  0  0
   47.1040  -48.1820  -87.5170 O   0  0  0  0  0
   46.8590  -46.9240  -89.6650 O   0  0  0  0  0
   46.4220  -45.7160  -88.9840 C   0  0  0  0  0
   47.6010  -45.0020  -88.3670 C   0  0  0  0  0
   47.2300  -43.6170  -88.1370 O   0  0  0  0  0
   48.0790  -45.5100  -87.0040 C   0  0  0  0  0
   49.0900  -46.4940  -87.1930 O   0  0  0  0  0
   48.6650  -44.2490  -86.3610 C   0  0  0  0  0
   50.0310  -44.2100  -86.7090 O   0  0  0  0  0
   47.8690  -43.1010  -86.9930 C   0  0  0  0  0
   46.8410  -42.4950  -86.1490 N   0  0  0  0  0
   46.1020  -43.1330  -85.1910 C   0  0  0  0  0
   45.2600  -42.3400  -84.5760 N   0  0  0  0  0
   45.4320  -41.0940  -85.1750 C   0  0  0  0  0
   44.8160  -39.8330  -84.9660 C   0  0  0  0  0
   43.8650  -39.5910  -84.0650 N   0  0  0  0  0
   45.2270  -38.8030  -85.7300 N   0  0  0  0  0
   46.1680  -39.0460  -86.6460 C   0  0  0  0  0
   46.8290  -40.1720  -86.9170 N   0  0  0  0  0
   46.4090  -41.1840  -86.1450 C   0  0  0  0  0
   44.6590  -47.6923  -88.4610 H   0  0  0  0  0
   46.6085  -47.5052  -87.0500 H   0  0  0  0  0
   45.7199  -45.9877  -88.1957 H   0  0  0  0  0
   45.9455  -45.0541  -89.7071 H   0  0  0  0  0
   48.4081  -45.1683  -89.0805 H   0  0  0  0  0
   47.2984  -45.9736  -86.4008 H   0  0  0  0  0
   49.3892  -46.8120  -86.3381 H   0  0  0  0  0
   48.5975  -44.2019  -85.2741 H   0  0  0  0  0
   50.4363  -43.4300  -86.3230 H   0  0  0  0  0
   48.5904  -42.3088  -87.1935 H   0  0  0  0  0
   46.2034  -44.1939  -84.9624 H   0  0  0  0  0
   43.5295  -40.3430  -83.4631 H   0  0  0  0  0
   43.4724  -38.6537  -83.9771 H   0  0  0  0  0
   46.4372  -38.1923  -87.2680 H   0  0  0  0  0
  1  2  2  0  0  0
  1  3  1  0  0  0
  1  4  1  0  0  0
  1  5  1  0  0  0
  5  6  1  0  0  0
  6  7  1  0  0  0
  7  8  1  0  0  0
  7  9  1  0  0  0
  8 13  1  0  0  0
  9 10  1  0  0  0
  9 11  1  0  0  0
 11 12  1  0  0  0
 11 13  1  0  0  0
 13 14  1  0  0  0
 14 15  4  0  0  0
 14 23  4  0  0  0
 15 16  4  0  0  0
 16 17  4  0  0  0
 17 18  4  0  0  0
 17 23  4  0  0  0
 18 19  1  0  0  0
 18 20  4  0  0  0
 20 21  4  0  0  0
 21 22  4  0  0  0
 22 23  4  0  0  0
  3 24  1  0  0  0
  4 25  1  0  0  0
  6 26  1  0  0  0
  6 27  1  0  0  0
  7 28  1  0  0  0
  9 29  1  0  0  0
 10 30  1  0  0  0
 11 31  1  0  0  0
 12 32  1  0  0  0
 13 33  1  0  0  0
 15 34  1  0  0  0
 19 35  1  0  0  0
 19 36  1  0  0  0
 21 37  1  0  0  0
M  END
$$$$
