### 
### Created by X-TOOL on Mon Aug  2 16:11:32 2021
### 

@<TRIPOS>MOLECULE
6sy7_ligand
   35    37     1     0     0
SMALL
GAST_HUCK


@<TRIPOS>ATOM
      1 P          46.5640  -48.3150  -88.9410 P.3       1 AMP         0.2008
      2 O1P        47.3290  -49.3820  -89.7110 O.co2     1 AMP        -0.5537
      3 O2P        45.0350  -48.4100  -88.9760 O.co2     1 AMP        -0.5537
      4 O3P        47.1040  -48.1820  -87.5170 O.co2     1 AMP        -0.5537
      5 O5'        46.8590  -46.9240  -89.6650 O.3       1 AMP        -0.2734
      6 C5'        46.4220  -45.7160  -88.9840 C.3       1 AMP         0.1072
      7 C4'        47.6010  -45.0020  -88.3670 C.3       1 AMP         0.1182
      8 O4'        47.2300  -43.6170  -88.1370 O.3       1 AMP        -0.3365
      9 C3'        48.0790  -45.5100  -87.0040 C.3       1 AMP         0.1149
     10 O3'        49.0900  -46.4940  -87.1930 O.3       1 AMP        -0.3864
     11 C2'        48.6650  -44.2490  -86.3610 C.3       1 AMP         0.1385
     12 O2'        50.0310  -44.2100  -86.7090 O.3       1 AMP        -0.3836
     13 C1'        47.8690  -43.1010  -86.9930 C.3       1 AMP         0.2010
     14 N9         46.8410  -42.4950  -86.1490 N.pl3     1 AMP        -0.1919
     15 C8         46.1020  -43.1330  -85.1910 C.2       1 AMP         0.1123
     16 N7         45.2600  -42.3400  -84.5760 N.2       1 AMP        -0.2958
     17 C5         45.4320  -41.0940  -85.1750 C.ar      1 AMP         0.1045
     18 C6         44.8160  -39.8330  -84.9660 C.ar      1 AMP         0.1298
     19 N6         43.8650  -39.5910  -84.0650 N.pl3     1 AMP        -0.3152
     20 N1         45.2270  -38.8030  -85.7300 N.ar      1 AMP        -0.2698
     21 C2         46.1680  -39.0460  -86.6460 C.ar      1 AMP         0.0533
     22 N3         46.8290  -40.1720  -86.9170 N.ar      1 AMP        -0.2714
     23 C4         46.4090  -41.1840  -86.1450 C.ar      1 AMP         0.1613
     24 H1         45.7069  -45.9849  -88.1926 H         1 AMP         0.0639
     25 H2         45.9331  -45.0484  -89.7087 H         1 AMP         0.0639
     26 H3         48.4398  -45.0597  -89.0762 H         1 AMP         0.0650
     27 H4         47.2521  -45.9224  -86.4072 H         1 AMP         0.0648
     28 H5         48.7355  -47.2183  -87.6952 H         1 AMP         0.2100
     29 H6         48.5486  -44.2512  -85.2672 H         1 AMP         0.0676
     30 H7         50.4631  -44.9890  -86.3789 H         1 AMP         0.2101
     31 H8         48.5785  -42.3128  -87.2853 H         1 AMP         0.0996
     32 H9         46.2034  -44.1930  -84.9626 H         1 AMP         0.1349
     33 H10        43.4685  -38.6445  -83.9762 H         1 AMP         0.1820
     34 H11        43.5262  -40.3504  -83.4572 H         1 AMP         0.1820
     35 H12        46.4357  -38.1970  -87.2646 H         1 AMP         0.0996
@<TRIPOS>BOND
     1    1    2 ar 
     2    1    3 ar 
     3    1    4 ar 
     4    1    5 1  
     5    5    6 1  
     6    6    7 1  
     7    7    8 1  
     8    7    9 1  
     9    8   13 1  
    10    9   10 1  
    11    9   11 1  
    12   11   12 1  
    13   11   13 1  
    14   13   14 1  
    15   14   15 1  
    16   14   23 1  
    17   15   16 2  
    18   16   17 1  
    19   17   18 ar 
    20   17   23 ar 
    21   18   19 1  
    22   18   20 ar 
    23   20   21 ar 
    24   21   22 ar 
    25   22   23 ar 
    26    6   24 1  
    27    6   25 1  
    28    7   26 1  
    29    9   27 1  
    30   10   28 1  
    31   11   29 1  
    32   12   30 1  
    33   13   31 1  
    34   15   32 1  
    35   19   33 1  
    36   19   34 1  
    37   21   35 1  
@<TRIPOS>SUBSTRUCTURE
     1 AMP         1

