3f8w_ligand
  -I-interpret- 

 35 37  0  0  0  0  0  0  0  0999 V2000
   18.3920   25.7370    7.1700 O   0  0  0  0  0
   18.9620   25.6790    8.4690 C   0  0  0  0  0
   19.4330   27.0990    8.8990 C   0  0  0  0  0
   18.3010   27.9950    8.7660 O   0  0  0  0  0
   19.8130   27.1670   10.3990 C   0  0  0  0  0
   20.7130   28.2440   10.5830 O   0  0  0  0  0
   18.4920   27.3630   11.1470 C   0  0  0  0  0
   18.5650   28.3600   12.1310 O   0  0  0  0  0
   17.5470   27.8320   10.0080 C   0  0  0  0  0
   16.4110   26.9470    9.7080 N   0  0  0  0  0
   15.6300   26.9880    8.4100 C   0  0  0  0  0
   14.5700   25.9450    8.5290 N   0  0  0  0  0
   14.6860   25.2770    9.8750 C   0  0  0  0  0
   13.8910   24.1180   10.5280 C   0  0  0  0  0
   12.7570   23.5150    9.8300 N   0  3  0  0  0
   14.2630   23.6460   11.8380 N   0  0  0  0  0
   15.4250   24.2900   12.5950 C   0  0  0  0  0
   16.2150   25.4160   11.9480 N   0  0  0  0  0
   15.8380   25.8860   10.5960 C   0  0  0  0  0
   18.1031   24.8595    6.9091 H   0  0  0  0  0
   19.8166   25.0025    8.4587 H   0  0  0  0  0
   18.2152   25.3166    9.1755 H   0  0  0  0  0
   20.2940   27.3562    8.2821 H   0  0  0  0  0
   20.3134   26.2723   10.7694 H   0  0  0  0  0
   21.5213   28.0710   10.0949 H   0  0  0  0  0
   18.1803   26.4629   11.6768 H   0  0  0  0  0
   19.1493   28.0705   12.8356 H   0  0  0  0  0
   17.1317   28.7665   10.3852 H   0  0  0  0  0
   15.8071   27.6471    7.5601 H   0  0  0  0  0
   14.2662   23.4877    9.7218 H   0  0  0  0  0
   12.3592   22.7738   10.4070 H   0  0  0  0  0
   12.0490   24.2280    9.6547 H   0  0  0  0  0
   13.0742   23.1238    8.9430 H   0  0  0  0  0
   13.7469   22.8760   12.2636 H   0  0  0  0  0
   15.6859   23.9430   13.5948 H   0  0  0  0  0
  1  2  1  0  0  0
  2  3  1  0  0  0
  3  4  1  0  0  0
  3  5  1  0  0  0
  4  9  1  0  0  0
  5  6  1  0  0  0
  5  7  1  0  0  0
  7  8  1  0  0  0
  7  9  1  0  0  0
  9 10  1  0  0  0
 10 11  4  0  0  0
 10 19  4  0  0  0
 11 12  4  0  0  0
 12 13  4  0  0  0
 13 14  1  0  0  0
 13 19  4  0  0  0
 14 15  1  0  0  0
 14 16  1  0  0  0
 16 17  1  0  0  0
 17 18  2  0  0  0
 18 19  1  0  0  0
  1 20  1  0  0  0
  2 21  1  0  0  0
  2 22  1  0  0  0
  3 23  1  0  0  0
  5 24  1  0  0  0
  6 25  1  0  0  0
  7 26  1  0  0  0
  8 27  1  0  0  0
  9 28  1  0  0  0
 11 29  1  0  0  0
 14 30  1  0  0  0
 15 31  1  0  0  0
 15 32  1  0  0  0
 15 33  1  0  0  0
 16 34  1  0  0  0
 17 35  1  0  0  0
M  END
$$$$
