3jsw_ligand
  -I-interpret- 

 52 55  0  0  0  0  0  0  0  0999 V2000
   79.6000   50.9590   40.5740 C   0  0  0  0  0
   78.0890   50.7740   40.6380 C   0  0  0  0  0
   77.5840   49.5020   39.9690 C   0  0  0  0  0
   77.6120   50.8250   42.0440 N   0  0  0  0  0
   78.3100   50.2130   43.0960 N   0  0  0  0  0
   77.5790   50.4910   44.2030 C   0  0  0  0  0
   76.4900   51.2790   43.8380 C   0  0  0  0  0
   75.4130   51.9930   44.5240 C   0  0  0  0  0
   75.2060   51.9600   45.7480 O   0  0  0  0  0
   74.5850   52.7160   43.7380 N   0  0  0  0  0
   74.6700   52.8720   42.3870 C   0  0  0  0  0
   75.6210   52.2840   41.7250 N   0  0  0  0  0
   76.5310   51.4960   42.4640 C   0  0  0  0  0
   73.6620   53.6650   41.6040 C   0  0  0  0  0
   72.8240   52.7630   40.6910 C   0  0  0  0  0
   73.1200   53.2510   39.3380 N   0  3  0  0  0
   71.9190   53.1420   38.5320 C   0  0  0  0  0
   71.6400   51.6490   38.3090 C   0  0  0  0  0
   70.3610   51.1150   38.6550 C   0  0  0  0  0
   70.0770   49.7310   38.4550 C   0  0  0  0  0
   71.0890   48.9120   37.8990 C   0  0  0  0  0
   72.3490   49.4630   37.5670 C   0  0  0  0  0
   72.6270   50.8300   37.7740 C   0  0  0  0  0
   73.4570   54.6310   39.4490 C   0  0  0  0  0
   74.3080   54.7110   40.6960 C   0  0  0  0  0
   74.5010   56.0910   41.3180 C   0  0  0  0  0
   79.8648   51.9262   41.0013 H   0  0  0  0  0
   80.0863   50.1647   41.1404 H   0  0  0  0  0
   79.9261   50.9180   39.5347 H   0  0  0  0  0
   77.6739   51.6055   40.0685 H   0  0  0  0  0
   77.9608   48.6341   40.5103 H   0  0  0  0  0
   76.4941   49.4945   39.9815 H   0  0  0  0  0
   77.9371   49.4704   38.9382 H   0  0  0  0  0
   77.8063   50.1530   45.2140 H   0  0  0  0  0
   75.7068   52.3872   40.7139 H   0  0  0  0  0
   73.0448   54.1524   42.3588 H   0  0  0  0  0
   71.7605   52.8138   40.9244 H   0  0  0  0  0
   73.0719   51.7086   40.8127 H   0  0  0  0  0
   73.8775   52.7151   38.9143 H   0  0  0  0  0
   72.0561   53.6489   37.5768 H   0  0  0  0  0
   71.0775   53.6133   39.0398 H   0  0  0  0  0
   69.5968   51.7692   39.0746 H   0  0  0  0  0
   69.1059   49.3151   38.7234 H   0  0  0  0  0
   70.8967   47.8531   37.7261 H   0  0  0  0  0
   73.1194   48.8188   37.1432 H   0  0  0  0  0
   73.6042   51.2392   37.5175 H   0  0  0  0  0
   72.5725   55.2645   39.5155 H   0  0  0  0  0
   73.9858   54.9955   38.5683 H   0  0  0  0  0
   75.3568   54.5071   40.4801 H   0  0  0  0  0
   73.5320   56.4943   41.6121 H   0  0  0  0  0
   75.1422   56.0062   42.1954 H   0  0  0  0  0
   74.9662   56.7548   40.5892 H   0  0  0  0  0
  1  2  1  0  0  0
  2  3  1  0  0  0
  2  4  1  0  0  0
  4  5  4  0  0  0
  4 13  4  0  0  0
  5  6  4  0  0  0
  6  7  4  0  0  0
  7  8  1  0  0  0
  7 13  4  0  0  0
  8  9  2  0  0  0
  8 10  1  0  0  0
 10 11  2  0  0  0
 11 12  1  0  0  0
 11 14  1  0  0  0
 12 13  1  0  0  0
 14 15  1  0  0  0
 14 25  1  0  0  0
 15 16  1  0  0  0
 16 17  1  0  0  0
 16 24  1  0  0  0
 17 18  1  0  0  0
 18 19  4  0  0  0
 18 23  4  0  0  0
 19 20  4  0  0  0
 20 21  4  0  0  0
 21 22  4  0  0  0
 22 23  4  0  0  0
 24 25  1  0  0  0
 25 26  1  0  0  0
  1 27  1  0  0  0
  1 28  1  0  0  0
  1 29  1  0  0  0
  2 30  1  0  0  0
  3 31  1  0  0  0
  3 32  1  0  0  0
  3 33  1  0  0  0
  6 34  1  0  0  0
 12 35  1  0  0  0
 14 36  1  0  0  0
 15 37  1  0  0  0
 15 38  1  0  0  0
 16 39  1  0  0  0
 17 40  1  0  0  0
 17 41  1  0  0  0
 19 42  1  0  0  0
 20 43  1  0  0  0
 21 44  1  0  0  0
 22 45  1  0  0  0
 23 46  1  0  0  0
 24 47  1  0  0  0
 24 48  1  0  0  0
 25 49  1  0  0  0
 26 50  1  0  0  0
 26 51  1  0  0  0
 26 52  1  0  0  0
M  END
$$$$
