5t1w_ligand
  -I-interpret- 

 48 50  0  0  0  0  0  0  0  0999 V2000
   16.3290  -36.4100    9.6190 O   0  0  0  0  0
   21.2280  -38.9010    6.8060 C   0  0  0  0  0
   22.1220  -38.6270    7.8210 C   0  0  0  0  0
   21.7350  -38.0870    9.0190 C   0  0  0  0  0
   20.3980  -37.8460    9.1960 C   0  0  0  0  0
   19.4280  -38.1340    8.2450 C   0  0  0  0  0
   17.9180  -37.9920    8.5550 C   0  0  0  0  0
   16.2820  -38.6540   10.4920 C   0  0  0  0  0
   17.5700  -40.4590    9.2420 C   0  0  0  0  0
   16.3780  -39.1400    7.0530 C   0  0  0  0  0
   21.1980  -41.9460    5.0800 C   0  0  0  0  0
   22.1200  -42.1460    3.8350 C   0  0  0  0  0
   14.8160  -36.8010   11.2760 C   0  0  0  0  0
   17.6100  -36.5120    8.9850 C   0  0  0  0  0
   19.8760  -38.6420    7.0260 C   0  0  0  0  0
   16.2150  -37.1750   10.8150 C   0  0  0  0  0
   17.5630  -39.0100    9.7230 C   0  0  0  0  0
   16.4730  -40.7500    7.8360 S   0  0  0  0  0
   17.0260  -38.0580    7.3860 N   0  0  0  0  0
   15.5620  -39.1720    5.9990 N   0  0  0  0  0
   14.8690  -35.4800   11.6210 F   0  0  0  0  0
   20.0150  -37.2350   10.3410 F   0  0  0  0  0
   23.4210  -38.9790    7.6510 F   0  0  0  0  0
   21.7000  -39.5410    5.5280 C   0  0  0  0  0
   20.7790  -40.5500    5.0090 N   0  3  0  0  0
   23.2750  -41.5060    3.9740 F   0  0  0  0  0
   22.4230  -43.4190    3.6350 F   0  0  0  0  0
   21.5370  -41.7210    2.7060 F   0  0  0  0  0
   22.4609  -37.8585    9.7993 H   0  0  0  0  0
   15.4251  -38.9085    9.8683 H   0  0  0  0  0
   16.2780  -39.2107   11.4291 H   0  0  0  0  0
   17.2218  -41.0816   10.0662 H   0  0  0  0  0
   18.5850  -40.6954    8.9226 H   0  0  0  0  0
   21.7184  -42.1679    6.0117 H   0  0  0  0  0
   20.3472  -42.6273    5.0701 H   0  0  0  0  0
   14.5029  -37.4154   12.1201 H   0  0  0  0  0
   14.0834  -36.9722   10.4873 H   0  0  0  0  0
   18.3740  -36.1901    9.6926 H   0  0  0  0  0
   17.6068  -35.8851    8.0933 H   0  0  0  0  0
   19.1566  -38.8400    6.2314 H   0  0  0  0  0
   16.9967  -36.9857   11.5507 H   0  0  0  0  0
   18.3672  -38.9080   10.4517 H   0  0  0  0  0
   16.9097  -37.2227    6.8123 H   0  0  0  0  0
   15.0939  -40.0412    5.7426 H   0  0  0  0  0
   22.6465  -40.0383    5.7399 H   0  0  0  0  0
   21.7822  -38.7546    4.7778 H   0  0  0  0  0
   19.9439  -40.4844    5.5910 H   0  0  0  0  0
   20.6784  -40.3441    4.0151 H   0  0  0  0  0
 14  1  1  0  0  0
  1 16  1  0  0  0
  2  3  4  0  0  0
  2 15  4  0  0  0
 24  2  1  0  0  0
  3  4  4  0  0  0
  3 23  1  0  0  0
  4  5  4  0  0  0
  6  5  4  0  0  0
  5 22  1  0  0  0
  6  7  1  0  0  0
 15  6  4  0  0  0
  7 14  1  0  0  0
  7 17  1  0  0  0
  7 19  1  0  0  0
  8 16  1  0  0  0
 17  8  1  0  0  0
 17  9  1  0  0  0
  9 18  1  0  0  0
 10 18  1  0  0  0
 19 10  1  0  0  0
 10 20  2  0  0  0
 11 12  1  0  0  0
 25 11  1  0  0  0
 12 26  1  0  0  0
 12 27  1  0  0  0
 12 28  1  0  0  0
 16 13  1  0  0  0
 13 21  1  0  0  0
 24 25  1  0  0  0
  4 29  1  0  0  0
  8 30  1  0  0  0
  8 31  1  0  0  0
  9 32  1  0  0  0
  9 33  1  0  0  0
 11 34  1  0  0  0
 11 35  1  0  0  0
 13 36  1  0  0  0
 13 37  1  0  0  0
 14 38  1  0  0  0
 14 39  1  0  0  0
 15 40  1  0  0  0
 16 41  1  0  0  0
 17 42  1  0  0  0
 19 43  1  0  0  0
 20 44  1  0  0  0
 24 45  1  0  0  0
 24 46  1  0  0  0
 25 47  1  0  0  0
 25 48  1  0  0  0
M  END
$$$$
