5ouh_ligand
  -I-interpret- 

 53 55  0  0  0  0  0  0  0  0999 V2000
   42.3180  -14.2290   -0.6750 O   0  0  0  0  0
   41.3460  -13.7160   -1.1980 C   0  0  0  0  0
   32.2400  -16.6650    0.8750 C   0  0  0  0  0
   32.4550  -17.9950    0.5190 C   0  0  0  0  0
   33.7020  -18.4270    0.1010 C   0  0  0  0  0
   34.7400  -17.5240    0.0360 C   0  0  0  0  0
   34.5180  -16.2140    0.3920 C   0  0  0  0  0
   33.2560  -15.7760    0.8200 C   0  0  0  0  0
   37.1460  -16.9960    0.1180 C   0  0  0  0  0
   38.5660  -17.3140   -0.3260 C   0  0  0  0  0
   39.4150  -17.4100    0.9410 C   0  0  0  0  0
   40.7680  -17.1480    0.6990 C   0  0  0  0  0
   40.9130  -15.8910    0.0650 C   0  0  0  0  0
   40.2550  -15.9630   -1.2990 C   0  0  0  0  0
   38.8960  -16.2400   -1.1610 N   0  3  0  0  0
   38.3730  -15.2420   -0.7240 C   0  0  0  0  0
   40.3650  -14.5950   -1.9660 C   0  0  0  0  0
   36.1310  -17.9720   -0.4160 C   0  0  0  0  0
   36.2120  -17.9750   -1.7900 O   0  0  0  0  0
   40.5380  -11.6820    0.0530 C   0  0  0  0  0
   41.1070  -12.2120   -1.0840 C   0  0  0  0  0
   41.4470  -11.3700   -2.1320 C   0  0  0  0  0
   41.2250  -10.0370   -2.0460 C   0  0  0  0  0
   40.6440   -9.4960   -0.8890 C   0  0  0  0  0
   40.3110  -10.3290    0.1400 C   0  0  0  0  0
   31.2507  -16.3413    1.1983 H   0  0  0  0  0
   31.6297  -18.7052    0.5704 H   0  0  0  0  0
   33.8606  -19.4699   -0.1736 H   0  0  0  0  0
   35.3406  -15.5008    0.3404 H   0  0  0  0  0
   33.0976  -14.7355    1.1036 H   0  0  0  0  0
   36.8911  -16.0081   -0.2657 H   0  0  0  0  0
   37.1182  -17.0496    1.2063 H   0  0  0  0  0
   38.7117  -18.2508   -0.8639 H   0  0  0  0  0
   39.3323  -18.4266    1.3256 H   0  0  0  0  0
   39.0492  -16.6660    1.6487 H   0  0  0  0  0
   41.1729  -17.9250    0.0506 H   0  0  0  0  0
   41.3055  -17.1350    1.6472 H   0  0  0  0  0
   41.9701  -15.6482   -0.0436 H   0  0  0  0  0
   40.4407  -15.1139    0.6660 H   0  0  0  0  0
   40.7444  -16.7408   -1.8851 H   0  0  0  0  0
   38.5661  -16.5169   -2.0856 H   0  0  0  0  0
   37.2919  -15.3796   -0.7023 H   0  0  0  0  0
   38.7371  -15.0551    0.2862 H   0  0  0  0  0
   38.6199  -14.3943   -1.3632 H   0  0  0  0  0
   40.7227  -14.7225   -2.9877 H   0  0  0  0  0
   39.3846  -14.1186   -1.9698 H   0  0  0  0  0
   36.3202  -18.9785   -0.0427 H   0  0  0  0  0
   35.5698  -18.5935   -2.1459 H   0  0  0  0  0
   40.2680  -12.3349    0.8830 H   0  0  0  0  0
   41.8973  -11.7851   -3.0337 H   0  0  0  0  0
   41.4976   -9.3844   -2.8754 H   0  0  0  0  0
   40.4609   -8.4242   -0.8128 H   0  0  0  0  0
   39.8594   -9.9161    1.0420 H   0  0  0  0  0
  2  1  2  0  0  0
 17  2  1  0  0  0
  2 21  1  0  0  0
  4  3  4  0  0  0
  8  3  4  0  0  0
  5  4  4  0  0  0
  6  5  4  0  0  0
  6  7  4  0  0  0
 18  6  1  0  0  0
  7  8  4  0  0  0
 10  9  1  0  0  0
  9 18  1  0  0  0
 10 11  1  0  0  0
 15 10  1  0  0  0
 12 11  1  0  0  0
 13 12  1  0  0  0
 14 13  1  0  0  0
 14 15  1  0  0  0
 14 17  1  0  0  0
 15 16  1  0  0  0
 18 19  1  0  0  0
 21 20  4  0  0  0
 20 25  4  0  0  0
 21 22  4  0  0  0
 22 23  4  0  0  0
 23 24  4  0  0  0
 24 25  4  0  0  0
  3 26  1  0  0  0
  4 27  1  0  0  0
  5 28  1  0  0  0
  7 29  1  0  0  0
  8 30  1  0  0  0
  9 31  1  0  0  0
  9 32  1  0  0  0
 10 33  1  0  0  0
 11 34  1  0  0  0
 11 35  1  0  0  0
 12 36  1  0  0  0
 12 37  1  0  0  0
 13 38  1  0  0  0
 13 39  1  0  0  0
 14 40  1  0  0  0
 15 41  1  0  0  0
 16 42  1  0  0  0
 16 43  1  0  0  0
 16 44  1  0  0  0
 17 45  1  0  0  0
 17 46  1  0  0  0
 18 47  1  0  0  0
 19 48  1  0  0  0
 20 49  1  0  0  0
 22 50  1  0  0  0
 23 51  1  0  0  0
 24 52  1  0  0  0
 25 53  1  0  0  0
M  END
$$$$
