1ws4_ligand
  -I-interpret- 

 27 27  0  0  0  0  0  0  0  0999 V2000
   51.0840   54.1280   66.3810 C   0  0  0  0  0
   51.6640   55.4150   65.7840 C   0  0  0  0  0
   51.6710   56.5720   66.7820 C   0  0  0  0  0
   50.2330   56.8080   67.2470 C   0  0  0  0  0
   49.7010   55.5160   67.9130 C   0  0  0  0  0
   48.2610   55.6660   68.4270 C   0  0  0  0  0
   51.4270   52.3010   67.9180 C   0  0  0  0  0
   51.9540   53.5340   67.3700 O   0  0  0  0  0
   52.9930   55.1490   65.3030 O   0  0  0  0  0
   52.2070   57.7500   66.1450 O   0  0  0  0  0
   50.2100   57.8880   68.1810 O   0  0  0  0  0
   49.7480   54.4140   66.9400 O   0  0  0  0  0
   47.3570   55.9400   67.3600 O   0  0  0  0  0
   50.9946   53.3908   65.5831 H   0  0  0  0  0
   51.0231   55.7265   64.9592 H   0  0  0  0  0
   52.2959   56.3390   67.6442 H   0  0  0  0  0
   49.6004   57.0617   66.3964 H   0  0  0  0  0
   50.3384   55.3082   68.7724 H   0  0  0  0  0
   48.2286   56.4970   69.1316 H   0  0  0  0  0
   47.9632   54.7318   68.9032 H   0  0  0  0  0
   50.4671   52.4981   68.3953 H   0  0  0  0  0
   51.2929   51.5761   67.1151 H   0  0  0  0  0
   52.1258   51.9043   68.6545 H   0  0  0  0  0
   52.9662   54.4203   64.6786 H   0  0  0  0  0
   53.1082   57.5777   65.8625 H   0  0  0  0  0
   50.5417   58.6831   67.7574 H   0  0  0  0  0
   46.4676   56.0284   67.7104 H   0  0  0  0  0
  1  2  1  0  0  0
  1  8  1  0  0  0
  1 12  1  0  0  0
  2  3  1  0  0  0
  2  9  1  0  0  0
  3  4  1  0  0  0
  3 10  1  0  0  0
  4  5  1  0  0  0
  4 11  1  0  0  0
  5  6  1  0  0  0
  5 12  1  0  0  0
  6 13  1  0  0  0
  8  7  1  0  0  0
  1 14  1  0  0  0
  2 15  1  0  0  0
  3 16  1  0  0  0
  4 17  1  0  0  0
  5 18  1  0  0  0
  6 19  1  0  0  0
  6 20  1  0  0  0
  7 21  1  0  0  0
  7 22  1  0  0  0
  7 23  1  0  0  0
  9 24  1  0  0  0
 10 25  1  0  0  0
 11 26  1  0  0  0
 13 27  1  0  0  0
M  END
$$$$
