1awf_ligand
  -I-interpret- 

108112  0  0  0  0  0  0  0  0999 V2000
    3.0570   17.1890   48.1100 C   0  0  0  0  0
    2.2460   16.0630   47.5050 C   0  0  0  0  0
    2.5040   14.7600   48.2240 C   0  0  0  0  0
    2.1650   14.9410   49.7410 C   0  0  0  0  0
    2.7730   16.2430   50.3890 C   0  0  0  0  0
    2.3860   16.5280   51.8540 C   0  0  0  0  0
    2.8020   17.8940   52.3250 C   0  0  0  0  0
    3.4680   18.7640   51.5470 C   0  0  0  0  0
    3.7660   18.4550   50.1050 C   0  0  0  0  0
    2.6890   17.5150   49.5610 C   0  0  0  0  0
    4.0450   19.6940   49.2510 C   0  0  0  0  0
    5.1570   20.5810   49.8020 C   0  0  0  0  0
    5.3380   20.4280   51.3360 C   0  0  0  0  0
    3.9420   20.1290   52.0000 C   0  0  0  0  0
    4.2340   20.3200   53.4920 C   0  0  0  0  0
    5.3350   21.3960   53.5450 C   0  0  0  0  0
    5.7540   21.7310   52.0950 C   0  0  0  0  0
    6.3570   19.3110   51.7180 C   0  0  0  0  0
    1.3000   18.1950   49.6370 C   0  0  0  0  0
    7.4530   22.9510   50.4740 C   0  0  0  0  0
    8.8410   22.8680   49.9490 C   0  0  0  0  0
    9.2080   23.4890   48.6930 C   0  0  0  0  0
   10.1280   22.9660   47.8640 C   0  0  0  0  0
   10.4070   23.6140   46.5580 C   0  0  0  0  0
   10.8750   21.6850   48.0980 C   0  0  0  0  0
    2.7720   21.1290   51.6880 C   0  0  0  0  0
    2.6130   13.6760   50.5080 C   0  0  0  0  0
    0.6220   14.9330   49.9140 C   0  0  0  0  0
    1.8490   13.0000   51.1270 O   0  0  0  0  0
    4.8200   22.5160   54.2050 O   0  0  0  0  0
    8.1270   23.4420   53.8040 O   0  0  0  0  0
    3.9150   13.3880   50.4330 O   0  0  0  0  0
    9.7010   22.2580   50.5270 O   0  0  0  0  0
    3.8840   14.3840   47.9570 O   0  0  0  0  0
    4.2910   13.9130   46.7640 C   0  0  0  0  0
    5.8000   13.8960   46.6400 C   0  0  0  0  0
    3.6000   13.5250   45.8740 O   0  0  0  0  0
    1.6670   21.1510   52.1560 O   0  0  0  0  0
    6.3570   20.3090   49.1050 O   0  0  0  0  0
    5.2730   11.4900   50.4910 O   0  0  0  0  0
    4.3810   12.2460   49.7010 C   0  0  0  0  0
    3.3250   11.2750   49.1130 C   0  0  0  0  0
    4.0870   10.3500   48.1410 C   0  0  0  0  0
    5.2620    9.6680   48.8520 C   0  0  0  0  0
    6.1010   10.6010   49.7410 C   0  0  0  0  0
    6.1340    9.1370   47.8250 O   0  0  0  0  0
    3.2610    9.3240   47.5380 O   0  0  0  0  0
    2.2510   11.8590   48.3520 O   0  0  0  0  0
    6.9970    9.6980   50.6350 C   0  0  0  0  0
    6.3500    9.2540   51.8400 O   0  0  0  0  0
    7.2120   22.3250   51.8900 C   0  0  0  0  0
    7.3830   23.4780   52.8750 C   0  0  0  0  0
    2.8593   18.0829   47.5184 H   0  0  0  0  0
    4.1005   16.8739   48.1048 H   0  0  0  0  0
    2.5342   15.9479   46.4601 H   0  0  0  0  0
    1.1877   16.3077   47.5954 H   0  0  0  0  0
    1.8696   13.9459   47.8736 H   0  0  0  0  0
    3.8218   15.9464   50.3975 H   0  0  0  0  0
    2.8972   15.7949   52.4780 H   0  0  0  0  0
    1.2997   16.4723   51.9242 H   0  0  0  0  0
    2.5521   18.1919   53.3433 H   0  0  0  0  0
    4.7172   17.9260   50.0459 H   0  0  0  0  0
    3.1322   20.2894   49.2326 H   0  0  0  0  0
    4.3620   19.3472   48.2674 H   0  0  0  0  0
    4.8752   21.6217   49.6419 H   0  0  0  0  0
    4.5526   19.3909   53.9646 H   0  0  0  0  0
    3.3441   20.6236   54.0433 H   0  0  0  0  0
    6.2151   21.0501   54.0872 H   0  0  0  0  0
    5.2594   22.6070   51.6754 H   0  0  0  0  0
    6.0095   18.3548   51.3269 H   0  0  0  0  0
    7.3311   19.5477   51.2899 H   0  0  0  0  0
    6.4401   19.2525   52.8032 H   0  0  0  0  0
    1.0721   18.4379   50.6749 H   0  0  0  0  0
    1.3112   19.1086   49.0427 H   0  0  0  0  0
    0.5424   17.5154   49.2468 H   0  0  0  0  0
    6.8304   22.3855   49.7807 H   0  0  0  0  0
    7.2253   24.0129   50.5673 H   0  0  0  0  0
    8.7175   24.4197   48.4079 H   0  0  0  0  0
    9.4952   23.6329   45.9611 H   0  0  0  0  0
   10.7537   24.6336   46.7264 H   0  0  0  0  0
   11.1763   23.0497   46.0308 H   0  0  0  0  0
   11.4445   21.7620   49.0242 H   0  0  0  0  0
   10.1657   20.8608   48.1735 H   0  0  0  0  0
   11.5553   21.5054   47.2656 H   0  0  0  0  0
    2.5527   20.8740   50.6512 H   0  0  0  0  0
    3.1828   22.0581   52.0832 H   0  0  0  0  0
    0.2143   14.0179   49.4846 H   0  0  0  0  0
    0.3764   14.9789   50.9750 H   0  0  0  0  0
    0.1959   15.7966   49.4034 H   0  0  0  0  0
    5.4936   23.1987   54.2477 H   0  0  0  0  0
    6.1387   12.8722   46.4812 H   0  0  0  0  0
    6.1008   14.5148   45.7946 H   0  0  0  0  0
    6.2429   14.2888   47.5552 H   0  0  0  0  0
    1.1725   21.8787   51.7719 H   0  0  0  0  0
    7.0591   20.8658   49.4495 H   0  0  0  0  0
    4.8513   12.7061   48.8320 H   0  0  0  0  0
    2.8521   10.7985   49.9717 H   0  0  0  0  0
    4.4382   11.0030   47.3420 H   0  0  0  0  0
    4.8394    8.9094   49.5108 H   0  0  0  0  0
    6.7344   11.2524   49.1388 H   0  0  0  0  0
    6.8836    8.7013   48.2371 H   0  0  0  0  0
    3.7971    8.7887   46.9484 H   0  0  0  0  0
    1.6653   11.1644   48.0421 H   0  0  0  0  0
    7.8644   10.2888   50.9294 H   0  0  0  0  0
    7.2482    8.8107   50.0539 H   0  0  0  0  0
    6.9552    8.7039   52.3428 H   0  0  0  0  0
    7.9053   21.4952   52.0272 H   0  0  0  0  0
    6.7934   24.3816   52.7201 H   0  0  0  0  0
  1  2  1  0  0  0
 10  1  1  0  0  0
  2  3  1  0  0  0
  4  3  1  0  0  0
  3 34  1  0  0  0
  5  4  1  0  0  0
  4 27  1  0  0  0
  4 28  1  0  0  0
  6  5  1  0  0  0
 10  5  1  0  0  0
  7  6  1  0  0  0
  8  7  2  0  0  0
  8  9  1  0  0  0
 14  8  1  0  0  0
  9 10  1  0  0  0
 11  9  1  0  0  0
 10 19  1  0  0  0
 12 11  1  0  0  0
 13 12  1  0  0  0
 12 39  1  0  0  0
 13 14  1  0  0  0
 17 13  1  0  0  0
 13 18  1  0  0  0
 15 14  1  0  0  0
 14 26  1  0  0  0
 16 15  1  0  0  0
 17 16  1  0  0  0
 16 30  1  0  0  0
 51 17  1  0  0  0
 20 21  1  0  0  0
 51 20  1  0  0  0
 21 22  1  0  0  0
 21 33  2  0  0  0
 22 23  2  0  0  0
 23 24  1  0  0  0
 23 25  1  0  0  0
 26 38  1  0  0  0
 27 29  2  0  0  0
 27 32  1  0  0  0
 52 31  2  0  0  0
 32 41  1  0  0  0
 34 35  1  0  0  0
 35 36  1  0  0  0
 35 37  2  0  0  0
 41 40  1  0  0  0
 40 45  1  0  0  0
 41 42  1  0  0  0
 42 43  1  0  0  0
 42 48  1  0  0  0
 43 44  1  0  0  0
 43 47  1  0  0  0
 45 44  1  0  0  0
 44 46  1  0  0  0
 45 49  1  0  0  0
 49 50  1  0  0  0
 51 52  1  0  0  0
  1 53  1  0  0  0
  1 54  1  0  0  0
  2 55  1  0  0  0
  2 56  1  0  0  0
  3 57  1  0  0  0
  5 58  1  0  0  0
  6 59  1  0  0  0
  6 60  1  0  0  0
  7 61  1  0  0  0
  9 62  1  0  0  0
 11 63  1  0  0  0
 11 64  1  0  0  0
 12 65  1  0  0  0
 15 66  1  0  0  0
 15 67  1  0  0  0
 16 68  1  0  0  0
 17 69  1  0  0  0
 18 70  1  0  0  0
 18 71  1  0  0  0
 18 72  1  0  0  0
 19 73  1  0  0  0
 19 74  1  0  0  0
 19 75  1  0  0  0
 20 76  1  0  0  0
 20 77  1  0  0  0
 22 78  1  0  0  0
 24 79  1  0  0  0
 24 80  1  0  0  0
 24 81  1  0  0  0
 25 82  1  0  0  0
 25 83  1  0  0  0
 25 84  1  0  0  0
 26 85  1  0  0  0
 26 86  1  0  0  0
 28 87  1  0  0  0
 28 88  1  0  0  0
 28 89  1  0  0  0
 30 90  1  0  0  0
 36 91  1  0  0  0
 36 92  1  0  0  0
 36 93  1  0  0  0
 38 94  1  0  0  0
 39 95  1  0  0  0
 41 96  1  0  0  0
 42 97  1  0  0  0
 43 98  1  0  0  0
 44 99  1  0  0  0
 45100  1  0  0  0
 46101  1  0  0  0
 47102  1  0  0  0
 48103  1  0  0  0
 49104  1  0  0  0
 49105  1  0  0  0
 50106  1  0  0  0
 51107  1  0  0  0
 52108  1  0  0  0
M  END
$$$$
