5ovr_ligand
  -I-interpret- 

 45 47  0  0  0  0  0  0  0  0999 V2000
    6.0520  -17.1020  -22.4440 C   0  0  0  0  0
    7.0330  -15.5260  -23.9480 C   0  0  0  0  0
    4.8000  -16.5740  -22.6960 C   0  0  0  0  0
    4.6600  -15.5090  -23.5690 C   0  0  0  0  0
    3.3530  -14.9980  -23.8870 C   0  0  0  0  0
    0.8150  -14.1530  -24.5740 C   0  0  0  0  0
    1.7380  -14.3720  -25.5750 C   0  0  0  0  0
    2.4090  -14.7520  -22.9060 C   0  0  0  0  0
    1.1360  -14.3420  -23.2440 C   0  0  0  0  0
    7.1680  -16.5830  -23.0760 C   0  0  0  0  0
    5.7860  -14.9920  -24.1890 C   0  0  0  0  0
    3.0000  -14.8120  -25.2130 C   0  0  0  0  0
    8.5020  -17.2050  -22.8100 C   0  0  0  0  0
    9.7370  -16.2540  -21.8860 P   0  0  0  0  0
   10.8680  -17.1500  -21.4630 O   0  0  0  0  0
    8.8920  -15.5200  -20.7190 O   0  0  0  0  0
   10.1640  -14.9970  -22.7950 O   0  0  0  0  0
    9.1150  -17.4920  -24.0500 O   0  0  0  0  0
    1.4060  -14.1860  -27.0320 C   0  0  0  0  0
    0.0060  -14.1030  -27.2880 O   0  0  0  0  0
    2.1510  -13.0430  -27.6470 C   0  0  0  0  0
    3.6340  -11.0040  -28.8050 C   0  0  0  0  0
    2.8280  -10.7340  -27.7160 C   0  0  0  0  0
    2.0990  -11.7560  -27.1400 C   0  0  0  0  0
    2.9460  -13.2950  -28.7450 C   0  0  0  0  0
    3.6890  -12.2830  -29.3230 C   0  0  0  0  0
    4.6740  -12.6320  -30.7040 Cl  0  0  0  0  0
    4.5680   -9.7460  -29.5390 Cl  0  0  0  0  0
    6.1607  -17.9308  -21.7444 H   0  0  0  0  0
    7.9101  -15.1129  -24.4462 H   0  0  0  0  0
    3.9222  -16.9965  -22.2070 H   0  0  0  0  0
   -0.1899  -13.8235  -24.8382 H   0  0  0  0  0
    2.6735  -14.8833  -21.8568 H   0  0  0  0  0
    0.3901  -14.1687  -22.4683 H   0  0  0  0  0
    5.6840  -14.1521  -24.8762 H   0  0  0  0  0
    3.7345  -15.0172  -25.9918 H   0  0  0  0  0
    8.2439  -18.0563  -22.1801 H   0  0  0  0  0
    8.2036  -14.9806  -21.1149 H   0  0  0  0  0
    9.3835  -14.4838  -23.0165 H   0  0  0  0  0
    8.5094  -17.9995  -24.5952 H   0  0  0  0  0
    1.7497  -15.0962  -27.5234 H   0  0  0  0  0
   -0.1396  -13.9854  -28.2296 H   0  0  0  0  0
    2.7678   -9.7224  -27.3145 H   0  0  0  0  0
    1.4730  -11.5458  -26.2728 H   0  0  0  0  0
    2.9889  -14.3016  -29.1610 H   0  0  0  0  0
  3  1  4  0  0  0
  1 10  4  0  0  0
  2 10  4  0  0  0
 11  2  4  0  0  0
  4  3  4  0  0  0
  5  4  1  0  0  0
  4 11  4  0  0  0
  5  8  4  0  0  0
 12  5  4  0  0  0
  7  6  4  0  0  0
  6  9  4  0  0  0
  7 12  4  0  0  0
 19  7  1  0  0  0
  9  8  4  0  0  0
 10 13  1  0  0  0
 13 14  1  0  0  0
 13 18  1  0  0  0
 14 15  2  0  0  0
 14 16  1  0  0  0
 14 17  1  0  0  0
 19 20  1  0  0  0
 21 19  1  0  0  0
 24 21  4  0  0  0
 21 25  4  0  0  0
 23 22  4  0  0  0
 22 26  4  0  0  0
 22 28  1  0  0  0
 23 24  4  0  0  0
 25 26  4  0  0  0
 26 27  1  0  0  0
  1 29  1  0  0  0
  2 30  1  0  0  0
  3 31  1  0  0  0
  6 32  1  0  0  0
  8 33  1  0  0  0
  9 34  1  0  0  0
 11 35  1  0  0  0
 12 36  1  0  0  0
 13 37  1  0  0  0
 16 38  1  0  0  0
 17 39  1  0  0  0
 18 40  1  0  0  0
 19 41  1  0  0  0
 20 42  1  0  0  0
 23 43  1  0  0  0
 24 44  1  0  0  0
 25 45  1  0  0  0
M  END
$$$$
