### 
### Created by X-TOOL on Mon Sep 10 21:13:34 2018
### 

@<TRIPOS>MOLECULE
5ovr_ligand
   43    45     1     0     0
SMALL
GAST_HUCK


@<TRIPOS>ATOM
      1 C2          6.0520  -17.1020  -22.4440 C.ar      1 AXK        -0.0550
      2 C4          7.0330  -15.5260  -23.9480 C.ar      1 AXK        -0.0550
      3 C5          4.8000  -16.5740  -22.6960 C.ar      1 AXK        -0.0600
      4 C6          4.6600  -15.5090  -23.5690 C.ar      1 AXK        -0.0258
      5 C8          3.3530  -14.9980  -23.8870 C.ar      1 AXK        -0.0285
      6 C9          0.8150  -14.1530  -24.5740 C.ar      1 AXK        -0.0566
      7 C10         1.7380  -14.3720  -25.5750 C.ar      1 AXK        -0.0041
      8 C11         2.4090  -14.7520  -22.9060 C.ar      1 AXK        -0.0623
      9 C12         1.1360  -14.3420  -23.2440 C.ar      1 AXK        -0.0684
     10 C1          7.1680  -16.5830  -23.0760 C.ar      1 AXK         0.0029
     11 C3          5.7860  -14.9920  -24.1890 C.ar      1 AXK        -0.0600
     12 C7          3.0000  -14.8120  -25.2130 C.ar      1 AXK        -0.0501
     13 C13         8.5020  -17.2050  -22.8100 C.3       1 AXK         0.1596
     14 P14         9.7370  -16.2540  -21.8860 P.3       1 AXK         0.1009
     15 O15        10.8680  -17.1500  -21.4630 O.co2     1 AXK        -0.5591
     16 O16         8.8920  -15.5200  -20.7190 O.co2     1 AXK        -0.5591
     17 O17        10.1640  -14.9970  -22.7950 O.co2     1 AXK        -0.5591
     18 O18         9.1150  -17.4920  -24.0500 O.3       1 AXK        -0.3630
     19 C19         1.4060  -14.1860  -27.0320 C.3       1 AXK         0.1222
     20 O20         0.0060  -14.1030  -27.2880 O.3       1 AXK        -0.3671
     21 C21         2.1510  -13.0430  -27.6470 C.ar      1 AXK        -0.0028
     22 C22         3.6340  -11.0040  -28.8050 C.ar      1 AXK         0.0471
     23 C23         2.8280  -10.7340  -27.7160 C.ar      1 AXK        -0.0537
     24 C24         2.0990  -11.7560  -27.1400 C.ar      1 AXK        -0.0551
     25 C25         2.9460  -13.2950  -28.7450 C.ar      1 AXK        -0.0414
     26 C26         3.6890  -12.2830  -29.3230 C.ar      1 AXK         0.0481
     27 CL7         4.6740  -12.6320  -30.7040 Cl        1 AXK        -0.0717
     28 CL8         4.5680   -9.7460  -29.5390 Cl        1 AXK        -0.0762
     29 H1          6.1601  -17.9262  -21.7483 H         1 AXK         0.0562
     30 H2          7.9053  -15.1152  -24.4434 H         1 AXK         0.0562
     31 H3          3.9270  -16.9941  -22.2097 H         1 AXK         0.0609
     32 H4         -0.1843  -13.8253  -24.8368 H         1 AXK         0.0555
     33 H5          2.6720  -14.8826  -21.8625 H         1 AXK         0.0560
     34 H6          0.3942  -14.1697  -22.4726 H         1 AXK         0.0598
     35 H7          5.6846  -14.1567  -24.8724 H         1 AXK         0.0609
     36 H8          3.7304  -15.0161  -25.9875 H         1 AXK         0.0556
     37 H9          8.3186  -18.1394  -22.2593 H         1 AXK         0.0958
     38 H10         8.5157  -17.9942  -24.5896 H         1 AXK         0.2148
     39 H11         1.7574  -15.0950  -27.5421 H         1 AXK         0.0918
     40 H12        -0.1380  -13.9866  -28.2198 H         1 AXK         0.2161
     41 H13         2.7682   -9.7280  -27.3167 H         1 AXK         0.0606
     42 H14         1.4765  -11.5470  -26.2775 H         1 AXK         0.0564
     43 H15         2.9887  -14.2960  -29.1587 H         1 AXK         0.0567
@<TRIPOS>BOND
     1    3    1 ar 
     2    1   10 ar 
     3    2   10 ar 
     4   11    2 ar 
     5    4    3 ar 
     6    5    4 1  
     7    4   11 ar 
     8    5    8 ar 
     9   12    5 ar 
    10    7    6 ar 
    11    6    9 ar 
    12    7   12 ar 
    13   19    7 1  
    14    9    8 ar 
    15   10   13 1  
    16   13   14 1  
    17   13   18 1  
    18   14   15 ar 
    19   14   16 ar 
    20   14   17 ar 
    21   19   20 1  
    22   21   19 1  
    23   24   21 ar 
    24   21   25 ar 
    25   23   22 ar 
    26   22   26 ar 
    27   22   28 1  
    28   23   24 ar 
    29   25   26 ar 
    30   26   27 1  
    31    1   29 1  
    32    2   30 1  
    33    3   31 1  
    34    6   32 1  
    35    8   33 1  
    36    9   34 1  
    37   11   35 1  
    38   12   36 1  
    39   13   37 1  
    40   18   38 1  
    41   19   39 1  
    42   20   40 1  
    43   23   41 1  
    44   24   42 1  
    45   25   43 1  
@<TRIPOS>SUBSTRUCTURE
     1 AXK         1

