2clx_ligand
  -I-interpret- 

 25 26  0  0  0  0  0  0  0  0999 V2000
   23.7680   30.7400   10.4770 C   0  0  0  0  0
   24.5630   31.3440    9.5070 C   0  0  0  0  0
   25.6130   30.6820    8.8890 C   0  0  0  0  0
   22.7460   31.4000   11.0880 O   0  0  0  0  0
   25.8460   29.3760    9.3070 C   0  0  0  0  0
   25.0650   28.7730   10.2850 C   0  0  0  0  0
   24.0150   29.4400   10.8800 C   0  0  0  0  0
   26.7560   28.5340    8.8590 N   0  0  0  0  0
   27.6960   28.6120    8.0750 N   0  0  0  0  0
   28.2820   29.5600    7.3460 C   0  0  0  0  0
   28.1350   30.9030    6.9920 C   0  0  0  0  0
   27.2620   31.8370    7.3420 N   0  0  0  0  0
   29.1580   31.1640    6.2020 N   0  0  0  0  0
   29.9000   30.1950    5.9980 N   0  0  0  0  0
   29.4310   29.1640    6.6850 C   0  0  0  0  0
   29.9900   27.9590    6.7150 N   0  0  0  0  0
   24.3524   32.3750    9.2229 H   0  0  0  0  0
   26.2210   31.1579    8.1196 H   0  0  0  0  0
   22.3224   30.8157   11.7211 H   0  0  0  0  0
   25.2872   27.7500   10.5887 H   0  0  0  0  0
   23.4009   28.9595   11.6416 H   0  0  0  0  0
   26.5134   31.6151    7.9983 H   0  0  0  0  0
   27.3388   32.7776    6.9550 H   0  0  0  0  0
   29.5665   27.2139    7.2681 H   0  0  0  0  0
   30.8427   27.7790    6.1849 H   0  0  0  0  0
  1  2  4  0  0  0
  1  4  1  0  0  0
  1  7  4  0  0  0
  2  3  4  0  0  0
  3  5  4  0  0  0
  5  6  4  0  0  0
  5  8  1  0  0  0
  6  7  4  0  0  0
  8  9  2  0  0  0
  9 10  1  0  0  0
 10 11  4  0  0  0
 10 15  4  0  0  0
 11 12  1  0  0  0
 11 13  4  0  0  0
 13 14  4  0  0  0
 14 15  4  0  0  0
 15 16  1  0  0  0
  2 17  1  0  0  0
  3 18  1  0  0  0
  4 19  1  0  0  0
  6 20  1  0  0  0
  7 21  1  0  0  0
 12 22  1  0  0  0
 12 23  1  0  0  0
 16 24  1  0  0  0
 16 25  1  0  0  0
M  END
$$$$
