4gk4_ligand
  -I-interpret- 

 49 53  0  0  0  0  0  0  0  0999 V2000
   -8.5980    5.3350   47.5880 O   0  0  0  0  0
   -8.4230    4.5950   48.5760 C   0  0  0  0  0
   -8.0360    3.3070   48.4240 N   0  0  0  0  0
   -8.6210    5.0460   49.8710 C   0  0  0  0  0
   -9.0160    6.2600   50.3720 N   0  3  0  0  0
   -9.3800    7.5390   49.9740 C   0  0  0  0  0
   -9.6350    8.1870   51.2230 C   0  0  0  0  0
   -9.4020    7.3170   52.2550 N   0  0  0  0  0
   -9.5140    7.3460   53.7160 C   0  0  0  0  0
   -8.3140    7.9750   54.4080 C   0  0  0  0  0
   -6.9770    7.4720   53.8850 C   0  0  0  0  0
   -5.8830    8.4300   54.3080 C   0  0  0  0  0
   -9.0370    6.1170   51.6900 C   0  0  0  0  0
   -8.6660    4.8430   52.1400 N   0  0  0  0  0
   -8.4140    4.1890   50.9470 C   0  0  0  0  0
   -8.0220    2.9260   50.7560 N   0  0  0  0  0
   -7.8020    2.0320   51.8990 C   0  0  0  0  0
   -7.8310    2.4910   49.4970 C   0  0  0  0  0
   -7.4640    1.3070   49.3060 O   0  0  0  0  0
  -10.0860    9.5990   51.4430 C   0  0  0  0  0
   -9.2390   10.4910   52.1030 C   0  0  0  0  0
   -7.9160   10.3030   52.5990 C   0  0  0  0  0
   -7.5770   11.5030   53.1270 N   0  0  0  0  0
   -8.6430   12.4030   52.9590 N   0  0  0  0  0
   -9.6600   11.7890   52.3310 C   0  0  0  0  0
  -10.9170   12.2190   51.9340 C   0  0  0  0  0
  -11.7640   11.3290   51.2950 C   0  0  0  0  0
  -11.3560   10.0220   51.0530 C   0  0  0  0  0
  -12.3210    9.1030   50.3460 C   0  0  0  0  0
   -7.8942    2.9377   47.4838 H   0  0  0  0  0
   -9.4529    7.9461   48.9655 H   0  0  0  0  0
   -9.5839    6.3135   54.0584 H   0  0  0  0  0
  -10.3871    7.9494   53.9644 H   0  0  0  0  0
   -8.3713    7.7128   55.4644 H   0  0  0  0  0
   -8.3549    9.0483   54.2221 H   0  0  0  0  0
   -7.0095    7.4119   52.7971 H   0  0  0  0  0
   -6.7739    6.4821   54.2937 H   0  0  0  0  0
   -6.0883    9.4184   53.8969 H   0  0  0  0  0
   -5.8523    8.4869   55.3961 H   0  0  0  0  0
   -4.9237    8.0718   53.9344 H   0  0  0  0  0
   -7.0262    2.4493   52.5409 H   0  0  0  0  0
   -8.7286    1.9325   52.4644 H   0  0  0  0  0
   -7.4884    1.0526   51.5375 H   0  0  0  0  0
   -7.3123    9.3962   52.5616 H   0  0  0  0  0
  -11.2345   13.2446   52.1225 H   0  0  0  0  0
  -12.7554   11.6547   50.9802 H   0  0  0  0  0
  -11.8779    8.7636   49.4098 H   0  0  0  0  0
  -12.5338    8.2433   50.9814 H   0  0  0  0  0
  -13.2462    9.6404   50.1378 H   0  0  0  0  0
  1  2  2  0  0  0
  2  3  1  0  0  0
  2  4  1  0  0  0
  3 18  1  0  0  0
  4  5  4  0  0  0
  4 15  4  0  0  0
  5  6  4  0  0  0
  5 13  4  0  0  0
  6  7  4  0  0  0
  7  8  4  0  0  0
  7 20  1  0  0  0
  8  9  1  0  0  0
  8 13  4  0  0  0
  9 10  1  0  0  0
 10 11  1  0  0  0
 11 12  1  0  0  0
 13 14  4  0  0  0
 14 15  4  0  0  0
 15 16  1  0  0  0
 16 17  1  0  0  0
 16 18  1  0  0  0
 18 19  2  0  0  0
 20 21  4  0  0  0
 20 28  4  0  0  0
 21 22  4  0  0  0
 21 25  4  0  0  0
 22 23  4  0  0  0
 23 24  4  0  0  0
 24 25  4  0  0  0
 25 26  4  0  0  0
 26 27  4  0  0  0
 27 28  4  0  0  0
 28 29  1  0  0  0
  3 30  1  0  0  0
  6 31  1  0  0  0
  9 32  1  0  0  0
  9 33  1  0  0  0
 10 34  1  0  0  0
 10 35  1  0  0  0
 11 36  1  0  0  0
 11 37  1  0  0  0
 12 38  1  0  0  0
 12 39  1  0  0  0
 12 40  1  0  0  0
 17 41  1  0  0  0
 17 42  1  0  0  0
 17 43  1  0  0  0
 22 44  1  0  0  0
 26 45  1  0  0  0
 27 46  1  0  0  0
 29 47  1  0  0  0
 29 48  1  0  0  0
 29 49  1  0  0  0
M  END
$$$$
