3elc_ligand
  -I-interpret- 

 30 31  0  0  0  0  0  0  0  0999 V2000
   33.4890    5.9290   42.1690 O   0  0  0  0  0
   34.0770    5.1880   41.3840 C   0  0  0  0  0
   35.1160    5.7190   40.6310 N   0  0  0  0  0
   35.7990    4.9410   39.7360 C   0  0  0  0  0
   36.7780    5.4860   39.0410 N   0  0  0  0  0
   35.4660    3.6140   39.5750 C   0  0  0  0  0
   36.1470    2.8770   38.6830 F   0  0  0  0  0
   34.4390    3.0440   40.3140 C   0  0  0  0  0
   33.7190    3.8330   41.2360 N   0  0  0  0  0
   32.6250    3.2510   42.0570 C   0  0  0  0  0
   33.2060    2.0040   42.5090 O   0  0  0  0  0
   32.2030    0.9780   42.3810 C   0  0  0  0  0
   32.8990   -0.3640   42.0750 C   0  0  0  0  0
   33.5860   -0.3160   40.7990 O   0  0  0  0  0
   31.3890    1.3990   41.1660 C   0  0  0  0  0
   30.1050    0.8310   41.2270 O   0  0  0  0  0
   31.3250    2.9070   41.3220 C   0  0  0  0  0
   30.2220    3.2500   42.1540 O   0  0  0  0  0
   35.3728    6.6994   40.7462 H   0  0  0  0  0
   37.3025    4.9234   38.3711 H   0  0  0  0  0
   34.1895    1.9911   40.1828 H   0  0  0  0  0
   32.3224    3.9779   42.8108 H   0  0  0  0  0
   31.5969    0.8604   43.2793 H   0  0  0  0  0
   32.1430   -1.1482   42.0351 H   0  0  0  0  0
   33.6305   -0.5643   42.8579 H   0  0  0  0  0
   34.0096   -1.1613   40.6329 H   0  0  0  0  0
   31.8137    1.0832   40.2131 H   0  0  0  0  0
   29.5995    1.1020   40.4572 H   0  0  0  0  0
   31.2107    3.4292   40.3721 H   0  0  0  0  0
   29.4027    3.0376   41.7010 H   0  0  0  0  0
  1  2  2  0  0  0
  2  3  1  0  0  0
  2  9  1  0  0  0
  3  4  1  0  0  0
  4  5  2  0  0  0
  4  6  1  0  0  0
  6  7  1  0  0  0
  6  8  2  0  0  0
  8  9  1  0  0  0
  9 10  1  0  0  0
 10 11  1  0  0  0
 10 17  1  0  0  0
 11 12  1  0  0  0
 12 13  1  0  0  0
 12 15  1  0  0  0
 13 14  1  0  0  0
 15 16  1  0  0  0
 15 17  1  0  0  0
 17 18  1  0  0  0
  3 19  1  0  0  0
  5 20  1  0  0  0
  8 21  1  0  0  0
 10 22  1  0  0  0
 12 23  1  0  0  0
 13 24  1  0  0  0
 13 25  1  0  0  0
 14 26  1  0  0  0
 15 27  1  0  0  0
 16 28  1  0  0  0
 17 29  1  0  0  0
 18 30  1  0  0  0
M  END
$$$$
