4qsx_ligand
  -I-interpret- 

 30 31  0  0  0  0  0  0  0  0999 V2000
   28.4180   44.2780  -12.3590 O   0  0  0  0  0
   27.3170   44.4440  -11.8390 C   0  0  0  0  0
   26.3260   43.5470  -12.1690 N   0  0  0  0  0
   25.0400   43.6540  -11.6270 C   0  0  0  0  0
   24.2580   42.7900  -11.9840 O   0  0  0  0  0
   24.7450   44.6540  -10.7100 C   0  0  0  0  0
   23.4740   44.8010  -10.1190 C   0  0  0  0  0
   25.7660   45.5510  -10.3800 C   0  0  0  0  0
   27.0560   45.4280  -10.9610 N   0  0  0  0  0
   28.1120   46.3960  -10.5950 C   0  0  0  0  0
   28.1000   46.5760   -9.1750 O   0  0  0  0  0
   27.7500   47.7000  -11.1860 C   0  0  0  0  0
   28.5760   48.5900  -10.3480 C   0  0  0  0  0
   28.4650   47.9440   -8.9450 C   0  0  0  0  0
   27.4490   48.6460   -8.0340 C   0  0  0  0  0
   26.2350   48.7740   -8.8130 O   0  0  0  0  0
   26.5329   42.7902  -12.8208 H   0  0  0  0  0
   23.2926   45.6092   -9.4105 H   0  0  0  0  0
   22.6724   44.1065  -10.3704 H   0  0  0  0  0
   25.9355   45.3823   -9.3166 H   0  0  0  0  0
   25.4021   46.5132  -10.7403 H   0  0  0  0  0
   29.0829   46.0408  -10.9404 H   0  0  0  0  0
   26.6834   47.9242  -11.1709 H   0  0  0  0  0
   27.9391   47.7808  -12.2564 H   0  0  0  0  0
   28.2352   49.6252  -10.3658 H   0  0  0  0  0
   29.6052   48.6671  -10.6986 H   0  0  0  0  0
   29.4131   48.0328   -8.4145 H   0  0  0  0  0
   27.8155   49.6206   -7.7117 H   0  0  0  0  0
   27.2746   48.0737   -7.1229 H   0  0  0  0  0
   25.5620   49.2102   -8.2853 H   0  0  0  0  0
  1  2  2  0  0  0
  2  3  1  0  0  0
  2  9  1  0  0  0
  3  4  1  0  0  0
  4  5  2  0  0  0
  4  6  1  0  0  0
  6  7  2  0  0  0
  6  8  1  0  0  0
  8  9  1  0  0  0
  9 10  1  0  0  0
 10 11  1  0  0  0
 10 12  1  0  0  0
 11 14  1  0  0  0
 12 13  1  0  0  0
 13 14  1  0  0  0
 14 15  1  0  0  0
 15 16  1  0  0  0
  3 17  1  0  0  0
  7 18  1  0  0  0
  7 19  1  0  0  0
  8 20  1  0  0  0
  8 21  1  0  0  0
 10 22  1  0  0  0
 12 23  1  0  0  0
 12 24  1  0  0  0
 13 25  1  0  0  0
 13 26  1  0  0  0
 14 27  1  0  0  0
 15 28  1  0  0  0
 15 29  1  0  0  0
 16 30  1  0  0  0
M  END
$$$$
