1tsl_ligand
  -I-interpret- 

 44 48  0  0  0  0  0  0  0  0999 V2000
   20.8960   54.8800  -57.8540 C   0  0  0  0  0
   20.8040   56.2990  -58.1210 C   0  0  0  0  0
   19.8920   56.7860  -59.1650 C   0  0  0  0  0
   19.8430   58.1350  -59.5050 C   0  0  0  0  0
   20.6830   59.0530  -58.8720 C   0  0  0  0  0
   21.6010   58.6210  -57.8210 C   0  0  0  0  0
   22.5810   59.5380  -57.2680 C   0  0  0  0  0
   23.5540   59.0870  -56.3800 C   0  0  0  0  0
   23.5480   57.7700  -55.9310 C   0  0  0  0  0
   22.5690   56.7770  -56.4450 C   0  0  0  0  0
   21.6370   57.2280  -57.4360 C   0  0  0  0  0
   22.6700   55.3790  -56.0960 C   0  0  0  0  0
   24.0360   54.9750  -56.2250 C   0  0  0  0  0
   24.5350   54.5720  -57.4770 C   0  0  0  0  0
   25.8760   54.1710  -57.6070 C   0  0  0  0  0
   26.7210   54.1720  -56.4870 C   0  0  0  0  0
   26.2490   54.6070  -55.2480 C   0  0  0  0  0
   24.9240   54.9920  -55.1100 C   0  0  0  0  0
   22.2140   55.1210  -54.7420 C   0  0  0  0  0
   22.1740   56.1200  -53.7300 C   0  0  0  0  0
   21.7110   55.8070  -52.4360 C   0  0  0  0  0
   21.3070   54.4980  -52.1310 C   0  0  0  0  0
   21.3390   53.5000  -53.1190 C   0  0  0  0  0
   21.7810   53.8060  -54.4020 C   0  0  0  0  0
   21.7940   54.4490  -56.9110 O   0  0  0  0  0
   20.2050   54.0660  -58.4680 O   0  0  0  0  0
   28.0440   53.6830  -56.5930 O   0  0  0  0  0
   20.8650   54.1770  -50.8130 O   0  0  0  0  0
   26.4820   53.6830  -59.1410 Cl  0  0  0  0  0
   21.5860   57.0360  -51.2420 Cl  0  0  0  0  0
   19.2429   56.0792  -59.6819 H   0  0  0  0  0
   19.1451   58.4764  -60.2695 H   0  0  0  0  0
   20.6536   60.1025  -59.1649 H   0  0  0  0  0
   22.5549   60.5904  -57.5508 H   0  0  0  0  0
   24.3277   59.7721  -56.0333 H   0  0  0  0  0
   24.2788   57.4592  -55.1844 H   0  0  0  0  0
   23.8802   54.5707  -58.3484 H   0  0  0  0  0
   26.9206   54.6441  -54.3902 H   0  0  0  0  0
   24.5563   55.3122  -54.1351 H   0  0  0  0  0
   22.5035   57.1340  -53.9567 H   0  0  0  0  0
   21.0176   52.4862  -52.8804 H   0  0  0  0  0
   21.7966   53.0250  -55.1622 H   0  0  0  0  0
   28.4801   53.7558  -55.7409 H   0  0  0  0  0
   20.6271   53.2478  -50.7739 H   0  0  0  0  0
 21 30  1  0  0  0
 15 29  1  0  0  0
  1 26  2  0  0  0
 25  1  1  0  0  0
  1  2  1  0  0  0
 11  2  4  0  0  0
  2  3  4  0  0  0
  3  4  4  0  0  0
  5  4  4  0  0  0
  6  5  4  0  0  0
 11  6  4  0  0  0
  6  7  4  0  0  0
  8  7  4  0  0  0
  9  8  4  0  0  0
 10  9  4  0  0  0
 12 10  1  0  0  0
 10 11  4  0  0  0
 12 25  1  0  0  0
 19 12  1  0  0  0
 12 13  1  0  0  0
 13 18  4  0  0  0
 13 14  4  0  0  0
 14 15  4  0  0  0
 15 16  4  0  0  0
 16 27  1  0  0  0
 17 16  4  0  0  0
 18 17  4  0  0  0
 19 24  4  0  0  0
 20 19  4  0  0  0
 20 21  4  0  0  0
 21 22  4  0  0  0
 22 28  1  0  0  0
 22 23  4  0  0  0
 23 24  4  0  0  0
  3 31  1  0  0  0
  4 32  1  0  0  0
  5 33  1  0  0  0
  7 34  1  0  0  0
  8 35  1  0  0  0
  9 36  1  0  0  0
 14 37  1  0  0  0
 17 38  1  0  0  0
 18 39  1  0  0  0
 20 40  1  0  0  0
 23 41  1  0  0  0
 24 42  1  0  0  0
 27 43  1  0  0  0
 28 44  1  0  0  0
M  END
$$$$
