5a3n_ligand
  -I-interpret- 

 49 49  0  0  0  0  0  0  0  0999 V2000
   88.3210   63.3920   14.2630 N   0  0  0  0  0
   87.7930   64.6800   14.5060 C   0  0  0  0  0
   86.6070   65.1870   13.7140 C   0  0  0  0  0
   86.4310   66.6070   13.5910 C   0  0  0  0  0
   85.3370   67.1150   12.8840 C   0  0  0  0  0
   84.4470   66.2850   12.3560 N   0  0  0  0  0
   84.5980   64.9210   12.4590 C   0  0  0  0  0
   83.4520   64.1130   11.8160 C   0  0  0  0  0
   82.2350   64.9130   11.9730 N   0  3  0  0  0
   81.6480   64.7050   13.2860 C   0  0  0  0  0
   80.6610   63.5620   13.2520 C   0  0  0  0  0
   79.9590   63.0970   14.4360 N   0  0  0  0  0
   80.1810   63.6780   15.7470 C   0  0  0  0  0
   79.2770   64.8980   15.9530 C   0  0  0  0  0
   78.9740   61.9870   14.3130 C   0  0  0  0  0
   79.7230   60.6570   14.0830 C   0  0  0  0  0
   79.0760   59.7680   13.1680 N   0  3  0  0  0
   79.7290   58.4070   13.2010 C   0  0  0  0  0
   78.9890   60.2650   11.7620 C   0  0  0  0  0
   80.4380   63.0160   12.1370 O   0  0  0  0  0
   85.6620   64.3290   13.1590 C   0  0  0  0  0
   88.2690   65.3850   15.4050 O   0  0  0  0  0
   89.0947   63.0429   14.8286 H   0  0  0  0  0
   87.9284   62.8113   13.5220 H   0  0  0  0  0
   87.1492   67.2877   14.0481 H   0  0  0  0  0
   85.2155   68.1918   12.7668 H   0  0  0  0  0
   83.3434   63.1413   12.2977 H   0  0  0  0  0
   83.6564   63.9185   10.7631 H   0  0  0  0  0
   81.5606   64.6296   11.2621 H   0  0  0  0  0
   82.4740   65.8994   11.8716 H   0  0  0  0  0
   81.1263   65.6133   13.5876 H   0  0  0  0  0
   82.4416   64.4655   13.9938 H   0  0  0  0  0
   81.2221   63.9915   15.8239 H   0  0  0  0  0
   79.9497   62.9331   16.5084 H   0  0  0  0  0
   79.4987   65.6456   15.1914 H   0  0  0  0  0
   78.2336   64.5933   15.8720 H   0  0  0  0  0
   79.4579   65.3199   16.9416 H   0  0  0  0  0
   78.3114   62.1812   13.4696 H   0  0  0  0  0
   78.3867   61.9194   15.2288 H   0  0  0  0  0
   79.7733   60.1466   15.0448 H   0  0  0  0  0
   80.6946   60.9056   13.6560 H   0  0  0  0  0
   78.1116   59.7064   13.4944 H   0  0  0  0  0
   80.7782   58.5019   12.9211 H   0  0  0  0  0
   79.6560   57.9947   14.2074 H   0  0  0  0  0
   79.2226   57.7453   12.4983 H   0  0  0  0  0
   78.4270   61.1988   11.7422 H   0  0  0  0  0
   79.9938   60.4359   11.3756 H   0  0  0  0  0
   78.4829   59.5217   11.1459 H   0  0  0  0  0
   85.7439   63.2471   13.2629 H   0  0  0  0  0
  1  2  1  0  0  0
  2  3  1  0  0  0
  2 22  2  0  0  0
  3  4  4  0  0  0
  3 21  4  0  0  0
  4  5  4  0  0  0
  5  6  4  0  0  0
  6  7  4  0  0  0
  7  8  1  0  0  0
  7 21  4  0  0  0
  8  9  1  0  0  0
  9 10  1  0  0  0
 10 11  1  0  0  0
 11 12  1  0  0  0
 11 20  2  0  0  0
 12 13  1  0  0  0
 12 15  1  0  0  0
 13 14  1  0  0  0
 15 16  1  0  0  0
 16 17  1  0  0  0
 17 18  1  0  0  0
 17 19  1  0  0  0
  1 23  1  0  0  0
  1 24  1  0  0  0
  4 25  1  0  0  0
  5 26  1  0  0  0
  8 27  1  0  0  0
  8 28  1  0  0  0
  9 29  1  0  0  0
  9 30  1  0  0  0
 10 31  1  0  0  0
 10 32  1  0  0  0
 13 33  1  0  0  0
 13 34  1  0  0  0
 14 35  1  0  0  0
 14 36  1  0  0  0
 14 37  1  0  0  0
 15 38  1  0  0  0
 15 39  1  0  0  0
 16 40  1  0  0  0
 16 41  1  0  0  0
 17 42  1  0  0  0
 18 43  1  0  0  0
 18 44  1  0  0  0
 18 45  1  0  0  0
 19 46  1  0  0  0
 19 47  1  0  0  0
 19 48  1  0  0  0
 21 49  1  0  0  0
M  END
$$$$
