5y5t_ligand
  -I-interpret- 

 55 58  0  0  0  0  0  0  0  0999 V2000
   11.9880   -2.2480   12.1280 C   0  0  0  0  0
   12.7280   -1.2640   12.8110 C   0  0  0  0  0
   14.1370   -1.2130   12.5940 C   0  0  0  0  0
   14.7040   -2.1340   11.7510 N   0  0  0  0  0
   12.6170   -3.1030   11.3100 N   0  0  0  0  0
   21.0280    2.0410   11.8810 C   0  0  0  0  0
   20.6860    0.8620   13.1690 S   0  0  0  0  0
   21.0740    1.4710   14.4770 O   0  0  0  0  0
   21.3920   -0.4450   12.8950 O   0  0  0  0  0
   18.9580    0.5380   13.1930 C   0  0  0  0  0
   18.0850    1.3270   13.9440 C   0  0  0  0  0
   16.7140    1.0360   13.9520 C   0  0  0  0  0
   18.4910   -0.5240   12.4440 C   0  0  0  0  0
   17.1250   -0.8100   12.4500 C   0  0  0  0  0
   16.2120   -0.0420   13.1930 C   0  0  0  0  0
   14.8740   -0.2740   13.2480 N   0  0  0  0  0
   12.0340   -0.3750   13.6730 C   0  0  0  0  0
   12.6130    0.5080   14.3130 O   0  0  0  0  0
   10.6620   -0.4990   13.8120 N   0  0  0  0  0
    9.9510   -1.4890   13.1280 C   0  0  0  0  0
   10.6010   -2.3740   12.2750 C   0  0  0  0  0
   13.9530   -3.0770   11.1260 C   0  0  0  0  0
   14.4360   -4.0010   10.2750 N   0  0  0  0  0
   15.8170   -4.5390   10.1930 C   0  0  0  0  0
   16.7930   -3.4660    9.6860 C   0  0  0  0  0
   18.1620   -4.1030    9.3930 C   0  0  0  0  0
   18.7150   -4.7950   10.6490 C   0  0  0  0  0
   17.7420   -5.8480   11.2120 C   0  0  0  0  0
   16.3300   -5.2520   11.4760 C   0  0  0  0  0
   15.4230   -6.3380   11.9370 N   0  3  0  0  0
   20.4502    2.9482   12.0578 H   0  0  0  0  0
   22.0915    2.2801   11.8820 H   0  0  0  0  0
   20.7511    1.6145   10.9169 H   0  0  0  0  0
   18.4686    2.1673   14.5227 H   0  0  0  0  0
   16.0331    1.6448   14.5468 H   0  0  0  0  0
   19.1798   -1.1306   11.8561 H   0  0  0  0  0
   16.7564   -1.6512   11.8629 H   0  0  0  0  0
   14.3477    0.3428   13.8669 H   0  0  0  0  0
    8.8726   -1.5684   13.2651 H   0  0  0  0  0
   10.4452   -3.3613   12.7098 H   0  0  0  0  0
   10.1868   -2.1786   11.2859 H   0  0  0  0  0
   13.7694   -4.3791    9.6019 H   0  0  0  0  0
   15.7706   -5.3428    9.4583 H   0  0  0  0  0
   16.9098   -2.6960   10.4486 H   0  0  0  0  0
   16.3984   -3.0234    8.7714 H   0  0  0  0  0
   18.8569   -3.3218    9.0846 H   0  0  0  0  0
   18.0451   -4.8448    8.6030 H   0  0  0  0  0
   18.8698   -4.0342   11.4140 H   0  0  0  0  0
   19.6409   -5.3014   10.3763 H   0  0  0  0  0
   18.1420   -6.2107   12.1589 H   0  0  0  0  0
   17.6431   -6.6482   10.4785 H   0  0  0  0  0
   16.3662   -4.4995   12.2638 H   0  0  0  0  0
   15.8088   -6.7676   12.7778 H   0  0  0  0  0
   14.5042   -5.9468   12.1446 H   0  0  0  0  0
   15.3365   -7.0414   11.2034 H   0  0  0  0  0
  2  1  4  0  0  0
  1  5  4  0  0  0
  1 21  1  0  0  0
  3  2  4  0  0  0
  2 17  1  0  0  0
  3  4  4  0  0  0
 16  3  1  0  0  0
  4 22  4  0  0  0
 22  5  4  0  0  0
  7  6  1  0  0  0
  7  8  2  0  0  0
  7  9  2  0  0  0
 10  7  1  0  0  0
 11 10  4  0  0  0
 13 10  4  0  0  0
 12 11  4  0  0  0
 15 12  4  0  0  0
 14 13  4  0  0  0
 15 14  4  0  0  0
 15 16  1  0  0  0
 17 18  2  0  0  0
 17 19  1  0  0  0
 19 20  2  0  0  0
 20 21  1  0  0  0
 22 23  1  0  0  0
 23 24  1  0  0  0
 24 25  1  0  0  0
 24 29  1  0  0  0
 25 26  1  0  0  0
 26 27  1  0  0  0
 27 28  1  0  0  0
 28 29  1  0  0  0
 29 30  1  0  0  0
  6 31  1  0  0  0
  6 32  1  0  0  0
  6 33  1  0  0  0
 11 34  1  0  0  0
 12 35  1  0  0  0
 13 36  1  0  0  0
 14 37  1  0  0  0
 16 38  1  0  0  0
 20 39  1  0  0  0
 21 40  1  0  0  0
 21 41  1  0  0  0
 23 42  1  0  0  0
 24 43  1  0  0  0
 25 44  1  0  0  0
 25 45  1  0  0  0
 26 46  1  0  0  0
 26 47  1  0  0  0
 27 48  1  0  0  0
 27 49  1  0  0  0
 28 50  1  0  0  0
 28 51  1  0  0  0
 29 52  1  0  0  0
 30 53  1  0  0  0
 30 54  1  0  0  0
 30 55  1  0  0  0
M  END
$$$$
