4cfv_ligand
  -I-interpret- 

 48 51  0  0  0  0  0  0  0  0999 V2000
  -32.7740  -15.8740  -29.3380 N   0  0  0  0  0
  -32.4330  -16.1720  -28.0620 C   0  0  0  0  0
  -32.4580  -15.1450  -27.2980 N   0  0  0  0  0
  -32.0490  -17.4370  -27.6830 N   0  0  0  0  0
  -32.1680  -18.4590  -28.6200 C   0  0  0  0  0
  -32.5450  -18.1820  -29.9340 C   0  0  0  0  0
  -32.8270  -16.8860  -30.2390 C   0  0  0  0  0
  -33.2400  -16.5860  -31.5210 O   0  0  0  0  0
  -32.5530  -19.3750  -30.6530 N   0  0  0  0  0
  -32.1790  -20.3720  -29.7750 C   0  0  0  0  0
  -31.9340  -19.8090  -28.5610 N   0  0  0  0  0
  -33.9490  -15.3050  -31.7410 C   0  0  0  0  0
  -34.6650  -15.7820  -32.9340 C   0  0  0  0  0
  -31.8960  -21.6930  -29.9990 C   0  0  0  0  0
  -30.6390  -22.1750  -29.4830 C   0  0  0  0  0
  -30.1470  -23.4780  -29.6390 C   0  0  0  0  0
  -30.9270  -24.4130  -30.3180 C   0  0  0  0  0
  -32.1420  -23.9410  -30.8560 C   0  0  0  0  0
  -32.6630  -22.5970  -30.7590 C   0  0  0  0  0
  -33.9170  -22.1750  -31.3060 C   0  0  0  0  0
  -32.8720  -24.8240  -31.5520 O   0  0  0  0  0
  -36.2200  -15.8820  -32.7430 C   0  0  0  0  0
  -36.6230  -16.9850  -33.7230 C   0  0  0  0  0
  -36.3890  -16.4650  -35.1560 C   0  0  0  0  0
  -34.9210  -15.9920  -35.4040 C   0  0  0  0  0
  -34.3010  -15.0410  -34.2540 C   0  0  0  0  0
  -32.7157  -14.2337  -27.6768 H   0  0  0  0  0
  -32.2202  -15.2381  -26.3105 H   0  0  0  0  0
  -33.3443  -14.4037  -31.8414 H   0  0  0  0  0
  -34.5451  -14.9097  -30.9184 H   0  0  0  0  0
  -34.2921  -16.7995  -33.0513 H   0  0  0  0  0
  -30.0218  -21.4694  -28.9269 H   0  0  0  0  0
  -29.1726  -23.7552  -29.2369 H   0  0  0  0  0
  -30.6149  -25.4516  -30.4270 H   0  0  0  0  0
  -34.5820  -21.8736  -30.4966 H   0  0  0  0  0
  -33.7539  -21.3317  -31.9770 H   0  0  0  0  0
  -34.3665  -22.9996  -31.8593 H   0  0  0  0  0
  -33.6715  -24.3974  -31.8689 H   0  0  0  0  0
  -36.7291  -14.9385  -32.9398 H   0  0  0  0  0
  -36.5034  -16.1089  -31.7152 H   0  0  0  0  0
  -37.6728  -17.2439  -33.5849 H   0  0  0  0  0
  -36.0258  -17.8796  -33.5467 H   0  0  0  0  0
  -37.0437  -15.6069  -35.3080 H   0  0  0  0  0
  -36.5933  -17.2857  -35.8437 H   0  0  0  0  0
  -34.9321  -15.4055  -36.3227 H   0  0  0  0  0
  -34.3037  -16.8899  -35.4340 H   0  0  0  0  0
  -33.2270  -14.8937  -34.3678 H   0  0  0  0  0
  -34.7019  -14.0280  -34.2886 H   0  0  0  0  0
  1  2  4  0  0  0
  1  7  4  0  0  0
  2  3  1  0  0  0
  2  4  4  0  0  0
  4  5  4  0  0  0
  5  6  4  0  0  0
  5 11  4  0  0  0
  6  7  4  0  0  0
  6  9  4  0  0  0
  7  8  1  0  0  0
  8 12  1  0  0  0
  9 10  4  0  0  0
 10 11  4  0  0  0
 10 14  1  0  0  0
 12 13  1  0  0  0
 13 22  1  0  0  0
 13 26  1  0  0  0
 14 15  4  0  0  0
 14 19  4  0  0  0
 15 16  4  0  0  0
 16 17  4  0  0  0
 17 18  4  0  0  0
 18 19  4  0  0  0
 18 21  1  0  0  0
 19 20  1  0  0  0
 22 23  1  0  0  0
 23 24  1  0  0  0
 24 25  1  0  0  0
 25 26  1  0  0  0
  3 27  1  0  0  0
  3 28  1  0  0  0
 12 29  1  0  0  0
 12 30  1  0  0  0
 13 31  1  0  0  0
 15 32  1  0  0  0
 16 33  1  0  0  0
 17 34  1  0  0  0
 20 35  1  0  0  0
 20 36  1  0  0  0
 20 37  1  0  0  0
 21 38  1  0  0  0
 22 39  1  0  0  0
 22 40  1  0  0  0
 23 41  1  0  0  0
 23 42  1  0  0  0
 24 43  1  0  0  0
 24 44  1  0  0  0
 25 45  1  0  0  0
 25 46  1  0  0  0
 26 47  1  0  0  0
 26 48  1  0  0  0
M  END
$$$$
