4bcs_ligand
  -I-interpret- 

 32 33  0  0  0  0  0  0  0  0999 V2000
   69.0870   -8.7500   33.2670 C   0  0  0  0  0
   69.4980   -9.9130   33.6350 O   0  0  0  0  0
   68.4570   -8.5210   32.1890 O   0  0  0  0  0
   69.4250   -7.6330   34.2090 C   0  0  0  0  0
   68.7250   -6.2940   33.9190 C   0  0  0  0  0
   69.4490   -5.4340   32.8760 C   0  0  0  0  0
   68.6950   -4.1040   32.7450 C   0  0  0  0  0
   69.4840   -3.1720   31.7700 C   0  0  0  0  0
   70.9180   -2.4660   32.5580 S   0  0  0  0  0
   71.0720   -1.2710   31.2210 C   0  0  0  0  0
   69.6350   -0.9360   30.7680 C   0  0  0  0  0
   69.2110    0.2440   31.5170 N   0  0  0  0  0
   68.2030   -0.0270   32.3580 C   0  0  0  0  0
   67.6180    0.7920   33.0460 O   0  0  0  0  0
   67.8960   -1.3290   32.3060 N   0  0  0  0  0
   68.6420   -2.0140   31.2400 C   0  0  0  0  0
   69.9465   -9.8398   34.4806 H   0  0  0  0  0
   70.4955   -7.4536   34.1092 H   0  0  0  0  0
   69.0961   -7.9492   35.1989 H   0  0  0  0  0
   68.7041   -5.7284   34.8505 H   0  0  0  0  0
   67.7353   -6.5223   33.5234 H   0  0  0  0  0
   69.4707   -5.9488   31.9155 H   0  0  0  0  0
   70.4775   -5.2527   33.1882 H   0  0  0  0  0
   68.6106   -3.6293   33.7226 H   0  0  0  0  0
   67.6934   -4.2840   32.3545 H   0  0  0  0  0
   69.7746   -3.8163   30.9402 H   0  0  0  0  0
   71.6566   -1.6796   30.3968 H   0  0  0  0  0
   71.5954   -0.3753   31.5554 H   0  0  0  0  0
   69.6391   -0.8295   29.6832 H   0  0  0  0  0
   69.6328    1.1668   31.4123 H   0  0  0  0  0
   67.2293   -1.7876   32.9270 H   0  0  0  0  0
   67.9639   -2.4150   30.4866 H   0  0  0  0  0
  1  2  1  0  0  0
  1  3  2  0  0  0
  1  4  1  0  0  0
  4  5  1  0  0  0
  5  6  1  0  0  0
  6  7  1  0  0  0
  7  8  1  0  0  0
  8  9  1  0  0  0
  8 16  1  0  0  0
  9 10  1  0  0  0
 10 11  1  0  0  0
 11 12  1  0  0  0
 11 16  1  0  0  0
 12 13  1  0  0  0
 13 14  2  0  0  0
 13 15  1  0  0  0
 15 16  1  0  0  0
  2 17  1  0  0  0
  4 18  1  0  0  0
  4 19  1  0  0  0
  5 20  1  0  0  0
  5 21  1  0  0  0
  6 22  1  0  0  0
  6 23  1  0  0  0
  7 24  1  0  0  0
  7 25  1  0  0  0
  8 26  1  0  0  0
 10 27  1  0  0  0
 10 28  1  0  0  0
 11 29  1  0  0  0
 12 30  1  0  0  0
 15 31  1  0  0  0
 16 32  1  0  0  0
M  END
$$$$
