2psx_ligand
  -I-interpret- 

 64 63  0  0  0  0  0  0  0  0999 V2000
    2.8550   -1.3130   21.4000 N   0  3  0  0  0
    2.9100   -2.7570   21.1130 C   0  0  0  0  0
    4.3580   -3.2230   20.9540 C   0  0  0  0  0
    5.2260   -2.4800   20.4840 O   0  0  0  0  0
    2.1870   -3.0370   19.7960 C   0  0  0  0  0
    0.6750   -2.9590   20.0030 C   0  0  0  0  0
   -0.0490   -3.1810   18.6740 C   0  0  0  0  0
    0.2310   -4.0020   21.0310 C   0  0  0  0  0
    4.5710   -4.4730   21.3310 N   0  0  0  0  0
    5.8980   -5.1050   21.2260 C   0  0  0  0  0
    6.1780   -5.3780   19.7460 C   0  0  0  0  0
    5.2780   -5.7270   18.9860 O   0  0  0  0  0
    5.9180   -6.4240   21.9990 C   0  0  0  0  0
    5.7310   -6.1620   23.4960 C   0  0  0  0  0
    5.6630   -7.4860   24.2600 C   0  0  0  0  0
    6.8630   -5.2930   24.0480 C   0  0  0  0  0
    7.4380   -5.1940   19.3680 N   0  0  0  0  0
    7.8590   -5.4130   17.9760 C   0  0  0  0  0
    8.7990   -6.6180   17.9210 C   0  0  0  0  0
    9.1730   -6.8680   16.5640 O   0  0  0  0  0
    8.5640   -4.1550   17.4660 C   0  0  0  0  0
    7.5850   -2.9800   17.4350 C   0  0  0  0  0
    8.2640   -1.6860   16.9860 C   0  0  0  0  0
    7.2340   -0.6480   16.8260 N   0  0  0  0  0
    7.5540    0.6020   16.5150 C   0  0  0  0  0
    6.5920    1.5040   16.3410 N   0  0  0  0  0
    8.8280    0.9530   16.3470 N   0  0  0  0  0
    3.3370   -1.1236   22.2787 H   0  0  0  0  0
    3.3090   -0.7999   20.6444 H   0  0  0  0  0
    1.8811   -1.0193   21.4749 H   0  0  0  0  0
    2.4407   -3.2864   21.9422 H   0  0  0  0  0
    2.4502   -4.0358   19.4477 H   0  0  0  0  0
    2.4866   -2.2936   19.0573 H   0  0  0  0  0
    0.4198   -1.9680   20.3784 H   0  0  0  0  0
    0.1853   -4.1761   18.2959 H   0  0  0  0  0
   -1.1244   -3.0936   18.8286 H   0  0  0  0  0
    0.2780   -2.4310   17.9538 H   0  0  0  0  0
   -0.8436   -3.9169   21.1922 H   0  0  0  0  0
    0.4661   -4.9994   20.6595 H   0  0  0  0  0
    0.7554   -3.8300   21.9709 H   0  0  0  0  0
    3.7930   -5.0159   21.7058 H   0  0  0  0  0
    6.6572   -4.4454   21.6462 H   0  0  0  0  0
    6.8773   -6.9164   21.8399 H   0  0  0  0  0
    5.1060   -7.0584   21.6435 H   0  0  0  0  0
    4.7926   -5.6242   23.6310 H   0  0  0  0  0
    4.8217   -8.0734   23.8922 H   0  0  0  0  0
    6.5891   -8.0402   24.1072 H   0  0  0  0  0
    5.5299   -7.2843   25.3229 H   0  0  0  0  0
    7.8155   -5.8013   23.8984 H   0  0  0  0  0
    6.8738   -4.3370   23.5245 H   0  0  0  0  0
    6.7033   -5.1238   25.1129 H   0  0  0  0  0
    8.1277   -4.8947   20.0573 H   0  0  0  0  0
    6.9942   -5.6139   17.3437 H   0  0  0  0  0
    9.1321   -7.1965   18.7827 H   0  0  0  0  0
    8.9362   -4.3373   16.4579 H   0  0  0  0  0
    9.3918   -3.9135   18.1328 H   0  0  0  0  0
    7.1969   -2.8311   18.4426 H   0  0  0  0  0
    6.7914   -3.2142   16.7254 H   0  0  0  0  0
    8.7802   -1.8463   16.0394 H   0  0  0  0  0
    8.9952   -1.3722   17.7310 H   0  0  0  0  0
    6.2528   -0.8942   16.9569 H   0  0  0  0  0
    5.6142    1.2336   16.4467 H   0  0  0  0  0
    9.0630    1.9106   16.0858 H   0  0  0  0  0
    9.5685    0.2642   16.4795 H   0  0  0  0  0
  1  2  1  0  0  0
  2  3  1  0  0  0
  2  5  1  0  0  0
  3  4  2  0  0  0
  3  9  1  0  0  0
  5  6  1  0  0  0
  6  7  1  0  0  0
  6  8  1  0  0  0
  9 10  1  0  0  0
 10 11  1  0  0  0
 10 13  1  0  0  0
 11 12  2  0  0  0
 11 17  1  0  0  0
 13 14  1  0  0  0
 14 15  1  0  0  0
 14 16  1  0  0  0
 17 18  1  0  0  0
 18 19  1  0  0  0
 18 21  1  0  0  0
 19 20  2  0  0  0
 21 22  1  0  0  0
 22 23  1  0  0  0
 23 24  1  0  0  0
 24 25  1  0  0  0
 25 26  2  0  0  0
 25 27  1  0  0  0
  1 28  1  0  0  0
  1 29  1  0  0  0
  1 30  1  0  0  0
  2 31  1  0  0  0
  5 32  1  0  0  0
  5 33  1  0  0  0
  6 34  1  0  0  0
  7 35  1  0  0  0
  7 36  1  0  0  0
  7 37  1  0  0  0
  8 38  1  0  0  0
  8 39  1  0  0  0
  8 40  1  0  0  0
  9 41  1  0  0  0
 10 42  1  0  0  0
 13 43  1  0  0  0
 13 44  1  0  0  0
 14 45  1  0  0  0
 15 46  1  0  0  0
 15 47  1  0  0  0
 15 48  1  0  0  0
 16 49  1  0  0  0
 16 50  1  0  0  0
 16 51  1  0  0  0
 17 52  1  0  0  0
 18 53  1  0  0  0
 19 54  1  0  0  0
 21 55  1  0  0  0
 21 56  1  0  0  0
 22 57  1  0  0  0
 22 58  1  0  0  0
 23 59  1  0  0  0
 23 60  1  0  0  0
 24 61  1  0  0  0
 26 62  1  0  0  0
 27 63  1  0  0  0
 27 64  1  0  0  0
M  END
$$$$
