6f26_ligand
  -I-interpret- 

 81 87  0  0  0  0  0  0  0  0999 V2000
   14.2140   -1.2170   27.2880 C   0  0  0  0  0
   16.6660    3.3540   25.4490 C   0  0  0  0  0
   17.8130    7.9590   25.2540 C   0  0  0  0  0
   16.5310    8.4140   25.4860 C   0  0  0  0  0
   15.4930    7.5100   25.5950 C   0  0  0  0  0
   14.0640    7.9480   25.8560 C   0  0  0  0  0
   13.4150    9.1180   25.4620 C   0  0  0  0  0
   14.4750   -2.6270   27.8530 C   0  0  0  0  0
   15.7310   -3.0130   27.0420 C   0  0  0  0  0
   17.6090   -1.6030   26.2000 C   0  0  0  0  0
   17.8610   -0.1330   25.7430 C   0  0  0  0  0
   18.9730    0.4210   25.1890 C   0  0  0  0  0
   18.6840    1.7640   24.9770 C   0  0  0  0  0
   17.4020    1.9850   25.4240 C   0  0  0  0  0
   15.5970    0.6140   26.4860 C   0  0  0  0  0
   15.4510   -0.7130   27.2370 C   0  0  0  0  0
   17.1250    5.8350   25.2300 C   0  0  0  0  0
   15.8170    6.1730   25.4760 C   0  0  0  0  0
   13.1510    7.2800   26.6120 C   0  0  0  0  0
   13.8910   10.2240   24.5350 C   0  0  0  0  0
   13.6080   11.5370   24.7870 C   0  0  0  0  0
   14.0170   12.4800   23.8930 C   0  0  0  0  0
   14.6500   12.0970   22.7490 C   0  0  0  0  0
   14.8930   10.7870   22.4750 C   0  0  0  0  0
   14.4900    9.8440   23.3680 C   0  0  0  0  0
   13.3220    5.9530   27.3240 C   0  0  0  0  0
   12.6950    6.0550   28.7220 C   0  0  0  0  0
   12.6520    4.8600   26.4710 C   0  0  0  0  0
   20.2240   -0.3270   24.7720 C   0  0  0  0  0
   20.6240   -0.0800   23.4890 C   0  0  0  0  0
   21.7160   -0.7200   22.9720 C   0  0  0  0  0
   22.4160   -1.6370   23.7250 C   0  0  0  0  0
   23.4630   -2.3960   21.7780 C   0  0  0  0  0
   22.0100   -1.8980   25.0280 C   0  0  0  0  0
   20.8870   -1.2540   25.5300 C   0  0  0  0  0
   15.0380   13.0020   21.8840 F   0  0  0  0  0
   16.2560   -1.8980   26.5480 N   0  3  0  0  0
   16.9120    0.8390   25.9000 N   0  0  0  0  0
   17.5320    4.4730   25.1740 N   0  0  0  0  0
   18.0790    6.7040   25.1690 N   0  0  0  0  0
   12.1750    9.0850   25.9190 N   0  0  0  0  0
   14.7010   -2.5980   29.1890 O   0  0  0  0  0
   13.3460   -0.5550   28.2170 O   0  0  0  0  0
   15.5560    3.4320   25.6920 O   0  0  0  0  0
   12.0420    7.9510   26.6280 O   0  0  0  0  0
   23.5280   -2.3020   23.1730 O   0  0  0  0  0
   13.7270   -1.1414   26.3158 H   0  0  0  0  0
   18.6207    8.6820   25.1399 H   0  0  0  0  0
   16.3386    9.4825   25.5828 H   0  0  0  0  0
   13.6462   -3.3284   27.7570 H   0  0  0  0  0
   15.4643   -3.6948   26.2345 H   0  0  0  0  0
   16.4533   -3.5190   27.6825 H   0  0  0  0  0
   18.2085   -1.7631   27.0962 H   0  0  0  0  0
   17.8663   -2.2449   25.3575 H   0  0  0  0  0
   19.3508    2.5058   24.5373 H   0  0  0  0  0
   15.4324    1.4099   27.2123 H   0  0  0  0  0
   14.8818    0.5941   25.6636 H   0  0  0  0  0
   15.8121   -0.4272   28.2249 H   0  0  0  0  0
   15.0517    5.4032   25.5751 H   0  0  0  0  0
   13.0648   11.8246   25.6872 H   0  0  0  0  0
   13.8385   13.5367   24.0921 H   0  0  0  0  0
   15.4020   10.4981   21.5555 H   0  0  0  0  0
   14.6448    8.7867   23.1528 H   0  0  0  0  0
   14.3743    5.6975   27.4487 H   0  0  0  0  0
   13.1935    6.8435   29.2857 H   0  0  0  0  0
   11.6347    6.2892   28.6271 H   0  0  0  0  0
   12.8133    5.1044   29.2421 H   0  0  0  0  0
   11.5929    5.0899   26.3548 H   0  0  0  0  0
   13.1270    4.8239   25.4906 H   0  0  0  0  0
   12.7635    3.8953   26.9659 H   0  0  0  0  0
   20.0702    0.6303   22.8751 H   0  0  0  0  0
   22.0362   -0.5023   21.9531 H   0  0  0  0  0
   22.5675   -2.9486   21.4937 H   0  0  0  0  0
   23.4250   -1.3947   21.3490 H   0  0  0  0  0
   24.3460   -2.9176   21.4087 H   0  0  0  0  0
   22.5666   -2.6001   25.6488 H   0  0  0  0  0
   20.5314   -1.4880   26.5334 H   0  0  0  0  0
   16.1748   -2.0973   25.5510 H   0  0  0  0  0
   18.5006    4.2752   24.9227 H   0  0  0  0  0
   13.8918   -2.3538   29.6441 H   0  0  0  0  0
   13.1574    0.3316   27.9010 H   0  0  0  0  0
  1  8  1  0  0  0
 16  1  1  0  0  0
  1 43  1  0  0  0
  2 14  1  0  0  0
 39  2  1  0  0  0
  2 44  2  0  0  0
  4  3  4  0  0  0
  3 40  4  0  0  0
  5  4  4  0  0  0
  5  6  1  0  0  0
 18  5  4  0  0  0
  6  7  4  0  0  0
  6 19  4  0  0  0
  7 20  1  0  0  0
  7 41  4  0  0  0
  9  8  1  0  0  0
  8 42  1  0  0  0
 37  9  1  0  0  0
 11 10  1  0  0  0
 10 37  1  0  0  0
 11 12  4  0  0  0
 38 11  4  0  0  0
 13 12  4  0  0  0
 12 29  1  0  0  0
 14 13  4  0  0  0
 14 38  4  0  0  0
 15 16  1  0  0  0
 38 15  1  0  0  0
 16 37  1  0  0  0
 17 18  4  0  0  0
 17 39  1  0  0  0
 17 40  4  0  0  0
 19 26  1  0  0  0
 19 45  4  0  0  0
 20 21  4  0  0  0
 20 25  4  0  0  0
 21 22  4  0  0  0
 22 23  4  0  0  0
 23 24  4  0  0  0
 23 36  1  0  0  0
 24 25  4  0  0  0
 26 27  1  0  0  0
 26 28  1  0  0  0
 29 30  4  0  0  0
 29 35  4  0  0  0
 30 31  4  0  0  0
 31 32  4  0  0  0
 32 34  4  0  0  0
 32 46  1  0  0  0
 46 33  1  0  0  0
 34 35  4  0  0  0
 41 45  4  0  0  0
  1 47  1  0  0  0
  3 48  1  0  0  0
  4 49  1  0  0  0
  8 50  1  0  0  0
  9 51  1  0  0  0
  9 52  1  0  0  0
 10 53  1  0  0  0
 10 54  1  0  0  0
 13 55  1  0  0  0
 15 56  1  0  0  0
 15 57  1  0  0  0
 16 58  1  0  0  0
 18 59  1  0  0  0
 21 60  1  0  0  0
 22 61  1  0  0  0
 24 62  1  0  0  0
 25 63  1  0  0  0
 26 64  1  0  0  0
 27 65  1  0  0  0
 27 66  1  0  0  0
 27 67  1  0  0  0
 28 68  1  0  0  0
 28 69  1  0  0  0
 28 70  1  0  0  0
 30 71  1  0  0  0
 31 72  1  0  0  0
 33 73  1  0  0  0
 33 74  1  0  0  0
 33 75  1  0  0  0
 34 76  1  0  0  0
 35 77  1  0  0  0
 37 78  1  0  0  0
 39 79  1  0  0  0
 42 80  1  0  0  0
 43 81  1  0  0  0
M  END
$$$$
