5akz_ligand
  -I-interpret- 

 27 27  0  0  0  0  0  0  0  0999 V2000
  -17.7720   10.6050  -14.1800 C   0  0  0  0  0
  -16.6420   11.1560  -14.8950 N   0  0  0  0  0
  -16.3600   10.8380  -16.2030 C   0  0  0  0  0
  -16.7810    9.8380  -16.7630 O   0  0  0  0  0
  -15.5330   11.7630  -16.8080 N   0  0  0  0  0
  -15.0170   11.5870  -18.1490 C   0  0  0  0  0
  -14.5780   12.9340  -18.7090 C   0  0  0  0  0
  -13.9710   12.7590  -20.0860 C   0  0  0  0  0
  -12.7940   11.8000  -20.0510 C   0  0  0  0  0
  -13.1890   10.4430  -19.4840 C   0  0  0  0  0
  -13.8700   10.5780  -18.1340 C   0  0  0  0  0
  -18.6938   10.8792  -14.6931 H   0  0  0  0  0
  -17.6836    9.5192  -14.1446 H   0  0  0  0  0
  -17.7873   11.0028  -13.1653 H   0  0  0  0  0
  -16.0277   11.8086  -14.4081 H   0  0  0  0  0
  -15.2755   12.6031  -16.2900 H   0  0  0  0  0
  -15.7976   11.1921  -18.7993 H   0  0  0  0  0
  -13.8320   13.3695  -18.0442 H   0  0  0  0  0
  -15.4466   13.5882  -18.7838 H   0  0  0  0  0
  -13.6184   13.7292  -20.4361 H   0  0  0  0  0
  -14.7317   12.3513  -20.7517 H   0  0  0  0  0
  -12.0218   12.2276  -19.4115 H   0  0  0  0  0
  -12.4387   11.6554  -21.0713 H   0  0  0  0  0
  -12.2853    9.8472  -19.3557 H   0  0  0  0  0
  -13.8864    9.9706  -20.1757 H   0  0  0  0  0
  -14.2843    9.6050  -17.8699 H   0  0  0  0  0
  -13.1263   10.9280  -17.4181 H   0  0  0  0  0
  1  2  1  0  0  0
  2  3  1  0  0  0
  3  4  2  0  0  0
  3  5  1  0  0  0
  5  6  1  0  0  0
  6  7  1  0  0  0
  6 11  1  0  0  0
  7  8  1  0  0  0
  8  9  1  0  0  0
  9 10  1  0  0  0
 10 11  1  0  0  0
  1 12  1  0  0  0
  1 13  1  0  0  0
  1 14  1  0  0  0
  2 15  1  0  0  0
  5 16  1  0  0  0
  6 17  1  0  0  0
  7 18  1  0  0  0
  7 19  1  0  0  0
  8 20  1  0  0  0
  8 21  1  0  0  0
  9 22  1  0  0  0
  9 23  1  0  0  0
 10 24  1  0  0  0
 10 25  1  0  0  0
 11 26  1  0  0  0
 11 27  1  0  0  0
M  END
$$$$
