6mnp_ligand
  -I-interpret- 

 31 34  0  0  0  0  0  0  0  0999 V2000
   29.8460   26.9850    8.3900 O   0  0  0  0  0
   28.6220   26.8290    8.2840 C   0  0  0  0  0
   28.0940   26.1460    7.2100 N   0  0  0  0  0
   29.0280   25.6300    6.2260 C   0  0  0  0  0
   29.2520   24.1390    6.4600 C   0  0  0  0  0
   28.3420   23.1630    6.3000 N   0  0  0  0  0
   30.4270   23.6270    6.8720 N   0  0  0  0  0
   30.2420   22.2870    6.9680 N   0  0  0  0  0
   28.9820   22.0130    6.6220 N   0  0  0  0  0
   27.7220   27.3330    9.2440 C   0  0  0  0  0
   27.9800   28.0680   10.4390 C   0  0  0  0  0
   29.3170   28.5380   11.0580 C   0  0  0  0  0
   29.1580   29.6290   12.0670 C   0  0  0  0  0
   28.0570   29.3290   13.0790 C   0  0  0  0  0
   26.7200   29.1610   12.4310 C   0  0  0  0  0
   26.7310   28.3910   11.1420 C   0  0  0  0  0
   25.4830   27.7120   10.1630 S   0  0  0  0  0
   26.3120   27.0750    8.9900 C   0  0  0  0  0
   25.8830   26.4000    7.9150 N   0  0  0  0  0
   26.7620   25.9570    7.0620 C   0  0  0  0  0
   29.9778   26.1566    6.3191 H   0  0  0  0  0
   28.6195   25.7811    5.2268 H   0  0  0  0  0
   29.9327   28.9290   10.2480 H   0  0  0  0  0
   29.7596   27.6826   11.5684 H   0  0  0  0  0
   28.8888   30.5424   11.5365 H   0  0  0  0  0
   30.0981   29.7257   12.6101 H   0  0  0  0  0
   27.9945   30.1700   13.7696 H   0  0  0  0  0
   28.3073   28.3961   13.5840 H   0  0  0  0  0
   26.3563   30.1614   12.1965 H   0  0  0  0  0
   26.1010   28.5971   13.1288 H   0  0  0  0  0
   26.4086   25.4088    6.1887 H   0  0  0  0  0
  1  2  2  0  0  0
  2  3  1  0  0  0
  2 10  1  0  0  0
  3  4  1  0  0  0
  3 20  1  0  0  0
  4  5  1  0  0  0
  5  6  4  0  0  0
  5  7  4  0  0  0
  6  9  4  0  0  0
  7  8  4  0  0  0
  8  9  4  0  0  0
 10 11  4  0  0  0
 10 18  4  0  0  0
 11 12  1  0  0  0
 11 16  4  0  0  0
 12 13  1  0  0  0
 13 14  1  0  0  0
 14 15  1  0  0  0
 15 16  1  0  0  0
 16 17  4  0  0  0
 17 18  4  0  0  0
 18 19  1  0  0  0
 19 20  2  0  0  0
  4 21  1  0  0  0
  4 22  1  0  0  0
 12 23  1  0  0  0
 12 24  1  0  0  0
 13 25  1  0  0  0
 13 26  1  0  0  0
 14 27  1  0  0  0
 14 28  1  0  0  0
 15 29  1  0  0  0
 15 30  1  0  0  0
 20 31  1  0  0  0
M  END
$$$$
