3max_ligand
  -I-interpret- 

 38 40  0  0  0  0  0  0  0  0999 V2000
   65.8820   28.8880   -1.6780 N   0  0  0  0  0
   65.4500   28.7330   -0.3430 C   0  0  0  0  0
   64.2210   28.1250   -0.0690 C   0  0  0  0  0
   63.7890   27.9790    1.2410 C   0  0  0  0  0
   64.5660   28.4370    2.3170 C   0  0  0  0  0
   65.7920   29.0770    2.0410 C   0  0  0  0  0
   66.2210   29.2180    0.7260 C   0  0  0  0  0
   67.4780   29.7880    0.4590 N   0  0  0  0  0
   67.6220   30.8320   -0.3730 C   0  0  0  0  0
   66.6320   31.3230   -0.8890 O   0  0  0  0  0
   69.0040   31.3170   -0.6050 C   0  0  0  0  0
   70.0600   30.4160   -0.4870 C   0  0  0  0  0
   71.3670   30.8260   -0.6850 C   0  0  0  0  0
   71.6380   32.1460   -1.0050 C   0  0  0  0  0
   70.5940   33.0570   -1.1190 C   0  0  0  0  0
   69.2780   32.6580   -0.9160 C   0  0  0  0  0
   64.0950   28.3080    3.7300 C   0  0  0  0  0
   65.0120   28.1180    4.7740 C   0  0  0  0  0
   64.5540   28.0390    6.0880 C   0  0  0  0  0
   63.1940   28.1440    6.3880 C   0  0  0  0  0
   62.2730   28.3410    5.3640 C   0  0  0  0  0
   62.7200   28.4250    4.0480 C   0  0  0  0  0
   65.2972   28.5562   -2.4450 H   0  0  0  0  0
   66.7789   29.3318   -1.8755 H   0  0  0  0  0
   63.5996   27.7641   -0.8886 H   0  0  0  0  0
   62.8298   27.5005    1.4385 H   0  0  0  0  0
   66.4029   29.4609    2.8581 H   0  0  0  0  0
   68.3049   29.3971    0.9105 H   0  0  0  0  0
   69.8544   29.3755   -0.2357 H   0  0  0  0  0
   72.1832   30.1099   -0.5891 H   0  0  0  0  0
   72.6662   32.4695   -1.1669 H   0  0  0  0  0
   70.8098   34.0955   -1.3703 H   0  0  0  0  0
   68.4658   33.3803   -0.9976 H   0  0  0  0  0
   66.0772   28.0326    4.5589 H   0  0  0  0  0
   65.2704   27.8926    6.8964 H   0  0  0  0  0
   62.8551   28.0718    7.4215 H   0  0  0  0  0
   61.2103   28.4289    5.5901 H   0  0  0  0  0
   61.9978   28.5839    3.2472 H   0  0  0  0  0
  1  2  1  0  0  0
  2  3  4  0  0  0
  2  7  4  0  0  0
  3  4  4  0  0  0
  4  5  4  0  0  0
  5  6  4  0  0  0
  5 17  1  0  0  0
  6  7  4  0  0  0
  7  8  1  0  0  0
  8  9  1  0  0  0
  9 10  2  0  0  0
  9 11  1  0  0  0
 11 12  4  0  0  0
 11 16  4  0  0  0
 12 13  4  0  0  0
 13 14  4  0  0  0
 14 15  4  0  0  0
 15 16  4  0  0  0
 17 18  4  0  0  0
 17 22  4  0  0  0
 18 19  4  0  0  0
 19 20  4  0  0  0
 20 21  4  0  0  0
 21 22  4  0  0  0
  1 23  1  0  0  0
  1 24  1  0  0  0
  3 25  1  0  0  0
  4 26  1  0  0  0
  6 27  1  0  0  0
  8 28  1  0  0  0
 12 29  1  0  0  0
 13 30  1  0  0  0
 14 31  1  0  0  0
 15 32  1  0  0  0
 16 33  1  0  0  0
 18 34  1  0  0  0
 19 35  1  0  0  0
 20 36  1  0  0  0
 21 37  1  0  0  0
 22 38  1  0  0  0
M  END
$$$$
