5l99_ligand
  -I-interpret- 

 34 36  0  0  0  0  0  0  0  0999 V2000
  -29.8040  -11.7210   -1.1430 C   0  0  0  0  0
  -29.3520  -10.3530   -0.6580 C   0  0  0  0  0
  -28.2220  -10.5020    0.2010 N   0  0  0  0  0
  -27.2930   -9.3990    0.4280 C   0  0  0  0  0
  -25.9050   -9.6310    0.8260 C   0  0  0  0  0
  -25.3830  -11.0700    1.0180 C   0  0  0  0  0
  -25.0570   -8.6430    1.0410 N   0  0  0  0  0
  -25.4280   -7.3720    0.8960 C   0  0  0  0  0
  -26.7320   -7.0250    0.5220 C   0  0  0  0  0
  -27.6980   -8.0830    0.2780 C   0  0  0  0  0
  -30.4940   -9.6820    0.0480 C   0  0  0  0  0
  -30.7120   -9.8590    1.4310 C   0  0  0  0  0
  -31.8500   -9.1620    2.0370 C   0  0  0  0  0
  -32.6580   -8.3670    1.2420 C   0  0  0  0  0
  -33.7970   -7.7050    1.9960 C   0  0  0  0  0
  -33.7340   -8.0880    3.3730 C   0  0  0  0  0
  -32.4390   -9.0990    3.5920 S   0  0  0  0  0
  -32.4170   -8.2160   -0.1020 N   0  0  0  0  0
  -31.3930   -8.8350   -0.6800 C   0  0  0  0  0
  -30.1138  -12.3237   -0.2892 H   0  0  0  0  0
  -30.6425  -11.6029   -1.8294 H   0  0  0  0  0
  -28.9787  -12.2138   -1.6569 H   0  0  0  0  0
  -29.0538   -9.7294   -1.5008 H   0  0  0  0  0
  -28.0605  -11.3959    0.6650 H   0  0  0  0  0
  -25.9649  -11.5656    1.7951 H   0  0  0  0  0
  -25.4826  -11.6192    0.0818 H   0  0  0  0  0
  -24.3340  -11.0383    1.3123 H   0  0  0  0  0
  -24.6981   -6.5820    1.0729 H   0  0  0  0  0
  -27.0179   -5.9785    0.4156 H   0  0  0  0  0
  -28.7202   -7.8458   -0.0170 H   0  0  0  0  0
  -30.0563  -10.4926    2.0283 H   0  0  0  0  0
  -34.5441   -7.0431    1.5580 H   0  0  0  0  0
  -34.4256   -7.7669    4.1519 H   0  0  0  0  0
  -31.2303   -8.6934   -1.7484 H   0  0  0  0  0
  1  2  1  0  0  0
  2  3  1  0  0  0
  2 11  1  0  0  0
  3  4  1  0  0  0
  4  5  4  0  0  0
  4 10  4  0  0  0
  5  6  1  0  0  0
  5  7  4  0  0  0
  7  8  4  0  0  0
  8  9  4  0  0  0
  9 10  4  0  0  0
 11 12  4  0  0  0
 11 19  4  0  0  0
 12 13  4  0  0  0
 13 14  4  0  0  0
 13 17  4  0  0  0
 14 15  4  0  0  0
 14 18  4  0  0  0
 15 16  4  0  0  0
 16 17  4  0  0  0
 18 19  4  0  0  0
  1 20  1  0  0  0
  1 21  1  0  0  0
  1 22  1  0  0  0
  2 23  1  0  0  0
  3 24  1  0  0  0
  6 25  1  0  0  0
  6 26  1  0  0  0
  6 27  1  0  0  0
  8 28  1  0  0  0
  9 29  1  0  0  0
 10 30  1  0  0  0
 12 31  1  0  0  0
 15 32  1  0  0  0
 16 33  1  0  0  0
 19 34  1  0  0  0
M  END
$$$$
