4ob2_ligand

Created by X-TOOL on Fri Nov 18 17:46:37 2016
 21 20  0  0  0  0  0  0  0  0999 V2000
   -8.4350  -34.5550  206.4630  C 0  0  0  4  0  4
   -8.8600  -33.8740  205.1750  C 0  0  0  3  0  4
   -8.7380  -34.7580  203.9490  C 0  0  0  3  0  4
  -10.0490  -35.4180  203.5780  C 0  0  0  4  0  5
   -9.8490  -36.4260  202.2800  B 0  0  0  1  0  3
  -10.3410  -37.7730  202.3360  O 0  0  0  3  0  3
   -9.4260  -35.8710  201.0320  O 0  0  0  3  0  3
   -8.5510  -33.8549  207.3035  H 0  0  0  1  0  1
   -7.3818  -34.8628  206.3849  H 0  0  0  1  0  1
   -9.0642  -35.4409  206.6343  H 0  0  0  1  0  1
   -8.2282  -32.9858  205.0269  H 0  0  0  1  0  1
   -9.9105  -33.5640  205.2764  H 0  0  0  1  0  1
   -7.9934  -35.5418  204.1518  H 0  0  0  1  0  1
   -8.4009  -34.1423  203.1021  H 0  0  0  1  0  1
  -10.2204  -35.3107  202.4968  H 0  0  0  1  0  1
  -10.8705  -34.9369  204.1291  H 0  0  0  1  0  1
  -10.0085  -36.4859  203.8386  H 0  0  0  1  0  1
  -10.5780  -37.9854  203.2311  H 0  0  0  1  0  1
  -10.5780  -37.9854  203.2311  H 0  0  0  1  0  1
  -10.1539  -35.8759  200.4215  H 0  0  0  1  0  1
  -10.1539  -35.8759  200.4216  H 0  0  0  1  0  1
  1  2  1  0  0  2
  2  3  1  0  0  2
  3  4  1  0  0  2
  4  5  1  0  0  2
  5  6  1  0  0  2
  5  7  1  0  0  2
  1  8  1  0  0  2
  1  9  1  0  0  2
  1 10  1  0  0  2
  2 11  1  0  0  2
  2 12  1  0  0  2
  3 13  1  0  0  2
  3 14  1  0  0  2
  4 15  1  0  0  2
  4 16  1  0  0  2
  4 17  1  0  0  2
  6 18  1  0  0  2
  6 19  1  0  0  2
  7 20  1  0  0  2
  7 21  1  0  0  2
M  END
> <MOLECULAR_FORMULA>
C4H14O2B

> <MOLECULAR_WEIGHT>
104.9

> <NUM_HB_ATOMS>
2  

> <NUM_ROTOR>
3  

> <XLOGP2>
0.86 

$$$$
