#	Name:			4ob2_ligand
#	Creating user name:	wangrx
#	Creation time:		Thu Aug  5 16:47:23 2021

#	Modifying user name:	wangrx
#	Modification time:	Thu Aug  5 16:47:54 2021

@<TRIPOS>MOLECULE
4ob2_ligand
   20    19     1     0     0
SMALL
GAST_HUCK


@<TRIPOS>ATOM
      1 C1         -8.4350  -34.5550  206.4630 C.3       1 BUB        -0.0676 
      2 C2         -8.8600  -33.8740  205.1750 C.3       1 BUB        -0.0831 
      3 C6         -8.7380  -34.7580  203.9490 C.3       1 BUB        -0.1829 
      4 C9        -10.0490  -35.4180  203.5780 C.3       1 BUB        -0.3457 
      5 B12        -9.8490  -36.4260  202.2800 B         1 BUB         3.0000 
      6 O15       -10.3410  -37.7730  202.3360 O.3       1 BUB        -0.4105 
      7 O16        -9.4260  -35.8710  201.0320 O.3       1 BUB        -0.4105 
      8 H1         -8.5510  -33.8549  207.3035 H         1 BUB         0.0229 
      9 H2         -7.3818  -34.8628  206.3849 H         1 BUB         0.0229 
     10 H3         -9.0642  -35.4409  206.6343 H         1 BUB         0.0229 
     11 H4         -8.2282  -32.9858  205.0269 H         1 BUB         0.0238 
     12 H5         -9.9105  -33.5640  205.2764 H         1 BUB         0.0238 
     13 H6         -7.9934  -35.5418  204.1518 H         1 BUB        -0.0084 
     14 H7         -8.4009  -34.1423  203.1021 H         1 BUB        -0.0084 
     15 H9        -10.8705  -34.9369  204.1291 H         1 BUB        -0.2101 
     16 H10       -10.0085  -36.4859  203.8386 H         1 BUB        -0.2101 
     17 H11       -10.5780  -37.9854  203.2311 H         1 BUB         0.2052 
     18 H12       -10.5780  -37.9854  203.2311 H         1 BUB         0.2052 
     19 H13       -10.1539  -35.8759  200.4215 H         1 BUB         0.2052 
     20 H14       -10.1539  -35.8759  200.4216 H         1 BUB         0.2052 
@<TRIPOS>BOND
     1    1    2 1    
     2    2    3 1    
     3    3    4 1    
     4    4    5 1    
     5    5    6 1    
     6    5    7 1    
     7    1    8 1    
     8    1    9 1    
     9    1   10 1    
    10    2   11 1    
    11    2   12 1    
    12    3   13 1    
    13    3   14 1    
    14    4   15 1    
    15    4   16 1    
    16    6   17 1    
    17    6   18 1    
    18    7   19 1    
    19    7   20 1    
@<TRIPOS>SUBSTRUCTURE
     1 BUB         1 PERM              0 ****  ****    0 ROOT 
