6h4y_ligand
  -I-interpret- 

 32 34  0  0  0  0  0  0  0  0999 V2000
    8.8860  -15.8200  -55.9460 O   0  0  0  0  0
    7.9680  -15.7710  -55.1370 C   0  0  0  0  0
    7.2230  -14.5550  -54.8340 C   0  0  0  0  0
    7.4380  -13.3970  -55.5730 C   0  0  0  0  0
    6.6530  -12.3050  -55.2860 C   0  0  0  0  0
    5.7250  -12.2840  -54.3240 N   0  0  0  0  0
    5.5650  -13.3910  -53.5920 C   0  0  0  0  0
    6.2560  -14.6010  -53.8210 C   0  0  0  0  0
    5.9700  -15.7550  -53.1350 N   0  0  0  0  0
    6.6540  -16.8150  -53.4830 C   0  0  0  0  0
    7.6130  -16.8460  -54.4260 N   0  0  0  0  0
    4.7450  -13.2400  -52.4410 N   0  0  0  0  0
    4.1740  -12.0380  -52.1460 N   0  0  0  0  0
    3.5380  -12.2520  -51.0080 C   0  0  0  0  0
    3.6850  -13.5700  -50.5500 C   0  0  0  0  0
    4.4630  -14.1700  -51.5060 C   0  0  0  0  0
    3.1460  -14.2000  -49.2900 C   0  0  0  0  0
    3.8630  -13.7170  -48.0390 C   0  0  0  0  0
    3.3830  -14.3580  -46.8110 N   0  3  0  0  0
    8.2004  -13.3563  -56.3509 H   0  0  0  0  0
    6.7961  -11.4017  -55.8789 H   0  0  0  0  0
    6.4285  -17.7483  -52.9671 H   0  0  0  0  0
    8.0905  -17.7291  -54.6065 H   0  0  0  0  0
    2.9629  -11.4892  -50.4831 H   0  0  0  0  0
    4.7933  -15.2088  -51.5097 H   0  0  0  0  0
    3.2933  -15.2774  -49.3652 H   0  0  0  0  0
    2.0953  -13.9241  -49.2010 H   0  0  0  0  0
    3.6779  -12.6469  -47.9458 H   0  0  0  0  0
    4.9189  -13.9643  -48.1485 H   0  0  0  0  0
    3.9018  -13.9920  -46.0127 H   0  0  0  0  0
    2.3894  -14.1605  -46.6918 H   0  0  0  0  0
    3.5249  -15.3659  -46.8772 H   0  0  0  0  0
  1  2  2  0  0  0
  2  3  1  0  0  0
  2 11  1  0  0  0
  3  4  4  0  0  0
  3  8  4  0  0  0
  4  5  4  0  0  0
  5  6  4  0  0  0
  6  7  4  0  0  0
  7  8  4  0  0  0
  7 12  1  0  0  0
  8  9  1  0  0  0
  9 10  2  0  0  0
 10 11  1  0  0  0
 12 13  4  0  0  0
 12 16  4  0  0  0
 13 14  4  0  0  0
 14 15  4  0  0  0
 15 16  4  0  0  0
 15 17  1  0  0  0
 17 18  1  0  0  0
 18 19  1  0  0  0
  4 20  1  0  0  0
  5 21  1  0  0  0
 10 22  1  0  0  0
 11 23  1  0  0  0
 14 24  1  0  0  0
 16 25  1  0  0  0
 17 26  1  0  0  0
 17 27  1  0  0  0
 18 28  1  0  0  0
 18 29  1  0  0  0
 19 30  1  0  0  0
 19 31  1  0  0  0
 19 32  1  0  0  0
M  END
$$$$
