5trr_ligand
  -I-interpret- 

 77 79  0  0  0  0  0  0  0  0999 V2000
   -6.5620  -29.7570   36.9370 C   0  0  0  0  0
   -6.1870  -30.9240   37.0580 O   0  0  0  0  0
   -5.5930  -28.6170   37.1040 C   0  0  0  0  0
   -4.2160  -28.8380   36.4440 C   0  0  0  0  0
   -3.2500  -27.7110   36.5260 C   0  0  0  0  0
   -3.1680  -26.7090   35.5660 C   0  0  0  0  0
   -2.2370  -25.6650   35.6910 C   0  0  0  0  0
   -1.3690  -25.6130   36.7850 C   0  0  0  0  0
   -1.4450  -26.6160   37.7540 C   0  0  0  0  0
   -2.3820  -27.6460   37.6150 C   0  0  0  0  0
   -8.0870  -30.7640   34.2040 O   0  0  0  0  0
   -8.4480  -31.3820   35.1920 C   0  0  0  0  0
   -8.8310  -30.6120   36.4740 C   0  0  0  0  0
  -10.2670  -30.0550   36.2030 C   0  0  0  0  0
  -11.1010  -29.4950   37.3240 C   0  0  0  0  0
  -11.9380  -28.3470   37.1010 N   0  0  0  0  0
  -12.7510  -27.8190   38.2050 C   0  0  0  0  0
  -11.9360  -27.0700   39.2830 C   0  0  0  0  0
  -12.0270  -27.6710   35.7860 C   0  0  0  0  0
  -13.0570  -28.3230   34.8200 C   0  0  0  0  0
  -11.0570  -30.0230   38.4440 O   0  0  0  0  0
   -7.9060  -29.5390   36.6380 N   0  0  0  0  0
   -8.5220  -32.7840   35.1580 N   0  0  0  0  0
   -8.2030  -33.5440   33.9660 C   0  0  0  0  0
   -9.5260  -33.9980   33.3200 C   0  0  0  0  0
  -10.5090  -34.0980   34.0660 O   0  0  0  0  0
   -7.3900  -34.7470   34.3560 C   0  0  0  0  0
  -13.1270  -31.8620   28.8250 C   0  0  0  0  0
  -12.3750  -32.8740   28.2420 C   0  0  0  0  0
  -13.1950  -31.7340   30.2560 C   0  0  0  0  0
  -12.6050  -32.4750   32.4620 C   0  0  0  0  0
  -12.4960  -32.6440   31.0580 C   0  0  0  0  0
  -13.3600  -31.4620   33.0610 C   0  0  0  0  0
   -9.6540  -34.2770   31.9570 N   0  0  0  0  0
  -10.9400  -34.7220   31.3210 C   0  0  0  0  0
  -11.7050  -33.7030   30.4550 C   0  0  0  0  0
  -11.6600  -33.7980   29.0700 C   0  0  0  0  0
  -14.0470  -30.5570   32.2490 C   0  0  0  0  0
  -13.9610  -30.7040   30.8650 C   0  0  0  0  0
   -5.4173  -28.5046   38.1739 H   0  0  0  0  0
   -6.0399  -27.7479   36.6213 H   0  0  0  0  0
   -4.4119  -28.9899   35.3826 H   0  0  0  0  0
   -3.7556  -29.6686   36.9791 H   0  0  0  0  0
   -3.8353  -26.7339   34.7045 H   0  0  0  0  0
   -2.1910  -24.8882   34.9278 H   0  0  0  0  0
   -0.6452  -24.8036   36.8804 H   0  0  0  0  0
   -0.7771  -26.5965   38.6151 H   0  0  0  0  0
   -2.4348  -28.4201   38.3806 H   0  0  0  0  0
   -8.8093  -31.2285   37.3726 H   0  0  0  0  0
  -10.8293  -30.9242   35.8619 H   0  0  0  0  0
  -10.1016  -29.2031   35.5435 H   0  0  0  0  0
  -13.2265  -28.6702   38.6923 H   0  0  0  0  0
  -13.4536  -27.1045   37.7762 H   0  0  0  0  0
  -11.2024  -27.7483   39.7186 H   0  0  0  0  0
  -11.4236  -26.2233   38.8263 H   0  0  0  0  0
  -12.6091  -26.7119   40.0620 H   0  0  0  0  0
  -11.0466  -27.7416   35.3149 H   0  0  0  0  0
  -12.3511  -26.6460   35.9664 H   0  0  0  0  0
  -12.7747  -29.3596   34.6357 H   0  0  0  0  0
  -14.0484  -28.2899   35.2718 H   0  0  0  0  0
  -13.0671  -27.7749   33.8779 H   0  0  0  0  0
   -8.2388  -28.5805   36.5331 H   0  0  0  0  0
   -8.8096  -33.2835   35.9995 H   0  0  0  0  0
   -7.6317  -32.9384   33.2625 H   0  0  0  0  0
   -6.4704  -34.4206   34.8418 H   0  0  0  0  0
   -7.9660  -35.3657   35.0441 H   0  0  0  0  0
   -7.1461  -35.3239   33.4639 H   0  0  0  0  0
  -13.6699  -31.1593   28.1930 H   0  0  0  0  0
  -12.3293  -32.9646   27.1567 H   0  0  0  0  0
  -12.0718  -33.1720   33.1085 H   0  0  0  0  0
  -13.4117  -31.3798   34.1467 H   0  0  0  0  0
   -8.8314  -34.1731   31.3629 H   0  0  0  0  0
  -11.6075  -34.9578   32.1498 H   0  0  0  0  0
  -10.6644  -35.5301   30.6434 H   0  0  0  0  0
  -11.0708  -34.5888   28.6058 H   0  0  0  0  0
  -14.6378  -29.7529   32.6877 H   0  0  0  0  0
  -14.5007  -30.0037   30.2276 H   0  0  0  0  0
  1  2  2  0  0  0
  1  3  1  0  0  0
 22  1  1  0  0  0
  3  4  1  0  0  0
  4  5  1  0  0  0
  5  6  4  0  0  0
  5 10  4  0  0  0
  6  7  4  0  0  0
  7  8  4  0  0  0
  9  8  4  0  0  0
 10  9  4  0  0  0
 12 11  2  0  0  0
 12 13  1  0  0  0
 23 12  1  0  0  0
 13 14  1  0  0  0
 13 22  1  0  0  0
 14 15  1  0  0  0
 15 16  1  0  0  0
 15 21  2  0  0  0
 16 17  1  0  0  0
 16 19  1  0  0  0
 17 18  1  0  0  0
 19 20  1  0  0  0
 24 23  1  0  0  0
 25 24  1  0  0  0
 24 27  1  0  0  0
 25 26  2  0  0  0
 34 25  1  0  0  0
 28 29  4  0  0  0
 30 28  4  0  0  0
 29 37  4  0  0  0
 32 30  4  0  0  0
 30 39  4  0  0  0
 32 31  4  0  0  0
 31 33  4  0  0  0
 36 32  4  0  0  0
 33 38  4  0  0  0
 35 34  1  0  0  0
 35 36  1  0  0  0
 36 37  4  0  0  0
 38 39  4  0  0  0
  3 40  1  0  0  0
  3 41  1  0  0  0
  4 42  1  0  0  0
  4 43  1  0  0  0
  6 44  1  0  0  0
  7 45  1  0  0  0
  8 46  1  0  0  0
  9 47  1  0  0  0
 10 48  1  0  0  0
 13 49  1  0  0  0
 14 50  1  0  0  0
 14 51  1  0  0  0
 17 52  1  0  0  0
 17 53  1  0  0  0
 18 54  1  0  0  0
 18 55  1  0  0  0
 18 56  1  0  0  0
 19 57  1  0  0  0
 19 58  1  0  0  0
 20 59  1  0  0  0
 20 60  1  0  0  0
 20 61  1  0  0  0
 22 62  1  0  0  0
 23 63  1  0  0  0
 24 64  1  0  0  0
 27 65  1  0  0  0
 27 66  1  0  0  0
 27 67  1  0  0  0
 28 68  1  0  0  0
 29 69  1  0  0  0
 31 70  1  0  0  0
 33 71  1  0  0  0
 34 72  1  0  0  0
 35 73  1  0  0  0
 35 74  1  0  0  0
 37 75  1  0  0  0
 38 76  1  0  0  0
 39 77  1  0  0  0
M  END
$$$$
