4k3l_ligand
  -I-interpret- 

 47 47  0  0  0  0  0  0  0  0999 V2000
    7.0820   -5.2850  -12.0340 N   0  0  0  0  0
    8.0100   -4.1660  -12.4340 C   0  0  0  0  0
    9.3740   -4.6330  -12.9460 C   0  0  0  0  0
   10.0620   -3.8770  -13.6240 O   0  0  0  0  0
    8.2330   -3.2130  -11.2510 C   0  0  0  0  0
    6.9900   -2.4790  -10.7580 C   0  0  0  0  0
    7.2860   -1.7340   -9.4640 C   0  0  0  0  0
    6.4680   -1.5160  -11.8120 C   0  0  0  0  0
    9.7630   -5.8480  -12.5620 N   0  0  0  0  0
   11.0280   -6.4710  -12.9470 C   0  0  0  0  0
   10.9230   -7.9790  -12.7190 C   0  0  0  0  0
    9.9330   -8.4760  -12.1690 O   0  0  0  0  0
   12.1790   -5.9030  -12.1090 C   0  0  0  0  0
   11.9180   -5.9430  -10.6320 C   0  0  0  0  0
   12.2040   -7.0850   -9.8920 C   0  0  0  0  0
   11.3650   -4.8470   -9.9830 C   0  0  0  0  0
   11.9500   -7.1310   -8.5360 C   0  0  0  0  0
   11.1110   -4.8870   -8.6230 C   0  0  0  0  0
   11.3980   -6.0300   -7.8970 C   0  0  0  0  0
   11.8400   -8.7450  -13.0390 O   0  0  0  0  0
    6.5460   -6.1540  -12.9280 C   0  0  0  0  0
    6.6840   -6.0130  -14.1410 O   0  0  0  0  0
    5.6740   -7.2780  -12.4110 C   0  0  0  0  0
    6.8466   -5.3937  -11.0475 H   0  0  0  0  0
    7.5123   -3.6619  -13.2624 H   0  0  0  0  0
    8.9299   -2.4485  -11.5946 H   0  0  0  0  0
    8.5827   -3.8254  -10.4199 H   0  0  0  0  0
    6.2175   -3.2234  -10.5649 H   0  0  0  0  0
    8.0383   -0.9678   -9.6513 H   0  0  0  0  0
    6.3720   -1.2659   -9.0985 H   0  0  0  0  0
    7.6590   -2.4367   -8.7189 H   0  0  0  0  0
    5.5519   -1.0474  -11.4523 H   0  0  0  0  0
    7.2182   -0.7492  -12.0052 H   0  0  0  0  0
    6.2608   -2.0633  -12.7316 H   0  0  0  0  0
    9.1356   -6.3795  -11.9585 H   0  0  0  0  0
   11.2288   -6.2632  -13.9980 H   0  0  0  0  0
   12.3063   -4.8580  -12.3917 H   0  0  0  0  0
   13.0598   -6.5150  -12.3034 H   0  0  0  0  0
   12.6341   -7.9546  -10.3889 H   0  0  0  0  0
   11.1287   -3.9466  -10.5500 H   0  0  0  0  0
   12.1829   -8.0315   -7.9677 H   0  0  0  0  0
   10.6845   -4.0174   -8.1231 H   0  0  0  0  0
   11.1912   -6.0650   -6.8274 H   0  0  0  0  0
   12.5451   -8.2426  -13.4537 H   0  0  0  0  0
    4.6591   -7.1516  -12.7880 H   0  0  0  0  0
    6.0736   -8.2328  -12.7527 H   0  0  0  0  0
    5.6635   -7.2562  -11.3213 H   0  0  0  0  0
  1  2  1  0  0  0
  1 21  1  0  0  0
  2  3  1  0  0  0
  2  5  1  0  0  0
  3  4  2  0  0  0
  3  9  1  0  0  0
  5  6  1  0  0  0
  6  7  1  0  0  0
  6  8  1  0  0  0
  9 10  1  0  0  0
 10 11  1  0  0  0
 10 13  1  0  0  0
 11 12  2  0  0  0
 11 20  1  0  0  0
 13 14  1  0  0  0
 14 15  4  0  0  0
 14 16  4  0  0  0
 15 17  4  0  0  0
 16 18  4  0  0  0
 17 19  4  0  0  0
 18 19  4  0  0  0
 21 22  2  0  0  0
 21 23  1  0  0  0
  1 24  1  0  0  0
  2 25  1  0  0  0
  5 26  1  0  0  0
  5 27  1  0  0  0
  6 28  1  0  0  0
  7 29  1  0  0  0
  7 30  1  0  0  0
  7 31  1  0  0  0
  8 32  1  0  0  0
  8 33  1  0  0  0
  8 34  1  0  0  0
  9 35  1  0  0  0
 10 36  1  0  0  0
 13 37  1  0  0  0
 13 38  1  0  0  0
 15 39  1  0  0  0
 16 40  1  0  0  0
 17 41  1  0  0  0
 18 42  1  0  0  0
 19 43  1  0  0  0
 20 44  1  0  0  0
 23 45  1  0  0  0
 23 46  1  0  0  0
 23 47  1  0  0  0
M  END
$$$$
