5q1h_ligand
  -I-interpret- 

 68 73  0  0  0  0  0  0  0  0999 V2000
   28.5240   16.9790    6.4180 N   0  0  0  0  0
   31.7790   19.2210    4.2200 C   0  0  0  0  0
   26.4950   16.9210    0.1480 C   0  0  0  0  0
   30.1900   18.4820    6.9030 C   0  0  0  0  0
   27.0650   17.1260    1.4910 C   0  0  0  0  0
   28.6620   16.5340    3.1970 C   0  0  0  0  0
   28.1170   16.3320    1.9420 C   0  0  0  0  0
   30.0240   21.0340    4.8150 C   0  0  0  0  0
   33.3640   17.3610    3.8450 C   0  0  0  0  0
   29.5370   17.0830    8.7450 C   0  0  0  0  0
   30.1810   21.8820    3.5620 C   0  0  0  0  0
   33.9110   16.6490    5.0870 C   0  0  0  0  0
   32.6240   20.1030    4.0860 O   0  0  0  0  0
   32.0490   17.9180    4.1230 N   0  0  0  0  0
   35.2770   15.9780    4.8000 C   0  0  0  0  0
   35.1930   15.0060    3.6050 C   0  0  0  0  0
   34.6560   15.7130    2.3680 C   0  0  0  0  0
   33.2710   16.4020    2.6590 C   0  0  0  0  0
   30.3150   19.5480    4.5180 C   0  0  0  0  0
   29.9460   23.3800    3.8490 C   0  0  0  0  0
   28.5500   23.6260    4.4290 C   0  0  0  0  0
   28.2780   22.7160    5.6610 C   0  0  0  0  0
   28.5940   21.2260    5.3590 C   0  0  0  0  0
   29.7940   18.6120    5.5630 N   0  0  0  0  0
   31.1440   19.1390    7.6760 C   0  0  0  0  0
   31.2740   18.7510    9.0040 C   0  0  0  0  0
   30.4820   17.7360    9.5300 C   0  0  0  0  0
   29.3920   17.4660    7.4110 C   0  0  0  0  0
   28.8050   17.6900    5.3470 C   0  0  0  0  0
   28.1620   17.5230    4.0380 C   0  0  0  0  0
   27.1240   18.3280    3.5830 C   0  0  0  0  0
   26.5770   18.1290    2.3250 C   0  0  0  0  0
   26.8920   16.0010   -0.7340 N   0  0  0  0  0
   26.1540   16.1190   -1.8510 N   0  0  0  0  0
   25.3320   17.0980   -1.6420 N   0  0  0  0  0
   25.5190   17.6270   -0.4050 N   0  0  0  0  0
   29.4922   15.9116    3.5308 H   0  0  0  0  0
   28.5139   15.5451    1.3006 H   0  0  0  0  0
   30.7451   21.3528    5.5677 H   0  0  0  0  0
   34.0534   18.1656    3.5894 H   0  0  0  0  0
   28.9214   16.2871    9.1642 H   0  0  0  0  0
   29.4416   21.5535    2.8317 H   0  0  0  0  0
   31.1989   21.7602    3.1917 H   0  0  0  0  0
   33.2016   15.8760    5.3827 H   0  0  0  0  0
   34.0480   17.3878    5.8766 H   0  0  0  0  0
   31.2768   17.2644    4.2533 H   0  0  0  0  0
   35.5751   15.4128    5.6831 H   0  0  0  0  0
   35.9996   16.7577    4.5593 H   0  0  0  0  0
   34.5185   14.1897    3.8633 H   0  0  0  0  0
   36.1926   14.6294    3.3879 H   0  0  0  0  0
   34.5169   14.9740    1.5789 H   0  0  0  0  0
   35.3698   16.4810    2.0700 H   0  0  0  0  0
   32.9746   16.9698    1.7770 H   0  0  0  0  0
   32.5420   15.6273    2.8965 H   0  0  0  0  0
   29.7577   19.3840    3.5957 H   0  0  0  0  0
   30.0331   23.9297    2.9118 H   0  0  0  0  0
   30.6864   23.7133    4.5762 H   0  0  0  0  0
   27.8111   23.3980    3.6607 H   0  0  0  0  0
   28.4859   24.6667    4.7468 H   0  0  0  0  0
   27.2222   22.7965    5.9197 H   0  0  0  0  0
   28.9214   23.0438    6.4775 H   0  0  0  0  0
   28.5064   20.6649    6.2894 H   0  0  0  0  0
   27.8926   20.8769    4.6012 H   0  0  0  0  0
   31.7660   19.9288    7.2547 H   0  0  0  0  0
   32.0055   19.2481    9.6411 H   0  0  0  0  0
   30.6036   17.4474   10.5741 H   0  0  0  0  0
   26.7369   19.1225    4.2210 H   0  0  0  0  0
   25.7579   18.7630    1.9856 H   0  0  0  0  0
  1 28  4  0  0  0
 29  1  4  0  0  0
  2 13  2  0  0  0
  2 14  1  0  0  0
 19  2  1  0  0  0
  5  3  1  0  0  0
  3 33  4  0  0  0
  3 36  4  0  0  0
 24  4  4  0  0  0
  4 25  4  0  0  0
  4 28  4  0  0  0
  7  5  4  0  0  0
  5 32  4  0  0  0
  6  7  4  0  0  0
 30  6  4  0  0  0
  8 11  1  0  0  0
 19  8  1  0  0  0
  8 23  1  0  0  0
  9 12  1  0  0  0
 14  9  1  0  0  0
  9 18  1  0  0  0
 10 27  4  0  0  0
 28 10  4  0  0  0
 11 20  1  0  0  0
 12 15  1  0  0  0
 15 16  1  0  0  0
 17 16  1  0  0  0
 18 17  1  0  0  0
 24 19  1  0  0  0
 20 21  1  0  0  0
 22 21  1  0  0  0
 23 22  1  0  0  0
 29 24  4  0  0  0
 25 26  4  0  0  0
 26 27  4  0  0  0
 29 30  1  0  0  0
 30 31  4  0  0  0
 31 32  4  0  0  0
 33 34  4  0  0  0
 34 35  4  0  0  0
 35 36  4  0  0  0
  6 37  1  0  0  0
  7 38  1  0  0  0
  8 39  1  0  0  0
  9 40  1  0  0  0
 10 41  1  0  0  0
 11 42  1  0  0  0
 11 43  1  0  0  0
 12 44  1  0  0  0
 12 45  1  0  0  0
 14 46  1  0  0  0
 15 47  1  0  0  0
 15 48  1  0  0  0
 16 49  1  0  0  0
 16 50  1  0  0  0
 17 51  1  0  0  0
 17 52  1  0  0  0
 18 53  1  0  0  0
 18 54  1  0  0  0
 19 55  1  0  0  0
 20 56  1  0  0  0
 20 57  1  0  0  0
 21 58  1  0  0  0
 21 59  1  0  0  0
 22 60  1  0  0  0
 22 61  1  0  0  0
 23 62  1  0  0  0
 23 63  1  0  0  0
 25 64  1  0  0  0
 26 65  1  0  0  0
 27 66  1  0  0  0
 31 67  1  0  0  0
 32 68  1  0  0  0
M  END
$$$$
