5f88_ligand
  -I-interpret- 

207209  0  0  0  0  0  0  0  0999 V2000
   15.2770  -32.2250  -27.3430 N   0  3  0  0  0
   16.4290  -32.5900  -28.1650 C   0  0  0  0  0
   16.9040  -34.0070  -27.8530 C   0  0  0  0  0
   16.5330  -34.5910  -26.8320 O   0  0  0  0  0
   17.5930  -31.6150  -27.9510 C   0  0  0  0  0
   17.3240  -29.8780  -28.3530 S   0  0  0  0  0
   17.7500  -34.5440  -28.7290 N   0  0  0  0  0
   18.2470  -35.9040  -28.5980 C   0  0  0  0  0
   19.7450  -35.9230  -28.8610 C   0  0  0  0  0
   20.2330  -35.2420  -29.7680 O   0  0  0  0  0
   17.5290  -36.8530  -29.5630 C   0  0  0  0  0
   17.1850  -38.1900  -28.9430 C   0  0  0  0  0
   16.7250  -39.2160  -29.9590 C   0  0  0  0  0
   15.8900  -40.0700  -29.6600 O   0  0  0  0  0
   17.2800  -39.1480  -31.1640 N   0  0  0  0  0
   20.4680  -36.7000  -28.0570 N   0  0  0  0  0
   21.9120  -36.8080  -28.2050 C   0  0  0  0  0
   22.2610  -37.5840  -29.4670 C   0  0  0  0  0
   21.7200  -38.6660  -29.7150 O   0  0  0  0  0
   22.5200  -37.4940  -26.9830 C   0  0  0  0  0
   24.0060  -37.7040  -27.0830 C   0  0  0  0  0
   24.8800  -36.6500  -26.8790 C   0  0  0  0  0
   24.5280  -38.9550  -27.3740 C   0  0  0  0  0
   26.2420  -36.8370  -26.9680 C   0  0  0  0  0
   25.8960  -39.1490  -27.4640 C   0  0  0  0  0
   26.7520  -38.0890  -27.2590 C   0  0  0  0  0
   23.1780  -37.0270  -30.2570 N   0  0  0  0  0
   23.6670  -37.6290  -31.4930 C   0  0  0  0  0
   25.0930  -38.1060  -31.2410 C   0  0  0  0  0
   25.9990  -37.2880  -31.0460 O   0  0  0  0  0
   23.5990  -36.6140  -32.6350 C   0  0  0  0  0
   24.1370  -37.1530  -33.9480 C   0  0  0  0  0
   24.3880  -38.3710  -34.0540 O   0  0  0  0  0
   24.2950  -36.3470  -34.8880 O   0  0  0  0  0
   25.2950  -39.4280  -31.2520 N   0  0  0  0  0
   26.5990  -39.9850  -30.9100 C   0  0  0  0  0
   27.6340  -39.8200  -32.0150 C   0  0  0  0  0
   28.8060  -40.1420  -31.7900 O   0  0  0  0  0
   26.4740  -41.4680  -30.5240 C   0  0  0  0  0
   25.8680  -42.3840  -31.5710 C   0  0  0  0  0
   26.5840  -42.7550  -32.7030 C   0  0  0  0  0
   24.5930  -42.9100  -31.4050 C   0  0  0  0  0
   26.0370  -43.6020  -33.6550 C   0  0  0  0  0
   24.0370  -43.7590  -32.3540 C   0  0  0  0  0
   24.7650  -44.1010  -33.4750 C   0  0  0  0  0
   24.2240  -44.9450  -34.4190 O   0  0  0  0  0
   27.2420  -39.3310  -33.1940 N   0  0  0  0  0
   28.2250  -39.0320  -34.2320 C   0  0  0  0  0
   28.9880  -37.7490  -33.9280 C   0  0  0  0  0
   30.2050  -37.6860  -34.1330 O   0  0  0  0  0
   27.5460  -38.9210  -35.5970 C   0  0  0  0  0
   27.2800  -40.1940  -36.1490 O   0  0  0  0  0
   28.2910  -36.7180  -33.4490 N   0  0  0  0  0
   28.9030  -35.4320  -33.1470 C   0  0  0  0  0
   29.0570  -35.1710  -31.6560 C   0  0  0  0  0
   29.7080  -34.1880  -31.2830 O   0  0  0  0  0
   28.0770  -34.2930  -33.7660 C   0  0  0  0  0
   26.7630  -34.2890  -33.1940 O   0  0  0  0  0
   27.9650  -34.4710  -35.2740 C   0  0  0  0  0
   28.4860  -36.0260  -30.8040 N   0  0  0  0  0
   28.4230  -35.8140  -29.3560 C   0  0  0  0  0
   27.7350  -34.4970  -29.0110 C   0  0  0  0  0
   28.1090  -33.8170  -28.0530 O   0  0  0  0  0
   29.8080  -35.8820  -28.7060 C   0  0  0  0  0
   30.5870  -37.1330  -29.0560 C   0  0  0  0  0
   31.7280  -37.3660  -28.0910 C   0  0  0  0  0
   32.4630  -38.5830  -28.4160 N   0  0  0  0  0
   33.5130  -39.0230  -27.7330 C   0  0  0  0  0
   33.9510  -38.3450  -26.6820 N   0  0  0  0  0
   34.1210  -40.1420  -28.1000 N   0  0  0  0  0
   26.7220  -34.1300  -29.7880 N   0  0  0  0  0
   25.9810  -32.8980  -29.5750 C   0  0  0  0  0
   24.4890  -33.1890  -29.5980 C   0  0  0  0  0
   24.0390  -34.1570  -30.2180 O   0  0  0  0  0
   26.3230  -31.8490  -30.6410 C   0  0  0  0  0
   27.7590  -31.3520  -30.5970 C   0  0  0  0  0
   28.0660  -30.6430  -29.2830 C   0  0  0  0  0
   27.0640  -29.6300  -28.9720 N   0  0  0  0  0
   27.0260  -28.4190  -29.5200 C   0  0  0  0  0
   27.9370  -28.0580  -30.4150 N   0  0  0  0  0
   26.0700  -27.5690  -29.1750 N   0  0  0  0  0
   23.7260  -32.3400  -28.9140 N   0  0  0  0  0
   22.2730  -32.4430  -28.9480 C   0  0  0  0  0
   21.7540  -31.9930  -30.3060 C   0  0  0  0  0
   22.0590  -30.8890  -30.7690 O   0  0  0  0  0
   21.6490  -31.5980  -27.8410 C   0  0  0  0  0
   21.9450  -32.0160  -26.4030 C   0  0  0  0  0
   21.4450  -30.9530  -25.4380 C   0  0  0  0  0
   21.3100  -33.3620  -26.0970 C   0  0  0  0  0
   20.9740  -32.8540  -30.9460 N   0  0  0  0  0
   20.3990  -32.5810  -32.2550 C   0  0  0  0  0
   18.9050  -32.3850  -32.0770 C   0  0  0  0  0
   18.2050  -33.2970  -31.6250 O   0  0  0  0  0
   20.6750  -33.7190  -33.2380 C   0  0  0  0  0
   20.3310  -33.3920  -34.6810 C   0  0  0  0  0
   20.8750  -34.4580  -35.6220 C   0  0  0  0  0
   20.5560  -34.1280  -37.0720 C   0  0  0  0  0
   21.1340  -32.8190  -37.4930 N   0  3  0  0  0
   18.4190  -31.2070  -32.4320 N   0  0  0  0  0
   17.0070  -30.9230  -32.2570 C   0  0  0  0  0
   16.3190  -30.6550  -33.5780 C   0  0  0  0  0
   16.9630  -30.1940  -34.5220 O   0  0  0  0  0
   16.8350  -29.7420  -31.3320 C   0  0  0  0  0
   18.1870  -29.6500  -30.1690 S   0  0  0  0  0
   15.1180  -30.8840  -33.7190 O   0  0  0  0  0
   14.5204  -32.8894  -27.5059 H   0  0  0  0  0
   15.5431  -32.2456  -26.3585 H   0  0  0  0  0
   14.9663  -31.2861  -27.5929 H   0  0  0  0  0
   16.1055  -32.5412  -29.2047 H   0  0  0  0  0
   18.3799  -31.9504  -28.6266 H   0  0  0  0  0
   17.7961  -31.6366  -26.8803 H   0  0  0  0  0
   18.0609  -33.9811  -29.5208 H   0  0  0  0  0
   18.0488  -36.2490  -27.5832 H   0  0  0  0  0
   18.2008  -37.0414  -30.4004 H   0  0  0  0  0
   16.5942  -36.3768  -29.8586 H   0  0  0  0  0
   16.3666  -38.0288  -28.2413 H   0  0  0  0  0
   18.0865  -38.5762  -28.4673 H   0  0  0  0  0
   17.0180  -39.8204  -31.8848 H   0  0  0  0  0
   17.9681  -38.4234  -31.3684 H   0  0  0  0  0
   20.0002  -37.2306  -27.3221 H   0  0  0  0  0
   22.3263  -35.8032  -28.2873 H   0  0  0  0  0
   22.0573  -38.4772  -26.8978 H   0  0  0  0  0
   22.3396  -36.8481  -26.1237 H   0  0  0  0  0
   24.4861  -35.6609  -26.6453 H   0  0  0  0  0
   23.8533  -39.7960  -27.5339 H   0  0  0  0  0
   26.9184  -35.9972  -26.8089 H   0  0  0  0  0
   26.2943  -40.1367  -27.6962 H   0  0  0  0  0
   27.8298  -38.2371  -27.3261 H   0  0  0  0  0
   23.5621  -36.1234  -29.9806 H   0  0  0  0  0
   23.0494  -38.4773  -31.7882 H   0  0  0  0  0
   24.2129  -35.7585  -32.3532 H   0  0  0  0  0
   22.5503  -36.3590  -32.7879 H   0  0  0  0  0
   24.0452  -35.4665  -34.5984 H   0  0  0  0  0
   24.5291  -40.0534  -31.5022 H   0  0  0  0  0
   26.9560  -39.4123  -30.0540 H   0  0  0  0  0
   25.8046  -41.5034  -29.6645 H   0  0  0  0  0
   27.4900  -41.8259  -30.3578 H   0  0  0  0  0
   27.5949  -42.3729  -32.8452 H   0  0  0  0  0
   24.0189  -42.6523  -30.5150 H   0  0  0  0  0
   26.6105  -43.8719  -34.5417 H   0  0  0  0  0
   23.0304  -44.1530  -32.2135 H   0  0  0  0  0
   23.3396  -45.2016  -34.1479 H   0  0  0  0  0
   26.2511  -39.1654  -33.3706 H   0  0  0  0  0
   28.9394  -39.8550  -34.2520 H   0  0  0  0  0
   28.2135  -38.3851  -36.2717 H   0  0  0  0  0
   26.5995  -38.3956  -35.4697 H   0  0  0  0  0
   26.8548  -40.0886  -37.0032 H   0  0  0  0  0
   27.2906  -36.8349  -33.2880 H   0  0  0  0  0
   29.9032  -35.4661  -33.5789 H   0  0  0  0  0
   28.5779  -33.3476  -33.5575 H   0  0  0  0  0
   26.2486  -33.5772  -33.5817 H   0  0  0  0  0
   28.9621  -34.4648  -35.7143 H   0  0  0  0  0
   27.4764  -35.4209  -35.4912 H   0  0  0  0  0
   27.3766  -33.6543  -35.6923 H   0  0  0  0  0
   28.0695  -36.8762  -31.1836 H   0  0  0  0  0
   27.8238  -36.6280  -28.9480 H   0  0  0  0  0
   29.6605  -35.8825  -27.6260 H   0  0  0  0  0
   30.3807  -35.0296  -29.0715 H   0  0  0  0  0
   31.0015  -37.0121  -30.0569 H   0  0  0  0  0
   29.9108  -37.9862  -29.0025 H   0  0  0  0  0
   31.3156  -37.4694  -27.0873 H   0  0  0  0  0
   32.4134  -36.5210  -28.1563 H   0  0  0  0  0
   32.1509  -39.1303  -29.2181 H   0  0  0  0  0
   33.4814  -37.4852  -26.3979 H   0  0  0  0  0
   34.9260  -40.4813  -27.5735 H   0  0  0  0  0
   33.7839  -40.6639  -28.9089 H   0  0  0  0  0
   26.4540  -34.7359  -30.5636 H   0  0  0  0  0
   26.2633  -32.4946  -28.6026 H   0  0  0  0  0
   25.6810  -30.9872  -30.4585 H   0  0  0  0  0
   26.1783  -32.3219  -31.6124 H   0  0  0  0  0
   27.9040  -30.6440  -31.4129 H   0  0  0  0  0
   28.4241  -32.2107  -30.6891 H   0  0  0  0  0
   29.0348  -30.1520  -29.3751 H   0  0  0  0  0
   28.0657  -31.3842  -28.4838 H   0  0  0  0  0
   26.3445  -29.8661  -28.2887 H   0  0  0  0  0
   27.8996  -27.1291  -30.8346 H   0  0  0  0  0
   28.6746  -28.7095  -30.6833 H   0  0  0  0  0
   25.3655  -27.8442  -28.4906 H   0  0  0  0  0
   24.1648  -31.6063  -28.3577 H   0  0  0  0  0
   21.9932  -33.4839  -28.7855 H   0  0  0  0  0
   20.5703  -31.6947  -27.9639 H   0  0  0  0  0
   22.0707  -30.5993  -27.9543 H   0  0  0  0  0
   23.0236  -32.1160  -26.2816 H   0  0  0  0  0
   21.9472  -30.0086  -25.6478 H   0  0  0  0  0
   20.3691  -30.8292  -25.5615 H   0  0  0  0  0
   21.6615  -31.2618  -24.4153 H   0  0  0  0  0
   20.2305  -33.2917  -26.2303 H   0  0  0  0  0
   21.7128  -34.1148  -26.7746 H   0  0  0  0  0
   21.5328  -33.6417  -25.0673 H   0  0  0  0  0
   20.7677  -33.7481  -30.5006 H   0  0  0  0  0
   20.8562  -31.6839  -32.6726 H   0  0  0  0  0
   20.0487  -34.5601  -32.9406 H   0  0  0  0  0
   21.7449  -33.9239  -33.2008 H   0  0  0  0  0
   20.7792  -32.4328  -34.9402 H   0  0  0  0  0
   19.2465  -33.3533  -34.7835 H   0  0  0  0  0
   20.4102  -35.4118  -35.3723 H   0  0  0  0  0
   21.9579  -34.5039  -35.5062 H   0  0  0  0  0
   19.4725  -34.0691  -37.1757 H   0  0  0  0  0
   20.9885  -34.9070  -37.6999 H   0  0  0  0  0
   20.8950  -32.6411  -38.4685 H   0  0  0  0  0
   20.7525  -32.0761  -36.9073 H   0  0  0  0  0
   22.1484  -32.8477  -37.3900 H   0  0  0  0  0
   19.0366  -30.4987  -32.8286 H   0  0  0  0  0
   16.5399  -31.8043  -31.8173 H   0  0  0  0  0
   17.8772  -30.0726  -34.2553 H   0  0  0  0  0
   15.9024  -29.8593  -30.7800 H   0  0  0  0  0
   16.8182  -28.8283  -31.9261 H   0  0  0  0  0
  1  2  1  0  0  0
  2  3  1  0  0  0
  2  5  1  0  0  0
  3  4  2  0  0  0
  3  7  1  0  0  0
  5  6  1  0  0  0
  6104  1  0  0  0
  7  8  1  0  0  0
  8  9  1  0  0  0
  8 11  1  0  0  0
  9 10  2  0  0  0
  9 16  1  0  0  0
 11 12  1  0  0  0
 12 13  1  0  0  0
 13 14  2  0  0  0
 13 15  1  0  0  0
 16 17  1  0  0  0
 17 18  1  0  0  0
 17 20  1  0  0  0
 18 19  2  0  0  0
 18 27  1  0  0  0
 20 21  1  0  0  0
 21 22  4  0  0  0
 21 23  4  0  0  0
 22 24  4  0  0  0
 23 25  4  0  0  0
 24 26  4  0  0  0
 25 26  4  0  0  0
 27 28  1  0  0  0
 28 29  1  0  0  0
 28 31  1  0  0  0
 29 30  2  0  0  0
 29 35  1  0  0  0
 31 32  1  0  0  0
 32 33  2  0  0  0
 32 34  1  0  0  0
 35 36  1  0  0  0
 36 37  1  0  0  0
 36 39  1  0  0  0
 37 38  2  0  0  0
 37 47  1  0  0  0
 39 40  1  0  0  0
 40 41  4  0  0  0
 40 42  4  0  0  0
 41 43  4  0  0  0
 42 44  4  0  0  0
 43 45  4  0  0  0
 44 45  4  0  0  0
 45 46  1  0  0  0
 47 48  1  0  0  0
 48 49  1  0  0  0
 48 51  1  0  0  0
 49 50  2  0  0  0
 49 53  1  0  0  0
 51 52  1  0  0  0
 53 54  1  0  0  0
 54 55  1  0  0  0
 54 57  1  0  0  0
 55 56  2  0  0  0
 55 60  1  0  0  0
 57 58  1  0  0  0
 57 59  1  0  0  0
 60 61  1  0  0  0
 61 62  1  0  0  0
 61 64  1  0  0  0
 62 63  2  0  0  0
 62 71  1  0  0  0
 64 65  1  0  0  0
 65 66  1  0  0  0
 66 67  1  0  0  0
 67 68  1  0  0  0
 68 69  2  0  0  0
 68 70  1  0  0  0
 71 72  1  0  0  0
 72 73  1  0  0  0
 72 75  1  0  0  0
 73 74  2  0  0  0
 73 82  1  0  0  0
 75 76  1  0  0  0
 76 77  1  0  0  0
 77 78  1  0  0  0
 78 79  1  0  0  0
 79 80  1  0  0  0
 79 81  2  0  0  0
 82 83  1  0  0  0
 83 84  1  0  0  0
 83 86  1  0  0  0
 84 85  2  0  0  0
 84 90  1  0  0  0
 86 87  1  0  0  0
 87 88  1  0  0  0
 87 89  1  0  0  0
 90 91  1  0  0  0
 91 92  1  0  0  0
 91 94  1  0  0  0
 92 93  2  0  0  0
 92 99  1  0  0  0
 94 95  1  0  0  0
 95 96  1  0  0  0
 96 97  1  0  0  0
 97 98  1  0  0  0
 99100  1  0  0  0
100101  1  0  0  0
100103  1  0  0  0
101102  1  0  0  0
101105  2  0  0  0
103104  1  0  0  0
  1106  1  0  0  0
  1107  1  0  0  0
  1108  1  0  0  0
  2109  1  0  0  0
  5110  1  0  0  0
  5111  1  0  0  0
  7112  1  0  0  0
  8113  1  0  0  0
 11114  1  0  0  0
 11115  1  0  0  0
 12116  1  0  0  0
 12117  1  0  0  0
 15118  1  0  0  0
 15119  1  0  0  0
 16120  1  0  0  0
 17121  1  0  0  0
 20122  1  0  0  0
 20123  1  0  0  0
 22124  1  0  0  0
 23125  1  0  0  0
 24126  1  0  0  0
 25127  1  0  0  0
 26128  1  0  0  0
 27129  1  0  0  0
 28130  1  0  0  0
 31131  1  0  0  0
 31132  1  0  0  0
 34133  1  0  0  0
 35134  1  0  0  0
 36135  1  0  0  0
 39136  1  0  0  0
 39137  1  0  0  0
 41138  1  0  0  0
 42139  1  0  0  0
 43140  1  0  0  0
 44141  1  0  0  0
 46142  1  0  0  0
 47143  1  0  0  0
 48144  1  0  0  0
 51145  1  0  0  0
 51146  1  0  0  0
 52147  1  0  0  0
 53148  1  0  0  0
 54149  1  0  0  0
 57150  1  0  0  0
 58151  1  0  0  0
 59152  1  0  0  0
 59153  1  0  0  0
 59154  1  0  0  0
 60155  1  0  0  0
 61156  1  0  0  0
 64157  1  0  0  0
 64158  1  0  0  0
 65159  1  0  0  0
 65160  1  0  0  0
 66161  1  0  0  0
 66162  1  0  0  0
 67163  1  0  0  0
 69164  1  0  0  0
 70165  1  0  0  0
 70166  1  0  0  0
 71167  1  0  0  0
 72168  1  0  0  0
 75169  1  0  0  0
 75170  1  0  0  0
 76171  1  0  0  0
 76172  1  0  0  0
 77173  1  0  0  0
 77174  1  0  0  0
 78175  1  0  0  0
 80176  1  0  0  0
 80177  1  0  0  0
 81178  1  0  0  0
 82179  1  0  0  0
 83180  1  0  0  0
 86181  1  0  0  0
 86182  1  0  0  0
 87183  1  0  0  0
 88184  1  0  0  0
 88185  1  0  0  0
 88186  1  0  0  0
 89187  1  0  0  0
 89188  1  0  0  0
 89189  1  0  0  0
 90190  1  0  0  0
 91191  1  0  0  0
 94192  1  0  0  0
 94193  1  0  0  0
 95194  1  0  0  0
 95195  1  0  0  0
 96196  1  0  0  0
 96197  1  0  0  0
 97198  1  0  0  0
 97199  1  0  0  0
 98200  1  0  0  0
 98201  1  0  0  0
 98202  1  0  0  0
 99203  1  0  0  0
100204  1  0  0  0
102205  1  0  0  0
103206  1  0  0  0
103207  1  0  0  0
M  END
$$$$
