### 
### Created by X-TOOL on Mon Sep 10 21:13:26 2018
### 

@<TRIPOS>MOLECULE
5f88_ligand
  207   209     1     0     0
SMALL
GAST_HUCK


@<TRIPOS>ATOM
      1 N          15.2770  -32.2250  -27.3430 N.4       1 CYS         0.2385
      2 CA         16.4290  -32.5900  -28.1650 C.3       1 CYS         0.0749
      3 C          16.9040  -34.0070  -27.8530 C.2       1 CYS         0.2275
      4 O          16.5330  -34.5910  -26.8320 O.2       1 CYS        -0.3907
      5 CB         17.5930  -31.6150  -27.9510 C.3       1 CYS         0.0643
      6 SG         17.3240  -29.8780  -28.3530 S.3       1 CYS        -0.0848
      7 N          17.7500  -34.5440  -28.7290 N.am      1 GLN        -0.2608
      8 CA         18.2470  -35.9040  -28.5980 C.3       1 GLN         0.1331
      9 C          19.7450  -35.9230  -28.8610 C.2       1 GLN         0.2042
     10 O          20.2330  -35.2420  -29.7680 O.2       1 GLN        -0.3944
     11 CB         17.5290  -36.8530  -29.5630 C.3       1 GLN         0.0045
     12 CG         17.1850  -38.1900  -28.9430 C.3       1 GLN         0.0412
     13 CD         16.7250  -39.2160  -29.9590 C.2       1 GLN         0.1737
     14 OE1        15.8900  -40.0700  -29.6600 O.2       1 GLN        -0.3973
     15 NE2        17.2800  -39.1480  -31.1640 N.am      1 GLN        -0.3009
     16 N          20.4680  -36.7000  -28.0570 N.am      1 PHE        -0.2619
     17 CA         21.9120  -36.8080  -28.2050 C.3       1 PHE         0.1404
     18 C          22.2610  -37.5840  -29.4670 C.2       1 PHE         0.2060
     19 O          21.7200  -38.6660  -29.7150 O.2       1 PHE        -0.3942
     20 CB         22.5200  -37.4940  -26.9830 C.3       1 PHE         0.0214
     21 CG         24.0060  -37.7040  -27.0830 C.ar      1 PHE        -0.0386
     22 CD1        24.8800  -36.6500  -26.8790 C.ar      1 PHE        -0.0601
     23 CD2        24.5280  -38.9550  -27.3740 C.ar      1 PHE        -0.0601
     24 CE1        26.2420  -36.8370  -26.9680 C.ar      1 PHE        -0.0686
     25 CE2        25.8960  -39.1490  -27.4640 C.ar      1 PHE        -0.0686
     26 CZ         26.7520  -38.0890  -27.2590 C.ar      1 PHE        -0.0687
     27 N          23.1780  -37.0270  -30.2570 N.am      1 ASP        -0.2620
     28 CA         23.6670  -37.6290  -31.4930 C.3       1 ASP         0.1423
     29 C          25.0930  -38.1060  -31.2410 C.2       1 ASP         0.2057
     30 O          25.9990  -37.2880  -31.0460 O.2       1 ASP        -0.3943
     31 CB         23.5990  -36.6140  -32.6350 C.3       1 ASP         0.0406
     32 CG         24.1370  -37.1530  -33.9480 C.2       1 ASP         0.0393
     33 OD1        24.3880  -38.3710  -34.0540 O.co2     1 ASP        -0.5688
     34 OD2        24.2950  -36.3470  -34.8880 O.co2     1 ASP        -0.5688
     35 N          25.2950  -39.4280  -31.2520 N.am      1 TYR        -0.2620
     36 CA         26.5990  -39.9850  -30.9100 C.3       1 TYR         0.1390
     37 C          27.6340  -39.8200  -32.0150 C.2       1 TYR         0.2058
     38 O          28.8060  -40.1420  -31.7900 O.2       1 TYR        -0.3942
     39 CB         26.4740  -41.4680  -30.5240 C.3       1 TYR         0.0163
     40 CG         25.8680  -42.3840  -31.5710 C.ar      1 TYR        -0.0493
     41 CD1        26.5840  -42.7550  -32.7030 C.ar      1 TYR        -0.0685
     42 CD2        24.5930  -42.9100  -31.4050 C.ar      1 TYR        -0.0685
     43 CE1        26.0370  -43.6020  -33.6550 C.ar      1 TYR        -0.0398
     44 CE2        24.0370  -43.7590  -32.3540 C.ar      1 TYR        -0.0398
     45 CZ         24.7650  -44.1010  -33.4750 C.ar      1 TYR         0.0805
     46 OH         24.2240  -44.9450  -34.4190 O.3       1 TYR        -0.3376
     47 N          27.2420  -39.3310  -33.1940 N.am      1 SER        -0.2614
     48 CA         28.2250  -39.0320  -34.2320 C.3       1 SER         0.1539
     49 C          28.9880  -37.7490  -33.9280 C.2       1 SER         0.2063
     50 O          30.2050  -37.6860  -34.1330 O.2       1 SER        -0.3943
     51 CB         27.5460  -38.9210  -35.5970 C.3       1 SER         0.0843
     52 OG         27.2800  -40.1940  -36.1490 O.3       1 SER        -0.3903
     53 N          28.2910  -36.7180  -33.4490 N.am      1 THR        -0.2613
     54 CA         28.9030  -35.4320  -33.1470 C.3       1 THR         0.1565
     55 C          29.0570  -35.1710  -31.6560 C.2       1 THR         0.2065
     56 O          29.7080  -34.1880  -31.2830 O.2       1 THR        -0.3943
     57 CB         28.0770  -34.2930  -33.7660 C.3       1 THR         0.0924
     58 OG1        26.7630  -34.2890  -33.1940 O.3       1 THR        -0.3874
     59 CG2        27.9650  -34.4710  -35.2740 C.3       1 THR        -0.0346
     60 N          28.4860  -36.0260  -30.8040 N.am      1 ARG        -0.2636
     61 CA         28.4230  -35.8140  -29.3560 C.3       1 ARG         0.1311
     62 C          27.7350  -34.4970  -29.0110 C.2       1 ARG         0.2039
     63 O          28.1090  -33.8170  -28.0530 O.2       1 ARG        -0.3944
     64 CB         29.8080  -35.8820  -28.7060 C.3       1 ARG        -0.0092
     65 CG         30.5870  -37.1330  -29.0560 C.3       1 ARG        -0.0156
     66 CD         31.7280  -37.3660  -28.0910 C.3       1 ARG         0.0627
     67 NE         32.4630  -38.5830  -28.4160 N.pl3     1 ARG        -0.2723
     68 CZ         33.5130  -39.0230  -27.7330 C.cat     1 ARG         0.2882
     69 NH1        33.9510  -38.3450  -26.6820 N.pl3     1 ARG        -0.2849
     70 NH2        34.1210  -40.1420  -28.1000 N.pl3     1 ARG        -0.2849
     71 N          26.7220  -34.1300  -29.7880 N.am      1 ARG        -0.2637
     72 CA         25.9810  -32.8980  -29.5750 C.3       1 ARG         0.1311
     73 C          24.4890  -33.1890  -29.5980 C.2       1 ARG         0.2039
     74 O          24.0390  -34.1570  -30.2180 O.2       1 ARG        -0.3944
     75 CB         26.3230  -31.8490  -30.6410 C.3       1 ARG        -0.0092
     76 CG         27.7590  -31.3520  -30.5970 C.3       1 ARG        -0.0156
     77 CD         28.0660  -30.6430  -29.2830 C.3       1 ARG         0.0627
     78 NE         27.0640  -29.6300  -28.9720 N.pl3     1 ARG        -0.2723
     79 CZ         27.0260  -28.4190  -29.5200 C.cat     1 ARG         0.2882
     80 NH1        27.9370  -28.0580  -30.4150 N.pl3     1 ARG        -0.2849
     81 NH2        26.0700  -27.5690  -29.1750 N.pl3     1 ARG        -0.2849
     82 N          23.7260  -32.3400  -28.9140 N.am      1 LEU        -0.2637
     83 CA         22.2730  -32.4430  -28.9480 C.3       1 LEU         0.1312
     84 C          21.7540  -31.9930  -30.3060 C.2       1 LEU         0.2039
     85 O          22.0590  -30.8890  -30.7690 O.2       1 LEU        -0.3944
     86 CB         21.6490  -31.5980  -27.8410 C.3       1 LEU        -0.0101
     87 CG         21.9450  -32.0160  -26.4030 C.3       1 LEU        -0.0425
     88 CD1        21.4450  -30.9530  -25.4380 C.3       1 LEU        -0.0625
     89 CD2        21.3100  -33.3620  -26.0970 C.3       1 LEU        -0.0625
     90 N          20.9740  -32.8540  -30.9460 N.am      1 LYS        -0.2637
     91 CA         20.3990  -32.5810  -32.2550 C.3       1 LYS         0.1309
     92 C          18.9050  -32.3850  -32.0770 C.2       1 LYS         0.2034
     93 O          18.2050  -33.2970  -31.6250 O.2       1 LYS        -0.3944
     94 CB         20.6750  -33.7190  -33.2380 C.3       1 LYS        -0.0122
     95 CG         20.3310  -33.3920  -34.6810 C.3       1 LYS        -0.0440
     96 CD         20.8750  -34.4580  -35.6220 C.3       1 LYS        -0.0124
     97 CE         20.5560  -34.1280  -37.0720 C.3       1 LYS        -0.0354
     98 NZ         21.1340  -32.8190  -37.4930 N.4       1 LYS         0.2185
     99 N          18.4190  -31.2070  -32.4320 N.am      1 CYS        -0.2687
    100 CA         17.0070  -30.9230  -32.2570 C.3       1 CYS         0.1041
    101 C          16.3190  -30.6550  -33.5780 C.2       1 CYS         0.0609
    102 O          16.9630  -30.1940  -34.5220 O.co2     1 CYS        -0.5666
    103 CB         16.8350  -29.7420  -31.3320 C.3       1 CYS         0.0388
    104 SG         18.1870  -29.6500  -30.1690 S.3       1 CYS        -0.0887
    105 OXT        15.1180  -30.8840  -33.7190 O.co2     1 CYS        -0.5666
    106 H1         14.9860  -31.2870  -27.5700 H         1 CYS         0.2015
    107 H2         15.5312  -32.2713  -26.3687 H         1 CYS         0.2015
    108 H3         14.5193  -32.8648  -27.5234 H         1 CYS         0.2015
    109 H4         16.1244  -32.5466  -29.2211 H         1 CYS         0.1107
    110 H5         18.4330  -31.9675  -28.5675 H         1 CYS         0.0466
    111 H6         17.8716  -31.6658  -26.8881 H         1 CYS         0.0466
    112 H7         18.0548  -33.9921  -29.5053 H         1 GLN         0.1885
    113 H8         18.0626  -36.2478  -27.5695 H         1 GLN         0.0801
    114 H9         18.1819  -37.0283  -30.4307 H         1 GLN         0.0337
    115 H10        16.5972  -36.3727  -29.8963 H         1 GLN         0.0337
    116 H11        16.3797  -38.0387  -28.2091 H         1 GLN         0.0504
    117 H12        18.0781  -38.5792  -28.4323 H         1 GLN         0.0504
    118 H13        17.0144  -39.7999  -31.8743 H         1 GLN         0.1814
    119 H14        17.9634  -38.4449  -31.3608 H         1 GLN         0.1814
    120 H15        20.0094  -37.2202  -27.3365 H         1 PHE         0.1885
    121 H16        22.3333  -35.7952  -28.2868 H         1 PHE         0.0823
    122 H17        22.0383  -38.4753  -26.8604 H         1 PHE         0.0474
    123 H18        22.3161  -36.8724  -26.0987 H         1 PHE         0.0474
    124 H19        24.4882  -35.6663  -26.6466 H         1 PHE         0.0557
    125 H20        23.8570  -39.7914  -27.5330 H         1 PHE         0.0557
    126 H21        26.9146  -36.0018  -26.8097 H         1 PHE         0.0599
    127 H22        26.2921  -40.1313  -27.6949 H         1 PHE         0.0599
    128 H23        27.8239  -38.2363  -27.3257 H         1 PHE         0.0559
    129 H24        23.5546  -36.1412  -29.9860 H         1 ASP         0.1884
    130 H25        23.0387  -38.4935  -31.7535 H         1 ASP         0.0819
    131 H26        24.1891  -35.7298  -32.3523 H         1 ASP         0.0478
    132 H27        22.5485  -36.3224  -32.7813 H         1 ASP         0.0478
    133 H28        24.5441  -40.0411  -31.4973 H         1 TYR         0.1885
    134 H29        26.9671  -39.4367  -30.0303 H         1 TYR         0.0821
    135 H30        25.8472  -41.5284  -29.6221 H         1 TYR         0.0453
    136 H31        27.4830  -41.8414  -30.2950 H         1 TYR         0.0453
    137 H32        27.5893  -42.3750  -32.8444 H         1 TYR         0.0530
    138 H33        24.0221  -42.6537  -30.5199 H         1 TYR         0.0530
    139 H34        26.6074  -43.8704  -34.5369 H         1 TYR         0.0525
    140 H35        23.0360  -44.1508  -32.2143 H         1 TYR         0.0525
    141 H36        24.8507  -45.0767  -35.1207 H         1 TYR         0.2458
    142 H37        26.2706  -39.1687  -33.3672 H         1 SER         0.1884
    143 H38        28.9467  -39.8614  -34.2686 H         1 SER         0.0823
    144 H39        28.2058  -38.3662  -36.2802 H         1 SER         0.0606
    145 H40        26.5972  -38.3767  -35.4809 H         1 SER         0.0606
    146 H41        28.0962  -40.6681  -36.2566 H         1 SER         0.2097
    147 H42        27.3102  -36.8326  -33.2912 H         1 THR         0.1884
    148 H43        29.9060  -35.4243  -33.5986 H         1 THR         0.0826
    149 H44        28.5707  -33.3336  -33.5519 H         1 THR         0.0639
    150 H45        26.2540  -33.5846  -33.5776 H         1 THR         0.2101
    151 H46        27.3713  -33.6474  -35.6973 H         1 THR         0.0257
    152 H47        27.4720  -35.4293  -35.4945 H         1 THR         0.0257
    153 H48        28.9706  -34.4649  -35.7197 H         1 THR         0.0257
    154 H49        28.0776  -36.8595  -31.1761 H         1 ARG         0.1883
    155 H50        27.8169  -36.6279  -28.9314 H         1 ARG         0.0800
    156 H51        29.6807  -35.8470  -27.6140 H         1 ARG         0.0313
    157 H52        30.3891  -35.0081  -29.0356 H         1 ARG         0.0313
    158 H53        30.9948  -37.0272  -30.0721 H         1 ARG         0.0301
    159 H54        29.9081  -37.9978  -29.0216 H         1 ARG         0.0301
    160 H55        31.3222  -37.4548  -27.0725 H         1 ARG         0.0689
    161 H56        32.4165  -36.5094  -28.1380 H         1 ARG         0.0689
    162 H57        32.1478  -39.1357  -29.2260 H         1 ARG         0.2642
    163 H58        34.7656  -38.6862  -26.1520 H         1 ARG         0.2615
    164 H59        33.4768  -37.4768  -26.3951 H         1 ARG         0.2615
    165 H60        33.7806  -40.6690  -28.9169 H         1 ARG         0.2615
    166 H61        34.9339  -40.4846  -27.5683 H         1 ARG         0.2615
    167 H62        26.4593  -34.7240  -30.5484 H         1 ARG         0.1883
    168 H63        26.2496  -32.4937  -28.5879 H         1 ARG         0.0800
    169 H64        25.6560  -30.9857  -30.5002 H         1 ARG         0.0313
    170 H65        26.1433  -32.2936  -31.6310 H         1 ARG         0.0313
    171 H66        27.9195  -30.6493  -31.4280 H         1 ARG         0.0301
    172 H67        28.4377  -32.2107  -30.7066 H         1 ARG         0.0301
    173 H68        29.0507  -30.1589  -29.3603 H         1 ARG         0.0689
    174 H69        28.0854  -31.3864  -28.4724 H         1 ARG         0.0689
    175 H70        26.3374  -29.8684  -28.2820 H         1 ARG         0.2642
    176 H71        27.9017  -27.1184  -30.8356 H         1 ARG         0.2615
    177 H72        28.6793  -28.7174  -30.6890 H         1 ARG         0.2615
    178 H73        25.3611  -27.8453  -28.4808 H         1 ARG         0.2615
    179 H74        26.0357  -26.6319  -29.6010 H         1 ARG         0.2615
    180 H75        24.1562  -31.6207  -28.3686 H         1 LEU         0.1883
    181 H76        21.9898  -33.4942  -28.7906 H         1 LEU         0.0800
    182 H77        20.5578  -31.6254  -27.9770 H         1 LEU         0.0315
    183 H78        22.0086  -30.5662  -27.9678 H         1 LEU         0.0315
    184 H79        23.0344  -32.1110  -26.2837 H         1 LEU         0.0298
    185 H80        21.6629  -31.2635  -24.4055 H         1 LEU         0.0232
    186 H81        20.3593  -30.8271  -25.5616 H         1 LEU         0.0232
    187 H82        21.9511  -29.9993  -25.6486 H         1 LEU         0.0232
    188 H83        21.6856  -34.1143  -26.8062 H         1 LEU         0.0232
    189 H84        20.2171  -33.2820  -26.1921 H         1 LEU         0.0232
    190 H85        21.5676  -33.6643  -25.0712 H         1 LEU         0.0232
    191 H86        20.7718  -33.7306  -30.5093 H         1 LYS         0.1883
    192 H87        20.8413  -31.6571  -32.6560 H         1 LYS         0.0800
    193 H88        20.0804  -34.5920  -32.9309 H         1 LYS         0.0312
    194 H89        21.7453  -33.9677  -33.1863 H         1 LYS         0.0312
    195 H90        20.7715  -32.4193  -34.9451 H         1 LYS         0.0269
    196 H91        19.2375  -33.3406  -34.7882 H         1 LYS         0.0269
    197 H92        20.4214  -35.4270  -35.3667 H         1 LYS         0.0317
    198 H93        21.9664  -34.5206  -35.5003 H         1 LYS         0.0317
    199 H94        19.4635  -34.0883  -37.1941 H         1 LYS         0.0813
    200 H95        20.9682  -34.9201  -37.7144 H         1 LYS         0.0813
    201 H96        20.8984  -32.6422  -38.4570 H         1 LYS         0.1994
    202 H97        22.1365  -32.8462  -37.3917 H         1 LYS         0.1994
    203 H98        20.7577  -32.0840  -36.9149 H         1 LYS         0.1994
    204 H99        19.0245  -30.5126  -32.8208 H         1 CYS         0.1876
    205 H100       16.5333  -31.8019  -31.7954 H         1 CYS         0.0734
    206 H101       15.8901  -29.8505  -30.7795 H         1 CYS         0.0425
    207 H102       16.8074  -28.8176  -31.9276 H         1 CYS         0.0425
@<TRIPOS>BOND
     1    1    2 1  
     2    2    3 1  
     3    2    5 1  
     4    3    4 2  
     5    3    7 am 
     6    5    6 1  
     7    6  104 1  
     8    7    8 1  
     9    8    9 1  
    10    8   11 1  
    11    9   10 2  
    12    9   16 am 
    13   11   12 1  
    14   12   13 1  
    15   13   14 2  
    16   13   15 am 
    17   16   17 1  
    18   17   18 1  
    19   17   20 1  
    20   18   19 2  
    21   18   27 am 
    22   20   21 1  
    23   21   22 ar 
    24   21   23 ar 
    25   22   24 ar 
    26   23   25 ar 
    27   24   26 ar 
    28   25   26 ar 
    29   27   28 1  
    30   28   29 1  
    31   28   31 1  
    32   29   30 2  
    33   29   35 am 
    34   31   32 1  
    35   32   33 ar 
    36   32   34 ar 
    37   35   36 1  
    38   36   37 1  
    39   36   39 1  
    40   37   38 2  
    41   37   47 am 
    42   39   40 1  
    43   40   41 ar 
    44   40   42 ar 
    45   41   43 ar 
    46   42   44 ar 
    47   43   45 ar 
    48   44   45 ar 
    49   45   46 1  
    50   47   48 1  
    51   48   49 1  
    52   48   51 1  
    53   49   50 2  
    54   49   53 am 
    55   51   52 1  
    56   53   54 1  
    57   54   55 1  
    58   54   57 1  
    59   55   56 2  
    60   55   60 am 
    61   57   58 1  
    62   57   59 1  
    63   60   61 1  
    64   61   62 1  
    65   61   64 1  
    66   62   63 2  
    67   62   71 am 
    68   64   65 1  
    69   65   66 1  
    70   66   67 1  
    71   67   68 ar 
    72   68   69 ar 
    73   68   70 ar 
    74   71   72 1  
    75   72   73 1  
    76   72   75 1  
    77   73   74 2  
    78   73   82 am 
    79   75   76 1  
    80   76   77 1  
    81   77   78 1  
    82   78   79 ar 
    83   79   80 ar 
    84   79   81 ar 
    85   82   83 1  
    86   83   84 1  
    87   83   86 1  
    88   84   85 2  
    89   84   90 am 
    90   86   87 1  
    91   87   88 1  
    92   87   89 1  
    93   90   91 1  
    94   91   92 1  
    95   91   94 1  
    96   92   93 2  
    97   92   99 am 
    98   94   95 1  
    99   95   96 1  
   100   96   97 1  
   101   97   98 1  
   102   99  100 1  
   103  100  101 1  
   104  100  103 1  
   105  101  102 ar 
   106  101  105 ar 
   107  103  104 1  
   108    1  106 1  
   109    1  107 1  
   110    1  108 1  
   111    2  109 1  
   112    5  110 1  
   113    5  111 1  
   114    7  112 1  
   115    8  113 1  
   116   11  114 1  
   117   11  115 1  
   118   12  116 1  
   119   12  117 1  
   120   15  118 1  
   121   15  119 1  
   122   16  120 1  
   123   17  121 1  
   124   20  122 1  
   125   20  123 1  
   126   22  124 1  
   127   23  125 1  
   128   24  126 1  
   129   25  127 1  
   130   26  128 1  
   131   27  129 1  
   132   28  130 1  
   133   31  131 1  
   134   31  132 1  
   135   35  133 1  
   136   36  134 1  
   137   39  135 1  
   138   39  136 1  
   139   41  137 1  
   140   42  138 1  
   141   43  139 1  
   142   44  140 1  
   143   46  141 1  
   144   47  142 1  
   145   48  143 1  
   146   51  144 1  
   147   51  145 1  
   148   52  146 1  
   149   53  147 1  
   150   54  148 1  
   151   57  149 1  
   152   58  150 1  
   153   59  151 1  
   154   59  152 1  
   155   59  153 1  
   156   60  154 1  
   157   61  155 1  
   158   64  156 1  
   159   64  157 1  
   160   65  158 1  
   161   65  159 1  
   162   66  160 1  
   163   66  161 1  
   164   67  162 1  
   165   69  163 1  
   166   69  164 1  
   167   70  165 1  
   168   70  166 1  
   169   71  167 1  
   170   72  168 1  
   171   75  169 1  
   172   75  170 1  
   173   76  171 1  
   174   76  172 1  
   175   77  173 1  
   176   77  174 1  
   177   78  175 1  
   178   80  176 1  
   179   80  177 1  
   180   81  178 1  
   181   81  179 1  
   182   82  180 1  
   183   83  181 1  
   184   86  182 1  
   185   86  183 1  
   186   87  184 1  
   187   88  185 1  
   188   88  186 1  
   189   88  187 1  
   190   89  188 1  
   191   89  189 1  
   192   89  190 1  
   193   90  191 1  
   194   91  192 1  
   195   94  193 1  
   196   94  194 1  
   197   95  195 1  
   198   95  196 1  
   199   96  197 1  
   200   96  198 1  
   201   97  199 1  
   202   97  200 1  
   203   98  201 1  
   204   98  202 1  
   205   98  203 1  
   206   99  204 1  
   207  100  205 1  
   208  103  206 1  
   209  103  207 1  
@<TRIPOS>SUBSTRUCTURE
     1 CYS         1

