4fys_ligand
  -I-interpret- 

110113  0  0  0  0  0  0  0  0999 V2000
  110.1090   20.2790   21.9190 N   0  3  0  0  0
  109.6910   19.2860   20.8440 C   0  0  0  0  0
  108.6920   19.9360   19.8990 C   0  0  0  0  0
  107.9680   20.8730   20.2820 O   0  0  0  0  0
  108.9260   18.0200   21.3850 C   0  0  0  0  0
  109.8640   16.8990   21.7910 C   0  0  0  0  0
  107.9480   18.3690   22.5270 C   0  0  0  0  0
  108.6170   19.4050   18.6900 N   0  0  0  0  0
  107.5280   19.7560   17.8010 C   0  0  0  0  0
  106.4540   18.6890   17.9760 C   0  0  0  0  0
  106.7470   17.5020   17.9530 O   0  0  0  0  0
  107.9630   19.8220   16.3450 C   0  0  0  0  0
  106.8090   20.1890   15.4440 C   0  0  0  0  0
  106.5550   21.5160   15.1100 C   0  0  0  0  0
  105.9260   19.1990   14.9600 C   0  0  0  0  0
  105.4750   21.8510   14.3010 C   0  0  0  0  0
  104.8480   19.5330   14.1620 C   0  0  0  0  0
  104.6360   20.8440   13.8300 C   0  0  0  0  0
  103.5690   21.1450   13.0310 O   0  0  0  0  0
  105.2270   19.1310   18.1960 N   0  0  0  0  0
  104.0770   18.2330   18.2520 C   0  0  0  0  0
  103.0600   18.7250   17.2130 C   0  0  0  0  0
  102.7190   19.9090   17.2190 O   0  0  0  0  0
  103.4790   18.2590   19.6710 C   0  0  0  0  0
  104.3310   17.3840   20.5890 C   0  0  0  0  0
  102.0160   17.8040   19.6770 C   0  0  0  0  0
  104.1390   17.6990   22.0510 C   0  0  0  0  0
  102.5790   17.8590   16.3200 N   0  0  0  0  0
  101.6030   18.3590   15.3410 C   0  0  0  0  0
  100.2720   18.6920   15.9900 C   0  0  0  0  0
   99.6720   17.8280   16.6380 O   0  0  0  0  0
  101.3740   17.4620   14.1210 C   0  0  0  0  0
  100.4480   18.0850   13.1120 C   0  0  0  0  0
  100.7860   19.2120   12.3850 N   0  0  0  0  0
   99.1770   17.7780   12.7530 C   0  0  0  0  0
   99.7760   19.5520   11.6030 C   0  0  0  0  0
   98.7860   18.7000   11.8090 N   0  0  0  0  0
   99.8290   19.9580   15.8260 N   0  0  0  0  0
   98.4980   20.4220   16.1720 C   0  0  0  0  0
   97.4410   19.3240   16.0040 C   0  0  0  0  0
   97.1830   18.8710   14.8880 O   0  0  0  0  0
   98.2740   21.5490   15.1540 C   0  0  0  0  0
   99.6190   22.1580   15.0030 C   0  0  0  0  0
  100.6270   21.0550   15.2410 C   0  0  0  0  0
   96.8750   18.8750   17.1200 N   0  0  0  0  0
   95.7920   17.9030   17.0810 C   0  0  0  0  0
   94.4590   18.6250   16.8890 C   0  0  0  0  0
   94.1910   19.6610   17.5090 O   0  0  0  0  0
   95.7760   17.0410   18.3490 C   0  0  0  0  0
   94.7800   15.9080   18.3060 C   0  0  0  0  0
   95.0160   14.7810   17.5130 C   0  0  0  0  0
   93.6120   15.9620   19.0640 C   0  0  0  0  0
   94.1000   13.7370   17.4720 C   0  0  0  0  0
   92.6960   14.9190   19.0350 C   0  0  0  0  0
   92.9380   13.8070   18.2430 C   0  0  0  0  0
   93.6260   18.1840   16.0970 O   0  0  0  0  0
  110.5951   21.0636   21.4849 H   0  0  0  0  0
  109.2803   20.6189   22.4070 H   0  0  0  0  0
  110.7308   19.8177   22.5831 H   0  0  0  0  0
  110.6309   18.9871   20.3799 H   0  0  0  0  0
  108.3327   17.6530   20.5475 H   0  0  0  0  0
  110.4413   17.2078   22.6625 H   0  0  0  0  0
  109.2819   16.0105   22.0354 H   0  0  0  0  0
  110.5404   16.6762   20.9658 H   0  0  0  0  0
  107.3537   17.4899   22.7760 H   0  0  0  0  0
  108.5131   18.6872   23.4031 H   0  0  0  0  0
  107.2890   19.1755   22.2055 H   0  0  0  0  0
  109.3302   18.7443   18.3815 H   0  0  0  0  0
  107.1599   20.7502   18.0541 H   0  0  0  0  0
  108.3357   18.8413   16.0494 H   0  0  0  0  0
  108.7354   20.5850   16.2478 H   0  0  0  0  0
  107.2101   22.3014   15.4869 H   0  0  0  0  0
  106.0973   18.1544   15.2199 H   0  0  0  0  0
  105.2867   22.8919   14.0379 H   0  0  0  0  0
  104.1719   18.7585   13.7999 H   0  0  0  0  0
  103.1043   20.3369   12.8018 H   0  0  0  0  0
  105.0793   20.1312   18.3309 H   0  0  0  0  0
  104.3613   17.2045   18.0294 H   0  0  0  0  0
  103.4893   19.2855   20.0376 H   0  0  0  0  0
  105.3773   17.5681   20.3450 H   0  0  0  0  0
  104.0314   16.3480   20.4311 H   0  0  0  0  0
  101.4277   18.4680   19.0436 H   0  0  0  0  0
  101.9522   16.7850   19.2955 H   0  0  0  0  0
  101.6309   17.8365   20.6962 H   0  0  0  0  0
  104.4123   18.7377   22.2365 H   0  0  0  0  0
  103.0945   17.5431   22.3208 H   0  0  0  0  0
  104.7719   17.0431   22.6488 H   0  0  0  0  0
  102.8779   16.8838   16.3165 H   0  0  0  0  0
  102.0691   19.2673   14.9592 H   0  0  0  0  0
  100.9184   16.5342   14.4671 H   0  0  0  0  0
  102.3374   17.3000   13.6376 H   0  0  0  0  0
   98.5768   16.9545   13.1399 H   0  0  0  0  0
   99.7617   20.3911   10.9074 H   0  0  0  0  0
   98.4138   20.7327   17.2134 H   0  0  0  0  0
   97.5264   22.2687   15.4877 H   0  0  0  0  0
   97.8747   21.1823   14.2084 H   0  0  0  0  0
   99.7586   22.9711   15.7153 H   0  0  0  0  0
   99.7410   22.5867   14.0083 H   0  0  0  0  0
  101.1321   20.7533   14.3235 H   0  0  0  0  0
  101.4368   21.3715   15.8984 H   0  0  0  0  0
   97.2062   19.2184   18.0215 H   0  0  0  0  0
   95.9530   17.2327   16.2367 H   0  0  0  0  0
   94.9247   19.8864   18.0855 H   0  0  0  0  0
   95.4935   17.6896   19.1782 H   0  0  0  0  0
   96.7665   16.5980   18.4522 H   0  0  0  0  0
   95.9288   14.7207   16.9203 H   0  0  0  0  0
   93.4150   16.8340   19.6876 H   0  0  0  0  0
   94.2875   12.8680   16.8413 H   0  0  0  0  0
   91.7873   14.9743   19.6344 H   0  0  0  0  0
   92.2205   12.9867   18.2222 H   0  0  0  0  0
  1  2  1  0  0  0
  2  3  1  0  0  0
  2  5  1  0  0  0
  3  4  2  0  0  0
  3  8  1  0  0  0
  5  6  1  0  0  0
  5  7  1  0  0  0
  8  9  1  0  0  0
  9 10  1  0  0  0
  9 12  1  0  0  0
 10 11  2  0  0  0
 10 20  1  0  0  0
 12 13  1  0  0  0
 13 14  4  0  0  0
 13 15  4  0  0  0
 14 16  4  0  0  0
 15 17  4  0  0  0
 16 18  4  0  0  0
 17 18  4  0  0  0
 18 19  1  0  0  0
 20 21  1  0  0  0
 21 22  1  0  0  0
 21 24  1  0  0  0
 22 23  2  0  0  0
 22 28  1  0  0  0
 24 25  1  0  0  0
 24 26  1  0  0  0
 25 27  1  0  0  0
 28 29  1  0  0  0
 29 30  1  0  0  0
 29 32  1  0  0  0
 30 31  2  0  0  0
 30 38  1  0  0  0
 32 33  1  0  0  0
 33 34  4  0  0  0
 33 35  4  0  0  0
 34 36  4  0  0  0
 35 37  4  0  0  0
 36 37  4  0  0  0
 38 39  1  0  0  0
 38 44  1  0  0  0
 39 40  1  0  0  0
 39 42  1  0  0  0
 40 41  2  0  0  0
 40 45  1  0  0  0
 42 43  1  0  0  0
 43 44  1  0  0  0
 45 46  1  0  0  0
 46 47  1  0  0  0
 46 49  1  0  0  0
 47 48  1  0  0  0
 47 56  2  0  0  0
 49 50  1  0  0  0
 50 51  4  0  0  0
 50 52  4  0  0  0
 51 53  4  0  0  0
 52 54  4  0  0  0
 53 55  4  0  0  0
 54 55  4  0  0  0
  1 57  1  0  0  0
  1 58  1  0  0  0
  1 59  1  0  0  0
  2 60  1  0  0  0
  5 61  1  0  0  0
  6 62  1  0  0  0
  6 63  1  0  0  0
  6 64  1  0  0  0
  7 65  1  0  0  0
  7 66  1  0  0  0
  7 67  1  0  0  0
  8 68  1  0  0  0
  9 69  1  0  0  0
 12 70  1  0  0  0
 12 71  1  0  0  0
 14 72  1  0  0  0
 15 73  1  0  0  0
 16 74  1  0  0  0
 17 75  1  0  0  0
 19 76  1  0  0  0
 20 77  1  0  0  0
 21 78  1  0  0  0
 24 79  1  0  0  0
 25 80  1  0  0  0
 25 81  1  0  0  0
 26 82  1  0  0  0
 26 83  1  0  0  0
 26 84  1  0  0  0
 27 85  1  0  0  0
 27 86  1  0  0  0
 27 87  1  0  0  0
 28 88  1  0  0  0
 29 89  1  0  0  0
 32 90  1  0  0  0
 32 91  1  0  0  0
 35 92  1  0  0  0
 36 93  1  0  0  0
 39 94  1  0  0  0
 42 95  1  0  0  0
 42 96  1  0  0  0
 43 97  1  0  0  0
 43 98  1  0  0  0
 44 99  1  0  0  0
 44100  1  0  0  0
 45101  1  0  0  0
 46102  1  0  0  0
 48103  1  0  0  0
 49104  1  0  0  0
 49105  1  0  0  0
 51106  1  0  0  0
 52107  1  0  0  0
 53108  1  0  0  0
 54109  1  0  0  0
 55110  1  0  0  0
M  END
$$$$
