1vjb_ligand
  -I-interpret- 

 59 61  0  0  0  0  0  0  0  0999 V2000
  -19.2580   54.3850  -10.0820 C   0  0  0  0  0
  -19.2290   55.2590  -11.3080 C   0  0  0  0  0
  -17.9430   56.0490  -11.4340 C   0  0  0  0  0
  -16.8070   55.1990  -11.9480 C   0  0  0  0  0
  -15.7970   54.7000  -11.0560 C   0  0  0  0  0
  -14.7380   53.8970  -11.5380 C   0  0  0  0  0
  -14.6490   53.5700  -12.8940 C   0  0  0  0  0
  -15.6180   54.0420  -13.7800 C   0  0  0  0  0
  -16.6870   54.8500  -13.3090 C   0  0  0  0  0
  -17.8490   57.4090  -11.1200 C   0  0  0  0  0
  -18.9540   58.2370  -10.4470 C   0  0  0  0  0
  -19.4370   59.4800  -11.0360 C   0  0  0  0  0
  -20.4430   60.2430  -10.3960 C   0  0  0  0  0
  -20.9850   59.7820   -9.1620 C   0  0  0  0  0
  -21.9500   60.5330   -8.5680 O   0  0  0  0  0
  -20.5270   58.5670   -8.5660 C   0  0  0  0  0
  -19.5250   57.8200   -9.2120 C   0  0  0  0  0
  -16.6580   58.2410  -11.4070 C   0  0  0  0  0
  -16.1900   58.4630  -12.7220 C   0  0  0  0  0
  -15.0890   59.2560  -12.9920 C   0  0  0  0  0
  -14.3990   59.8720  -11.9330 C   0  0  0  0  0
  -13.3010   60.6840  -12.1380 O   0  0  0  0  0
  -12.6210   61.3250  -11.0490 C   0  0  0  0  0
  -11.2720   61.7410  -11.5640 C   0  0  0  0  0
  -11.2860   62.9850  -12.2660 N   0  3  0  0  0
  -10.3620   63.9470  -11.6520 C   0  0  0  0  0
  -10.8830   62.7680  -13.6620 C   0  0  0  0  0
  -14.8430   59.6640  -10.5960 C   0  0  0  0  0
  -15.9390   58.8670  -10.3530 C   0  0  0  0  0
  -18.4324   53.6746  -10.1242 H   0  0  0  0  0
  -19.1592   55.0064   -9.1919 H   0  0  0  0  0
  -20.2033   53.8436  -10.0456 H   0  0  0  0  0
  -20.0517   55.9699  -11.2312 H   0  0  0  0  0
  -19.3108   54.6122  -12.1815 H   0  0  0  0  0
  -15.8480   54.9436   -9.9948 H   0  0  0  0  0
  -13.9823   53.5287  -10.8442 H   0  0  0  0  0
  -13.8286   52.9508  -13.2567 H   0  0  0  0  0
  -15.5544   53.7895  -14.8384 H   0  0  0  0  0
  -17.4334   55.2094  -14.0174 H   0  0  0  0  0
  -19.0183   59.8262  -11.9810 H   0  0  0  0  0
  -20.7985   61.1719  -10.8420 H   0  0  0  0  0
  -22.2245   60.1109   -7.7506 H   0  0  0  0  0
  -20.9490   58.2228   -7.6218 H   0  0  0  0  0
  -19.1759   56.8949   -8.7532 H   0  0  0  0  0
  -16.7153   57.9926  -13.5532 H   0  0  0  0  0
  -14.7582   59.4025  -14.0202 H   0  0  0  0  0
  -12.5200   60.6464  -10.2020 H   0  0  0  0  0
  -13.1840   62.1887  -10.6953 H   0  0  0  0  0
  -10.9391   60.9747  -12.2640 H   0  0  0  0  0
  -10.6157   61.8598  -10.7019 H   0  0  0  0  0
  -12.2329   63.3618  -12.2239 H   0  0  0  0  0
  -10.6589   64.1251  -10.6184 H   0  0  0  0  0
   -9.3499   63.5430  -11.6762 H   0  0  0  0  0
  -10.3937   64.8845  -12.2072 H   0  0  0  0  0
   -9.8773   62.3484  -13.6875 H   0  0  0  0  0
  -11.5789   62.0760  -14.1363 H   0  0  0  0  0
  -10.8949   63.7191  -14.1943 H   0  0  0  0  0
  -14.3159   60.1351   -9.7663 H   0  0  0  0  0
  -16.2641   58.7119   -9.3242 H   0  0  0  0  0
  1  2  1  0  0  0
  2  3  1  0  0  0
  3  4  1  0  0  0
  3 10  2  0  0  0
  4  5  4  0  0  0
  4  9  4  0  0  0
  5  6  4  0  0  0
  6  7  4  0  0  0
  7  8  4  0  0  0
  8  9  4  0  0  0
 10 11  1  0  0  0
 10 18  1  0  0  0
 11 12  4  0  0  0
 11 17  4  0  0  0
 12 13  4  0  0  0
 13 14  4  0  0  0
 14 15  1  0  0  0
 14 16  4  0  0  0
 16 17  4  0  0  0
 18 19  4  0  0  0
 18 29  4  0  0  0
 19 20  4  0  0  0
 20 21  4  0  0  0
 21 22  1  0  0  0
 21 28  4  0  0  0
 22 23  1  0  0  0
 23 24  1  0  0  0
 24 25  1  0  0  0
 25 26  1  0  0  0
 25 27  1  0  0  0
 28 29  4  0  0  0
  1 30  1  0  0  0
  1 31  1  0  0  0
  1 32  1  0  0  0
  2 33  1  0  0  0
  2 34  1  0  0  0
  5 35  1  0  0  0
  6 36  1  0  0  0
  7 37  1  0  0  0
  8 38  1  0  0  0
  9 39  1  0  0  0
 12 40  1  0  0  0
 13 41  1  0  0  0
 15 42  1  0  0  0
 16 43  1  0  0  0
 17 44  1  0  0  0
 19 45  1  0  0  0
 20 46  1  0  0  0
 23 47  1  0  0  0
 23 48  1  0  0  0
 24 49  1  0  0  0
 24 50  1  0  0  0
 25 51  1  0  0  0
 26 52  1  0  0  0
 26 53  1  0  0  0
 26 54  1  0  0  0
 27 55  1  0  0  0
 27 56  1  0  0  0
 27 57  1  0  0  0
 28 58  1  0  0  0
 29 59  1  0  0  0
M  END
$$$$
