4pd9_ligand
  -I-interpret- 

 32 34  0  0  0  0  0  0  0  0999 V2000
   52.1610  -18.7870   -1.9380 O   0  0  0  0  0
   53.3860  -18.1950   -2.3480 C   0  0  0  0  0
   53.4940  -18.1350   -3.8510 C   0  0  0  0  0
   53.4820  -19.4790   -4.3970 O   0  0  0  0  0
   52.3550  -17.4330   -4.5730 C   0  0  0  0  0
   52.4910  -16.0220   -4.5770 O   0  0  0  0  0
   52.4070  -18.0520   -5.9630 C   0  0  0  0  0
   53.4400  -17.4600   -6.7370 O   0  0  0  0  0
   52.8110  -19.4910   -5.6380 C   0  0  0  0  0
   51.6430  -20.3850   -5.5310 N   0  0  0  0  0
   51.0860  -20.9110   -4.3910 C   0  0  0  0  0
   50.0480  -21.6810   -4.6150 N   0  0  0  0  0
   49.9140  -21.6610   -5.9970 C   0  0  0  0  0
   49.0000  -22.2800   -6.8680 C   0  0  0  0  0
   48.0070  -23.0710   -6.4570 N   0  0  0  0  0
   49.1430  -22.0530   -8.1930 N   0  0  0  0  0
   50.1390  -21.2590   -8.6050 C   0  0  0  0  0
   51.0600  -20.6220   -7.8850 N   0  0  0  0  0
   50.8900  -20.8680   -6.5740 C   0  0  0  0  0
   52.1233  -18.8103   -0.9790 H   0  0  0  0  0
   54.2076  -18.8012   -1.9664 H   0  0  0  0  0
   53.4260  -17.1780   -1.9578 H   0  0  0  0  0
   54.4149  -17.5746   -4.0125 H   0  0  0  0  0
   51.3887  -17.5727   -4.0884 H   0  0  0  0  0
   52.4501  -15.6951   -3.6753 H   0  0  0  0  0
   51.4800  -17.9384   -6.5250 H   0  0  0  0  0
   53.2006  -16.5549   -6.9493 H   0  0  0  0  0
   53.4432  -19.8646   -6.4435 H   0  0  0  0  0
   51.4712  -20.7073   -3.3919 H   0  0  0  0  0
   47.8798  -23.2546   -5.4618 H   0  0  0  0  0
   47.3751  -23.4920   -7.1381 H   0  0  0  0  0
   50.2053  -21.1134   -9.6832 H   0  0  0  0  0
  1  2  1  0  0  0
  2  3  1  0  0  0
  3  4  1  0  0  0
  3  5  1  0  0  0
  4  9  1  0  0  0
  5  6  1  0  0  0
  5  7  1  0  0  0
  7  8  1  0  0  0
  7  9  1  0  0  0
  9 10  1  0  0  0
 10 11  4  0  0  0
 10 19  4  0  0  0
 11 12  4  0  0  0
 12 13  4  0  0  0
 13 14  4  0  0  0
 13 19  4  0  0  0
 14 15  1  0  0  0
 14 16  4  0  0  0
 16 17  4  0  0  0
 17 18  4  0  0  0
 18 19  4  0  0  0
  1 20  1  0  0  0
  2 21  1  0  0  0
  2 22  1  0  0  0
  3 23  1  0  0  0
  5 24  1  0  0  0
  6 25  1  0  0  0
  7 26  1  0  0  0
  8 27  1  0  0  0
  9 28  1  0  0  0
 11 29  1  0  0  0
 15 30  1  0  0  0
 15 31  1  0  0  0
 17 32  1  0  0  0
M  END
$$$$
