5kx7_ligand
  -I-interpret- 

 39 41  0  0  0  0  0  0  0  0999 V2000
   34.8230   40.4370   60.7550 N   0  0  0  0  0
   33.8620   40.2980   61.7260 C   0  0  0  0  0
   34.1500   40.1030   62.9020 O   0  0  0  0  0
   32.4320   40.2400   61.2580 C   0  0  0  0  0
   32.1930   40.4740   59.9580 N   0  0  0  0  0
   30.9340   40.3190   59.5150 C   0  0  0  0  0
   29.8880   39.9040   60.3350 C   0  0  0  0  0
   30.1570   39.6390   61.6620 C   0  0  0  0  0
   31.4420   39.8110   62.1400 C   0  0  0  0  0
   30.7240   40.5790   58.0720 C   0  0  0  0  0
   29.5340   40.8250   57.3570 C   0  0  0  0  0
   29.7550   41.0040   56.0660 N   0  0  0  0  0
   31.1410   40.8520   55.9270 N   0  0  0  0  0
   31.7070   40.5930   57.1110 C   0  0  0  0  0
   36.2070   40.2690   61.0190 C   0  0  0  0  0
   36.9380   40.2600   62.2370 C   0  0  0  0  0
   38.2270   40.0720   61.9300 N   0  0  0  0  0
   38.4500   39.9400   60.6000 N   0  0  0  0  0
   37.2350   40.0560   60.0500 C   0  0  0  0  0
   39.3530   39.9750   62.8510 C   0  0  0  0  0
   37.0410   39.9250   58.5980 C   0  0  0  0  0
   38.0290   39.3510   57.9110 N   0  0  0  0  0
   35.9690   40.3050   58.0710 O   0  0  0  0  0
   31.8090   40.9670   54.6390 C   0  0  0  0  0
   34.5303   40.6703   59.8062 H   0  0  0  0  0
   28.8794   39.7910   59.9375 H   0  0  0  0  0
   29.3636   39.2973   62.3268 H   0  0  0  0  0
   31.6767   39.6150   63.1862 H   0  0  0  0  0
   28.5460   40.8632   57.8157 H   0  0  0  0  0
   32.7694   40.4218   57.2847 H   0  0  0  0  0
   36.5248   40.3836   63.2381 H   0  0  0  0  0
   39.4298   40.8970   63.4274 H   0  0  0  0  0
   39.1964   39.1344   63.5270 H   0  0  0  0  0
   40.2717   39.8214   62.2848 H   0  0  0  0  0
   37.9325   39.2026   56.9065 H   0  0  0  0  0
   38.8814   39.0603   58.3899 H   0  0  0  0  0
   31.4136   40.2138   53.9575 H   0  0  0  0  0
   31.6321   41.9604   54.2268 H   0  0  0  0  0
   32.8798   40.8126   54.7715 H   0  0  0  0  0
  1  2  1  0  0  0
  1 15  1  0  0  0
  2  3  2  0  0  0
  2  4  1  0  0  0
  4  5  4  0  0  0
  4  9  4  0  0  0
  5  6  4  0  0  0
  6  7  4  0  0  0
  6 10  1  0  0  0
  7  8  4  0  0  0
  8  9  4  0  0  0
 10 11  4  0  0  0
 10 14  4  0  0  0
 11 12  4  0  0  0
 12 13  4  0  0  0
 13 14  4  0  0  0
 13 24  1  0  0  0
 15 16  4  0  0  0
 15 19  4  0  0  0
 16 17  4  0  0  0
 17 18  4  0  0  0
 17 20  1  0  0  0
 18 19  4  0  0  0
 19 21  1  0  0  0
 21 22  1  0  0  0
 21 23  2  0  0  0
  1 25  1  0  0  0
  7 26  1  0  0  0
  8 27  1  0  0  0
  9 28  1  0  0  0
 11 29  1  0  0  0
 14 30  1  0  0  0
 16 31  1  0  0  0
 20 32  1  0  0  0
 20 33  1  0  0  0
 20 34  1  0  0  0
 22 35  1  0  0  0
 22 36  1  0  0  0
 24 37  1  0  0  0
 24 38  1  0  0  0
 24 39  1  0  0  0
M  END
$$$$
