3ifl_ligand
  -I-interpret- 

112113  0  0  0  0  0  0  0  0999 V2000
    8.8210  -18.0450   14.5720 N   0  3  0  0  0
    8.3700  -16.9020   13.7260 C   0  0  0  0  0
    6.8780  -16.5910   13.8640 C   0  0  0  0  0
    6.2430  -16.1410   12.9060 O   0  0  0  0  0
    8.7420  -17.1400   12.2520 C   0  0  0  0  0
    8.0690  -18.3740   11.6520 C   0  0  0  0  0
    7.0800  -18.8850   12.2210 O   0  0  0  0  0
    8.5280  -18.8380   10.5860 O   0  0  0  0  0
    6.3260  -16.8110   15.0570 N   0  0  0  0  0
    4.8920  -16.6230   15.2770 C   0  0  0  0  0
    4.4130  -15.1950   14.9760 C   0  0  0  0  0
    4.9240  -14.2300   15.5390 O   0  0  0  0  0
    4.5270  -17.0320   16.7000 C   0  0  0  0  0
    3.4470  -15.0670   14.0720 N   0  0  0  0  0
    2.8100  -13.7860   13.7760 C   0  0  0  0  0
    1.6260  -13.5000   14.6980 C   0  0  0  0  0
    0.9000  -14.4060   15.1030 O   0  0  0  0  0
    2.2770  -13.7770   12.3460 C   0  0  0  0  0
    3.2920  -13.5100   11.2580 C   0  0  0  0  0
    2.6030  -13.2500    9.9330 C   0  0  0  0  0
    1.5350  -13.8480    9.6680 O   0  0  0  0  0
    3.1130  -12.4210    9.1600 O   0  0  0  0  0
    1.4070  -12.2250   15.0100 N   0  0  0  0  0
    0.2510  -11.8300   15.8170 C   0  0  0  0  0
   -0.9570  -11.7470   14.8940 C   0  0  0  0  0
   -0.8150  -11.5760   13.6890 O   0  0  0  0  0
    0.5080  -10.4910   16.5320 C   0  0  0  0  0
   -0.5780  -10.0970   17.4960 C   0  0  0  0  0
   -1.2430   -8.8900   17.3630 C   0  0  0  0  0
   -0.9300  -10.9390   18.5410 C   0  0  0  0  0
   -2.2450   -8.5140   18.2490 C   0  0  0  0  0
   -1.9210  -10.5740   19.4310 C   0  0  0  0  0
   -2.5880   -9.3700   19.2880 C   0  0  0  0  0
   -2.1500  -11.8680   15.4640 N   0  0  0  0  0
   -3.3850  -11.8830   14.6820 C   0  0  0  0  0
   -3.8780  -10.4840   14.3000 C   0  0  0  0  0
   -3.9070   -9.5850   15.1370 O   0  0  0  0  0
   -4.4490  -12.6350   15.4900 C   0  0  0  0  0
   -5.8210  -12.6630   14.8510 C   0  0  0  0  0
   -6.7250  -13.5500   15.6870 C   0  0  0  0  0
   -8.1140  -13.4400   15.2580 N   0  0  0  0  0
   -9.1320  -13.9550   15.9400 C   0  0  0  0  0
   -8.8980  -14.6140   17.0660 N   0  0  0  0  0
  -10.3750  -13.8150   15.4970 N   0  0  0  0  0
   -4.2850  -10.3090   13.0420 N   0  0  0  0  0
   -4.7680   -9.0160   12.5590 C   0  0  0  0  0
   -6.0360   -9.0830   11.7030 C   0  0  0  0  0
   -6.3370   -8.1550   10.9450 O   0  0  0  0  0
   -3.6460   -8.2780   11.8250 C   0  0  0  0  0
   -2.5660   -7.7990   12.7400 C   0  0  0  0  0
   -2.6880   -6.6460   13.4860 N   0  0  0  0  0
   -1.3600   -8.3280   13.0520 C   0  0  0  0  0
   -1.5960   -6.4820   14.2120 C   0  0  0  0  0
   -0.7800   -7.4920   13.9720 N   0  0  0  0  0
   -6.7970  -10.1590   11.8590 N   0  0  0  0  0
   -8.0370  -10.3400   11.1120 C   0  0  0  0  0
   -8.9680  -11.2260   11.9200 C   0  0  0  0  0
   -8.4910  -11.9600   12.7840 O   0  0  0  0  0
   -7.7680  -10.9930    9.7570 C   0  0  0  0  0
  -10.1830  -11.2220   11.7190 O   0  0  0  0  0
    8.5657  -17.8687   15.5437 H   0  0  0  0  0
    8.3710  -18.9023   14.2511 H   0  0  0  0  0
    9.8336  -18.1427   14.4976 H   0  0  0  0  0
    8.8981  -16.0225   14.0945 H   0  0  0  0  0
    9.8197  -17.2961   12.2047 H   0  0  0  0  0
    8.4078  -16.2724   11.6831 H   0  0  0  0  0
    6.8806  -18.3904   13.0192 H   0  0  0  0  0
    6.9149  -17.1164   15.8318 H   0  0  0  0  0
    4.3732  -17.2675   14.5674 H   0  0  0  0  0
    4.7800  -18.0814   16.8513 H   0  0  0  0  0
    5.0835  -16.4172   17.4074 H   0  0  0  0  0
    3.4576  -16.8887   16.8549 H   0  0  0  0  0
    3.1381  -15.8962   13.5647 H   0  0  0  0  0
    3.5764  -13.0247   13.9217 H   0  0  0  0  0
    1.5545  -12.9624   12.2952 H   0  0  0  0  0
    1.8870  -14.7777   12.1599 H   0  0  0  0  0
    3.9353  -14.3838   11.1547 H   0  0  0  0  0
    3.8760  -12.6306   11.5296 H   0  0  0  0  0
    1.3140  -14.4410   10.3899 H   0  0  0  0  0
    2.0560  -11.5102   14.6811 H   0  0  0  0  0
    0.0672  -12.5677   16.5981 H   0  0  0  0  0
    0.5571   -9.7180   15.7651 H   0  0  0  0  0
    1.4275  -10.6014   17.1068 H   0  0  0  0  0
   -0.9748   -8.2204   16.5458 H   0  0  0  0  0
   -0.4208  -11.8953   18.6604 H   0  0  0  0  0
   -2.7560   -7.5586   18.1303 H   0  0  0  0  0
   -2.1801  -11.2405   20.2537 H   0  0  0  0  0
   -3.3781   -9.0948   19.9867 H   0  0  0  0  0
   -2.2065  -11.9531   16.4789 H   0  0  0  0  0
   -3.1859  -12.3871   13.7363 H   0  0  0  0  0
   -4.5519  -12.1153   16.4426 H   0  0  0  0  0
   -4.1147  -13.6692   15.5720 H   0  0  0  0  0
   -5.7505  -13.0553   13.8365 H   0  0  0  0  0
   -6.2301  -11.6537   14.8049 H   0  0  0  0  0
   -6.6562  -13.2344   16.7280 H   0  0  0  0  0
   -6.4046  -14.5849   15.5672 H   0  0  0  0  0
   -8.3148  -12.9426   14.3904 H   0  0  0  0  0
   -7.9418  -14.7232   17.4037 H   0  0  0  0  0
  -11.1520  -14.2148   16.0232 H   0  0  0  0  0
  -10.5534  -13.3076   14.6303 H   0  0  0  0  0
   -4.2586  -11.0998   12.3983 H   0  0  0  0  0
   -5.0631   -8.4571   13.4471 H   0  0  0  0  0
   -4.0837   -7.4044   11.3420 H   0  0  0  0  0
   -3.1970   -8.9754   11.1178 H   0  0  0  0  0
   -0.9307   -9.2450   12.6485 H   0  0  0  0  0
   -1.4019   -5.6536   14.8933 H   0  0  0  0  0
   -6.5068  -10.8798   12.5198 H   0  0  0  0  0
   -8.4910   -9.3643   10.9387 H   0  0  0  0  0
   -7.0981  -10.3590    9.1762 H   0  0  0  0  0
   -7.3055  -11.9680    9.9104 H   0  0  0  0  0
   -8.7092  -11.1161    9.2212 H   0  0  0  0  0
  -10.3882  -10.5990   11.0180 H   0  0  0  0  0
  1  2  1  0  0  0
  2  3  1  0  0  0
  2  5  1  0  0  0
  3  4  2  0  0  0
  3  9  1  0  0  0
  5  6  1  0  0  0
  6  7  1  0  0  0
  6  8  2  0  0  0
  9 10  1  0  0  0
 10 11  1  0  0  0
 10 13  1  0  0  0
 11 12  2  0  0  0
 11 14  1  0  0  0
 14 15  1  0  0  0
 15 16  1  0  0  0
 15 18  1  0  0  0
 16 17  2  0  0  0
 16 23  1  0  0  0
 18 19  1  0  0  0
 19 20  1  0  0  0
 20 21  1  0  0  0
 20 22  2  0  0  0
 23 24  1  0  0  0
 24 25  1  0  0  0
 24 27  1  0  0  0
 25 26  2  0  0  0
 25 34  1  0  0  0
 27 28  1  0  0  0
 28 29  4  0  0  0
 28 30  4  0  0  0
 29 31  4  0  0  0
 30 32  4  0  0  0
 31 33  4  0  0  0
 32 33  4  0  0  0
 34 35  1  0  0  0
 35 36  1  0  0  0
 35 38  1  0  0  0
 36 37  2  0  0  0
 36 45  1  0  0  0
 38 39  1  0  0  0
 39 40  1  0  0  0
 40 41  1  0  0  0
 41 42  1  0  0  0
 42 43  2  0  0  0
 42 44  1  0  0  0
 45 46  1  0  0  0
 46 47  1  0  0  0
 46 49  1  0  0  0
 47 48  2  0  0  0
 47 55  1  0  0  0
 49 50  1  0  0  0
 50 51  4  0  0  0
 50 52  4  0  0  0
 51 53  4  0  0  0
 52 54  4  0  0  0
 53 54  4  0  0  0
 55 56  1  0  0  0
 56 57  1  0  0  0
 56 59  1  0  0  0
 57 58  2  0  0  0
 57 60  1  0  0  0
  1 61  1  0  0  0
  1 62  1  0  0  0
  1 63  1  0  0  0
  2 64  1  0  0  0
  5 65  1  0  0  0
  5 66  1  0  0  0
  7 67  1  0  0  0
  9 68  1  0  0  0
 10 69  1  0  0  0
 13 70  1  0  0  0
 13 71  1  0  0  0
 13 72  1  0  0  0
 14 73  1  0  0  0
 15 74  1  0  0  0
 18 75  1  0  0  0
 18 76  1  0  0  0
 19 77  1  0  0  0
 19 78  1  0  0  0
 21 79  1  0  0  0
 23 80  1  0  0  0
 24 81  1  0  0  0
 27 82  1  0  0  0
 27 83  1  0  0  0
 29 84  1  0  0  0
 30 85  1  0  0  0
 31 86  1  0  0  0
 32 87  1  0  0  0
 33 88  1  0  0  0
 34 89  1  0  0  0
 35 90  1  0  0  0
 38 91  1  0  0  0
 38 92  1  0  0  0
 39 93  1  0  0  0
 39 94  1  0  0  0
 40 95  1  0  0  0
 40 96  1  0  0  0
 41 97  1  0  0  0
 43 98  1  0  0  0
 44 99  1  0  0  0
 44100  1  0  0  0
 45101  1  0  0  0
 46102  1  0  0  0
 49103  1  0  0  0
 49104  1  0  0  0
 52105  1  0  0  0
 53106  1  0  0  0
 55107  1  0  0  0
 56108  1  0  0  0
 59109  1  0  0  0
 59110  1  0  0  0
 59111  1  0  0  0
 60112  1  0  0  0
M  END
$$$$
