6b5t_ligand
  -I-interpret- 

170172  0  0  0  0  0  0  0  0999 V2000
    6.5200   -2.8970   15.1300 N   0  3  0  0  0
    6.2900   -2.9550   13.6930 C   0  0  0  0  0
    4.8410   -3.3340   13.3780 C   0  0  0  0  0
    4.2760   -2.8630   12.3970 O   0  0  0  0  0
    7.2560   -3.9420   13.0430 C   0  0  0  0  0
    4.2420   -4.1760   14.2170 N   0  0  0  0  0
    2.8590   -4.6050   14.0640 C   0  0  0  0  0
    2.5620   -5.1210   12.6560 C   0  0  0  0  0
    1.6730   -4.5990   11.9660 O   0  0  0  0  0
    1.9020   -3.4690   14.4220 C   0  0  0  0  0
    2.1180   -2.9320   15.8270 C   0  0  0  0  0
    1.7150   -3.5530   16.8170 O   0  0  0  0  0
    2.7370   -1.7560   15.9190 N   0  0  0  0  0
    3.2690   -6.1570   12.1930 N   0  0  0  0  0
    3.0510   -6.6400   10.8200 C   0  0  0  0  0
    1.7170   -7.3290   10.6160 C   0  0  0  0  0
    1.2480   -7.4130    9.4740 O   0  0  0  0  0
    4.2120   -7.6180   10.6060 C   0  0  0  0  0
    4.5060   -8.1270   11.9770 C   0  0  0  0  0
    4.2820   -6.9590   12.9020 C   0  0  0  0  0
    1.0950   -7.8310   11.6780 N   0  0  0  0  0
   -0.1560   -8.5790   11.5650 C   0  0  0  0  0
   -1.3530   -7.6400   11.7200 C   0  0  0  0  0
   -2.1590   -7.7430   12.6430 O   0  0  0  0  0
   -0.1750   -9.7060   12.5890 C   0  0  0  0  0
    0.9400  -10.7050   12.3500 C   0  0  0  0  0
    1.5630  -10.7110   11.2840 O   0  0  0  0  0
    1.1820  -11.5700   13.3220 N   0  0  0  0  0
   -1.4330   -6.6990   10.7820 N   0  0  0  0  0
   -2.5010   -5.7110   10.7740 C   0  0  0  0  0
   -3.8560   -6.3640   10.5240 C   0  0  0  0  0
   -3.9650   -7.4000    9.8560 O   0  0  0  0  0
   -2.2340   -4.6610    9.6970 C   0  0  0  0  0
   -4.8950   -5.7440   11.0670 N   0  0  0  0  0
   -6.2580   -6.1560   10.7580 C   0  0  0  0  0
   -6.5590   -5.8390    9.2980 C   0  0  0  0  0
   -6.4770   -4.6680    8.9000 O   0  0  0  0  0
   -7.2460   -5.4530   11.6770 C   0  0  0  0  0
   -8.6740   -5.5290   11.1750 C   0  0  0  0  0
   -9.0440   -6.4410   10.4430 O   0  0  0  0  0
   -9.4860   -4.5610   11.5690 N   0  0  0  0  0
   -6.9140   -6.8270    8.4700 N   0  0  0  0  0
   -7.1210   -6.5410    7.0420 C   0  0  0  0  0
   -8.2390   -5.5470    6.7750 C   0  0  0  0  0
   -8.2080   -4.8540    5.7470 O   0  0  0  0  0
   -7.4400   -7.9240    6.4540 C   0  0  0  0  0
   -7.9540   -8.7110    7.6080 C   0  0  0  0  0
   -7.1740   -8.2410    8.7900 C   0  0  0  0  0
   -9.2340   -5.4660    7.6610 N   0  0  0  0  0
  -10.3300   -4.5240    7.4870 C   0  0  0  0  0
   -9.9650   -3.1000    7.8760 C   0  0  0  0  0
  -10.7140   -2.1790    7.5380 O   0  0  0  0  0
  -11.5430   -4.9580    8.3120 C   0  0  0  0  0
  -12.1310   -6.2680    7.8400 C   0  0  0  0  0
  -12.2230   -6.5290    6.6400 O   0  0  0  0  0
  -12.5380   -7.1030    8.7880 N   0  0  0  0  0
   -8.8620   -2.8930    8.5910 N   0  0  0  0  0
   -8.5110   -1.5560    9.0470 C   0  0  0  0  0
   -8.0310   -0.6960    7.8860 C   0  0  0  0  0
   -7.4870   -1.1900    6.8950 O   0  0  0  0  0
   -7.4270   -1.6220   10.1270 C   0  0  0  0  0
   -8.2390    0.6100    8.0280 N   0  0  0  0  0
   -7.8400    1.5750    7.0170 C   0  0  0  0  0
   -6.5720    2.2690    7.4820 C   0  0  0  0  0
   -6.6070    2.9530    8.5160 O   0  0  0  0  0
   -8.9460    2.5980    6.7950 C   0  0  0  0  0
   -8.6460    3.5560    5.6530 C   0  0  0  0  0
   -7.4960    3.7260    5.2500 O   0  0  0  0  0
   -9.6900    4.1880    5.1280 N   0  0  0  0  0
   -5.4370    2.1220    6.7950 N   0  0  0  0  0
   -4.2100    2.7680    7.2860 C   0  0  0  0  0
   -4.2870    4.2860    7.3320 C   0  0  0  0  0
   -3.5180    4.9050    8.0810 O   0  0  0  0  0
   -3.1370    2.2950    6.2960 C   0  0  0  0  0
   -3.8820    1.8860    5.0760 C   0  0  0  0  0
   -5.2070    1.3730    5.5460 C   0  0  0  0  0
   -5.1870    4.9000    6.5630 N   0  0  0  0  0
   -5.2940    6.3590    6.4710 C   0  0  0  0  0
   -6.0040    6.9380    7.7020 C   0  0  0  0  0
   -6.9810    7.6790    7.6080 O   0  0  0  0  0
   -6.0220    6.7250    5.1820 C   0  0  0  0  0
   -5.6070    8.0780    4.6220 C   0  0  0  0  0
   -4.4320    8.3250    4.3500 O   0  0  0  0  0
   -6.5830    8.9530    4.4160 N   0  0  0  0  0
   -5.4690    6.6020    8.8780 N   0  0  0  0  0
   -6.0490    7.0200   10.1590 C   0  0  0  0  0
   -6.2830    8.5360   10.1930 C   0  0  0  0  0
   -5.3500    9.3340   10.3360 O   0  0  0  0  0
   -5.1470    6.5910   11.3180 C   0  0  0  0  0
   -7.4140    9.0210   10.0790 O   0  0  0  0  0
    5.8685   -2.2346   15.5509 H   0  0  0  0  0
    6.3745   -3.8222   15.5340 H   0  0  0  0  0
    7.4775   -2.5937   15.3079 H   0  0  0  0  0
    6.4712   -1.9624   13.2806 H   0  0  0  0  0
    7.0611   -4.9441   13.4249 H   0  0  0  0  0
    7.1137   -3.9296   11.9624 H   0  0  0  0  0
    8.2806   -3.6547   13.2792 H   0  0  0  0  0
    4.7779   -4.5384   15.0056 H   0  0  0  0  0
    2.7059   -5.4353   14.7534 H   0  0  0  0  0
    0.8863   -3.8609   14.3686 H   0  0  0  0  0
    2.0800   -2.6518   13.7230 H   0  0  0  0  0
    2.8950   -1.3330   16.8336 H   0  0  0  0  0
    3.0529   -1.2785   15.0748 H   0  0  0  0  0
    3.0240   -5.8145   10.1087 H   0  0  0  0  0
    5.0773   -7.1406   10.1462 H   0  0  0  0  0
    3.9573   -8.4188    9.9118 H   0  0  0  0  0
    5.5264   -8.5030   12.0512 H   0  0  0  0  0
    3.8625   -8.9680   12.2354 H   0  0  0  0  0
    3.9551   -7.2662   13.8954 H   0  0  0  0  0
    5.1961   -6.4000   13.1022 H   0  0  0  0  0
    1.5038   -7.6898   12.6018 H   0  0  0  0  0
   -0.2264   -9.0279   10.5742 H   0  0  0  0  0
   -1.1273  -10.2295   12.5038 H   0  0  0  0  0
   -0.0380   -9.2709   13.5790 H   0  0  0  0  0
    1.9075  -12.2775   13.2061 H   0  0  0  0  0
    0.6430  -11.5291   14.1870 H   0  0  0  0  0
   -0.7254   -6.6697   10.0479 H   0  0  0  0  0
   -2.5239   -5.2343   11.7540 H   0  0  0  0  0
   -1.2863   -4.1636    9.9033 H   0  0  0  0  0
   -2.1865   -5.1463    8.7221 H   0  0  0  0  0
   -3.0394   -3.9266    9.6998 H   0  0  0  0  0
   -4.7378   -4.9679   11.7099 H   0  0  0  0  0
   -6.3578   -7.2296   10.9179 H   0  0  0  0  0
   -6.9654   -4.4009   11.7255 H   0  0  0  0  0
   -7.2074   -5.9469   12.6479 H   0  0  0  0  0
  -10.4591   -4.5556   11.2633 H   0  0  0  0  0
   -9.1387   -3.8204   12.1783 H   0  0  0  0  0
   -6.2497   -6.0628    6.5944 H   0  0  0  0  0
   -6.5631   -8.3875    6.0019 H   0  0  0  0  0
   -8.1668   -7.8654    5.6438 H   0  0  0  0  0
   -7.8301   -9.7820    7.4479 H   0  0  0  0  0
   -9.0241   -8.5596    7.7498 H   0  0  0  0  0
   -7.7099   -8.3710    9.7302 H   0  0  0  0  0
   -6.2607   -8.8141    8.9501 H   0  0  0  0  0
   -9.2262   -6.0773    8.4775 H   0  0  0  0  0
  -10.5629   -4.5305    6.4222 H   0  0  0  0  0
  -12.3100   -4.1904    8.2087 H   0  0  0  0  0
  -11.2163   -5.0901    9.3435 H   0  0  0  0  0
  -12.9465   -8.0026    8.5343 H   0  0  0  0  0
  -12.4423   -6.8451    9.7702 H   0  0  0  0  0
   -8.2557   -3.6800    8.8221 H   0  0  0  0  0
   -9.4063   -1.1017    9.4715 H   0  0  0  0  0
   -7.7953   -2.1996   10.9749 H   0  0  0  0  0
   -6.5374   -2.1012    9.7183 H   0  0  0  0  0
   -7.1795   -0.6120   10.4538 H   0  0  0  0  0
   -8.6946    0.9462    8.8764 H   0  0  0  0  0
   -7.6572    1.0622    6.0727 H   0  0  0  0  0
   -9.0423    3.1872    7.7070 H   0  0  0  0  0
   -9.8564    2.0543    6.5428 H   0  0  0  0  0
   -9.5549    4.8447    4.3593 H   0  0  0  0  0
  -10.6267    4.0165    5.4936 H   0  0  0  0  0
   -4.0075    2.4941    8.3214 H   0  0  0  0  0
   -2.5506    1.4713    6.7031 H   0  0  0  0  0
   -2.4151    3.0826    6.0801 H   0  0  0  0  0
   -3.3385    1.1200    4.5229 H   0  0  0  0  0
   -4.0066    2.7258    4.3924 H   0  0  0  0  0
   -5.9997    1.5251    4.8135 H   0  0  0  0  0
   -5.2093    0.2936    5.6975 H   0  0  0  0  0
   -5.8297    4.3288    6.0143 H   0  0  0  0  0
   -4.2950    6.7945    6.4483 H   0  0  0  0  0
   -7.0874    6.7735    5.4069 H   0  0  0  0  0
   -5.7741    5.9691    4.4368 H   0  0  0  0  0
   -6.3718    9.8684    4.0188 H   0  0  0  0  0
   -7.5445    8.7102    4.6548 H   0  0  0  0  0
   -4.6232    6.0319    8.8862 H   0  0  0  0  0
   -7.0160    6.5289   10.2677 H   0  0  0  0  0
   -4.5250    8.8494   10.4138 H   0  0  0  0  0
   -5.0417    5.5061   11.3124 H   0  0  0  0  0
   -4.1664    7.0531   11.2039 H   0  0  0  0  0
   -5.5926    6.9092   12.2605 H   0  0  0  0  0
  1  2  1  0  0  0
  2  3  1  0  0  0
  2  5  1  0  0  0
  3  4  2  0  0  0
  3  6  1  0  0  0
  6  7  1  0  0  0
  7  8  1  0  0  0
  7 10  1  0  0  0
  8  9  2  0  0  0
  8 14  1  0  0  0
 10 11  1  0  0  0
 11 12  2  0  0  0
 11 13  1  0  0  0
 14 15  1  0  0  0
 14 20  1  0  0  0
 15 16  1  0  0  0
 15 18  1  0  0  0
 16 17  2  0  0  0
 16 21  1  0  0  0
 18 19  1  0  0  0
 19 20  1  0  0  0
 21 22  1  0  0  0
 22 23  1  0  0  0
 22 25  1  0  0  0
 23 24  2  0  0  0
 23 29  1  0  0  0
 25 26  1  0  0  0
 26 27  2  0  0  0
 26 28  1  0  0  0
 29 30  1  0  0  0
 30 31  1  0  0  0
 30 33  1  0  0  0
 31 32  2  0  0  0
 31 34  1  0  0  0
 34 35  1  0  0  0
 35 36  1  0  0  0
 35 38  1  0  0  0
 36 37  2  0  0  0
 36 42  1  0  0  0
 38 39  1  0  0  0
 39 40  2  0  0  0
 39 41  1  0  0  0
 42 43  1  0  0  0
 42 48  1  0  0  0
 43 44  1  0  0  0
 43 46  1  0  0  0
 44 45  2  0  0  0
 44 49  1  0  0  0
 46 47  1  0  0  0
 47 48  1  0  0  0
 49 50  1  0  0  0
 50 51  1  0  0  0
 50 53  1  0  0  0
 51 52  2  0  0  0
 51 57  1  0  0  0
 53 54  1  0  0  0
 54 55  2  0  0  0
 54 56  1  0  0  0
 57 58  1  0  0  0
 58 59  1  0  0  0
 58 61  1  0  0  0
 59 60  2  0  0  0
 59 62  1  0  0  0
 62 63  1  0  0  0
 63 64  1  0  0  0
 63 66  1  0  0  0
 64 65  2  0  0  0
 64 70  1  0  0  0
 66 67  1  0  0  0
 67 68  2  0  0  0
 67 69  1  0  0  0
 70 71  1  0  0  0
 70 76  1  0  0  0
 71 72  1  0  0  0
 71 74  1  0  0  0
 72 73  2  0  0  0
 72 77  1  0  0  0
 74 75  1  0  0  0
 75 76  1  0  0  0
 77 78  1  0  0  0
 78 79  1  0  0  0
 78 81  1  0  0  0
 79 80  2  0  0  0
 79 85  1  0  0  0
 81 82  1  0  0  0
 82 83  2  0  0  0
 82 84  1  0  0  0
 85 86  1  0  0  0
 86 87  1  0  0  0
 86 89  1  0  0  0
 87 88  1  0  0  0
 87 90  2  0  0  0
  1 91  1  0  0  0
  1 92  1  0  0  0
  1 93  1  0  0  0
  2 94  1  0  0  0
  5 95  1  0  0  0
  5 96  1  0  0  0
  5 97  1  0  0  0
  6 98  1  0  0  0
  7 99  1  0  0  0
 10100  1  0  0  0
 10101  1  0  0  0
 13102  1  0  0  0
 13103  1  0  0  0
 15104  1  0  0  0
 18105  1  0  0  0
 18106  1  0  0  0
 19107  1  0  0  0
 19108  1  0  0  0
 20109  1  0  0  0
 20110  1  0  0  0
 21111  1  0  0  0
 22112  1  0  0  0
 25113  1  0  0  0
 25114  1  0  0  0
 28115  1  0  0  0
 28116  1  0  0  0
 29117  1  0  0  0
 30118  1  0  0  0
 33119  1  0  0  0
 33120  1  0  0  0
 33121  1  0  0  0
 34122  1  0  0  0
 35123  1  0  0  0
 38124  1  0  0  0
 38125  1  0  0  0
 41126  1  0  0  0
 41127  1  0  0  0
 43128  1  0  0  0
 46129  1  0  0  0
 46130  1  0  0  0
 47131  1  0  0  0
 47132  1  0  0  0
 48133  1  0  0  0
 48134  1  0  0  0
 49135  1  0  0  0
 50136  1  0  0  0
 53137  1  0  0  0
 53138  1  0  0  0
 56139  1  0  0  0
 56140  1  0  0  0
 57141  1  0  0  0
 58142  1  0  0  0
 61143  1  0  0  0
 61144  1  0  0  0
 61145  1  0  0  0
 62146  1  0  0  0
 63147  1  0  0  0
 66148  1  0  0  0
 66149  1  0  0  0
 69150  1  0  0  0
 69151  1  0  0  0
 71152  1  0  0  0
 74153  1  0  0  0
 74154  1  0  0  0
 75155  1  0  0  0
 75156  1  0  0  0
 76157  1  0  0  0
 76158  1  0  0  0
 77159  1  0  0  0
 78160  1  0  0  0
 81161  1  0  0  0
 81162  1  0  0  0
 84163  1  0  0  0
 84164  1  0  0  0
 85165  1  0  0  0
 86166  1  0  0  0
 88167  1  0  0  0
 89168  1  0  0  0
 89169  1  0  0  0
 89170  1  0  0  0
M  END
$$$$
