### 
### Created by X-TOOL on Wed Jan  1 15:39:36 2020
### 

@<TRIPOS>MOLECULE
6b5t_ligand
  169   171     1     0     0
SMALL
GAST_HUCK


@<TRIPOS>ATOM
      1 N           6.5200   -2.8970   15.1300 N.4       1 ALA         0.2377
      2 CA          6.2900   -2.9550   13.6930 C.3       1 ALA         0.0621
      3 C           4.8410   -3.3340   13.3780 C.2       1 ALA         0.2265
      4 O           4.2760   -2.8630   12.3970 O.2       1 ALA        -0.3907
      5 CB          7.2560   -3.9420   13.0430 C.3       1 ALA        -0.0040
      6 N           4.2420   -4.1760   14.2170 N.am      1 ASN        -0.2589
      7 CA          2.8590   -4.6050   14.0640 C.3       1 ASN         0.1479
      8 C           2.5620   -5.1210   12.6560 C.2       1 ASN         0.2088
      9 O           1.6730   -4.5990   11.9660 O.2       1 ASN        -0.3940
     10 CB          1.9020   -3.4690   14.4220 C.3       1 ASN         0.0773
     11 CG          2.1180   -2.9320   15.8270 C.2       1 ASN         0.1780
     12 OD1         1.7150   -3.5530   16.8170 O.2       1 ASN        -0.3970
     13 ND2         2.7370   -1.7560   15.9190 N.am      1 ASN        -0.3007
     14 N           3.2690   -6.1570   12.1930 N.am      1 PRO        -0.2497
     15 CA          3.0510   -6.6400   10.8200 C.3       1 PRO         0.1338
     16 C           1.7170   -7.3290   10.6160 C.2       1 PRO         0.2042
     17 O           1.2480   -7.4130    9.4740 O.2       1 PRO        -0.3944
     18 CB          4.2120   -7.6180   10.6060 C.3       1 PRO        -0.0104
     19 CG          4.5060   -8.1270   11.9770 C.3       1 PRO        -0.0281
     20 CD          4.2820   -6.9590   12.9020 C.3       1 PRO         0.0369
     21 N           1.0950   -7.8310   11.6780 N.am      1 ASN        -0.2616
     22 CA         -0.1560   -8.5790   11.5650 C.3       1 ASN         0.1476
     23 C          -1.3530   -7.6400   11.7200 C.2       1 ASN         0.2062
     24 O          -2.1590   -7.7430   12.6430 O.2       1 ASN        -0.3942
     25 CB         -0.1750   -9.7060   12.5890 C.3       1 ASN         0.0773
     26 CG          0.9400  -10.7050   12.3500 C.2       1 ASN         0.1780
     27 OD1         1.5630  -10.7110   11.2840 O.2       1 ASN        -0.3970
     28 ND2         1.1820  -11.5700   13.3220 N.am      1 ASN        -0.3007
     29 N          -1.4330   -6.6990   10.7820 N.am      1 ALA        -0.2639
     30 CA         -2.5010   -5.7110   10.7740 C.3       1 ALA         0.1282
     31 C          -3.8560   -6.3640   10.5240 C.2       1 ALA         0.2037
     32 O          -3.9650   -7.4000    9.8560 O.2       1 ALA        -0.3944
     33 CB         -2.2340   -4.6610    9.6970 C.3       1 ALA        -0.0244
     34 N          -4.8950   -5.7440   11.0670 N.am      1 ASN        -0.2616
     35 CA         -6.2580   -6.1560   10.7580 C.3       1 ASN         0.1478
     36 C          -6.5590   -5.8390    9.2980 C.2       1 ASN         0.2088
     37 O          -6.4770   -4.6680    8.9000 O.2       1 ASN        -0.3940
     38 CB         -7.2460   -5.4530   11.6770 C.3       1 ASN         0.0773
     39 CG         -8.6740   -5.5290   11.1750 C.2       1 ASN         0.1780
     40 OD1        -9.0440   -6.4410   10.4430 O.2       1 ASN        -0.3970
     41 ND2        -9.4860   -4.5610   11.5690 N.am      1 ASN        -0.3007
     42 N          -6.9140   -6.8270    8.4700 N.am      1 PRO        -0.2497
     43 CA         -7.1210   -6.5410    7.0420 C.3       1 PRO         0.1338
     44 C          -8.2390   -5.5470    6.7750 C.2       1 PRO         0.2042
     45 O          -8.2080   -4.8540    5.7470 O.2       1 PRO        -0.3944
     46 CB         -7.4400   -7.9240    6.4540 C.3       1 PRO        -0.0104
     47 CG         -7.9540   -8.7110    7.6080 C.3       1 PRO        -0.0281
     48 CD         -7.1740   -8.2410    8.7900 C.3       1 PRO         0.0369
     49 N          -9.2340   -5.4660    7.6610 N.am      1 ASN        -0.2616
     50 CA        -10.3300   -4.5240    7.4870 C.3       1 ASN         0.1476
     51 C          -9.9650   -3.1000    7.8760 C.2       1 ASN         0.2062
     52 O         -10.7140   -2.1790    7.5380 O.2       1 ASN        -0.3942
     53 CB        -11.5430   -4.9580    8.3120 C.3       1 ASN         0.0773
     54 CG        -12.1310   -6.2680    7.8400 C.2       1 ASN         0.1780
     55 OD1       -12.2230   -6.5290    6.6400 O.2       1 ASN        -0.3970
     56 ND2       -12.5380   -7.1030    8.7880 N.am      1 ASN        -0.3007
     57 N          -8.8620   -2.8930    8.5910 N.am      1 ALA        -0.2639
     58 CA         -8.5110   -1.5560    9.0470 C.3       1 ALA         0.1282
     59 C          -8.0310   -0.6960    7.8860 C.2       1 ALA         0.2037
     60 O          -7.4870   -1.1900    6.8950 O.2       1 ALA        -0.3944
     61 CB         -7.4270   -1.6220   10.1270 C.3       1 ALA        -0.0244
     62 N          -8.2390    0.6100    8.0280 N.am      1 ASN        -0.2616
     63 CA         -7.8400    1.5750    7.0170 C.3       1 ASN         0.1478
     64 C          -6.5720    2.2690    7.4820 C.2       1 ASN         0.2088
     65 O          -6.6070    2.9530    8.5160 O.2       1 ASN        -0.3940
     66 CB         -8.9460    2.5980    6.7950 C.3       1 ASN         0.0773
     67 CG         -8.6460    3.5560    5.6530 C.2       1 ASN         0.1780
     68 OD1        -7.4960    3.7260    5.2500 O.2       1 ASN        -0.3970
     69 ND2        -9.6900    4.1880    5.1280 N.am      1 ASN        -0.3007
     70 N          -5.4370    2.1220    6.7950 N.am      1 PRO        -0.2497
     71 CA         -4.2100    2.7680    7.2860 C.3       1 PRO         0.1338
     72 C          -4.2870    4.2860    7.3320 C.2       1 PRO         0.2042
     73 O          -3.5180    4.9050    8.0810 O.2       1 PRO        -0.3944
     74 CB         -3.1370    2.2950    6.2960 C.3       1 PRO        -0.0104
     75 CG         -3.8820    1.8860    5.0760 C.3       1 PRO        -0.0281
     76 CD         -5.2070    1.3730    5.5460 C.3       1 PRO         0.0369
     77 N          -5.1870    4.9000    6.5630 N.am      1 ASN        -0.2616
     78 CA         -5.2940    6.3590    6.4710 C.3       1 ASN         0.1475
     79 C          -6.0040    6.9380    7.7020 C.2       1 ASN         0.2057
     80 O          -6.9810    7.6790    7.6080 O.2       1 ASN        -0.3942
     81 CB         -6.0220    6.7250    5.1820 C.3       1 ASN         0.0773
     82 CG         -5.6070    8.0780    4.6220 C.2       1 ASN         0.1780
     83 OD1        -4.4320    8.3250    4.3500 O.2       1 ASN        -0.3970
     84 ND2        -6.5830    8.9530    4.4160 N.am      1 ASN        -0.3007
     85 N          -5.4690    6.6020    8.8780 N.am      1 ALA        -0.2696
     86 CA         -6.0490    7.0200   10.1590 C.3       1 ALA         0.0916
     87 C          -6.2830    8.5360   10.1930 C.2       1 ALA         0.0598
     88 O          -5.3500    9.3340   10.3360 O.co2     1 ALA        -0.5666
     89 CB         -5.1470    6.5910   11.3180 C.3       1 ALA        -0.0300
     90 OXT        -7.4140    9.0210   10.0790 O.co2     1 ALA        -0.5666
     91 H1          7.4801   -2.6458   15.3067 H         1 ALA         0.2015
     92 H2          6.3281   -3.7987   15.5377 H         1 ALA         0.2015
     93 H3          5.9111   -2.2063   15.5402 H         1 ALA         0.2015
     94 H4          6.4816   -1.9563   13.2737 H         1 ALA         0.1095
     95 H5          7.0715   -3.9758   11.9591 H         1 ALA         0.0310
     96 H6          7.1018   -4.9429   13.4725 H         1 ALA         0.0310
     97 H7          8.2908   -3.6186   13.2288 H         1 ALA         0.0310
     98 H8          4.7674   -4.5313   14.9901 H         1 ASN         0.1886
     99 H9          2.6861   -5.4324   14.7679 H         1 ASN         0.0826
    100 H10         0.8701   -3.8421   14.3441 H         1 ASN         0.0551
    101 H11         2.0499   -2.6472   13.7060 H         1 ASN         0.0551
    102 H12         2.9083   -1.3500   16.8167 H         1 ASN         0.1814
    103 H13         3.0303   -1.2792   15.0904 H         1 ASN         0.1814
    104 H14         3.1193   -5.8003   10.1127 H         1 PRO         0.0802
    105 H15         5.0867   -7.1015   10.1839 H         1 PRO         0.0313
    106 H16         3.9140   -8.4399    9.9385 H         1 PRO         0.0313
    107 H17         5.5479   -8.4736   12.0423 H         1 PRO         0.0287
    108 H18         3.8276   -8.9543   12.2327 H         1 PRO         0.0287
    109 H19         3.9051   -7.2962   13.8789 H         1 PRO         0.0524
    110 H20         5.2098   -6.3856   13.0449 H         1 PRO         0.0524
    111 H21         1.4958   -7.6925   12.5837 H         1 ASN         0.1885
    112 H22        -0.2041   -9.0278   10.5619 H         1 ASN         0.0826
    113 H23        -1.1407  -10.2287   12.5248 H         1 ASN         0.0551
    114 H24        -0.0572   -9.2753   13.5943 H         1 ASN         0.0551
    115 H25         1.9068  -12.2509   13.2164 H         1 ASN         0.1814
    116 H26         0.6401  -11.5427   14.1620 H         1 ASN         0.1814
    117 H27        -0.7393   -6.6703   10.0623 H         1 ALA         0.1883
    118 H28        -2.5258   -5.2152   11.7556 H         1 ALA         0.0797
    119 H29        -3.0462   -3.9192    9.6988 H         1 ALA         0.0277
    120 H30        -2.1858   -5.1495    8.7126 H         1 ALA         0.0277
    121 H31        -1.2778   -4.1582    9.9041 H         1 ALA         0.0277
    122 H32        -4.7408   -4.9831   11.6973 H         1 ASN         0.1885
    123 H33        -6.3463   -7.2416   10.9118 H         1 ASN         0.0826
    124 H34        -6.9582   -4.3944   11.7580 H         1 ASN         0.0551
    125 H35        -7.1975   -5.9232   12.6702 H         1 ASN         0.0551
    126 H36       -10.4404   -4.5565   11.2706 H         1 ASN         0.1814
    127 H37        -9.1451   -3.8340   12.1651 H         1 ASN         0.1814
    128 H38        -6.1947   -6.1434    6.6018 H         1 PRO         0.0802
    129 H39        -6.5332   -8.3888    6.0397 H         1 PRO         0.0313
    130 H40        -8.2040   -7.8448    5.6666 H         1 PRO         0.0313
    131 H41        -7.7913   -9.7863    7.4430 H         1 PRO         0.0287
    132 H42        -9.0274   -8.5209    7.7555 H         1 PRO         0.0287
    133 H43        -7.7613   -8.3361    9.7152 H         1 PRO         0.0524
    134 H44        -6.2340   -8.8030    8.8930 H         1 PRO         0.0524
    135 H45        -9.2263   -6.0653    8.4615 H         1 ASN         0.1885
    136 H46       -10.6086   -4.5269    6.4229 H         1 ASN         0.0826
    137 H47       -12.3158   -4.1786    8.2384 H         1 ASN         0.0551
    138 H48       -11.2332   -5.0693    9.3616 H         1 ASN         0.0551
    139 H49       -12.9361   -7.9860    8.5394 H         1 ASN         0.1814
    140 H50       -12.4465   -6.8491    9.7509 H         1 ASN         0.1814
    141 H51        -8.2676   -3.6646    8.8176 H         1 ALA         0.1883
    142 H52        -9.4088   -1.0902    9.4795 H         1 ALA         0.0797
    143 H53        -7.1764   -0.6032   10.4576 H         1 ALA         0.0277
    144 H54        -6.5286   -2.1054    9.7157 H         1 ALA         0.0277
    145 H55        -7.7975   -2.2046   10.9833 H         1 ALA         0.0277
    146 H56        -8.6857    0.9396    8.8598 H         1 ASN         0.1885
    147 H57        -7.6423    1.0499    6.0708 H         1 ASN         0.0826
    148 H58        -9.0744    3.1820    7.7183 H         1 ASN         0.0551
    149 H59        -9.8792    2.0620    6.5674 H         1 ASN         0.0551
    150 H60        -9.5576    4.8313    4.3739 H         1 ASN         0.1814
    151 H61       -10.6082    4.0204    5.4869 H         1 ASN         0.1814
    152 H62        -3.9800    2.4053    8.2987 H         1 PRO         0.0802
    153 H63        -2.5791    1.4425    6.7107 H         1 PRO         0.0313
    154 H64        -2.4386    3.1128    6.0649 H         1 PRO         0.0313
    155 H65        -3.3346    1.0949    4.5426 H         1 PRO         0.0287
    156 H66        -4.0226    2.7488    4.4083 H         1 PRO         0.0287
    157 H67        -5.9955    1.5846    4.8087 H         1 PRO         0.0524
    158 H68        -5.1650    0.2906    5.7376 H         1 PRO         0.0524
    159 H69        -5.8171    4.3400    6.0250 H         1 ASN         0.1885
    160 H70        -4.2797    6.7828    6.4309 H         1 ASN         0.0826
    161 H71        -7.1028    6.7475    5.3853 H         1 ASN         0.0551
    162 H72        -5.8067    5.9537    4.4279 H         1 ASN         0.0551
    163 H73        -6.3728    9.8593    4.0494 H         1 ASN         0.1814
    164 H74        -7.5287    8.7061    4.6274 H         1 ASN         0.1814
    165 H75        -4.6398    6.0431    8.8860 H         1 ALA         0.1875
    166 H76        -7.0220    6.5201   10.2748 H         1 ALA         0.0723
    167 H77        -5.5956    6.9116   12.2698 H         1 ALA         0.0270
    168 H78        -4.1570    7.0568   11.2040 H         1 ALA         0.0270
    169 H79        -5.0399    5.4962   11.3135 H         1 ALA         0.0270
@<TRIPOS>BOND
     1    1    2 1  
     2    2    3 1  
     3    2    5 1  
     4    3    4 2  
     5    3    6 am 
     6    6    7 1  
     7    7    8 1  
     8    7   10 1  
     9    8    9 2  
    10    8   14 am 
    11   10   11 1  
    12   11   12 2  
    13   11   13 am 
    14   14   15 1  
    15   14   20 1  
    16   15   16 1  
    17   15   18 1  
    18   16   17 2  
    19   16   21 am 
    20   18   19 1  
    21   19   20 1  
    22   21   22 1  
    23   22   23 1  
    24   22   25 1  
    25   23   24 2  
    26   23   29 am 
    27   25   26 1  
    28   26   27 2  
    29   26   28 am 
    30   29   30 1  
    31   30   31 1  
    32   30   33 1  
    33   31   32 2  
    34   31   34 am 
    35   34   35 1  
    36   35   36 1  
    37   35   38 1  
    38   36   37 2  
    39   36   42 am 
    40   38   39 1  
    41   39   40 2  
    42   39   41 am 
    43   42   43 1  
    44   42   48 1  
    45   43   44 1  
    46   43   46 1  
    47   44   45 2  
    48   44   49 am 
    49   46   47 1  
    50   47   48 1  
    51   49   50 1  
    52   50   51 1  
    53   50   53 1  
    54   51   52 2  
    55   51   57 am 
    56   53   54 1  
    57   54   55 2  
    58   54   56 am 
    59   57   58 1  
    60   58   59 1  
    61   58   61 1  
    62   59   60 2  
    63   59   62 am 
    64   62   63 1  
    65   63   64 1  
    66   63   66 1  
    67   64   65 2  
    68   64   70 am 
    69   66   67 1  
    70   67   68 2  
    71   67   69 am 
    72   70   71 1  
    73   70   76 1  
    74   71   72 1  
    75   71   74 1  
    76   72   73 2  
    77   72   77 am 
    78   74   75 1  
    79   75   76 1  
    80   77   78 1  
    81   78   79 1  
    82   78   81 1  
    83   79   80 2  
    84   79   85 am 
    85   81   82 1  
    86   82   83 2  
    87   82   84 am 
    88   85   86 1  
    89   86   87 1  
    90   86   89 1  
    91   87   88 ar 
    92   87   90 ar 
    93    1   91 1  
    94    1   92 1  
    95    1   93 1  
    96    2   94 1  
    97    5   95 1  
    98    5   96 1  
    99    5   97 1  
   100    6   98 1  
   101    7   99 1  
   102   10  100 1  
   103   10  101 1  
   104   13  102 1  
   105   13  103 1  
   106   15  104 1  
   107   18  105 1  
   108   18  106 1  
   109   19  107 1  
   110   19  108 1  
   111   20  109 1  
   112   20  110 1  
   113   21  111 1  
   114   22  112 1  
   115   25  113 1  
   116   25  114 1  
   117   28  115 1  
   118   28  116 1  
   119   29  117 1  
   120   30  118 1  
   121   33  119 1  
   122   33  120 1  
   123   33  121 1  
   124   34  122 1  
   125   35  123 1  
   126   38  124 1  
   127   38  125 1  
   128   41  126 1  
   129   41  127 1  
   130   43  128 1  
   131   46  129 1  
   132   46  130 1  
   133   47  131 1  
   134   47  132 1  
   135   48  133 1  
   136   48  134 1  
   137   49  135 1  
   138   50  136 1  
   139   53  137 1  
   140   53  138 1  
   141   56  139 1  
   142   56  140 1  
   143   57  141 1  
   144   58  142 1  
   145   61  143 1  
   146   61  144 1  
   147   61  145 1  
   148   62  146 1  
   149   63  147 1  
   150   66  148 1  
   151   66  149 1  
   152   69  150 1  
   153   69  151 1  
   154   71  152 1  
   155   74  153 1  
   156   74  154 1  
   157   75  155 1  
   158   75  156 1  
   159   76  157 1  
   160   76  158 1  
   161   77  159 1  
   162   78  160 1  
   163   81  161 1  
   164   81  162 1  
   165   84  163 1  
   166   84  164 1  
   167   85  165 1  
   168   86  166 1  
   169   89  167 1  
   170   89  168 1  
   171   89  169 1  
@<TRIPOS>SUBSTRUCTURE
     1 ALA         1

