### 
### Created by X-TOOL on Mon Sep 10 21:13:11 2018
### 

@<TRIPOS>MOLECULE
4dow_ligand
  219   219     1     0     0
SMALL
GAST_HUCK


@<TRIPOS>ATOM
      1 N         -10.6730   -1.2280  -22.1760 N.4       1 GLY         0.2357
      2 CA         -9.9310   -2.4640  -22.3590 C.3       1 GLY         0.0545
      3 C          -8.4510   -2.3120  -22.0460 C.2       1 GLY         0.2236
      4 O          -7.8170   -1.3410  -22.4620 O.2       1 GLY        -0.3910
      5 N          -7.8950   -3.2660  -21.3010 N.am      1 ALA        -0.2615
      6 CA         -6.4960   -3.1680  -20.8830 C.3       1 ALA         0.1283
      7 C          -5.5630   -3.4840  -22.0470 C.2       1 ALA         0.2036
      8 O          -5.7480   -4.4870  -22.7310 O.2       1 ALA        -0.3944
      9 CB         -6.2050   -4.1040  -19.7070 C.3       1 ALA        -0.0244
     10 N          -4.5650   -2.6350  -22.2690 N.am      1 LYS        -0.2637
     11 CA         -3.5800   -2.9230  -23.2920 C.3       1 LYS         0.1310
     12 C          -2.7280   -4.1130  -22.8850 C.2       1 LYS         0.2039
     13 O          -2.5850   -4.4190  -21.6970 O.2       1 LYS        -0.3944
     14 CB         -2.6840   -1.7200  -23.5500 C.3       1 LYS        -0.0122
     15 CG         -3.4160   -0.4750  -24.0250 C.3       1 LYS        -0.0440
     16 CD         -2.4710    0.4160  -24.8200 C.3       1 LYS        -0.0124
     17 CE         -3.1470    1.7070  -25.2830 C.3       1 LYS        -0.0354
     18 NZ         -2.3000    2.4280  -26.2850 N.4       1 LYS         0.2185
     19 N          -2.1400   -4.7630  -23.8810 N.am      1 ARG        -0.2637
     20 CA         -1.3810   -5.9780  -23.6650 C.3       1 ARG         0.1311
     21 C           0.0580   -5.6530  -23.3080 C.2       1 ARG         0.2040
     22 O           0.7270   -4.8560  -23.9870 O.2       1 ARG        -0.3944
     23 CB         -1.4090   -6.8460  -24.9180 C.3       1 ARG        -0.0092
     24 CG         -0.1400   -7.6380  -25.1100 C.3       1 ARG        -0.0156
     25 CD         -0.3640   -8.8860  -25.9390 C.3       1 ARG         0.0627
     26 NE          0.7910   -9.7820  -25.8020 N.pl3     1 ARG        -0.2723
     27 CZ          0.8380  -11.0320  -26.2360 C.cat     1 ARG         0.2882
     28 NH1         1.9400  -11.7370  -26.0550 N.pl3     1 ARG        -0.2849
     29 NH2        -0.2110  -11.5750  -26.8460 N.pl3     1 ARG        -0.2849
     30 N           0.5380   -6.2660  -22.2320 N.am      1 HIS        -0.2625
     31 CA          1.9390   -6.1430  -21.8870 C.3       1 HIS         0.1369
     32 C           2.6700   -7.3500  -22.3930 C.2       1 HIS         0.2054
     33 O           2.2810   -8.4960  -22.1040 O.2       1 HIS        -0.3942
     34 CB          2.1600   -6.0780  -20.3710 C.3       1 HIS         0.0145
     35 CG          3.6110   -6.0630  -19.9940 C.2       1 HIS        -0.0027
     36 ND1         4.4180   -4.9770  -20.2180 N.2       1 HIS        -0.3252
     37 CD2         4.4060   -7.0300  -19.4780 C.2       1 HIS         0.0291
     38 CE1         5.6490   -5.2510  -19.8110 C.2       1 HIS         0.0907
     39 NE2         5.6660   -6.4870  -19.3640 N.pl3     1 HIS        -0.2752
     40 N           3.7750   -7.1120  -23.0900 N.am      1 ARG        -0.2636
     41 CA          4.6070   -8.2110  -23.5550 C.3       1 ARG         0.1311
     42 C           5.8420   -8.2350  -22.6650 C.2       1 ARG         0.2039
     43 O           6.5970   -7.2670  -22.6380 O.2       1 ARG        -0.3944
     44 CB          4.9650   -7.9560  -25.0300 C.3       1 ARG        -0.0092
     45 CG          5.1930   -9.2050  -25.8760 C.3       1 ARG        -0.0156
     46 CD          5.1310   -8.8650  -27.3860 C.3       1 ARG         0.0627
     47 NE          3.9140   -9.4020  -28.0030 N.pl3     1 ARG        -0.2723
     48 CZ          3.3440   -8.9280  -29.1090 C.cat     1 ARG         0.2882
     49 NH1         3.8640   -7.8850  -29.7500 N.pl3     1 ARG        -0.2849
     50 NH2         2.2380   -9.4970  -29.5720 N.pl3     1 ARG        -0.2849
     51 N           6.0370   -9.3060  -21.8790 N.am      1 MLY        -0.2637
     52 CA          7.2450   -9.3900  -21.0620 C.3       1 MLY         0.1310
     53 CB          7.2380  -10.6350  -20.1690 C.3       1 MLY        -0.0125
     54 CG          6.4500  -10.4810  -18.9140 C.3       1 MLY        -0.0507
     55 CD          6.7120  -11.7060  -18.0570 C.3       1 MLY        -0.0716
     56 CE          5.8430  -11.7500  -16.8730 C.3       1 MLY        -0.1138
     57 NZ          6.1220  -13.0470  -16.1760 N.4       1 MLY         0.3986
     58 CH1         7.5210  -12.9430  -15.7040 C.3       1 MLY        -0.1260
     59 CH2         5.2270  -13.0100  -15.0220 C.3       1 MLY        -0.1260
     60 C           8.4750   -9.4370  -21.9640 C.2       1 MLY         0.2039
     61 O           8.4690  -10.2290  -22.9050 O.2       1 MLY        -0.3944
     62 N           9.5600   -8.7860  -21.5460 N.am      1 VAL        -0.2635
     63 CA         10.7720   -8.7390  -22.3590 C.3       1 VAL         0.1332
     64 C          11.9480   -8.9020  -21.4290 C.2       1 VAL         0.2041
     65 O          11.8390   -8.5990  -20.2460 O.2       1 VAL        -0.3944
     66 CB         10.9320   -7.3920  -23.0960 C.3       1 VAL        -0.0063
     67 CG1         9.9220   -7.2810  -24.2290 C.3       1 VAL        -0.0584
     68 CG2        10.7910   -6.2130  -22.0920 C.3       1 VAL        -0.0584
     69 N          13.0730   -9.3680  -21.9620 N.am      1 LEU        -0.2637
     70 CA         14.2240   -9.7500  -21.1450 C.3       1 LEU         0.1312
     71 C          15.1210   -8.5880  -20.7590 C.2       1 LEU         0.2039
     72 O          14.8130   -7.4330  -21.0050 O.2       1 LEU        -0.3944
     73 CB         15.0840  -10.8210  -21.8540 C.3       1 LEU        -0.0101
     74 CG         14.7890  -12.3060  -21.6120 C.3       1 LEU        -0.0425
     75 CD1        13.8570  -12.8260  -22.6930 C.3       1 LEU        -0.0625
     76 CD2        16.0800  -13.1300  -21.6040 C.3       1 LEU        -0.0625
     77 N          16.2850   -8.9550  -20.2370 N.am      1 ARG        -0.2637
     78 CA         17.3300   -8.0420  -19.7780 C.3       1 ARG         0.1311
     79 C          16.8220   -7.0980  -18.7140 C.2       1 ARG         0.2040
     80 O          15.9920   -7.4670  -17.8920 O.2       1 ARG        -0.3944
     81 CB         17.9080   -7.2280  -20.9470 C.3       1 ARG        -0.0092
     82 CG         18.5160   -8.0600  -22.0880 C.3       1 ARG        -0.0156
     83 CD         17.4330   -8.4570  -23.1010 C.3       1 ARG         0.0627
     84 NE         17.8750   -9.4030  -24.1310 N.pl3     1 ARG        -0.2723
     85 CZ         18.1440   -9.0600  -25.3890 C.cat     1 ARG         0.2882
     86 NH1        18.5290   -9.9830  -26.2700 N.pl3     1 ARG        -0.2849
     87 NH2        18.0240   -7.7840  -25.7630 N.pl3     1 ARG        -0.2849
     88 N          17.3050   -5.8620  -18.7470 N.am      1 ASP        -0.2622
     89 CA         16.8550   -4.8580  -17.7890 C.3       1 ASP         0.1423
     90 C          16.8040   -5.4290  -16.3530 C.2       1 ASP         0.2052
     91 O          15.7990   -5.2860  -15.6410 O.2       1 ASP        -0.3943
     92 CB         15.4890   -4.3120  -18.2250 C.3       1 ASP         0.0406
     93 CG         15.4210   -4.0160  -19.7300 C.2       1 ASP         0.0393
     94 OD1        14.6200   -4.6780  -20.4340 O.co2     1 ASP        -0.5688
     95 OD2        16.1490   -3.1200  -20.2160 O.co2     1 ASP        -0.5688
     96 N          17.8910   -6.0800  -15.9400 N.am      1 ASN        -0.2673
     97 CA         18.0110   -6.6110  -14.5820 C.3       1 ASN         0.1110
     98 C          18.2830   -5.5240  -13.5400 C.2       1 ASN         0.0624
     99 O          18.1084   -5.7477  -12.3124 O.co2     1 ASN        -0.5665
    100 CB         19.0920   -7.7010  -14.5150 C.3       1 ASN         0.0718
    101 CG         20.4730   -7.1940  -14.9090 C.2       1 ASN         0.1774
    102 OD1        21.2490   -6.7400  -14.0610 O.2       1 ASN        -0.3971
    103 ND2        20.7910   -7.2790  -16.2010 N.am      1 ASN        -0.3007
    104 H         -11.6557   -1.3866  -22.3988 H         1 GLY         0.2012
    105 H         -10.5879   -0.9221  -21.2067 H         1 GLY         0.2012
    106 H         -10.2944   -0.5108  -22.7946 H         1 GLY         0.2012
    107 H         -10.0234   -2.7580  -23.4045 H         1 GLY         0.1061
    108 H         -10.3431   -3.2060  -21.6751 H         1 GLY         0.1061
    109 H          -8.4504   -4.0736  -21.0188 H         1 ALA         0.1884
    110 H          -6.3177   -2.1430  -20.5580 H         1 ALA         0.0797
    111 H          -6.3589   -5.1368  -20.0196 H         1 ALA         0.0277
    112 H          -5.1722   -3.9706  -19.3850 H         1 ALA         0.0277
    113 H          -6.8774   -3.8687  -18.8820 H         1 ALA         0.0277
    114 H          -4.4923   -1.7794  -21.7185 H         1 LYS         0.1883
    115 H          -4.1168   -3.1581  -24.2111 H         1 LYS         0.0800
    116 H          -1.9916   -2.0035  -24.3427 H         1 LYS         0.0312
    117 H          -2.2099   -1.4675  -22.6015 H         1 LYS         0.0312
    118 H          -3.7838    0.0759  -23.1594 H         1 LYS         0.0269
    119 H          -4.2494   -0.7711  -24.6621 H         1 LYS         0.0269
    120 H          -2.1494   -0.1344  -25.7042 H         1 LYS         0.0317
    121 H          -1.6343    0.6838  -24.1748 H         1 LYS         0.0317
    122 H          -3.2926    2.3545  -24.4183 H         1 LYS         0.0813
    123 H          -4.1000    1.4548  -25.7482 H         1 LYS         0.0813
    124 H          -2.7735    3.2832  -26.5761 H         1 LYS         0.1994
    125 H          -1.4014    2.6622  -25.8631 H         1 LYS         0.1994
    126 H          -2.1500    1.8280  -27.0961 H         1 LYS         0.1994
    127 H          -2.2250   -4.3957  -24.8288 H         1 ARG         0.1883
    128 H          -1.8373   -6.5215  -22.8377 H         1 ARG         0.0800
    129 H          -1.5237   -6.1863  -25.7781 H         1 ARG         0.0313
    130 H          -2.2315   -7.5538  -24.8150 H         1 ARG         0.0313
    131 H           0.2208   -7.9436  -24.1279 H         1 ARG         0.0301
    132 H           0.5775   -7.0069  -25.6344 H         1 ARG         0.0301
    133 H          -0.4849   -8.6084  -26.9861 H         1 ARG         0.0689
    134 H          -1.2617   -9.3963  -25.5901 H         1 ARG         0.0689
    135 H           1.6206   -9.4133  -25.3369 H         1 ARG         0.2642
    136 H           2.7424  -11.3175  -25.5854 H         1 ARG         0.2615
    137 H           1.9887  -12.7010  -26.3848 H         1 ARG         0.2615
    138 H          -1.0609  -11.0279  -26.9829 H         1 ARG         0.2615
    139 H          -0.1659  -12.5387  -27.1771 H         1 ARG         0.2615
    140 H          -0.0824   -6.8254  -21.6466 H         1 HIS         0.1885
    141 H           2.3046   -5.2198  -22.3366 H         1 HIS         0.0817
    142 H           1.7103   -6.9677  -19.9302 H         1 HIS         0.0420
    143 H           1.7118   -5.1530  -20.0082 H         1 HIS         0.0420
    144 H           4.1065   -8.0421  -19.2057 H         1 HIS         0.0729
    145 H           6.4995   -4.5699  -19.8416 H         1 HIS         0.1199
    146 H           6.4844   -6.9683  -18.9911 H         1 HIS         0.2361
    147 H           4.0426   -6.1506  -23.3011 H         1 ARG         0.1883
    148 H           4.1039   -9.1762  -23.4973 H         1 ARG         0.0800
    149 H           5.9055   -7.4050  -25.0303 H         1 ARG         0.0313
    150 H           4.1152   -7.4341  -25.4699 H         1 ARG         0.0313
    151 H           4.4137   -9.9319  -25.6470 H         1 ARG         0.0301
    152 H           6.1788   -9.6097  -25.6469 H         1 ARG         0.0301
    153 H           5.9954   -9.3108  -27.8780 H         1 ARG         0.0689
    154 H           5.1276   -7.7808  -27.4979 H         1 ARG         0.0689
    155 H           3.4697  -10.2005  -27.5498 H         1 ARG         0.2642
    156 H           4.7096   -7.4382  -29.3953 H         1 ARG         0.2615
    157 H           3.4172   -7.5320  -30.5962 H         1 ARG         0.2615
    158 H           1.8297  -10.2924  -29.0811 H         1 ARG         0.2615
    159 H           1.7962   -9.1389  -30.4187 H         1 ARG         0.2615
    160 H           5.3462  -10.0560  -21.8526 H         1 MLY         0.1883
    161 H           7.2737   -8.5067  -20.4241 H         1 MLY         0.0800
    162 H           8.2707  -10.8289  -19.8789 H         1 MLY         0.0312
    163 H           6.7769  -11.4395  -20.7419 H         1 MLY         0.0312
    164 H           5.3872  -10.3941  -19.1397 H         1 MLY         0.0267
    165 H           6.7482   -9.5755  -18.3856 H         1 MLY         0.0267
    166 H           7.7470  -11.6676  -17.7173 H         1 MLY         0.0246
    167 H           6.5098  -12.5915  -18.6596 H         1 MLY         0.0246
    168 H           4.7938  -11.6836  -17.1608 H         1 MLY         0.0017
    169 H           6.0446  -10.9057  -16.2138 H         1 MLY         0.0017
    170 H           8.1816  -12.7975  -16.5587 H         1 MLY        -0.0019
    171 H           7.6118  -12.0956  -15.0245 H         1 MLY        -0.0019
    172 H           7.7962  -13.8597  -15.1824 H         1 MLY        -0.0019
    173 H           5.4684  -12.1450  -14.4042 H         1 MLY        -0.0019
    174 H           4.1954  -12.9358  -15.3661 H         1 MLY        -0.0019
    175 H           5.3518  -13.9216  -14.4377 H         1 MLY        -0.0019
    176 H           9.5436   -8.3125  -20.6427 H         1 VAL         0.1883
    177 H          10.7145   -9.5280  -23.1089 H         1 VAL         0.0802
    178 H          11.9283   -7.3439  -23.5356 H         1 VAL         0.0343
    179 H          10.0817   -8.0940  -24.9373 H         1 VAL         0.0234
    180 H           8.9129   -7.3449  -23.8220 H         1 VAL         0.0234
    181 H          10.0506   -6.3249  -24.7363 H         1 VAL         0.0234
    182 H           9.8069   -6.2510  -21.6248 H         1 VAL         0.0234
    183 H          11.5618   -6.2958  -21.3258 H         1 VAL         0.0234
    184 H          10.9058   -5.2686  -22.6241 H         1 VAL         0.0234
    185 H          13.1355   -9.4624  -22.9757 H         1 LEU         0.1883
    186 H          13.7914  -10.1511  -20.2285 H         1 LEU         0.0800
    187 H          16.0905  -10.6712  -21.4634 H         1 LEU         0.0315
    188 H          14.8936  -10.6703  -22.9166 H         1 LEU         0.0315
    189 H          14.3129  -12.4056  -20.6365 H         1 LEU         0.0298
    190 H          12.9240  -12.2630  -22.6682 H         1 LEU         0.0232
    191 H          14.3299  -12.7052  -23.6676 H         1 LEU         0.0232
    192 H          13.6507  -13.8816  -22.5162 H         1 LEU         0.0232
    193 H          16.5820  -13.0257  -22.5659 H         1 LEU         0.0232
    194 H          16.7344  -12.7699  -20.8102 H         1 LEU         0.0232
    195 H          15.8391  -14.1787  -21.4303 H         1 LEU         0.0232
    196 H          16.4647   -9.9552  -20.1491 H         1 ARG         0.1883
    197 H          18.1175   -8.6599  -19.3465 H         1 ARG         0.0800
    198 H          18.7161   -6.6224  -20.5368 H         1 ARG         0.0313
    199 H          17.0786   -6.6666  -21.3772 H         1 ARG         0.0313
    200 H          18.9580   -8.9644  -21.6699 H         1 ARG         0.0301
    201 H          19.2740   -7.4636  -22.5958 H         1 ARG         0.0301
    202 H          17.1307   -7.5452  -23.6162 H         1 ARG         0.0689
    203 H          16.6378   -8.9476  -22.5396 H         1 ARG         0.0689
    204 H          17.9828  -10.3825  -23.8677 H         1 ARG         0.2642
    205 H          18.6187  -10.9573  -25.9816 H         1 ARG         0.2615
    206 H          18.7339   -9.7151  -27.2326 H         1 ARG         0.2615
    207 H          17.7281   -7.0800  -25.0868 H         1 ARG         0.2615
    208 H          18.2282   -7.5131  -26.7249 H         1 ARG         0.2615
    209 H          17.9993   -5.6111  -19.4508 H         1 ASP         0.1884
    210 H          17.5733   -4.0383  -17.7749 H         1 ASP         0.0819
    211 H          15.3173   -3.3767  -17.6922 H         1 ASP         0.0478
    212 H          14.7386   -5.0696  -17.9990 H         1 ASP         0.0478
    213 H          18.6644   -6.2124  -16.5918 H         1 ASN         0.1877
    214 H          17.0447   -7.0511  -14.3358 H         1 ASN         0.0752
    215 O          18.6868   -4.3907  -13.9144 O.co2     1 ASN        -0.5665
    216 H          18.8144   -8.4877  -15.2165 H         1 ASN         0.0544
    217 H          19.1481   -8.0503  -13.4840 H         1 ASN         0.0544
    218 H          21.7056   -6.9624  -16.5230 H         1 ASN         0.1814
    219 H          20.1197   -7.6606  -16.8674 H         1 ASN         0.1814
@<TRIPOS>BOND
     1    1    2 1  
     2    2    3 1  
     3    3    4 2  
     4    3    5 am 
     5    5    6 1  
     6    6    7 1  
     7    6    9 1  
     8    7    8 2  
     9    7   10 am 
    10   10   11 1  
    11   11   12 1  
    12   11   14 1  
    13   12   13 2  
    14   12   19 am 
    15   14   15 1  
    16   15   16 1  
    17   16   17 1  
    18   17   18 1  
    19   19   20 1  
    20   20   21 1  
    21   20   23 1  
    22   21   22 2  
    23   21   30 am 
    24   23   24 1  
    25   24   25 1  
    26   25   26 1  
    27   26   27 ar 
    28   27   28 ar 
    29   27   29 ar 
    30   30   31 1  
    31   31   32 1  
    32   31   34 1  
    33   32   33 2  
    34   32   40 am 
    35   34   35 1  
    36   35   36 1  
    37   35   37 2  
    38   36   38 2  
    39   37   39 1  
    40   38   39 1  
    41   40   41 1  
    42   41   42 1  
    43   41   44 1  
    44   42   43 2  
    45   42   51 am 
    46   44   45 1  
    47   45   46 1  
    48   46   47 1  
    49   47   48 ar 
    50   48   49 ar 
    51   48   50 ar 
    52   51   52 1  
    53   52   53 1  
    54   52   60 1  
    55   53   54 1  
    56   54   55 1  
    57   55   56 1  
    58   56   57 1  
    59   57   58 1  
    60   57   59 1  
    61   60   61 2  
    62   60   62 am 
    63   62   63 1  
    64   63   64 1  
    65   63   66 1  
    66   64   65 2  
    67   64   69 am 
    68   66   67 1  
    69   66   68 1  
    70   69   70 1  
    71   70   71 1  
    72   70   73 1  
    73   71   72 2  
    74   71   77 am 
    75   73   74 1  
    76   74   75 1  
    77   74   76 1  
    78   77   78 1  
    79   78   79 1  
    80   78   81 1  
    81   79   80 2  
    82   79   88 am 
    83   81   82 1  
    84   82   83 1  
    85   83   84 1  
    86   84   85 ar 
    87   85   86 ar 
    88   85   87 ar 
    89   88   89 1  
    90   89   90 1  
    91   89   92 1  
    92   90   91 2  
    93   90   96 am 
    94   92   93 1  
    95   93   94 ar 
    96   93   95 ar 
    97   96   97 1  
    98   97   98 1  
    99   97  100 1  
   100   98   99 ar 
   101  100  101 1  
   102  101  102 2  
   103  101  103 am 
   104    1  104 1  
   105    1  105 1  
   106    1  106 1  
   107    2  107 1  
   108    2  108 1  
   109    5  109 1  
   110    6  110 1  
   111    9  111 1  
   112    9  112 1  
   113    9  113 1  
   114   10  114 1  
   115   11  115 1  
   116   14  116 1  
   117   14  117 1  
   118   15  118 1  
   119   15  119 1  
   120   16  120 1  
   121   16  121 1  
   122   17  122 1  
   123   17  123 1  
   124   18  124 1  
   125   18  125 1  
   126   18  126 1  
   127   19  127 1  
   128   20  128 1  
   129   23  129 1  
   130   23  130 1  
   131   24  131 1  
   132   24  132 1  
   133   25  133 1  
   134   25  134 1  
   135   26  135 1  
   136   28  136 1  
   137   28  137 1  
   138   29  138 1  
   139   29  139 1  
   140   30  140 1  
   141   31  141 1  
   142   34  142 1  
   143   34  143 1  
   144   37  144 1  
   145   38  145 1  
   146   39  146 1  
   147   40  147 1  
   148   41  148 1  
   149   44  149 1  
   150   44  150 1  
   151   45  151 1  
   152   45  152 1  
   153   46  153 1  
   154   46  154 1  
   155   47  155 1  
   156   49  156 1  
   157   49  157 1  
   158   50  158 1  
   159   50  159 1  
   160   51  160 1  
   161   52  161 1  
   162   53  162 1  
   163   53  163 1  
   164   54  164 1  
   165   54  165 1  
   166   55  166 1  
   167   55  167 1  
   168   56  168 1  
   169   56  169 1  
   170   58  170 1  
   171   58  171 1  
   172   58  172 1  
   173   59  173 1  
   174   59  174 1  
   175   59  175 1  
   176   62  176 1  
   177   63  177 1  
   178   66  178 1  
   179   67  179 1  
   180   67  180 1  
   181   67  181 1  
   182   68  182 1  
   183   68  183 1  
   184   68  184 1  
   185   69  185 1  
   186   70  186 1  
   187   73  187 1  
   188   73  188 1  
   189   74  189 1  
   190   75  190 1  
   191   75  191 1  
   192   75  192 1  
   193   76  193 1  
   194   76  194 1  
   195   76  195 1  
   196   77  196 1  
   197   78  197 1  
   198   81  198 1  
   199   81  199 1  
   200   82  200 1  
   201   82  201 1  
   202   83  202 1  
   203   83  203 1  
   204   84  204 1  
   205   86  205 1  
   206   86  206 1  
   207   87  207 1  
   208   87  208 1  
   209   88  209 1  
   210   89  210 1  
   211   92  211 1  
   212   92  212 1  
   213   96  213 1  
   214   97  214 1  
   215   98  215 ar 
   216  100  216 1  
   217  100  217 1  
   218  103  218 1  
   219  103  219 1  
@<TRIPOS>SUBSTRUCTURE
     1 GLY         1

