4dow_ligand
  -I-interpret- 

218218  0  0  0  0  0  0  0  0999 V2000
  -10.6730   -1.2280  -22.1760 N   0  3  0  0  0
   -9.9310   -2.4640  -22.3590 C   0  0  0  0  0
   -8.4510   -2.3120  -22.0460 C   0  0  0  0  0
   -7.8170   -1.3410  -22.4620 O   0  0  0  0  0
   -7.8950   -3.2660  -21.3010 N   0  0  0  0  0
   -6.4960   -3.1680  -20.8830 C   0  0  0  0  0
   -5.5630   -3.4840  -22.0470 C   0  0  0  0  0
   -5.7480   -4.4870  -22.7310 O   0  0  0  0  0
   -6.2050   -4.1040  -19.7070 C   0  0  0  0  0
   -4.5650   -2.6350  -22.2690 N   0  0  0  0  0
   -3.5800   -2.9230  -23.2920 C   0  0  0  0  0
   -2.7280   -4.1130  -22.8850 C   0  0  0  0  0
   -2.5850   -4.4190  -21.6970 O   0  0  0  0  0
   -2.6840   -1.7200  -23.5500 C   0  0  0  0  0
   -3.4160   -0.4750  -24.0250 C   0  0  0  0  0
   -2.4710    0.4160  -24.8200 C   0  0  0  0  0
   -3.1470    1.7070  -25.2830 C   0  0  0  0  0
   -2.3000    2.4280  -26.2850 N   0  3  0  0  0
   -2.1400   -4.7630  -23.8810 N   0  0  0  0  0
   -1.3810   -5.9780  -23.6650 C   0  0  0  0  0
    0.0580   -5.6530  -23.3080 C   0  0  0  0  0
    0.7270   -4.8560  -23.9870 O   0  0  0  0  0
   -1.4090   -6.8460  -24.9180 C   0  0  0  0  0
   -0.1400   -7.6380  -25.1100 C   0  0  0  0  0
   -0.3640   -8.8860  -25.9390 C   0  0  0  0  0
    0.7910   -9.7820  -25.8020 N   0  0  0  0  0
    0.8380  -11.0320  -26.2360 C   0  0  0  0  0
    1.9400  -11.7370  -26.0550 N   0  0  0  0  0
   -0.2110  -11.5750  -26.8460 N   0  0  0  0  0
    0.5380   -6.2660  -22.2320 N   0  0  0  0  0
    1.9390   -6.1430  -21.8870 C   0  0  0  0  0
    2.6700   -7.3500  -22.3930 C   0  0  0  0  0
    2.2810   -8.4960  -22.1040 O   0  0  0  0  0
    2.1600   -6.0780  -20.3710 C   0  0  0  0  0
    3.6110   -6.0630  -19.9940 C   0  0  0  0  0
    4.4180   -4.9770  -20.2180 N   0  0  0  0  0
    4.4060   -7.0300  -19.4780 C   0  0  0  0  0
    5.6490   -5.2510  -19.8110 C   0  0  0  0  0
    5.6660   -6.4870  -19.3640 N   0  0  0  0  0
    3.7750   -7.1120  -23.0900 N   0  0  0  0  0
    4.6070   -8.2110  -23.5550 C   0  0  0  0  0
    5.8420   -8.2350  -22.6650 C   0  0  0  0  0
    6.5970   -7.2670  -22.6380 O   0  0  0  0  0
    4.9650   -7.9560  -25.0300 C   0  0  0  0  0
    5.1930   -9.2050  -25.8760 C   0  0  0  0  0
    5.1310   -8.8650  -27.3860 C   0  0  0  0  0
    3.9140   -9.4020  -28.0030 N   0  0  0  0  0
    3.3440   -8.9280  -29.1090 C   0  0  0  0  0
    3.8640   -7.8850  -29.7500 N   0  0  0  0  0
    2.2380   -9.4970  -29.5720 N   0  0  0  0  0
    6.0370   -9.3060  -21.8790 N   0  0  0  0  0
    7.2450   -9.3900  -21.0620 C   0  0  0  0  0
    7.2380  -10.6350  -20.1690 C   0  0  0  0  0
    6.4500  -10.4810  -18.9140 C   0  0  0  0  0
    6.7120  -11.7060  -18.0570 C   0  0  0  0  0
    5.8430  -11.7500  -16.8730 C   0  0  0  0  0
    6.1220  -13.0470  -16.1760 N   0  3  0  0  0
    7.5210  -12.9430  -15.7040 C   0  0  0  0  0
    5.2270  -13.0100  -15.0220 C   0  0  0  0  0
    8.4750   -9.4370  -21.9640 C   0  0  0  0  0
    8.4690  -10.2290  -22.9050 O   0  0  0  0  0
    9.5600   -8.7860  -21.5460 N   0  0  0  0  0
   10.7720   -8.7390  -22.3590 C   0  0  0  0  0
   11.9480   -8.9020  -21.4290 C   0  0  0  0  0
   11.8390   -8.5990  -20.2460 O   0  0  0  0  0
   10.9320   -7.3920  -23.0960 C   0  0  0  0  0
    9.9220   -7.2810  -24.2290 C   0  0  0  0  0
   10.7910   -6.2130  -22.0920 C   0  0  0  0  0
   13.0730   -9.3680  -21.9620 N   0  0  0  0  0
   14.2240   -9.7500  -21.1450 C   0  0  0  0  0
   15.1210   -8.5880  -20.7590 C   0  0  0  0  0
   14.8130   -7.4330  -21.0050 O   0  0  0  0  0
   15.0840  -10.8210  -21.8540 C   0  0  0  0  0
   14.7890  -12.3060  -21.6120 C   0  0  0  0  0
   13.8570  -12.8260  -22.6930 C   0  0  0  0  0
   16.0800  -13.1300  -21.6040 C   0  0  0  0  0
   16.2850   -8.9550  -20.2370 N   0  0  0  0  0
   17.3300   -8.0420  -19.7780 C   0  0  0  0  0
   16.8220   -7.0980  -18.7140 C   0  0  0  0  0
   15.9920   -7.4670  -17.8920 O   0  0  0  0  0
   17.9080   -7.2280  -20.9470 C   0  0  0  0  0
   18.5160   -8.0600  -22.0880 C   0  0  0  0  0
   17.4330   -8.4570  -23.1010 C   0  0  0  0  0
   17.8750   -9.4030  -24.1310 N   0  0  0  0  0
   18.1440   -9.0600  -25.3890 C   0  0  0  0  0
   18.5290   -9.9830  -26.2700 N   0  0  0  0  0
   18.0240   -7.7840  -25.7630 N   0  0  0  0  0
   17.3050   -5.8620  -18.7470 N   0  0  0  0  0
   16.8550   -4.8580  -17.7890 C   0  0  0  0  0
   16.8040   -5.4290  -16.3530 C   0  0  0  0  0
   15.7990   -5.2860  -15.6410 O   0  0  0  0  0
   15.4890   -4.3120  -18.2250 C   0  0  0  0  0
   15.4210   -4.0160  -19.7300 C   0  0  0  0  0
   14.6200   -4.6780  -20.4340 O   0  0  0  0  0
   16.1490   -3.1200  -20.2160 O   0  0  0  0  0
   17.8910   -6.0800  -15.9400 N   0  0  0  0  0
   18.0110   -6.6110  -14.5820 C   0  0  0  0  0
   18.2830   -5.5240  -13.5400 C   0  0  0  0  0
   18.1084   -5.7477  -12.3124 O   0  0  0  0  0
   19.0920   -7.7010  -14.5150 C   0  0  0  0  0
   20.4730   -7.1940  -14.9090 C   0  0  0  0  0
   21.2490   -6.7400  -14.0610 O   0  0  0  0  0
   20.7910   -7.2790  -16.2010 N   0  0  0  0  0
   18.6868   -4.3907  -13.9144 O   0  0  0  0  0
  -11.6557   -1.3866  -22.3988 H   0  0  0  0  0
  -10.5879   -0.9221  -21.2067 H   0  0  0  0  0
  -10.2944   -0.5108  -22.7946 H   0  0  0  0  0
  -10.0234   -2.7580  -23.4045 H   0  0  0  0  0
  -10.3431   -3.2060  -21.6751 H   0  0  0  0  0
   -8.4504   -4.0736  -21.0188 H   0  0  0  0  0
   -6.3177   -2.1430  -20.5580 H   0  0  0  0  0
   -6.3589   -5.1368  -20.0196 H   0  0  0  0  0
   -5.1722   -3.9706  -19.3850 H   0  0  0  0  0
   -6.8774   -3.8687  -18.8820 H   0  0  0  0  0
   -4.4923   -1.7794  -21.7185 H   0  0  0  0  0
   -4.1168   -3.1581  -24.2111 H   0  0  0  0  0
   -1.9916   -2.0035  -24.3427 H   0  0  0  0  0
   -2.2099   -1.4675  -22.6015 H   0  0  0  0  0
   -3.7838    0.0759  -23.1594 H   0  0  0  0  0
   -4.2494   -0.7711  -24.6621 H   0  0  0  0  0
   -2.1494   -0.1344  -25.7042 H   0  0  0  0  0
   -1.6343    0.6838  -24.1748 H   0  0  0  0  0
   -3.2926    2.3545  -24.4183 H   0  0  0  0  0
   -4.1000    1.4548  -25.7482 H   0  0  0  0  0
   -2.7735    3.2832  -26.5761 H   0  0  0  0  0
   -1.4014    2.6622  -25.8631 H   0  0  0  0  0
   -2.1500    1.8280  -27.0961 H   0  0  0  0  0
   -2.2250   -4.3957  -24.8288 H   0  0  0  0  0
   -1.8373   -6.5215  -22.8377 H   0  0  0  0  0
   -1.5237   -6.1863  -25.7781 H   0  0  0  0  0
   -2.2315   -7.5538  -24.8150 H   0  0  0  0  0
    0.2208   -7.9436  -24.1279 H   0  0  0  0  0
    0.5775   -7.0069  -25.6344 H   0  0  0  0  0
   -0.4849   -8.6084  -26.9861 H   0  0  0  0  0
   -1.2617   -9.3963  -25.5901 H   0  0  0  0  0
    1.6206   -9.4133  -25.3369 H   0  0  0  0  0
    2.7424  -11.3175  -25.5854 H   0  0  0  0  0
   -0.1664  -12.5391  -27.1760 H   0  0  0  0  0
   -1.0605  -11.0275  -26.9841 H   0  0  0  0  0
   -0.0824   -6.8254  -21.6466 H   0  0  0  0  0
    2.3046   -5.2198  -22.3366 H   0  0  0  0  0
    1.7103   -6.9677  -19.9302 H   0  0  0  0  0
    1.7118   -5.1530  -20.0082 H   0  0  0  0  0
    4.1065   -8.0421  -19.2057 H   0  0  0  0  0
    6.4995   -4.5699  -19.8416 H   0  0  0  0  0
    4.0426   -6.1506  -23.3011 H   0  0  0  0  0
    4.1039   -9.1762  -23.4973 H   0  0  0  0  0
    5.9055   -7.4050  -25.0303 H   0  0  0  0  0
    4.1152   -7.4341  -25.4699 H   0  0  0  0  0
    4.4137   -9.9319  -25.6470 H   0  0  0  0  0
    6.1788   -9.6097  -25.6469 H   0  0  0  0  0
    5.9954   -9.3108  -27.8780 H   0  0  0  0  0
    5.1276   -7.7808  -27.4979 H   0  0  0  0  0
    3.4697  -10.2005  -27.5498 H   0  0  0  0  0
    3.4129   -7.5272  -30.5920 H   0  0  0  0  0
    4.7138   -7.4430  -29.3996 H   0  0  0  0  0
    1.8297  -10.2924  -29.0811 H   0  0  0  0  0
    5.3462  -10.0560  -21.8526 H   0  0  0  0  0
    7.2737   -8.5067  -20.4241 H   0  0  0  0  0
    8.2707  -10.8289  -19.8789 H   0  0  0  0  0
    6.7769  -11.4395  -20.7419 H   0  0  0  0  0
    5.3872  -10.3941  -19.1397 H   0  0  0  0  0
    6.7482   -9.5755  -18.3856 H   0  0  0  0  0
    7.7470  -11.6676  -17.7173 H   0  0  0  0  0
    6.5098  -12.5915  -18.6596 H   0  0  0  0  0
    4.7938  -11.6836  -17.1608 H   0  0  0  0  0
    6.0446  -10.9057  -16.2138 H   0  0  0  0  0
    5.9940  -13.8877  -16.7392 H   0  0  0  0  0
    8.1816  -12.7975  -16.5587 H   0  0  0  0  0
    7.6118  -12.0956  -15.0245 H   0  0  0  0  0
    7.7962  -13.8597  -15.1824 H   0  0  0  0  0
    5.4684  -12.1450  -14.4042 H   0  0  0  0  0
    4.1954  -12.9358  -15.3661 H   0  0  0  0  0
    5.3518  -13.9216  -14.4377 H   0  0  0  0  0
    9.5436   -8.3125  -20.6427 H   0  0  0  0  0
   10.7145   -9.5280  -23.1089 H   0  0  0  0  0
   11.9283   -7.3439  -23.5356 H   0  0  0  0  0
   10.0817   -8.0940  -24.9373 H   0  0  0  0  0
    8.9129   -7.3449  -23.8220 H   0  0  0  0  0
   10.0506   -6.3249  -24.7363 H   0  0  0  0  0
    9.8069   -6.2510  -21.6248 H   0  0  0  0  0
   11.5618   -6.2958  -21.3258 H   0  0  0  0  0
   10.9058   -5.2686  -22.6241 H   0  0  0  0  0
   13.1355   -9.4624  -22.9757 H   0  0  0  0  0
   13.7914  -10.1511  -20.2285 H   0  0  0  0  0
   16.0905  -10.6712  -21.4634 H   0  0  0  0  0
   14.8936  -10.6703  -22.9166 H   0  0  0  0  0
   14.3129  -12.4056  -20.6365 H   0  0  0  0  0
   12.9240  -12.2630  -22.6682 H   0  0  0  0  0
   14.3299  -12.7052  -23.6676 H   0  0  0  0  0
   13.6507  -13.8816  -22.5162 H   0  0  0  0  0
   16.5820  -13.0257  -22.5659 H   0  0  0  0  0
   16.7344  -12.7699  -20.8102 H   0  0  0  0  0
   15.8391  -14.1787  -21.4303 H   0  0  0  0  0
   16.4647   -9.9552  -20.1491 H   0  0  0  0  0
   18.1175   -8.6599  -19.3465 H   0  0  0  0  0
   18.7161   -6.6224  -20.5368 H   0  0  0  0  0
   17.0786   -6.6666  -21.3772 H   0  0  0  0  0
   18.9580   -8.9644  -21.6699 H   0  0  0  0  0
   19.2740   -7.4636  -22.5958 H   0  0  0  0  0
   17.1307   -7.5452  -23.6162 H   0  0  0  0  0
   16.6378   -8.9476  -22.5396 H   0  0  0  0  0
   17.9828  -10.3825  -23.8677 H   0  0  0  0  0
   18.6187  -10.9573  -25.9816 H   0  0  0  0  0
   18.2272   -7.5133  -26.7252 H   0  0  0  0  0
   17.7292   -7.0798  -25.0865 H   0  0  0  0  0
   17.9993   -5.6111  -19.4508 H   0  0  0  0  0
   17.5733   -4.0383  -17.7749 H   0  0  0  0  0
   15.3173   -3.3767  -17.6922 H   0  0  0  0  0
   14.7386   -5.0696  -17.9990 H   0  0  0  0  0
   14.1573   -5.3114  -19.8805 H   0  0  0  0  0
   18.6644   -6.2124  -16.5918 H   0  0  0  0  0
   17.0447   -7.0511  -14.3358 H   0  0  0  0  0
   18.8144   -8.4877  -15.2165 H   0  0  0  0  0
   19.1481   -8.0503  -13.4840 H   0  0  0  0  0
   21.7056   -6.9624  -16.5230 H   0  0  0  0  0
   20.1197   -7.6606  -16.8674 H   0  0  0  0  0
   18.7686   -4.3813  -14.8709 H   0  0  0  0  0
  1  2  1  0  0  0
  2  3  1  0  0  0
  3  4  2  0  0  0
  3  5  1  0  0  0
  5  6  1  0  0  0
  6  7  1  0  0  0
  6  9  1  0  0  0
  7  8  2  0  0  0
  7 10  1  0  0  0
 10 11  1  0  0  0
 11 12  1  0  0  0
 11 14  1  0  0  0
 12 13  2  0  0  0
 12 19  1  0  0  0
 14 15  1  0  0  0
 15 16  1  0  0  0
 16 17  1  0  0  0
 17 18  1  0  0  0
 19 20  1  0  0  0
 20 21  1  0  0  0
 20 23  1  0  0  0
 21 22  2  0  0  0
 21 30  1  0  0  0
 23 24  1  0  0  0
 24 25  1  0  0  0
 25 26  1  0  0  0
 26 27  1  0  0  0
 27 28  2  0  0  0
 27 29  1  0  0  0
 30 31  1  0  0  0
 31 32  1  0  0  0
 31 34  1  0  0  0
 32 33  2  0  0  0
 32 40  1  0  0  0
 34 35  1  0  0  0
 35 36  4  0  0  0
 35 37  4  0  0  0
 36 38  4  0  0  0
 37 39  4  0  0  0
 38 39  4  0  0  0
 40 41  1  0  0  0
 41 42  1  0  0  0
 41 44  1  0  0  0
 42 43  2  0  0  0
 42 51  1  0  0  0
 44 45  1  0  0  0
 45 46  1  0  0  0
 46 47  1  0  0  0
 47 48  1  0  0  0
 48 49  1  0  0  0
 48 50  2  0  0  0
 51 52  1  0  0  0
 52 53  1  0  0  0
 52 60  1  0  0  0
 53 54  1  0  0  0
 54 55  1  0  0  0
 55 56  1  0  0  0
 56 57  1  0  0  0
 57 58  1  0  0  0
 57 59  1  0  0  0
 60 61  2  0  0  0
 60 62  1  0  0  0
 62 63  1  0  0  0
 63 64  1  0  0  0
 63 66  1  0  0  0
 64 65  2  0  0  0
 64 69  1  0  0  0
 66 67  1  0  0  0
 66 68  1  0  0  0
 69 70  1  0  0  0
 70 71  1  0  0  0
 70 73  1  0  0  0
 71 72  2  0  0  0
 71 77  1  0  0  0
 73 74  1  0  0  0
 74 75  1  0  0  0
 74 76  1  0  0  0
 77 78  1  0  0  0
 78 79  1  0  0  0
 78 81  1  0  0  0
 79 80  2  0  0  0
 79 88  1  0  0  0
 81 82  1  0  0  0
 82 83  1  0  0  0
 83 84  1  0  0  0
 84 85  1  0  0  0
 85 86  2  0  0  0
 85 87  1  0  0  0
 88 89  1  0  0  0
 89 90  1  0  0  0
 89 92  1  0  0  0
 90 91  2  0  0  0
 90 96  1  0  0  0
 92 93  1  0  0  0
 93 94  1  0  0  0
 93 95  2  0  0  0
 96 97  1  0  0  0
 97 98  1  0  0  0
 97100  1  0  0  0
 98 99  2  0  0  0
100101  1  0  0  0
101102  2  0  0  0
101103  1  0  0  0
 98104  1  0  0  0
  1105  1  0  0  0
  1106  1  0  0  0
  1107  1  0  0  0
  2108  1  0  0  0
  2109  1  0  0  0
  5110  1  0  0  0
  6111  1  0  0  0
  9112  1  0  0  0
  9113  1  0  0  0
  9114  1  0  0  0
 10115  1  0  0  0
 11116  1  0  0  0
 14117  1  0  0  0
 14118  1  0  0  0
 15119  1  0  0  0
 15120  1  0  0  0
 16121  1  0  0  0
 16122  1  0  0  0
 17123  1  0  0  0
 17124  1  0  0  0
 18125  1  0  0  0
 18126  1  0  0  0
 18127  1  0  0  0
 19128  1  0  0  0
 20129  1  0  0  0
 23130  1  0  0  0
 23131  1  0  0  0
 24132  1  0  0  0
 24133  1  0  0  0
 25134  1  0  0  0
 25135  1  0  0  0
 26136  1  0  0  0
 28137  1  0  0  0
 29138  1  0  0  0
 29139  1  0  0  0
 30140  1  0  0  0
 31141  1  0  0  0
 34142  1  0  0  0
 34143  1  0  0  0
 37144  1  0  0  0
 38145  1  0  0  0
 40146  1  0  0  0
 41147  1  0  0  0
 44148  1  0  0  0
 44149  1  0  0  0
 45150  1  0  0  0
 45151  1  0  0  0
 46152  1  0  0  0
 46153  1  0  0  0
 47154  1  0  0  0
 49155  1  0  0  0
 49156  1  0  0  0
 50157  1  0  0  0
 51158  1  0  0  0
 52159  1  0  0  0
 53160  1  0  0  0
 53161  1  0  0  0
 54162  1  0  0  0
 54163  1  0  0  0
 55164  1  0  0  0
 55165  1  0  0  0
 56166  1  0  0  0
 56167  1  0  0  0
 57168  1  0  0  0
 58169  1  0  0  0
 58170  1  0  0  0
 58171  1  0  0  0
 59172  1  0  0  0
 59173  1  0  0  0
 59174  1  0  0  0
 62175  1  0  0  0
 63176  1  0  0  0
 66177  1  0  0  0
 67178  1  0  0  0
 67179  1  0  0  0
 67180  1  0  0  0
 68181  1  0  0  0
 68182  1  0  0  0
 68183  1  0  0  0
 69184  1  0  0  0
 70185  1  0  0  0
 73186  1  0  0  0
 73187  1  0  0  0
 74188  1  0  0  0
 75189  1  0  0  0
 75190  1  0  0  0
 75191  1  0  0  0
 76192  1  0  0  0
 76193  1  0  0  0
 76194  1  0  0  0
 77195  1  0  0  0
 78196  1  0  0  0
 81197  1  0  0  0
 81198  1  0  0  0
 82199  1  0  0  0
 82200  1  0  0  0
 83201  1  0  0  0
 83202  1  0  0  0
 84203  1  0  0  0
 86204  1  0  0  0
 87205  1  0  0  0
 87206  1  0  0  0
 88207  1  0  0  0
 89208  1  0  0  0
 92209  1  0  0  0
 92210  1  0  0  0
 94211  1  0  0  0
 96212  1  0  0  0
 97213  1  0  0  0
100214  1  0  0  0
100215  1  0  0  0
103216  1  0  0  0
103217  1  0  0  0
104218  1  0  0  0
M  END
$$$$
