2viz_ligand
  -I-interpret- 

 89 92  0  0  0  0  0  0  0  0999 V2000
   31.5100   -0.9090   37.2850 C   0  0  0  0  0
   31.3940    0.2350   36.4430 C   0  0  0  0  0
   30.8080    0.1230   35.1650 C   0  0  0  0  0
   30.3370   -1.1480   34.7260 C   0  0  0  0  0
   30.4410   -2.3070   35.5580 C   0  0  0  0  0
   31.0320   -2.1620   36.8280 C   0  0  0  0  0
   30.6730    1.2520   34.2370 C   0  0  0  0  0
   29.4940    1.3460   33.5510 N   0  0  0  0  0
   31.5890    2.0580   34.0460 O   0  0  0  0  0
   29.2670    2.3960   32.5350 C   0  0  0  0  0
   28.6550    1.7260   31.2730 C   0  0  0  0  0
   28.3700    3.5250   33.0850 C   0  0  0  0  0
   28.0910    4.4570   32.0560 O   0  0  0  0  0
   29.2650    0.3720   30.9310 C   0  0  0  0  0
   29.0500    4.2820   34.2300 C   0  0  0  0  0
   28.3790    5.5520   34.4680 N   0  3  0  0  0
   29.0770    6.7470   34.9730 C   0  0  0  0  0
   30.1520    7.1400   33.9370 C   0  0  0  0  0
   29.6650    7.8810   32.9270 N   0  0  0  0  0
   31.3230    6.7800   34.0550 O   0  0  0  0  0
   30.5040    8.3530   31.8250 C   0  0  0  0  0
   29.7210    6.4610   36.3500 C   0  0  0  0  0
   30.9800    9.8000   32.1030 C   0  0  0  0  0
   31.8630   10.3140   30.9390 C   0  0  0  0  0
   31.1300   10.2120   29.5710 C   0  0  0  0  0
   30.5810    8.7850   29.3120 C   0  0  0  0  0
   29.7130    8.2840   30.4930 C   0  0  0  0  0
   28.4140   -0.7390   30.7090 C   0  0  0  0  0
   28.9530   -2.0140   30.3910 C   0  0  0  0  0
   30.3560   -2.1900   30.2930 C   0  0  0  0  0
   31.2180   -1.0890   30.5100 C   0  0  0  0  0
   30.6750    0.1830   30.8250 C   0  0  0  0  0
   29.9560   -3.5530   35.0730 O   0  0  0  0  0
   29.0920   -3.5810   33.9340 C   0  0  0  0  0
   27.6400   -3.4750   34.4080 C   0  0  0  0  0
   26.6630   -3.4700   33.2430 C   0  0  0  0  0
   32.0900   -0.8130   38.5260 N   0  0  0  0  0
   33.4440   -0.2710   38.6680 C   0  0  0  0  0
   33.7540   -0.3290   40.1530 C   0  0  0  0  0
   32.5450   -0.9630   40.8390 C   0  0  0  0  0
   31.5470   -1.2080   39.7110 C   0  0  0  0  0
   30.4390   -1.6990   39.8990 O   0  0  0  0  0
   31.7601    1.2018   36.7886 H   0  0  0  0  0
   29.8886   -1.2390   33.7367 H   0  0  0  0  0
   31.1239   -3.0345   37.4748 H   0  0  0  0  0
   28.7515    0.6741   33.7452 H   0  0  0  0  0
   30.2128    2.8676   32.2683 H   0  0  0  0  0
   28.8478    2.3892   30.4297 H   0  0  0  0  0
   27.5968    1.5614   31.4759 H   0  0  0  0  0
   27.4561    3.0606   33.4553 H   0  0  0  0  0
   27.5330    5.1571   32.4026 H   0  0  0  0  0
   30.0886    4.4742   33.9610 H   0  0  0  0  0
   28.9976    3.6776   35.1356 H   0  0  0  0  0
   27.7243    5.3314   35.2184 H   0  0  0  0  0
   28.0803    5.8350   33.5347 H   0  0  0  0  0
   28.3711    7.5663   35.1096 H   0  0  0  0  0
   28.6742    8.1232   32.9287 H   0  0  0  0  0
   31.3813    7.7115   31.7417 H   0  0  0  0  0
   28.9447    6.1782   37.0610 H   0  0  0  0  0
   30.4394    5.6472   36.2517 H   0  0  0  0  0
   30.2311    7.3568   36.7042 H   0  0  0  0  0
   31.5654    9.8096   33.0224 H   0  0  0  0  0
   30.1082   10.4473   32.1985 H   0  0  0  0  0
   32.7620    9.6994   30.8931 H   0  0  0  0  0
   32.0991   11.3618   31.1244 H   0  0  0  0  0
   31.8439   10.4511   28.7828 H   0  0  0  0  0
   30.2883   10.9044   29.5825 H   0  0  0  0  0
   31.4265    8.1071   29.1946 H   0  0  0  0  0
   29.9605    8.8124   28.4163 H   0  0  0  0  0
   28.8305    8.9185   30.5748 H   0  0  0  0  0
   29.4287    7.2485   30.3060 H   0  0  0  0  0
   27.3338   -0.6138   30.7831 H   0  0  0  0  0
   28.2860   -2.8593   30.2219 H   0  0  0  0  0
   30.7692   -3.1693   30.0515 H   0  0  0  0  0
   32.2977   -1.2182   30.4352 H   0  0  0  0  0
   31.3443    1.0277   30.9883 H   0  0  0  0  0
   29.2335   -4.5136   33.3878 H   0  0  0  0  0
   29.3256   -2.7452   33.2745 H   0  0  0  0  0
   27.5260   -2.5386   34.9541 H   0  0  0  0  0
   27.4208   -4.3396   35.0346 H   0  0  0  0  0
   26.8750   -2.6185   32.5964 H   0  0  0  0  0
   26.7712   -4.3945   32.6757 H   0  0  0  0  0
   25.6449   -3.3935   33.6246 H   0  0  0  0  0
   33.5067    0.7486   38.2876 H   0  0  0  0  0
   34.1659   -0.8457   38.0878 H   0  0  0  0  0
   33.9401    0.6702   40.5468 H   0  0  0  0  0
   34.6530   -0.9175   40.3360 H   0  0  0  0  0
   32.1325   -0.3185   41.6153 H   0  0  0  0  0
   32.8079   -1.8848   41.3579 H   0  0  0  0  0
  1  2  4  0  0  0
  1  6  4  0  0  0
  1 37  1  0  0  0
  2  3  4  0  0  0
  3  4  4  0  0  0
  3  7  1  0  0  0
  4  5  4  0  0  0
  5  6  4  0  0  0
  5 33  1  0  0  0
  7  8  1  0  0  0
  7  9  2  0  0  0
  8 10  1  0  0  0
 10 11  1  0  0  0
 10 12  1  0  0  0
 11 14  1  0  0  0
 12 13  1  0  0  0
 12 15  1  0  0  0
 14 28  4  0  0  0
 14 32  4  0  0  0
 15 16  1  0  0  0
 16 17  1  0  0  0
 17 18  1  0  0  0
 17 22  1  0  0  0
 18 19  1  0  0  0
 18 20  2  0  0  0
 19 21  1  0  0  0
 21 23  1  0  0  0
 21 27  1  0  0  0
 23 24  1  0  0  0
 24 25  1  0  0  0
 25 26  1  0  0  0
 26 27  1  0  0  0
 28 29  4  0  0  0
 29 30  4  0  0  0
 30 31  4  0  0  0
 31 32  4  0  0  0
 33 34  1  0  0  0
 34 35  1  0  0  0
 35 36  1  0  0  0
 37 38  1  0  0  0
 37 41  1  0  0  0
 38 39  1  0  0  0
 39 40  1  0  0  0
 40 41  1  0  0  0
 41 42  2  0  0  0
  2 43  1  0  0  0
  4 44  1  0  0  0
  6 45  1  0  0  0
  8 46  1  0  0  0
 10 47  1  0  0  0
 11 48  1  0  0  0
 11 49  1  0  0  0
 12 50  1  0  0  0
 13 51  1  0  0  0
 15 52  1  0  0  0
 15 53  1  0  0  0
 16 54  1  0  0  0
 16 55  1  0  0  0
 17 56  1  0  0  0
 19 57  1  0  0  0
 21 58  1  0  0  0
 22 59  1  0  0  0
 22 60  1  0  0  0
 22 61  1  0  0  0
 23 62  1  0  0  0
 23 63  1  0  0  0
 24 64  1  0  0  0
 24 65  1  0  0  0
 25 66  1  0  0  0
 25 67  1  0  0  0
 26 68  1  0  0  0
 26 69  1  0  0  0
 27 70  1  0  0  0
 27 71  1  0  0  0
 28 72  1  0  0  0
 29 73  1  0  0  0
 30 74  1  0  0  0
 31 75  1  0  0  0
 32 76  1  0  0  0
 34 77  1  0  0  0
 34 78  1  0  0  0
 35 79  1  0  0  0
 35 80  1  0  0  0
 36 81  1  0  0  0
 36 82  1  0  0  0
 36 83  1  0  0  0
 38 84  1  0  0  0
 38 85  1  0  0  0
 39 86  1  0  0  0
 39 87  1  0  0  0
 40 88  1  0  0  0
 40 89  1  0  0  0
M  END
$$$$
