2qq7_ligand
  -I-interpret- 

 50 52  0  0  0  0  0  0  0  0999 V2000
    6.4920   -4.9110   -8.4140 C   0  0  0  0  0
    5.5350   -4.4390   -9.3070 C   0  0  0  0  0
    5.9640   -4.3990  -11.1730 Br  0  0  0  0  0
    4.2920   -4.0070   -8.8180 C   0  0  0  0  0
    4.0220   -4.0460   -7.4430 C   0  0  0  0  0
    4.9890   -4.5210   -6.5550 C   0  0  0  0  0
    6.2250   -4.9490   -7.0470 C   0  0  0  0  0
    7.1450   -5.4100   -6.2050 N   0  0  0  0  0
    8.4580   -5.1500   -6.3030 C   0  0  0  0  0
    9.3400   -5.8390   -5.4670 C   0  0  0  0  0
    8.8800   -6.7950   -4.5380 C   0  0  0  0  0
    8.9590   -4.2290   -7.1720 N   0  0  0  0  0
   10.2650   -3.9730   -7.2490 C   0  0  0  0  0
   11.1330   -4.6240   -6.4790 N   0  0  0  0  0
   10.7070   -5.5430   -5.5900 C   0  0  0  0  0
   11.6230   -6.1960   -4.7810 C   0  0  0  0  0
   11.1650   -7.1360   -3.8630 C   0  0  0  0  0
    9.8080   -7.4500   -3.7290 C   0  0  0  0  0
    9.5110   -8.3540   -2.7820 N   0  0  0  0  0
    8.5050   -8.2370   -1.8920 C   0  0  0  0  0
    7.6640   -7.3310   -1.8730 O   0  0  0  0  0
    8.4440   -9.3830   -0.8680 C   0  0  0  0  0
    7.6910   -9.1230    0.4720 C   0  0  0  0  0
    6.1500   -9.0200    0.2960 C   0  0  0  0  0
    5.4880   -9.6940    1.4510 N   0  3  0  0  0
    4.0320   -9.6820    1.2150 C   0  0  0  0  0
    5.7730   -9.0290    2.7260 C   0  0  0  0  0
    7.4574   -5.2535   -8.7865 H   0  0  0  0  0
    3.5341   -3.6399   -9.5100 H   0  0  0  0  0
    3.0572   -3.7055   -7.0671 H   0  0  0  0  0
    4.7814   -4.5577   -5.4856 H   0  0  0  0  0
    6.8323   -6.0000   -5.4339 H   0  0  0  0  0
    7.8165   -7.0183   -4.4536 H   0  0  0  0  0
   10.6260   -3.2214   -7.9511 H   0  0  0  0  0
   12.6875   -5.9764   -4.8626 H   0  0  0  0  0
   11.8883   -7.6454   -3.2262 H   0  0  0  0  0
   10.0899   -9.1923   -2.7320 H   0  0  0  0  0
    9.4791   -9.5764   -0.5866 H   0  0  0  0  0
    7.8921  -10.1835   -1.3606 H   0  0  0  0  0
    8.0430   -8.1714    0.8703 H   0  0  0  0  0
    7.8930   -9.9650    1.1340 H   0  0  0  0  0
    5.8514   -9.5032   -0.6343 H   0  0  0  0  0
    5.8516   -7.9723    0.2592 H   0  0  0  0  0
    5.8513  -10.6448    1.5179 H   0  0  0  0  0
    3.6871   -8.6513    1.1326 H   0  0  0  0  0
    3.8106  -10.2155    0.2906 H   0  0  0  0  0
    3.5262  -10.1703    2.0479 H   0  0  0  0  0
    6.8483   -9.0338    2.9045 H   0  0  0  0  0
    5.4147   -8.0004    2.6859 H   0  0  0  0  0
    5.2672   -9.5601    3.5323 H   0  0  0  0  0
  1  2  4  0  0  0
  1  7  4  0  0  0
  2  3  1  0  0  0
  2  4  4  0  0  0
  4  5  4  0  0  0
  5  6  4  0  0  0
  6  7  4  0  0  0
  7  8  1  0  0  0
  8  9  1  0  0  0
  9 10  4  0  0  0
  9 12  4  0  0  0
 10 11  4  0  0  0
 10 15  4  0  0  0
 11 18  4  0  0  0
 12 13  4  0  0  0
 13 14  4  0  0  0
 14 15  4  0  0  0
 15 16  4  0  0  0
 16 17  4  0  0  0
 17 18  4  0  0  0
 18 19  1  0  0  0
 19 20  1  0  0  0
 20 21  2  0  0  0
 20 22  1  0  0  0
 22 23  1  0  0  0
 23 24  1  0  0  0
 24 25  1  0  0  0
 25 26  1  0  0  0
 25 27  1  0  0  0
  1 28  1  0  0  0
  4 29  1  0  0  0
  5 30  1  0  0  0
  6 31  1  0  0  0
  8 32  1  0  0  0
 11 33  1  0  0  0
 13 34  1  0  0  0
 16 35  1  0  0  0
 17 36  1  0  0  0
 19 37  1  0  0  0
 22 38  1  0  0  0
 22 39  1  0  0  0
 23 40  1  0  0  0
 23 41  1  0  0  0
 24 42  1  0  0  0
 24 43  1  0  0  0
 25 44  1  0  0  0
 26 45  1  0  0  0
 26 46  1  0  0  0
 26 47  1  0  0  0
 27 48  1  0  0  0
 27 49  1  0  0  0
 27 50  1  0  0  0
M  END
$$$$
