5ea6_ligand
  -I-interpret- 

 48 52  0  0  0  0  0  0  0  0999 V2000
   19.2620   21.0940   21.5910 C   0  0  0  0  0
   21.6120   18.5500   21.6150 C   0  0  0  0  0
   17.4830   19.1950   20.4890 C   0  0  0  0  0
   19.5960   20.1780   17.5700 C   0  0  0  0  0
   16.2230   19.6110   21.2360 C   0  0  0  0  0
   21.3140   15.2500   19.2020 C   0  0  0  0  0
   19.9910   20.9790   16.3400 C   0  0  0  0  0
   21.1850   21.9190   16.4080 C   0  0  0  0  0
   15.0470   18.6560   21.1560 C   0  0  0  0  0
   13.7570   20.1980   22.7140 C   0  0  0  0  0
   21.6590   22.8580   15.0300 Cl  0  0  0  0  0
   22.3930   18.4140   22.5420 O   0  0  0  0  0
   17.3970   18.2300   19.7550 O   0  0  0  0  0
   20.8360   19.7560   21.3110 N   0  0  0  0  0
   18.7610   19.8310   20.6870 N   0  0  0  0  0
   20.3260   15.8080   18.2650 N   0  3  0  0  0
   13.8260   18.9820   21.8880 N   0  0  0  0  0
   19.9700   19.4850   20.1170 C   0  0  0  0  0
   20.7200   20.7730   21.8480 C   0  0  0  0  0
   20.3330   18.0680   19.6160 C   0  0  0  0  0
   20.4130   20.2790   18.8550 C   0  0  0  0  0
   21.2830   17.4990   20.5470 C   0  0  0  0  0
   19.8210   17.1800   18.4600 C   0  0  0  0  0
   21.5850   21.2560   18.8930 C   0  0  0  0  0
   21.8010   16.1080   20.3630 C   0  0  0  0  0
   21.9920   22.0630   17.6780 C   0  0  0  0  0
   16.1550   20.8290   22.0690 C   0  0  0  0  0
   14.9320   21.1510   22.8090 C   0  0  0  0  0
   18.6870   21.2100   22.5097 H   0  0  0  0  0
   19.1225   22.0525   21.0912 H   0  0  0  0  0
   18.7228   19.5267   17.5339 H   0  0  0  0  0
   22.2020   15.0677   18.5968 H   0  0  0  0  0
   20.8094   14.4051   19.6706 H   0  0  0  0  0
   19.4224   20.8805   15.4153 H   0  0  0  0  0
   15.1121   17.7436   20.5633 H   0  0  0  0  0
   12.8441   20.4175   23.2677 H   0  0  0  0  0
   19.5040   15.2146   18.3766 H   0  0  0  0  0
   20.8125   15.8394   17.3690 H   0  0  0  0  0
   20.9758   20.7360   22.9069 H   0  0  0  0  0
   21.4039   21.5380   21.4804 H   0  0  0  0  0
   18.7640   17.0399   18.6862 H   0  0  0  0  0
   20.1436   17.7075   17.5624 H   0  0  0  0  0
   22.1447   21.3762   19.8206 H   0  0  0  0  0
   22.8657   16.2409   20.1710 H   0  0  0  0  0
   21.4622   15.5753   21.2516 H   0  0  0  0  0
   22.8498   22.7343   17.7184 H   0  0  0  0  0
   17.0184   21.4912   22.1335 H   0  0  0  0  0
   14.8685   22.0554   23.4141 H   0  0  0  0  0
 15  1  1  0  0  0
  1 19  1  0  0  0
  2 12  2  0  0  0
  2 14  1  0  0  0
 22  2  1  0  0  0
  3  5  1  0  0  0
  3 13  2  0  0  0
 15  3  1  0  0  0
  4  7  4  0  0  0
 21  4  4  0  0  0
  5  9  4  0  0  0
  5 27  4  0  0  0
 16  6  1  0  0  0
  6 25  1  0  0  0
  7  8  4  0  0  0
  8 11  1  0  0  0
  8 26  4  0  0  0
  9 17  4  0  0  0
 17 10  4  0  0  0
 10 28  4  0  0  0
 18 14  1  0  0  0
 14 19  1  0  0  0
 18 15  1  0  0  0
 23 16  1  0  0  0
 20 18  1  0  0  0
 18 21  1  0  0  0
 20 22  2  0  0  0
 20 23  1  0  0  0
 21 24  4  0  0  0
 22 25  1  0  0  0
 24 26  4  0  0  0
 27 28  4  0  0  0
  1 29  1  0  0  0
  1 30  1  0  0  0
  4 31  1  0  0  0
  6 32  1  0  0  0
  6 33  1  0  0  0
  7 34  1  0  0  0
  9 35  1  0  0  0
 10 36  1  0  0  0
 16 37  1  0  0  0
 16 38  1  0  0  0
 19 39  1  0  0  0
 19 40  1  0  0  0
 23 41  1  0  0  0
 23 42  1  0  0  0
 24 43  1  0  0  0
 25 44  1  0  0  0
 25 45  1  0  0  0
 26 46  1  0  0  0
 27 47  1  0  0  0
 28 48  1  0  0  0
M  END
$$$$
