6hay_ligand
  -I-interpret- 

126132  0  0  0  0  0  0  0  0999 V2000
  -29.7950   12.9450  -32.7470 N   0  0  0  0  0
  -29.1670   12.7010  -30.4490 C   0  0  0  0  0
  -28.9650   15.7060  -30.2100 C   0  0  0  0  0
  -31.1130   15.0800  -31.2880 C   0  0  0  0  0
  -29.2340   15.9300  -32.6680 C   0  0  0  0  0
  -28.1290   11.5300  -28.5840 C   0  0  0  0  0
  -26.7290   13.0580  -29.8610 C   0  0  0  0  0
  -29.1810   11.8950  -27.5410 C   0  0  0  0  0
  -30.4410   11.4570  -23.2080 C   0  0  0  0  0
  -29.8080   11.3540  -21.9760 C   0  0  0  0  0
  -28.5720   10.7150  -21.8720 C   0  0  0  0  0
  -28.5950   10.3340  -24.2500 C   0  0  0  0  0
  -28.4400   10.0700  -19.3600 C   0  0  0  0  0
  -26.3700   10.4490  -18.7100 C   0  0  0  0  0
  -29.0690   13.6130  -31.6800 C   0  0  0  0  0
  -29.5910   15.0670  -31.4520 C   0  0  0  0  0
  -28.0650   12.4790  -29.7070 N   0  0  0  0  0
  -30.2010   12.0850  -30.2440 O   0  0  0  0  0
  -26.7150   11.5940  -27.9780 C   0  0  0  0  0
  -25.8410   12.0580  -29.1350 C   0  0  0  0  0
  -25.5020   10.9410  -29.9640 O   0  0  0  0  0
  -29.5030   13.0620  -27.3510 O   0  0  0  0  0
  -29.6800   10.8780  -26.8430 N   0  0  0  0  0
  -30.5480   11.0900  -25.6950 C   0  0  0  0  0
  -29.8460   10.9380  -24.3650 C   0  0  0  0  0
  -27.9740   10.2070  -23.0210 C   0  0  0  0  0
  -27.9360   10.5470  -20.5470 C   0  0  0  0  0
  -27.5310   10.0330  -18.3190 N   0  0  0  0  0
  -26.2610   10.9230  -20.3560 S   0  0  0  0  0
  -29.8340    9.6030  -19.0940 C   0  0  0  0  0
  -29.3750   12.5680  -33.9580 C   0  0  0  0  0
  -30.5130   12.0550  -34.8580 C   0  0  0  0  0
  -28.2110   12.6280  -34.3400 O   0  0  0  0  0
  -31.7120   11.8240  -34.1400 F   0  0  0  0  0
  -30.7080   12.5640  -36.2290 C   0  0  0  0  0
  -30.2870   11.1370  -35.9930 C   0  0  0  0  0
  -31.6270   12.1260  -23.4290 O   0  0  0  0  0
  -32.3080   12.7930  -22.3550 C   0  0  0  0  0
  -31.7960   14.8760  -23.5280 O   0  0  0  0  0
  -30.4890   15.2480  -23.9350 C   0  0  0  0  0
  -30.3820   16.6830  -24.3050 C   0  0  0  0  0
  -30.9640   16.9610  -25.5780 O   0  0  0  0  0
  -31.8060   14.2080  -22.2630 C   0  0  0  0  0
  -31.8210   18.0800  -25.5210 C   0  0  0  0  0
  -32.0100   18.6970  -26.8900 C   0  0  0  0  0
  -32.8760   17.9520  -27.8240 N   0  3  0  0  0
  -33.9920   17.2640  -27.1690 C   0  0  0  0  0
  -34.7180   16.3790  -28.1750 C   0  0  0  0  0
  -35.1710   17.1640  -29.3290 N   0  0  0  0  0
  -34.1450   18.0280  -29.9250 C   0  0  0  0  0
  -33.4240   18.8400  -28.8540 C   0  0  0  0  0
  -36.0940   16.5550  -30.2140 C   0  0  0  0  0
  -37.4240   16.9630  -30.2460 C   0  0  0  0  0
  -38.3160   16.3260  -31.1050 C   0  0  0  0  0
  -37.9170   15.3450  -31.9250 N   0  0  0  0  0
  -36.6230   14.9570  -31.9530 N   0  0  0  0  0
  -35.7180   15.5110  -31.1200 C   0  0  0  0  0
  -34.4880   14.9890  -31.2260 N   0  0  0  0  0
  -39.7590   16.6980  -31.1630 C   0  0  0  0  0
  -40.6550   16.0640  -32.0390 C   0  0  0  0  0
  -41.9860   16.4870  -32.1210 C   0  0  0  0  0
  -42.4430   17.5060  -31.3010 C   0  0  0  0  0
  -41.5820   18.1180  -30.4110 C   0  0  0  0  0
  -40.2510   17.7320  -30.3520 C   0  0  0  0  0
  -40.2530   15.1060  -32.9160 O   0  0  0  0  0
  -30.7710   12.7322  -32.5406 H   0  0  0  0  0
  -29.2139   15.1102  -29.3318 H   0  0  0  0  0
  -27.8823   15.7447  -30.3295 H   0  0  0  0  0
  -29.3546   16.7166  -30.0874 H   0  0  0  0  0
  -31.5776   14.6767  -32.1878 H   0  0  0  0  0
  -31.3899   14.4684  -30.4293 H   0  0  0  0  0
  -31.4514   16.1041  -31.1305 H   0  0  0  0  0
  -28.1516   15.9460  -32.7954 H   0  0  0  0  0
  -29.6999   15.5099  -33.5594 H   0  0  0  0  0
  -29.5976   16.9454  -32.5106 H   0  0  0  0  0
  -28.4215   10.5357  -28.9214 H   0  0  0  0  0
  -26.6542   14.0658  -29.4525 H   0  0  0  0  0
  -26.4453   13.1975  -30.9041 H   0  0  0  0  0
  -30.2786   11.7740  -21.0870 H   0  0  0  0  0
  -28.0982    9.9556  -25.1434 H   0  0  0  0  0
  -25.5145   10.4955  -18.0362 H   0  0  0  0  0
  -28.0179   13.7566  -31.9302 H   0  0  0  0  0
  -26.3933   10.6333  -27.5758 H   0  0  0  0  0
  -26.6614   12.2678  -27.1228 H   0  0  0  0  0
  -24.8920   12.4989  -28.8298 H   0  0  0  0  0
  -24.9432   10.3359  -29.4709 H   0  0  0  0  0
  -29.4477    9.9243  -27.1203 H   0  0  0  0  0
  -31.3333   10.3352  -25.7368 H   0  0  0  0  0
  -30.9193   12.1132  -25.7521 H   0  0  0  0  0
  -27.0089    9.7052  -22.9519 H   0  0  0  0  0
  -30.5315   10.4189  -19.2834 H   0  0  0  0  0
  -30.0665    8.7647  -19.7507 H   0  0  0  0  0
  -29.9174    9.2859  -18.0545 H   0  0  0  0  0
  -30.4140   13.4182  -36.8389 H   0  0  0  0  0
  -31.4507   13.1184  -36.8028 H   0  0  0  0  0
  -30.5687   10.1324  -36.3083 H   0  0  0  0  0
  -29.5339   10.4317  -36.3444 H   0  0  0  0  0
  -32.1153   12.2722  -21.4171 H   0  0  0  0  0
  -33.3814   12.7947  -22.5444 H   0  0  0  0  0
  -30.2353   14.6583  -24.8159 H   0  0  0  0  0
  -29.8169   15.0708  -23.0954 H   0  0  0  0  0
  -29.3241   16.9408  -24.3541 H   0  0  0  0  0
  -30.9169   17.2656  -23.5550 H   0  0  0  0  0
  -30.7806   14.1751  -21.8947 H   0  0  0  0  0
  -32.4752   14.7572  -21.6008 H   0  0  0  0  0
  -31.3754   18.8256  -24.8625 H   0  0  0  0  0
  -32.7927   17.7547  -25.1495 H   0  0  0  0  0
  -31.0220   18.7290  -27.3494 H   0  0  0  0  0
  -32.4944   19.6597  -26.7266 H   0  0  0  0  0
  -32.2708   17.2445  -28.2405 H   0  0  0  0  0
  -34.6878   18.0038  -26.7731 H   0  0  0  0  0
  -33.6070   16.6455  -26.3582 H   0  0  0  0  0
  -35.5870   15.9350  -27.6893 H   0  0  0  0  0
  -34.0318   15.6069  -28.5230 H   0  0  0  0  0
  -34.6276   18.7158  -30.6194 H   0  0  0  0  0
  -33.4158   17.4015  -30.4386 H   0  0  0  0  0
  -32.6074   19.3938  -29.3172 H   0  0  0  0  0
  -34.1327   19.5267  -28.3911 H   0  0  0  0  0
  -37.7650   17.7749  -29.6037 H   0  0  0  0  0
  -33.7341   15.3354  -30.6327 H   0  0  0  0  0
  -34.3059   14.2453  -31.8999 H   0  0  0  0  0
  -42.6645   16.0142  -32.8311 H   0  0  0  0  0
  -43.4836   17.8252  -31.3583 H   0  0  0  0  0
  -41.9493   18.9060  -29.7536 H   0  0  0  0  0
  -39.5757   18.2406  -29.6639 H   0  0  0  0  0
  -41.0091   14.7993  -33.4219 H   0  0  0  0  0
 15  1  1  0  0  0
  1 31  1  0  0  0
  2 15  1  0  0  0
 17  2  1  0  0  0
  2 18  2  0  0  0
 16  3  1  0  0  0
 16  4  1  0  0  0
 16  5  1  0  0  0
  8  6  1  0  0  0
  6 17  1  0  0  0
  6 19  1  0  0  0
 17  7  1  0  0  0
 20  7  1  0  0  0
  8 22  2  0  0  0
 23  8  1  0  0  0
  9 10  4  0  0  0
  9 25  4  0  0  0
 37  9  1  0  0  0
 10 11  4  0  0  0
 11 26  4  0  0  0
 11 27  1  0  0  0
 25 12  4  0  0  0
 12 26  4  0  0  0
 27 13  4  0  0  0
 13 28  4  0  0  0
 13 30  1  0  0  0
 14 28  4  0  0  0
 29 14  4  0  0  0
 15 16  1  0  0  0
 19 20  1  0  0  0
 20 21  1  0  0  0
 24 23  1  0  0  0
 25 24  1  0  0  0
 27 29  4  0  0  0
 31 32  1  0  0  0
 31 33  2  0  0  0
 32 34  1  0  0  0
 32 35  1  0  0  0
 32 36  1  0  0  0
 36 35  1  0  0  0
 38 37  1  0  0  0
 43 38  1  0  0  0
 39 40  1  0  0  0
 39 43  1  0  0  0
 40 41  1  0  0  0
 41 42  1  0  0  0
 42 44  1  0  0  0
 44 45  1  0  0  0
 45 46  1  0  0  0
 46 47  1  0  0  0
 46 51  1  0  0  0
 47 48  1  0  0  0
 48 49  1  0  0  0
 49 50  1  0  0  0
 49 52  1  0  0  0
 50 51  1  0  0  0
 52 53  4  0  0  0
 52 57  4  0  0  0
 53 54  4  0  0  0
 54 55  4  0  0  0
 54 59  1  0  0  0
 55 56  4  0  0  0
 56 57  4  0  0  0
 57 58  1  0  0  0
 59 60  4  0  0  0
 59 64  4  0  0  0
 60 61  4  0  0  0
 60 65  1  0  0  0
 61 62  4  0  0  0
 62 63  4  0  0  0
 63 64  4  0  0  0
  1 66  1  0  0  0
  3 67  1  0  0  0
  3 68  1  0  0  0
  3 69  1  0  0  0
  4 70  1  0  0  0
  4 71  1  0  0  0
  4 72  1  0  0  0
  5 73  1  0  0  0
  5 74  1  0  0  0
  5 75  1  0  0  0
  6 76  1  0  0  0
  7 77  1  0  0  0
  7 78  1  0  0  0
 10 79  1  0  0  0
 12 80  1  0  0  0
 14 81  1  0  0  0
 15 82  1  0  0  0
 19 83  1  0  0  0
 19 84  1  0  0  0
 20 85  1  0  0  0
 21 86  1  0  0  0
 23 87  1  0  0  0
 24 88  1  0  0  0
 24 89  1  0  0  0
 26 90  1  0  0  0
 30 91  1  0  0  0
 30 92  1  0  0  0
 30 93  1  0  0  0
 35 94  1  0  0  0
 35 95  1  0  0  0
 36 96  1  0  0  0
 36 97  1  0  0  0
 38 98  1  0  0  0
 38 99  1  0  0  0
 40100  1  0  0  0
 40101  1  0  0  0
 41102  1  0  0  0
 41103  1  0  0  0
 43104  1  0  0  0
 43105  1  0  0  0
 44106  1  0  0  0
 44107  1  0  0  0
 45108  1  0  0  0
 45109  1  0  0  0
 46110  1  0  0  0
 47111  1  0  0  0
 47112  1  0  0  0
 48113  1  0  0  0
 48114  1  0  0  0
 50115  1  0  0  0
 50116  1  0  0  0
 51117  1  0  0  0
 51118  1  0  0  0
 53119  1  0  0  0
 58120  1  0  0  0
 58121  1  0  0  0
 61122  1  0  0  0
 62123  1  0  0  0
 63124  1  0  0  0
 64125  1  0  0  0
 65126  1  0  0  0
M  END
$$$$
