1mm6_ligand
  -I-interpret- 

 21 21  0  0  0  0  0  0  0  0999 V2000
   31.4820   53.5320    6.4030 C   0  0  0  0  0
   31.2240   53.7010    4.9040 C   0  0  0  0  0
   32.1030   54.8840    4.4700 C   0  0  0  0  0
   33.5190   53.7800    2.6490 C   0  0  0  0  0
   32.2350   54.4870    0.9390 C   0  0  0  0  0
   29.7520   53.8920    4.7920 N   0  3  0  0  0
   32.6260   54.7210    3.1040 N   0  0  0  0  0
   33.2570   53.6660    1.3270 N   0  0  0  0  0
   30.5110   53.5130    7.1890 O   0  0  0  0  0
   32.6770   53.4180    6.7760 O   0  0  0  0  0
   34.3390   53.2160    3.3450 O   0  0  0  0  0
   31.7230   54.6570   -0.1470 O   0  0  0  0  0
   31.8060   55.1660    2.0290 O   0  0  0  0  0
   31.4856   52.8704    4.2485 H   0  0  0  0  0
   32.9514   54.9424    5.1518 H   0  0  0  0  0
   31.4908   55.7856    4.4920 H   0  0  0  0  0
   29.2758   53.0465    5.1061 H   0  0  0  0  0
   29.4674   54.6800    5.3737 H   0  0  0  0  0
   29.5077   54.0799    3.8197 H   0  0  0  0  0
   33.7609   53.0429    0.6959 H   0  0  0  0  0
   33.2552   53.4598    6.0108 H   0  0  0  0  0
  2  1  1  0  0  0
  1  9  2  0  0  0
  1 10  1  0  0  0
  3  2  1  0  0  0
  2  6  1  0  0  0
  7  3  1  0  0  0
 13  7  1  0  0  0
  5 13  1  0  0  0
  5 12  2  0  0  0
  4 11  2  0  0  0
  8  5  1  0  0  0
  8  4  1  0  0  0
  7  4  1  0  0  0
  2 14  1  0  0  0
  3 15  1  0  0  0
  3 16  1  0  0  0
  6 17  1  0  0  0
  6 18  1  0  0  0
  6 19  1  0  0  0
  8 20  1  0  0  0
 10 21  1  0  0  0
M  END
$$$$
