4pml_ligand
  -I-interpret- 

 18 18  0  0  0  0  0  0  0  0999 V2000
   27.3970   49.0010    0.7630 N   0  0  0  0  0
   26.1730   49.3540    0.3560 C   0  0  0  0  0
   25.3920   48.4730   -0.4100 C   0  0  0  0  0
   25.6650   50.6060    0.7180 C   0  0  0  0  0
   24.3870   50.9940    0.3040 C   0  0  0  0  0
   23.6120   50.1130   -0.4600 C   0  0  0  0  0
   24.1050   48.8570   -0.8330 C   0  0  0  0  0
   23.2190   47.9290   -1.6900 C   0  0  0  0  0
   22.3520   48.3930   -2.4370 O   0  0  0  0  0
   23.4220   46.6200   -1.5440 N   0  0  0  0  0
   27.7715   48.0846    0.5175 H   0  0  0  0  0
   27.9560   49.6482    1.3189 H   0  0  0  0  0
   25.7826   47.4911   -0.6773 H   0  0  0  0  0
   26.2676   51.2816    1.3250 H   0  0  0  0  0
   23.9969   51.9753    0.5741 H   0  0  0  0  0
   22.6097   50.4096   -0.7690 H   0  0  0  0  0
   22.8484   45.9541   -2.0616 H   0  0  0  0  0
   24.1510   46.2840   -0.9146 H   0  0  0  0  0
  1  2  1  0  0  0
  2  3  4  0  0  0
  2  4  4  0  0  0
  3  7  4  0  0  0
  4  5  4  0  0  0
  5  6  4  0  0  0
  6  7  4  0  0  0
  7  8  1  0  0  0
  8  9  2  0  0  0
  8 10  1  0  0  0
  1 11  1  0  0  0
  1 12  1  0  0  0
  3 13  1  0  0  0
  4 14  1  0  0  0
  5 15  1  0  0  0
  6 16  1  0  0  0
 10 17  1  0  0  0
 10 18  1  0  0  0
M  END
$$$$
