4iwz_ligand
  -I-interpret- 

 26 27  0  0  0  0  0  0  0  0999 V2000
   15.9710    6.2210   13.0720 C   0  0  0  0  0
   15.1750    7.6390   11.2450 C   0  0  0  0  0
   13.2450    8.4180   10.2330 C   0  0  0  0  0
   15.8180   -0.2890   16.0430 N   0  0  0  0  0
   15.3360    1.1360   16.6710 S   0  0  0  0  0
   15.7240    1.2590   18.0630 O   0  0  0  0  0
   13.9090    1.3420   16.5480 O   0  0  0  0  0
   16.0920    2.4190   15.7700 C   0  0  0  0  0
   17.4180    2.5520   15.6450 N   0  0  0  0  0
   17.8030    3.6070   14.9020 N   0  0  0  0  0
   16.8150    4.3570   14.4170 C   0  0  0  0  0
   17.0590    5.5030   13.6130 N   0  0  0  0  0
   14.8110    5.9000   13.2790 O   0  0  0  0  0
   16.2430    7.4000   12.2370 C   0  0  0  0  0
   14.0220    8.4220   11.3860 C   0  0  0  0  0
   13.7180    7.6560    9.1740 C   0  0  0  0  0
   15.1940    6.9450    9.6850 S   0  0  0  0  0
   15.3030    3.6880   14.9170 S   0  0  0  0  0
   12.3151    8.9826   10.1646 H   0  0  0  0  0
   16.3249   -0.9569   16.6238 H   0  0  0  0  0
   15.6127   -0.5127   15.0693 H   0  0  0  0  0
   18.0155    5.8051   13.4278 H   0  0  0  0  0
   17.1742    7.2264   11.6978 H   0  0  0  0  0
   16.3015    8.2714   12.8891 H   0  0  0  0  0
   13.7644    8.9697   12.2925 H   0  0  0  0  0
   13.2419    7.5324    8.2013 H   0  0  0  0  0
 12  1  1  0  0  0
  1 13  2  0  0  0
  1 14  1  0  0  0
 14  2  1  0  0  0
  2 15  4  0  0  0
  2 17  4  0  0  0
 15  3  4  0  0  0
  3 16  4  0  0  0
  5  4  1  0  0  0
  5  6  2  0  0  0
  5  7  2  0  0  0
  8  5  1  0  0  0
  9  8  4  0  0  0
  8 18  4  0  0  0
 10  9  4  0  0  0
 11 10  4  0  0  0
 11 12  1  0  0  0
 11 18  4  0  0  0
 16 17  4  0  0  0
  3 19  1  0  0  0
  4 20  1  0  0  0
  4 21  1  0  0  0
 12 22  1  0  0  0
 14 23  1  0  0  0
 14 24  1  0  0  0
 15 25  1  0  0  0
 16 26  1  0  0  0
M  END
$$$$
