1km3_ligand
  -I-interpret- 

 33 34  0  0  0  0  0  0  0  0999 V2000
   41.8290   40.0250   37.4900 N   0  0  0  0  0
   42.7360   39.2350   36.7940 C   0  0  0  0  0
   44.0550   39.5630   36.9940 N   0  0  0  0  0
   44.5260   40.5920   37.8110 C   0  0  0  0  0
   43.5220   41.3400   38.4640 C   0  0  0  0  0
   42.2510   41.0510   38.2980 N   0  0  0  0  0
   42.3560   38.3450   36.1020 O   0  0  0  0  0
   45.7120   40.7650   37.9090 O   0  0  0  0  0
   40.4060   39.7740   37.4000 C   0  0  0  0  0
   39.7040   39.8030   36.0620 C   0  0  0  0  0
   38.5490   38.8440   36.2720 C   0  0  0  0  0
   39.1150   37.8470   37.2340 C   0  0  0  0  0
   39.2910   41.1170   35.6940 O   0  0  0  0  0
   37.4240   39.5410   36.8350 O   0  0  0  0  0
   40.0830   38.5570   38.0060 O   0  0  0  0  0
   39.7500   36.5800   36.7100 C   0  0  0  0  0
   38.8170   35.9480   35.8240 O   0  0  0  0  0
   39.1750   34.6040   35.0350 P   0  0  0  0  0
   40.4410   34.7070   34.2150 O   0  0  0  0  0
   37.9950   34.3860   34.1440 O   0  0  0  0  0
   39.2200   33.4230   36.1160 O   0  0  0  0  0
   44.7523   39.0048   36.5015 H   0  0  0  0  0
   43.8050   42.1678   39.1142 H   0  0  0  0  0
   40.0303   40.6613   37.9095 H   0  0  0  0  0
   40.3427   39.5095   35.2289 H   0  0  0  0  0
   38.1826   38.3822   35.3551 H   0  0  0  0  0
   38.2511   37.4571   37.7722 H   0  0  0  0  0
   38.8518   41.0860   34.8409 H   0  0  0  0  0
   36.6991   38.9249   36.9637 H   0  0  0  0  0
   39.9946   35.9127   37.5364 H   0  0  0  0  0
   40.6729   36.8139   36.1793 H   0  0  0  0  0
   41.1893   34.8467   34.7999 H   0  0  0  0  0
   39.9742   33.5503   36.6961 H   0  0  0  0  0
  1  2  1  0  0  0
  1  6  1  0  0  0
  1  9  1  0  0  0
  2  3  1  0  0  0
  2  7  2  0  0  0
  3  4  1  0  0  0
  4  5  1  0  0  0
  4  8  2  0  0  0
  5  6  2  0  0  0
  9 10  1  0  0  0
  9 15  1  0  0  0
 10 11  1  0  0  0
 10 13  1  0  0  0
 11 12  1  0  0  0
 11 14  1  0  0  0
 12 15  1  0  0  0
 12 16  1  0  0  0
 16 17  1  0  0  0
 17 18  1  0  0  0
 18 19  1  0  0  0
 18 20  2  0  0  0
 18 21  1  0  0  0
  3 22  1  0  0  0
  5 23  1  0  0  0
  9 24  1  0  0  0
 10 25  1  0  0  0
 11 26  1  0  0  0
 12 27  1  0  0  0
 13 28  1  0  0  0
 14 29  1  0  0  0
 16 30  1  0  0  0
 16 31  1  0  0  0
 19 32  1  0  0  0
 21 33  1  0  0  0
M  END
$$$$
