2izx_ligand
  -I-interpret- 

 16 16  0  0  0  0  0  0  0  0999 V2000
   -6.7210   -6.6790  -17.3060 S   0  0  0  0  0
   -6.7160   -7.9020  -18.6420 C   0  0  0  0  0
   -8.0810   -7.9170  -19.3400 C   0  0  0  0  0
   -8.1250   -8.9890  -20.2500 O   0  0  0  0  0
   -8.2650   -6.6830  -20.2160 C   0  0  0  0  0
   -9.4150   -6.8090  -21.0280 O   0  0  0  0  0
   -8.3980   -5.3790  -19.4420 C   0  0  0  0  0
   -6.7940   -4.9860  -18.6360 S   0  0  0  0  0
   -6.5141   -8.8889  -18.2255 H   0  0  0  0  0
   -5.9445   -7.6405  -19.3662 H   0  0  0  0  0
   -8.8362   -7.9756  -18.5562 H   0  0  0  0  0
   -8.0153   -9.8157  -19.7744 H   0  0  0  0  0
   -7.3528   -6.6339  -20.8106 H   0  0  0  0  0
   -9.3621   -7.6247  -21.5314 H   0  0  0  0  0
   -9.1727   -5.4827  -18.6823 H   0  0  0  0  0
   -8.6699   -4.5747  -20.1256 H   0  0  0  0  0
  1  2  1  0  0  0
  1  8  1  0  0  0
  2  3  1  0  0  0
  3  4  1  0  0  0
  3  5  1  0  0  0
  5  6  1  0  0  0
  5  7  1  0  0  0
  7  8  1  0  0  0
  2  9  1  0  0  0
  2 10  1  0  0  0
  3 11  1  0  0  0
  4 12  1  0  0  0
  5 13  1  0  0  0
  6 14  1  0  0  0
  7 15  1  0  0  0
  7 16  1  0  0  0
M  END
$$$$
