6f6r_ligand
  -I-interpret- 

 68 71  0  0  0  0  0  0  0  0999 V2000
   -0.4610   31.7480    7.2060 C   0  0  0  0  0
   -2.3780   30.3380    7.9760 C   0  0  0  0  0
   -2.9360   31.4820    8.5000 N   0  0  0  0  0
   -0.3950   29.2560    7.0130 C   0  0  0  0  0
    0.9090   29.0270    7.7710 C   0  0  0  0  0
   -0.2960   29.2370    5.4810 C   0  0  0  0  0
   -2.9920   29.2870    7.9240 O   0  0  0  0  0
   -4.2720   31.3760    9.0860 C   0  0  0  0  0
    0.5740   31.8570    6.5430 O   0  0  0  0  0
   -2.3040   32.6910    8.4530 C   0  0  0  0  0
   -1.1230   32.9250    7.8170 C   0  0  0  0  0
   -1.1020   30.4760    7.4400 N   0  0  0  0  0
    0.8790   28.8640    4.9510 N   0  0  0  0  0
   -1.2740   29.5320    4.7940 O   0  0  0  0  0
   -0.2650   34.0410    7.8750 N   0  0  0  0  0
   -0.2480   34.9660    8.8930 C   0  0  0  0  0
    0.6270   36.1580    8.6940 C   0  0  0  0  0
   -0.8250   34.7760    9.9620 O   0  0  0  0  0
    0.4330   37.2860    9.4910 C   0  0  0  0  0
    1.2870   38.3730    9.4000 C   0  0  0  0  0
    2.3550   38.3530    8.5080 C   0  0  0  0  0
    2.5570   37.2290    7.7100 C   0  0  0  0  0
    1.6930   36.1500    7.7920 C   0  0  0  0  0
    3.1970   39.4840    8.4580 N   0  0  0  0  0
    4.0320   39.9520    7.4590 C   0  0  0  0  0
    4.8060   41.1170    7.7330 C   0  0  0  0  0
    5.6410   41.6290    6.8530 N   0  0  0  0  0
    4.1090   39.3130    6.3010 N   0  0  0  0  0
    4.9700   39.8290    5.3690 C   0  0  0  0  0
    5.7370   40.9840    5.6440 C   0  0  0  0  0
    6.6030   41.4920    4.6460 C   0  0  0  0  0
    6.6900   40.8650    3.4280 C   0  0  0  0  0
    5.9350   39.7280    3.1580 C   0  0  0  0  0
    5.0840   39.2100    4.1020 C   0  0  0  0  0
    1.0440   28.5440    3.5330 C   0  0  0  0  0
    1.7010   27.1920    3.3340 C   0  0  0  0  0
    0.2860   29.5960    0.9630 O   0  0  0  0  0
    1.4850   29.6930    1.3200 C   0  0  0  0  0
    1.7960   29.6600    2.8140 C   0  0  0  0  0
    2.4550   29.8060    0.5390 O   0  0  0  0  0
    1.7220   26.7730    1.9700 O   0  0  0  0  0
   -0.9755   28.3766    7.2920 H   0  0  0  0  0
    1.5769   29.8725    7.6062 H   0  0  0  0  0
    0.6969   28.9321    8.8359 H   0  0  0  0  0
    1.3817   28.1133    7.4106 H   0  0  0  0  0
   -4.2370   31.6958   10.1274 H   0  0  0  0  0
   -4.9619   32.0127    8.5321 H   0  0  0  0  0
   -4.6092   30.3408    9.0336 H   0  0  0  0  0
   -2.7792   33.5299    8.9615 H   0  0  0  0  0
    1.6923   28.8008    5.5633 H   0  0  0  0  0
    0.3917   34.1727    7.1057 H   0  0  0  0  0
   -0.4000   37.3126   10.1935 H   0  0  0  0  0
    1.1218   39.2474   10.0295 H   0  0  0  0  0
    3.3987   37.1988    7.0182 H   0  0  0  0  0
    1.8465   35.2856    7.1459 H   0  0  0  0  0
    3.1887   40.0546    9.3035 H   0  0  0  0  0
    4.7032   41.6007    8.7044 H   0  0  0  0  0
    7.2010   42.3814    4.8448 H   0  0  0  0  0
    7.3580   41.2623    2.6638 H   0  0  0  0  0
    6.0203   39.2430    2.1856 H   0  0  0  0  0
    4.4955   38.3210    3.8753 H   0  0  0  0  0
    0.0525   28.4727    3.0859 H   0  0  0  0  0
    1.1237   26.4581    3.8963 H   0  0  0  0  0
    2.7345   27.2741    3.6705 H   0  0  0  0  0
   -0.2729   29.5203    1.7399 H   0  0  0  0  0
    2.8646   29.4822    2.9347 H   0  0  0  0  0
    1.4867   30.6115    3.2465 H   0  0  0  0  0
    2.1478   25.9149    1.9065 H   0  0  0  0  0
  1  9  2  0  0  0
  1 11  1  0  0  0
 12  1  1  0  0  0
  2  3  1  0  0  0
  2  7  2  0  0  0
 12  2  1  0  0  0
  3  8  1  0  0  0
  3 10  1  0  0  0
  4  5  1  0  0  0
  6  4  1  0  0  0
  4 12  1  0  0  0
 13  6  1  0  0  0
  6 14  2  0  0  0
 11 10  2  0  0  0
 11 15  1  0  0  0
 35 13  1  0  0  0
 15 16  1  0  0  0
 16 17  1  0  0  0
 16 18  2  0  0  0
 17 19  4  0  0  0
 17 23  4  0  0  0
 19 20  4  0  0  0
 20 21  4  0  0  0
 22 21  4  0  0  0
 21 24  1  0  0  0
 23 22  4  0  0  0
 24 25  1  0  0  0
 25 26  4  0  0  0
 25 28  4  0  0  0
 26 27  4  0  0  0
 27 30  4  0  0  0
 28 29  4  0  0  0
 29 30  4  0  0  0
 29 34  4  0  0  0
 30 31  4  0  0  0
 31 32  4  0  0  0
 33 32  4  0  0  0
 34 33  4  0  0  0
 35 36  1  0  0  0
 39 35  1  0  0  0
 36 41  1  0  0  0
 38 37  1  0  0  0
 38 39  1  0  0  0
 38 40  2  0  0  0
  4 42  1  0  0  0
  5 43  1  0  0  0
  5 44  1  0  0  0
  5 45  1  0  0  0
  8 46  1  0  0  0
  8 47  1  0  0  0
  8 48  1  0  0  0
 10 49  1  0  0  0
 13 50  1  0  0  0
 15 51  1  0  0  0
 19 52  1  0  0  0
 20 53  1  0  0  0
 22 54  1  0  0  0
 23 55  1  0  0  0
 24 56  1  0  0  0
 26 57  1  0  0  0
 31 58  1  0  0  0
 32 59  1  0  0  0
 33 60  1  0  0  0
 34 61  1  0  0  0
 35 62  1  0  0  0
 36 63  1  0  0  0
 36 64  1  0  0  0
 37 65  1  0  0  0
 39 66  1  0  0  0
 39 67  1  0  0  0
 41 68  1  0  0  0
M  END
$$$$
