5od1_ligand
  -I-interpret- 

 45 47  0  0  0  0  0  0  0  0999 V2000
   34.2660   13.1760   17.7410 C   0  0  0  0  0
   43.3980   18.0750   20.1040 C   0  0  0  0  0
   33.1460   12.5070   18.2140 C   0  0  0  0  0
   33.0890   11.1360   18.1740 C   0  0  0  0  0
   40.7970   16.7100   19.3760 C   0  0  0  0  0
   34.1620   10.4360   17.6670 C   0  0  0  0  0
   35.2800   11.0970   17.1860 C   0  0  0  0  0
   39.4990   15.5670   17.7410 C   0  0  0  0  0
   39.6210   16.1160   19.0140 C   0  0  0  0  0
   41.8960   16.7460   18.5100 C   0  0  0  0  0
   43.1850   17.3500   18.8030 C   0  0  0  0  0
   35.3680   12.4800   17.2860 C   0  0  0  0  0
   36.7360   14.3170   19.3260 O   0  0  0  0  0
   37.5690   13.8120   18.1610 P   0  0  0  0  0
   36.5620   13.2500   16.7470 C   0  0  0  0  0
   37.3940   12.5320   15.6930 C   0  0  0  0  0
   38.2870   15.0150   17.3650 O   0  0  0  0  0
   44.0730   17.1180   21.4480 S   0  0  0  0  0
   44.6580   15.8660   20.7450 O   0  0  0  0  0
   45.1200   17.9810   21.9110 O   0  0  0  0  0
   42.9730   16.8160   22.3170 O   0  0  0  0  0
   44.1390   17.3160   17.8540 C   0  0  0  0  0
   43.9550   16.6880   16.5870 C   0  0  0  0  0
   42.7240   16.1390   16.3210 O   0  0  0  0  0
   44.7580   16.5810   15.7010 O   0  0  0  0  0
   41.7130   16.1920   17.2430 C   0  0  0  0  0
   40.5430   15.5990   16.8450 C   0  0  0  0  0
   38.5810   12.7640   18.5420 O   0  0  0  0  0
   34.2758   14.2659   17.7285 H   0  0  0  0  0
   42.4112   18.4015   20.4322 H   0  0  0  0  0
   44.1264   18.8589   19.8965 H   0  0  0  0  0
   32.3073   13.0730   18.6193 H   0  0  0  0  0
   32.2073   10.6086   18.5382 H   0  0  0  0  0
   40.8813   17.1665   20.3622 H   0  0  0  0  0
   34.1305    9.3467   17.6441 H   0  0  0  0  0
   36.0918   10.5316   16.7285 H   0  0  0  0  0
   38.7873   16.0726   19.7148 H   0  0  0  0  0
   36.1159   14.9788   19.0114 H   0  0  0  0  0
   36.1655   14.1003   16.1920 H   0  0  0  0  0
   38.1605   13.2082   15.3144 H   0  0  0  0  0
   37.8674   11.6575   16.1394 H   0  0  0  0  0
   36.7475   12.2181   14.8734 H   0  0  0  0  0
   43.9398   15.3044   20.4443 H   0  0  0  0  0
   45.0974   17.7909   18.0639 H   0  0  0  0  0
   40.4427   15.1662   15.8497 H   0  0  0  0  0
  1  3  4  0  0  0
 12  1  4  0  0  0
 11  2  1  0  0  0
  2 18  1  0  0  0
  3  4  4  0  0  0
  6  4  4  0  0  0
  9  5  4  0  0  0
  5 10  4  0  0  0
  7  6  4  0  0  0
 12  7  4  0  0  0
  8  9  4  0  0  0
 17  8  1  0  0  0
  8 27  4  0  0  0
 10 11  1  0  0  0
 10 26  4  0  0  0
 11 22  2  0  0  0
 15 12  1  0  0  0
 14 13  1  0  0  0
 14 15  1  0  0  0
 14 17  1  0  0  0
 14 28  2  0  0  0
 15 16  1  0  0  0
 18 19  1  0  0  0
 18 20  2  0  0  0
 18 21  2  0  0  0
 22 23  1  0  0  0
 23 24  1  0  0  0
 23 25  2  0  0  0
 24 26  1  0  0  0
 26 27  4  0  0  0
  1 29  1  0  0  0
  2 30  1  0  0  0
  2 31  1  0  0  0
  3 32  1  0  0  0
  4 33  1  0  0  0
  5 34  1  0  0  0
  6 35  1  0  0  0
  7 36  1  0  0  0
  9 37  1  0  0  0
 13 38  1  0  0  0
 15 39  1  0  0  0
 16 40  1  0  0  0
 16 41  1  0  0  0
 16 42  1  0  0  0
 19 43  1  0  0  0
 22 44  1  0  0  0
 27 45  1  0  0  0
M  END
$$$$
