### 
### Created by X-TOOL on Mon Aug  2 16:12:10 2021
### 

@<TRIPOS>MOLECULE
5od1_ligand
   43    45     1     0     0
SMALL
GAST_HUCK


@<TRIPOS>ATOM
      1 C4         34.2660   13.1760   17.7410 C.ar      1 MOL        -0.0585
      2 C14        43.3980   18.0750   20.1040 C.3       1 MOL         0.0699
      3 C5         33.1460   12.5070   18.2140 C.ar      1 MOL        -0.0685
      4 C6         33.0890   11.1360   18.1740 C.ar      1 MOL        -0.0687
      5 C11        40.7970   16.7100   19.3760 C.ar      1 MOL        -0.0580
      6 C7         34.1620   10.4360   17.6670 C.ar      1 MOL        -0.0685
      7 C8         35.2800   11.0970   17.1860 C.ar      1 MOL        -0.0585
      8 C9         39.4990   15.5670   17.7410 C.ar      1 MOL         0.1278
      9 C10        39.6210   16.1160   19.0140 C.ar      1 MOL        -0.0292
     10 C12        41.8960   16.7460   18.5100 C.ar      1 MOL         0.0254
     11 C13        43.1850   17.3500   18.8030 C.2       1 MOL        -0.0099
     12 C3         35.3680   12.4800   17.2860 C.ar      1 MOL        -0.0207
     13 O1         36.7360   14.3170   19.3260 O.co2     1 MOL        -0.6136
     14 P1         37.5690   13.8120   18.1610 P.3       1 MOL         0.1631
     15 C1         36.5620   13.2500   16.7470 C.3       1 MOL         0.0835
     16 C2         37.3940   12.5320   15.6930 C.3       1 MOL        -0.0341
     17 O2         38.2870   15.0150   17.3650 O.3       1 MOL        -0.2181
     18 S1         44.0730   17.1180   21.4480 S.o2      1 MOL        -0.1786
     19 O3         44.6580   15.8660   20.7450 O.co2     1 MOL        -0.4821
     20 O4         45.1200   17.9810   21.9110 O.co2     1 MOL        -0.4821
     21 O5         42.9730   16.8160   22.3170 O.co2     1 MOL        -0.4821
     22 C15        44.1390   17.3160   17.8540 C.2       1 MOL         0.0088
     23 C16        43.9550   16.6880   16.5870 C.2       1 MOL         0.2451
     24 O6         42.7240   16.1390   16.3210 O.3       1 MOL        -0.2164
     25 O7         44.7580   16.5810   15.7010 O.2       1 MOL        -0.3877
     26 C17        41.7130   16.1920   17.2430 C.ar      1 MOL         0.1361
     27 C18        40.5430   15.5990   16.8450 C.ar      1 MOL         0.0142
     28 O8         38.5810   12.7640   18.5420 O.co2     1 MOL        -0.6136
     29 H1         34.2757   14.2599   17.7286 H         1 MOL         0.0557
     30 H2         42.4241   18.4685   20.4304 H         1 MOL         0.0673
     31 H3         44.0857   18.9117   19.9114 H         1 MOL         0.0673
     32 H4         32.3119   13.0699   18.6171 H         1 MOL         0.0599
     33 H5         32.2122   10.6115   18.5362 H         1 MOL         0.0559
     34 H6         40.8808   17.1640   20.3568 H         1 MOL         0.0618
     35 H7         34.1307    9.3527   17.6443 H         1 MOL         0.0599
     36 H8         36.0873   10.5347   16.7310 H         1 MOL         0.0557
     37 H9         38.7919   16.0728   19.7109 H         1 MOL         0.0504
     38 H10        36.1609   14.1474   16.2532 H         1 MOL         0.0684
     39 H11        36.7427   12.2147   14.8653 H         1 MOL         0.0270
     40 H12        37.8723   11.6492   16.1422 H         1 MOL         0.0270
     41 H13        38.1679   13.2134   15.3100 H         1 MOL         0.0270
     42 H14        45.0965   17.7905   18.0637 H         1 MOL         0.0414
     43 H15        40.4432   15.1686   15.8551 H         1 MOL         0.0501
@<TRIPOS>BOND
     1    1    3 ar 
     2   12    1 ar 
     3   11    2 1  
     4    2   18 1  
     5    3    4 ar 
     6    6    4 ar 
     7    9    5 ar 
     8    5   10 ar 
     9    7    6 ar 
    10   12    7 ar 
    11    8    9 ar 
    12   17    8 1  
    13    8   27 ar 
    14   10   11 1  
    15   10   26 ar 
    16   11   22 2  
    17   15   12 1  
    18   14   13 ar 
    19   14   15 1  
    20   14   17 1  
    21   14   28 ar 
    22   15   16 1  
    23   18   19 ar 
    24   18   20 ar 
    25   18   21 ar 
    26   22   23 1  
    27   23   24 1  
    28   23   25 2  
    29   24   26 1  
    30   26   27 ar 
    31    1   29 1  
    32    2   30 1  
    33    2   31 1  
    34    3   32 1  
    35    4   33 1  
    36    5   34 1  
    37    6   35 1  
    38    7   36 1  
    39    9   37 1  
    40   15   38 1  
    41   16   39 1  
    42   16   40 1  
    43   16   41 1  
    44   22   42 1  
    45   27   43 1  
@<TRIPOS>SUBSTRUCTURE
     1 MOL         1

