4zy0_ligand
  -I-interpret- 

 43 44  0  0  0  0  0  0  0  0999 V2000
  176.5980  245.4250   30.0900 C   0  0  0  0  0
  177.2230  246.4850   30.9990 C   0  0  0  0  0
  178.1680  247.3660   30.1800 C   0  0  0  0  0
  178.0220  245.8050   32.1090 C   0  0  0  0  0
  176.1250  247.3780   31.6060 C   0  0  0  0  0
  175.9960  247.5170   32.8220 O   0  0  0  0  0
  175.3480  247.9900   30.7100 N   0  0  0  0  0
  174.3030  248.9510   31.1010 C   0  0  0  0  0
  174.3070  250.0330   30.0220 C   0  0  0  0  0
  174.0500  249.7610   28.8520 O   0  0  0  0  0
  174.6820  251.2470   30.4450 N   0  0  0  0  0
  174.7440  252.2270   29.5030 O   0  0  0  0  0
  173.0270  248.3930   31.2720 C   0  0  0  0  0
  172.6330  247.2080   30.6500 C   0  0  0  0  0
  171.3460  246.7070   30.8590 C   0  0  0  0  0
  172.1290  249.0550   32.1020 C   0  0  0  0  0
  170.8500  248.5520   32.3120 C   0  0  0  0  0
  170.4450  247.3740   31.6900 C   0  0  0  0  0
  169.2090  246.8990   31.9020 C   0  0  0  0  0
  168.4880  247.2330   32.9960 C   0  0  0  0  0
  167.2680  246.6740   33.0720 C   0  0  0  0  0
  167.0950  245.7400   31.7230 S   0  0  0  0  0
  168.5980  246.0620   31.0550 C   0  0  0  0  0
  175.9148  244.8063   30.6718 H   0  0  0  0  0
  176.0503  245.9155   29.2853 H   0  0  0  0  0
  177.3852  244.8006   29.6675 H   0  0  0  0  0
  177.6068  247.8582   29.3857 H   0  0  0  0  0
  178.6162  248.1178   30.8296 H   0  0  0  0  0
  178.9520  246.7475   29.7431 H   0  0  0  0  0
  178.4859  246.5644   32.7385 H   0  0  0  0  0
  177.3535  245.1903   32.7118 H   0  0  0  0  0
  178.7948  245.1768   31.6661 H   0  0  0  0  0
  175.4827  247.7850   29.7199 H   0  0  0  0  0
  174.5323  249.3491   32.0895 H   0  0  0  0  0
  174.9094  251.4277   31.4228 H   0  0  0  0  0
  175.0214  253.0484   29.9152 H   0  0  0  0  0
  173.3282  246.6741   30.0021 H   0  0  0  0  0
  171.0416  245.7833   30.3668 H   0  0  0  0  0
  172.4315  249.9795   32.5939 H   0  0  0  0  0
  170.1600  249.0832   32.9677 H   0  0  0  0  0
  168.8692  247.9080   33.7623 H   0  0  0  0  0
  166.5366  246.8109   33.8685 H   0  0  0  0  0
  168.9972  245.6692   30.1199 H   0  0  0  0  0
  1  2  1  0  0  0
  2  3  1  0  0  0
  2  4  1  0  0  0
  2  5  1  0  0  0
  5  6  2  0  0  0
  5  7  1  0  0  0
  7  8  1  0  0  0
  8  9  1  0  0  0
  8 13  1  0  0  0
  9 10  2  0  0  0
  9 11  1  0  0  0
 11 12  1  0  0  0
 13 14  4  0  0  0
 13 16  4  0  0  0
 14 15  4  0  0  0
 15 18  4  0  0  0
 16 17  4  0  0  0
 17 18  4  0  0  0
 18 19  1  0  0  0
 19 20  4  0  0  0
 19 23  4  0  0  0
 20 21  4  0  0  0
 21 22  4  0  0  0
 22 23  4  0  0  0
  1 24  1  0  0  0
  1 25  1  0  0  0
  1 26  1  0  0  0
  3 27  1  0  0  0
  3 28  1  0  0  0
  3 29  1  0  0  0
  4 30  1  0  0  0
  4 31  1  0  0  0
  4 32  1  0  0  0
  7 33  1  0  0  0
  8 34  1  0  0  0
 11 35  1  0  0  0
 12 36  1  0  0  0
 14 37  1  0  0  0
 15 38  1  0  0  0
 16 39  1  0  0  0
 17 40  1  0  0  0
 20 41  1  0  0  0
 21 42  1  0  0  0
 23 43  1  0  0  0
M  END
$$$$
