4gm8_ligand
  -I-interpret- 

 97 99  0  0  0  0  0  0  0  0999 V2000
   11.7350  -16.8730   34.4450 C   0  0  0  0  0
   11.1110  -16.6020   35.7810 C   0  0  0  0  0
   10.7210  -17.8690   36.5170 C   0  0  0  0  0
   11.9750  -15.6460   36.6390 C   0  0  0  0  0
   11.4910  -14.4070   36.4730 O   0  0  0  0  0
   13.9720  -15.3790   38.0480 C   0  0  0  0  0
   14.1320  -13.9720   37.3840 C   0  0  0  0  0
   13.3920  -15.0970   39.3910 C   0  0  0  0  0
   12.9970  -16.2690   37.3390 N   0  0  0  0  0
   13.7480  -12.9950   38.2300 O   0  0  0  0  0
   15.3010  -16.0680   38.1310 C   0  0  0  0  0
   16.1120  -15.3900   39.2060 C   0  0  0  0  0
   12.9840  -16.3230   40.1760 C   0  0  0  0  0
   14.6350  -14.0690   36.0990 N   0  0  0  0  0
   14.9360  -12.8250   35.3180 C   0  0  0  0  0
   13.7580  -11.8300   35.1560 C   0  0  0  0  0
   14.2240  -10.5780   35.1610 O   0  0  0  0  0
   15.5140  -13.2370   33.9930 C   0  0  0  0  0
   16.3220  -12.1190   33.4070 C   0  0  0  0  0
   16.1910  -12.2530   31.8960 C   0  0  0  0  0
   16.9820  -13.4220   31.4410 N   0  0  0  0  0
   18.3580  -13.3430   31.5470 C   0  0  0  0  0
   18.9570  -12.1060   31.5420 N   0  0  0  0  0
   19.5040  -14.0550   31.4820 N   0  0  0  0  0
   12.5470  -12.4880   35.0840 N   0  0  0  0  0
    9.7810  -10.0890   35.9010 O   0  0  0  0  0
   11.2500  -11.7260   34.9630 C   0  0  0  0  0
   10.8550  -10.8370   36.2020 C   0  0  0  0  0
   11.3400  -10.8800   33.7510 C   0  0  0  0  0
   10.2330  -12.7350   34.6660 C   0  0  0  0  0
   11.1060  -11.8700   32.6350 C   0  0  0  0  0
   10.6160  -13.1480   33.2600 C   0  0  0  0  0
   11.6680  -10.9500   37.3420 N   0  0  0  0  0
   11.1850  -10.2050   38.5280 C   0  0  0  0  0
   10.6010  -11.2820   39.4180 C   0  0  0  0  0
   12.2530   -9.3180   39.1850 C   0  0  0  0  0
   12.1970   -7.9280   38.9420 C   0  0  0  0  0
   13.1380   -7.0530   39.5040 C   0  0  0  0  0
   14.1450   -7.5780   40.3110 C   0  0  0  0  0
   14.2170   -8.9660   40.5580 C   0  0  0  0  0
   13.2650   -9.8440   39.9910 C   0  0  0  0  0
    9.4510  -11.1280   40.1840 C   0  0  0  0  0
    8.9950  -12.2300   40.9360 C   0  0  0  0  0
    9.6810  -13.4570   40.8900 C   0  0  0  0  0
   10.8020  -13.5940   40.1050 C   0  0  0  0  0
   11.2580  -12.5070   39.3600 C   0  0  0  0  0
   15.0380   -6.7430   40.8400 F   0  0  0  0  0
    9.2940  -14.5200   41.5890 F   0  0  0  0  0
   11.8490  -15.9350   33.9017 H   0  0  0  0  0
   12.7130  -17.3323   34.5887 H   0  0  0  0  0
   11.0951  -17.5480   33.8767 H   0  0  0  0  0
   10.1736  -16.0807   35.5869 H   0  0  0  0  0
   11.6213  -18.4088   36.8107 H   0  0  0  0  0
   10.1456  -17.6090   37.4055 H   0  0  0  0  0
   10.1168  -18.4967   35.8621 H   0  0  0  0  0
   12.4879  -14.5103   39.2282 H   0  0  0  0  0
   14.1659  -14.5935   39.9704 H   0  0  0  0  0
   13.0811  -17.2851   37.3699 H   0  0  0  0  0
   15.8180  -16.0049   37.1735 H   0  0  0  0  0
   15.1639  -17.1222   38.3717 H   0  0  0  0  0
   16.2477  -14.3395   38.9488 H   0  0  0  0  0
   15.5874  -15.4674   40.1583 H   0  0  0  0  0
   17.0851  -15.8746   39.2853 H   0  0  0  0  0
   12.2292  -16.8762   39.6171 H   0  0  0  0  0
   13.8561  -16.9568   40.3366 H   0  0  0  0  0
   12.5736  -16.0168   41.1382 H   0  0  0  0  0
   14.8009  -14.9856   35.6834 H   0  0  0  0  0
   15.6554  -12.2479   35.8989 H   0  0  0  0  0
   14.7001  -13.4829   33.3110 H   0  0  0  0  0
   16.1594  -14.1029   34.1404 H   0  0  0  0  0
   17.3645  -12.1796   33.7196 H   0  0  0  0  0
   15.9610  -11.1494   33.7499 H   0  0  0  0  0
   16.5635  -11.3489   31.4145 H   0  0  0  0  0
   15.1433  -12.3938   31.6303 H   0  0  0  0  0
   16.5275  -14.2536   31.0638 H   0  0  0  0  0
   19.9733  -12.0317   31.4971 H   0  0  0  0  0
   18.3852  -11.2623   31.5832 H   0  0  0  0  0
   19.4726  -15.0549   31.2829 H   0  0  0  0  0
   12.5283  -13.5074   35.1131 H   0  0  0  0  0
   12.2948  -10.3613   33.6652 H   0  0  0  0  0
   10.6203  -10.0614   33.7502 H   0  0  0  0  0
    9.2122  -12.3617   34.7475 H   0  0  0  0  0
   10.2205  -13.5628   35.3750 H   0  0  0  0  0
   12.0283  -12.0455   32.0813 H   0  0  0  0  0
   10.3697  -11.4833   31.9304 H   0  0  0  0  0
    9.7810  -13.5855   32.7127 H   0  0  0  0  0
   11.3716  -13.9335   33.2482 H   0  0  0  0  0
   12.5252  -11.5027   37.3524 H   0  0  0  0  0
   10.4359   -9.4548   38.2747 H   0  0  0  0  0
   11.4077   -7.5277   38.3058 H   0  0  0  0  0
   13.0825   -5.9813   39.3128 H   0  0  0  0  0
   15.0115   -9.3632   41.1898 H   0  0  0  0  0
   13.3201  -10.9160   40.1802 H   0  0  0  0  0
    8.9153  -10.1789   40.2027 H   0  0  0  0  0
    8.1049  -12.1304   41.5572 H   0  0  0  0  0
   11.3307  -14.5464   40.0655 H   0  0  0  0  0
   12.1377  -12.6181   38.7261 H   0  0  0  0  0
  2  1  1  0  0  0
  2  3  1  0  0  0
  4  2  1  0  0  0
  4  5  2  0  0  0
  9  4  1  0  0  0
  7  6  1  0  0  0
  6  8  1  0  0  0
  6  9  1  0  0  0
  6 11  1  0  0  0
  7 10  2  0  0  0
 14  7  1  0  0  0
  8 13  1  0  0  0
 11 12  1  0  0  0
 15 14  1  0  0  0
 16 15  1  0  0  0
 15 18  1  0  0  0
 16 17  2  0  0  0
 25 16  1  0  0  0
 18 19  1  0  0  0
 19 20  1  0  0  0
 20 21  1  0  0  0
 21 22  1  0  0  0
 22 23  1  0  0  0
 22 24  2  0  0  0
 27 25  1  0  0  0
 28 26  2  0  0  0
 27 28  1  0  0  0
 27 29  1  0  0  0
 27 30  1  0  0  0
 28 33  1  0  0  0
 29 31  1  0  0  0
 30 32  1  0  0  0
 31 32  1  0  0  0
 33 34  1  0  0  0
 34 35  1  0  0  0
 34 36  1  0  0  0
 35 42  4  0  0  0
 35 46  4  0  0  0
 36 37  4  0  0  0
 36 41  4  0  0  0
 37 38  4  0  0  0
 38 39  4  0  0  0
 39 40  4  0  0  0
 39 47  1  0  0  0
 40 41  4  0  0  0
 42 43  4  0  0  0
 43 44  4  0  0  0
 44 45  4  0  0  0
 44 48  1  0  0  0
 45 46  4  0  0  0
  1 49  1  0  0  0
  1 50  1  0  0  0
  1 51  1  0  0  0
  2 52  1  0  0  0
  3 53  1  0  0  0
  3 54  1  0  0  0
  3 55  1  0  0  0
  8 56  1  0  0  0
  8 57  1  0  0  0
  9 58  1  0  0  0
 11 59  1  0  0  0
 11 60  1  0  0  0
 12 61  1  0  0  0
 12 62  1  0  0  0
 12 63  1  0  0  0
 13 64  1  0  0  0
 13 65  1  0  0  0
 13 66  1  0  0  0
 14 67  1  0  0  0
 15 68  1  0  0  0
 18 69  1  0  0  0
 18 70  1  0  0  0
 19 71  1  0  0  0
 19 72  1  0  0  0
 20 73  1  0  0  0
 20 74  1  0  0  0
 21 75  1  0  0  0
 23 76  1  0  0  0
 23 77  1  0  0  0
 24 78  1  0  0  0
 25 79  1  0  0  0
 29 80  1  0  0  0
 29 81  1  0  0  0
 30 82  1  0  0  0
 30 83  1  0  0  0
 31 84  1  0  0  0
 31 85  1  0  0  0
 32 86  1  0  0  0
 32 87  1  0  0  0
 33 88  1  0  0  0
 34 89  1  0  0  0
 37 90  1  0  0  0
 38 91  1  0  0  0
 40 92  1  0  0  0
 41 93  1  0  0  0
 42 94  1  0  0  0
 43 95  1  0  0  0
 45 96  1  0  0  0
 46 97  1  0  0  0
M  END
$$$$
