6o8u_ligand
  -I-interpret- 

 52 56  0  0  0  0  0  0  0  0999 V2000
   36.2980    7.9250   21.3870 C   0  0  0  0  0
   37.1300    7.8190   20.2820 C   0  0  0  0  0
   37.5580    6.5720   19.8150 C   0  0  0  0  0
   37.1160    5.4100   20.4830 C   0  0  0  0  0
   36.2730    5.5270   21.5970 C   0  0  0  0  0
   35.8600    6.7830   22.0560 C   0  0  0  0  0
   38.3580    3.3730   20.9820 C   0  0  0  0  0
   38.8850    2.0840   20.3300 C   0  0  0  0  0
   35.6970    9.1270   22.0900 C   0  0  0  0  0
   35.7390    8.8850   24.6070 C   0  0  0  0  0
   34.9940    8.5100   23.3260 C   0  0  0  0  0
   35.0520    7.0900   23.1080 O   0  0  0  0  0
   37.5390    4.1450   20.0130 N   0  0  0  0  0
   37.8020    1.3830   19.6950 O   0  0  0  0  0
   37.0820    2.1110   18.6860 C   0  0  0  0  0
   36.4800    3.3780   19.3140 C   0  0  0  0  0
   38.3930    6.4180   18.6810 N   0  0  0  0  0
   39.1320    7.3350   18.0020 C   0  0  0  0  0
   39.1750    8.5130   18.3080 O   0  0  0  0  0
   39.8890    6.8680   16.8330 C   0  0  0  0  0
   40.3230    7.6520   15.7490 C   0  0  0  0  0
   40.9480    6.8860   14.8950 N   0  0  0  0  0
   40.9570    5.5660   15.3570 N   0  0  0  0  0
   40.3020    5.5470   16.5640 C   0  0  0  0  0
   40.1580    4.3950   17.2300 N   0  0  0  0  0
   40.6520    3.2730   16.7310 C   0  0  0  0  0
   41.3330    3.2490   15.4990 C   0  0  0  0  0
   41.4810    4.4200   14.8180 C   0  0  0  0  0
   33.5340    8.9620   23.4100 C   0  0  0  0  0
   37.4560    8.7236   19.7686 H   0  0  0  0  0
   35.9348    4.6281   22.1124 H   0  0  0  0  0
   39.2043    3.9833   21.2975 H   0  0  0  0  0
   37.7392    3.1099   21.8399 H   0  0  0  0  0
   39.3274    1.4470   21.0959 H   0  0  0  0  0
   39.6371    2.3387   19.5833 H   0  0  0  0  0
   35.0093    9.6827   21.4526 H   0  0  0  0  0
   36.4472    9.8690   22.3634 H   0  0  0  0  0
   36.7607    8.5087   24.5550 H   0  0  0  0  0
   35.7549    9.9698   24.7123 H   0  0  0  0  0
   35.2308    8.4429   25.4640 H   0  0  0  0  0
   36.2845    1.4872   18.2823 H   0  0  0  0  0
   37.7605    2.3883   17.8792 H   0  0  0  0  0
   36.0454    3.9972   18.5293 H   0  0  0  0  0
   35.7092    3.0935   20.0302 H   0  0  0  0  0
   38.4486    5.4673   18.3156 H   0  0  0  0  0
   40.1637    8.7247   15.6392 H   0  0  0  0  0
   40.5285    2.3442   17.2879 H   0  0  0  0  0
   41.7321    2.3166   15.0997 H   0  0  0  0  0
   42.0060    4.4448   13.8631 H   0  0  0  0  0
   33.4954   10.0483   23.4915 H   0  0  0  0  0
   33.0045    8.6447   22.5116 H   0  0  0  0  0
   33.0661    8.5138   24.2865 H   0  0  0  0  0
  2  1  4  0  0  0
  6  1  4  0  0  0
  1  9  1  0  0  0
  3  2  4  0  0  0
  4  3  4  0  0  0
  3 17  1  0  0  0
  4  5  4  0  0  0
 13  4  1  0  0  0
  5  6  4  0  0  0
  6 12  1  0  0  0
  7  8  1  0  0  0
  7 13  1  0  0  0
  8 14  1  0  0  0
  9 11  1  0  0  0
 11 10  1  0  0  0
 11 12  1  0  0  0
 11 29  1  0  0  0
 13 16  1  0  0  0
 14 15  1  0  0  0
 15 16  1  0  0  0
 17 18  1  0  0  0
 18 19  2  0  0  0
 18 20  1  0  0  0
 20 21  4  0  0  0
 20 24  4  0  0  0
 21 22  4  0  0  0
 22 23  4  0  0  0
 23 24  4  0  0  0
 23 28  4  0  0  0
 24 25  4  0  0  0
 25 26  4  0  0  0
 26 27  4  0  0  0
 27 28  4  0  0  0
  2 30  1  0  0  0
  5 31  1  0  0  0
  7 32  1  0  0  0
  7 33  1  0  0  0
  8 34  1  0  0  0
  8 35  1  0  0  0
  9 36  1  0  0  0
  9 37  1  0  0  0
 10 38  1  0  0  0
 10 39  1  0  0  0
 10 40  1  0  0  0
 15 41  1  0  0  0
 15 42  1  0  0  0
 16 43  1  0  0  0
 16 44  1  0  0  0
 17 45  1  0  0  0
 21 46  1  0  0  0
 26 47  1  0  0  0
 27 48  1  0  0  0
 28 49  1  0  0  0
 29 50  1  0  0  0
 29 51  1  0  0  0
 29 52  1  0  0  0
M  END
$$$$
