5ief_ligand
  -I-interpret- 

 37 37  0  0  0  0  0  0  0  0999 V2000
  108.4040  529.4160   72.0730 O   0  0  0  0  0
  107.6270  529.4880   70.9000 C   0  0  0  0  0
  107.7910  530.8200   70.1870 C   0  0  0  0  0
  109.1590  530.8740   69.5060 C   0  0  0  0  0
  109.1870  529.9340   68.4420 O   0  0  0  0  0
  109.4410  532.2520   68.9350 C   0  0  0  0  0
  110.7200  532.2710   68.3120 O   0  0  0  0  0
  109.3730  533.2820   70.0490 C   0  0  0  0  0
  109.7220  534.5780   69.5520 O   0  0  0  0  0
  107.4880  531.9560   71.0950 N   0  3  0  0  0
  107.9880  533.2810   70.6820 C   0  0  0  0  0
  106.0350  532.0540   71.3340 C   0  0  0  0  0
  105.5650  531.7410   72.7390 C   0  0  0  0  0
  104.0640  531.4650   72.8220 C   0  0  0  0  0
  103.2350  532.5510   72.1410 C   0  0  0  0  0
  108.2718  528.5620   72.4911 H   0  0  0  0  0
  106.5790  529.3783   71.1789 H   0  0  0  0  0
  107.9562  528.6981   70.2249 H   0  0  0  0  0
  107.0569  530.9163   69.3871 H   0  0  0  0  0
  109.9172  530.6425   70.2541 H   0  0  0  0  0
  109.0101  529.0560   68.7875 H   0  0  0  0  0
  108.6915  532.4944   68.1817 H   0  0  0  0  0
  110.7435  531.6145   67.6120 H   0  0  0  0  0
  110.0948  533.0185   70.8221 H   0  0  0  0  0
  110.5979  534.5442   69.1606 H   0  0  0  0  0
  108.0024  531.7232   71.9444 H   0  0  0  0  0
  107.2977  533.6545   69.9257 H   0  0  0  0  0
  108.0564  533.8858   71.5862 H   0  0  0  0  0
  105.5694  531.3120   70.6853 H   0  0  0  0  0
  105.7657  533.0937   71.1479 H   0  0  0  0  0
  105.7765  532.6112   73.3604 H   0  0  0  0  0
  106.0857  530.8423   73.0698 H   0  0  0  0  0
  103.7837  531.4368   73.8750 H   0  0  0  0  0
  103.8658  530.5209   72.3145 H   0  0  0  0  0
  103.4290  533.5097   72.6220 H   0  0  0  0  0
  103.5098  532.6093   71.0878 H   0  0  0  0  0
  102.1763  532.3068   72.2286 H   0  0  0  0  0
  1  2  1  0  0  0
  2  3  1  0  0  0
  3  4  1  0  0  0
  3 10  1  0  0  0
  4  5  1  0  0  0
  4  6  1  0  0  0
  6  7  1  0  0  0
  6  8  1  0  0  0
  8  9  1  0  0  0
  8 11  1  0  0  0
 10 11  1  0  0  0
 10 12  1  0  0  0
 12 13  1  0  0  0
 13 14  1  0  0  0
 14 15  1  0  0  0
  1 16  1  0  0  0
  2 17  1  0  0  0
  2 18  1  0  0  0
  3 19  1  0  0  0
  4 20  1  0  0  0
  5 21  1  0  0  0
  6 22  1  0  0  0
  7 23  1  0  0  0
  8 24  1  0  0  0
  9 25  1  0  0  0
 10 26  1  0  0  0
 11 27  1  0  0  0
 11 28  1  0  0  0
 12 29  1  0  0  0
 12 30  1  0  0  0
 13 31  1  0  0  0
 13 32  1  0  0  0
 14 33  1  0  0  0
 14 34  1  0  0  0
 15 35  1  0  0  0
 15 36  1  0  0  0
 15 37  1  0  0  0
M  END
$$$$
