3ti6_ligand
  -I-interpret- 

 47 47  0  0  0  0  0  0  0  0999 V2000
  -28.8990   12.3580   24.4070 C   0  0  0  0  0
  -29.7550   12.0040   25.1990 O   0  0  0  0  0
  -27.5650   12.1950   24.6830 O   0  0  0  0  0
  -29.2740   13.1040   23.1830 C   0  0  0  0  0
  -30.7500   13.1290   22.6440 C   0  0  0  0  0
  -31.0140   14.2530   21.6620 C   0  0  0  0  0
  -30.0040   14.4900   20.5740 C   0  0  0  0  0
  -30.3110   15.5470   19.6230 N   0  0  0  0  0
  -30.8280   15.2780   18.2920 C   0  0  0  0  0
  -30.9290   14.1280   17.8900 O   0  0  0  0  0
  -31.1200   16.4540   17.3790 C   0  0  0  0  0
  -28.5320   14.2930   20.8980 C   0  0  0  0  0
  -28.1360   13.4220   22.1250 C   0  0  0  0  0
  -27.5770   14.3410   19.8470 O   0  0  0  0  0
  -26.9160   15.5440   19.4870 C   0  0  0  0  0
  -25.9590   16.0650   20.5520 C   0  0  0  0  0
  -26.3140   15.4430   18.1010 C   0  0  0  0  0
  -27.1970   14.8830   17.0190 C   0  0  0  0  0
  -24.8040   15.2040   20.9520 C   0  0  0  0  0
  -32.3890   14.5390   21.3670 N   0  3  0  0  0
  -27.0443   12.5296   23.9492 H   0  0  0  0  0
  -29.3739   14.0179   23.7686 H   0  0  0  0  0
  -31.4093   13.2785   23.4991 H   0  0  0  0  0
  -30.9246   12.1886   22.1213 H   0  0  0  0  0
  -30.7644   15.1093   22.2885 H   0  0  0  0  0
  -30.1799   13.5857   19.9914 H   0  0  0  0  0
  -30.1571   16.5160   19.9017 H   0  0  0  0  0
  -30.4457   16.4241   16.5231 H   0  0  0  0  0
  -32.1518   16.3959   17.0325 H   0  0  0  0  0
  -30.9715   17.3840   17.9278 H   0  0  0  0  0
  -28.4264   15.2953   21.3133 H   0  0  0  0  0
  -27.8312   12.4577   21.7183 H   0  0  0  0  0
  -27.3813   13.9946   22.6641 H   0  0  0  0  0
  -27.6772   16.3225   19.4360 H   0  0  0  0  0
  -26.5634   16.1695   21.4531 H   0  0  0  0  0
  -25.5121   16.9610   20.1212 H   0  0  0  0  0
  -25.4735   14.7545   18.1885 H   0  0  0  0  0
  -26.0816   16.4644   17.7998 H   0  0  0  0  0
  -27.4984   13.8700   17.2857 H   0  0  0  0  0
  -28.0818   15.5106   16.9128 H   0  0  0  0  0
  -26.6482   14.8641   16.0774 H   0  0  0  0  0
  -25.1767   14.2594   21.3481 H   0  0  0  0  0
  -24.1768   15.0122   20.0814 H   0  0  0  0  0
  -24.2194   15.7149   21.7171 H   0  0  0  0  0
  -32.9609   14.3350   22.1866 H   0  0  0  0  0
  -32.4848   15.5242   21.1207 H   0  0  0  0  0
  -32.6951   13.9604   20.5848 H   0  0  0  0  0
  1  2  2  0  0  0
  1  3  1  0  0  0
  1  4  1  0  0  0
  4  5  1  0  0  0
  4 13  1  0  0  0
  5  6  1  0  0  0
  6  7  1  0  0  0
  6 20  1  0  0  0
  7  8  1  0  0  0
  7 12  1  0  0  0
  8  9  1  0  0  0
  9 10  2  0  0  0
  9 11  1  0  0  0
 12 13  1  0  0  0
 12 14  1  0  0  0
 14 15  1  0  0  0
 15 16  1  0  0  0
 15 17  1  0  0  0
 16 19  1  0  0  0
 17 18  1  0  0  0
  3 21  1  0  0  0
  4 22  1  0  0  0
  5 23  1  0  0  0
  5 24  1  0  0  0
  6 25  1  0  0  0
  7 26  1  0  0  0
  8 27  1  0  0  0
 11 28  1  0  0  0
 11 29  1  0  0  0
 11 30  1  0  0  0
 12 31  1  0  0  0
 13 32  1  0  0  0
 13 33  1  0  0  0
 15 34  1  0  0  0
 16 35  1  0  0  0
 16 36  1  0  0  0
 17 37  1  0  0  0
 17 38  1  0  0  0
 18 39  1  0  0  0
 18 40  1  0  0  0
 18 41  1  0  0  0
 19 42  1  0  0  0
 19 43  1  0  0  0
 19 44  1  0  0  0
 20 45  1  0  0  0
 20 46  1  0  0  0
 20 47  1  0  0  0
M  END
$$$$
