3np7_ligand
  -I-interpret- 

 35 36  0  0  0  0  0  0  0  0999 V2000
    7.0580   24.5830   32.1970 C   0  0  0  0  0
    6.6790   24.2560   33.4700 O   0  0  0  0  0
    7.5850   23.6210   31.3240 C   0  0  0  0  0
    7.9780   23.9680   30.0280 C   0  0  0  0  0
    7.8320   25.2840   29.6080 C   0  0  0  0  0
    8.1930   25.6720   28.3580 O   0  0  0  0  0
    7.3100   26.2310   30.4750 C   0  0  0  0  0
    7.1580   27.8430   29.8960 Cl  0  0  0  0  0
    6.9180   25.9010   31.7690 C   0  0  0  0  0
    7.7450   22.1740   31.7840 C   0  0  0  0  0
    7.0930   21.1790   30.8090 C   0  0  0  0  0
    5.6900   21.4150   30.7070 O   0  0  0  0  0
    7.3120   19.7590   31.3100 C   0  0  0  0  0
    6.8030   18.8450   30.3470 O   0  0  0  0  0
    8.7960   19.5050   31.5360 C   0  0  0  0  0
    8.9390   18.2170   32.1220 O   0  0  0  0  0
    9.3950   20.5800   32.4560 C   0  0  0  0  0
    9.1570   21.8840   31.8700 O   0  0  0  0  0
   10.9080   20.4670   32.6260 C   0  0  0  0  0
   11.5190   20.7460   31.3470 O   0  0  0  0  0
    6.3448   25.0387   33.9142 H   0  0  0  0  0
    8.3932   23.2164   29.3565 H   0  0  0  0  0
    8.0193   26.6103   28.2527 H   0  0  0  0  0
    6.5088   26.6603   32.4354 H   0  0  0  0  0
    7.2501   22.0638   32.7489 H   0  0  0  0  0
    7.5502   21.3119   29.8285 H   0  0  0  0  0
    5.3042   20.7842   30.0948 H   0  0  0  0  0
    6.7901   19.6226   32.2571 H   0  0  0  0  0
    6.9382   17.9467   30.6573 H   0  0  0  0  0
    9.3294   19.5481   30.5864 H   0  0  0  0  0
    9.8698   18.0369   32.2730 H   0  0  0  0  0
    8.9192   20.4427   33.4270 H   0  0  0  0  0
   11.1769   19.4659   32.9631 H   0  0  0  0  0
   11.2583   21.1769   33.3753 H   0  0  0  0  0
   12.4733   20.6809   31.4285 H   0  0  0  0  0
  1  2  1  0  0  0
  1  3  4  0  0  0
  1  9  4  0  0  0
  3  4  4  0  0  0
  3 10  1  0  0  0
  4  5  4  0  0  0
  5  6  1  0  0  0
  5  7  4  0  0  0
  7  8  1  0  0  0
  7  9  4  0  0  0
 10 11  1  0  0  0
 10 18  1  0  0  0
 11 12  1  0  0  0
 11 13  1  0  0  0
 13 14  1  0  0  0
 13 15  1  0  0  0
 15 16  1  0  0  0
 15 17  1  0  0  0
 17 18  1  0  0  0
 17 19  1  0  0  0
 19 20  1  0  0  0
  2 21  1  0  0  0
  4 22  1  0  0  0
  6 23  1  0  0  0
  9 24  1  0  0  0
 10 25  1  0  0  0
 11 26  1  0  0  0
 12 27  1  0  0  0
 13 28  1  0  0  0
 14 29  1  0  0  0
 15 30  1  0  0  0
 16 31  1  0  0  0
 17 32  1  0  0  0
 19 33  1  0  0  0
 19 34  1  0  0  0
 20 35  1  0  0  0
M  END
$$$$
