5i3v_ligand
  -I-interpret- 

 62 64  0  0  0  0  0  0  0  0999 V2000
   65.4440   50.7560   13.1500 C   0  0  0  0  0
   65.2210   51.5290   11.8560 C   0  0  0  0  0
   66.4150   52.4750   11.6320 C   0  0  0  0  0
   63.9430   52.3560   11.9420 C   0  0  0  0  0
   65.1280   50.5300   10.6940 C   0  0  0  0  0
   63.8820   49.6170   10.6730 C   0  0  0  0  0
   64.0490   48.7720    9.4810 N   0  0  0  0  0
   64.3360   47.4760    9.5030 C   0  0  0  0  0
   64.4070   46.8360   10.5500 O   0  0  0  0  0
   64.5930   46.8170    8.1350 C   0  0  0  0  0
   63.6250   45.6320    7.9010 C   0  0  0  0  0
   66.0790   46.4070    7.9310 C   0  0  0  0  0
   66.9240   47.6420    8.1990 C   0  0  0  0  0
   66.9010   48.7660    7.3680 C   0  0  0  0  0
   67.6140   49.8660    7.6530 N   0  0  0  0  0
   66.1420   48.7320    6.2680 N   0  0  0  0  0
   67.7410   47.6870    9.3240 C   0  0  0  0  0
   68.4800   48.8490    9.6150 C   0  0  0  0  0
   69.3290   48.9210   10.7410 C   0  0  0  0  0
   68.4100   49.9290    8.7520 C   0  0  0  0  0
   69.1410   51.0790    9.0200 C   0  0  0  0  0
   69.9690   51.1680   10.1450 C   0  0  0  0  0
   70.0460   50.0900   11.0310 C   0  0  0  0  0
   70.9580   50.1690   12.1120 C   0  0  0  0  0
   71.9600   49.2700   12.0310 N   0  0  0  0  0
   72.9630   49.1890   12.9170 C   0  0  0  0  0
   72.9650   50.0720   13.9930 C   0  0  0  0  0
   71.9590   51.0110   14.1220 C   0  0  0  0  0
   70.9310   51.0800   13.1690 C   0  0  0  0  0
   69.8360   52.0990   13.3530 C   0  0  0  0  0
   64.6090   50.0747   13.3133 H   0  0  0  0  0
   66.3703   50.1863   13.0764 H   0  0  0  0  0
   65.5117   51.4560   13.9828 H   0  0  0  0  0
   67.3345   51.8918   11.5813 H   0  0  0  0  0
   66.2760   53.0185   10.6974 H   0  0  0  0  0
   66.4769   53.1821   12.4592 H   0  0  0  0  0
   63.8026   52.9035   11.0100 H   0  0  0  0  0
   63.0934   51.6934   12.1071 H   0  0  0  0  0
   64.0225   53.0602   12.7702 H   0  0  0  0  0
   65.9877   49.8674   10.7943 H   0  0  0  0  0
   65.0814   51.1275    9.7835 H   0  0  0  0  0
   62.9586   50.1948   10.6323 H   0  0  0  0  0
   63.8025   49.0213   11.5824 H   0  0  0  0  0
   63.9359   49.2148    8.5691 H   0  0  0  0  0
   64.3881   47.5711    7.3751 H   0  0  0  0  0
   63.7703   44.8861    8.6824 H   0  0  0  0  0
   62.5970   45.9934    7.9285 H   0  0  0  0  0
   63.8284   45.1851    6.9279 H   0  0  0  0  0
   66.2418   46.0420    6.9169 H   0  0  0  0  0
   66.3520   45.5991    8.6099 H   0  0  0  0  0
   65.5961   47.8983    6.0506 H   0  0  0  0  0
   66.1088   49.5398    5.6461 H   0  0  0  0  0
   67.8090   46.8204    9.9816 H   0  0  0  0  0
   69.4283   48.0544   11.3946 H   0  0  0  0  0
   69.0685   51.9287    8.3411 H   0  0  0  0  0
   70.5498   52.0719   10.3288 H   0  0  0  0  0
   73.7562   48.4509   12.7978 H   0  0  0  0  0
   73.7616   50.0229   14.7354 H   0  0  0  0  0
   71.9641   51.7001   14.9665 H   0  0  0  0  0
   69.8004   52.7535   12.4821 H   0  0  0  0  0
   68.8800   51.5872   13.4638 H   0  0  0  0  0
   70.0384   52.6907   14.2457 H   0  0  0  0  0
  1  2  1  0  0  0
  2  3  1  0  0  0
  2  4  1  0  0  0
  2  5  1  0  0  0
  5  6  1  0  0  0
  6  7  1  0  0  0
  7  8  1  0  0  0
  8  9  2  0  0  0
  8 10  1  0  0  0
 10 11  1  0  0  0
 10 12  1  0  0  0
 12 13  1  0  0  0
 13 14  4  0  0  0
 13 17  4  0  0  0
 14 15  4  0  0  0
 14 16  1  0  0  0
 15 20  4  0  0  0
 17 18  4  0  0  0
 18 19  4  0  0  0
 18 20  4  0  0  0
 19 23  4  0  0  0
 20 21  4  0  0  0
 21 22  4  0  0  0
 22 23  4  0  0  0
 23 24  1  0  0  0
 24 25  4  0  0  0
 24 29  4  0  0  0
 25 26  4  0  0  0
 26 27  4  0  0  0
 27 28  4  0  0  0
 28 29  4  0  0  0
 29 30  1  0  0  0
  1 31  1  0  0  0
  1 32  1  0  0  0
  1 33  1  0  0  0
  3 34  1  0  0  0
  3 35  1  0  0  0
  3 36  1  0  0  0
  4 37  1  0  0  0
  4 38  1  0  0  0
  4 39  1  0  0  0
  5 40  1  0  0  0
  5 41  1  0  0  0
  6 42  1  0  0  0
  6 43  1  0  0  0
  7 44  1  0  0  0
 10 45  1  0  0  0
 11 46  1  0  0  0
 11 47  1  0  0  0
 11 48  1  0  0  0
 12 49  1  0  0  0
 12 50  1  0  0  0
 16 51  1  0  0  0
 16 52  1  0  0  0
 17 53  1  0  0  0
 19 54  1  0  0  0
 21 55  1  0  0  0
 22 56  1  0  0  0
 26 57  1  0  0  0
 27 58  1  0  0  0
 28 59  1  0  0  0
 30 60  1  0  0  0
 30 61  1  0  0  0
 30 62  1  0  0  0
M  END
$$$$
