6gvh_ligand
  -I-interpret- 

 38 41  0  0  0  0  0  0  0  0999 V2000
  -15.8790  147.7260   28.8440 C   0  0  0  0  0
  -16.9720  146.8610   28.6010 C   0  0  0  0  0
  -18.1270  147.3740   29.2300 C   0  0  0  0  0
  -15.8770  148.8510   29.5420 N   0  0  0  0  0
  -17.4130  145.6490   27.9680 C   0  0  0  0  0
  -20.5650  146.5430   29.3710 C   0  0  0  0  0
  -21.3590  145.4720   28.6260 C   0  0  0  0  0
  -20.6930  146.4250   30.8870 C   0  0  0  0  0
  -18.2180  148.5000   29.9540 N   0  0  0  0  0
  -16.6890  144.6350   27.1440 C   0  0  0  0  0
  -17.0680  149.2000   30.0790 C   0  0  0  0  0
  -19.1420  146.5070   28.9650 N   0  0  0  0  0
  -18.7060  145.4520   28.1930 N   0  0  0  0  0
  -17.1170  150.3260   30.7910 N   0  0  0  0  0
  -14.3410  147.3120   28.1730 Cl  0  0  0  0  0
  -15.8220  145.0450   26.1290 C   0  0  0  0  0
  -16.2340  142.2940   26.6550 C   0  0  0  0  0
  -16.8870  143.2650   27.3970 C   0  0  0  0  0
  -15.3820  142.7320   25.6560 C   0  0  0  0  0
  -15.1640  144.0660   25.3800 C   0  0  0  0  0
  -14.2570  144.1700   24.3240 N   0  0  0  0  0
  -13.9800  142.9240   24.0240 C   0  0  0  0  0
  -14.6180  141.9850   24.7810 O   0  0  0  0  0
  -13.1630  142.4710   23.0830 N   0  0  0  0  0
  -20.9938  147.5059   29.0935 H   0  0  0  0  0
  -20.9970  144.4856   28.9160 H   0  0  0  0  0
  -22.4152  145.5620   28.8800 H   0  0  0  0  0
  -21.2295  145.6067   27.5521 H   0  0  0  0  0
  -20.2549  145.4824   31.2151 H   0  0  0  0  0
  -20.1686  147.2551   31.3603 H   0  0  0  0  0
  -21.7466  146.4535   31.1647 H   0  0  0  0  0
  -16.2752  150.8888   30.9138 H   0  0  0  0  0
  -17.9963  150.6247   31.2129 H   0  0  0  0  0
  -15.6623  146.1039   25.9258 H   0  0  0  0  0
  -16.3846  141.2321   26.8494 H   0  0  0  0  0
  -17.5676  142.9616   28.1925 H   0  0  0  0  0
  -12.6590  143.1269   22.4862 H   0  0  0  0  0
  -13.0385  141.4666   22.9559 H   0  0  0  0  0
  2  1  4  0  0  0
  1  4  4  0  0  0
  1 15  1  0  0  0
  3  2  4  0  0  0
  2  5  4  0  0  0
  3  9  4  0  0  0
 12  3  4  0  0  0
  4 11  4  0  0  0
  5 10  1  0  0  0
  5 13  4  0  0  0
  6  7  1  0  0  0
  6  8  1  0  0  0
  6 12  1  0  0  0
  9 11  4  0  0  0
 10 16  4  0  0  0
 10 18  4  0  0  0
 11 14  1  0  0  0
 12 13  4  0  0  0
 16 20  4  0  0  0
 18 17  4  0  0  0
 17 19  4  0  0  0
 19 20  4  0  0  0
 19 23  4  0  0  0
 20 21  4  0  0  0
 21 22  4  0  0  0
 22 23  4  0  0  0
 22 24  1  0  0  0
  6 25  1  0  0  0
  7 26  1  0  0  0
  7 27  1  0  0  0
  7 28  1  0  0  0
  8 29  1  0  0  0
  8 30  1  0  0  0
  8 31  1  0  0  0
 14 32  1  0  0  0
 14 33  1  0  0  0
 16 34  1  0  0  0
 17 35  1  0  0  0
 18 36  1  0  0  0
 24 37  1  0  0  0
 24 38  1  0  0  0
M  END
$$$$
