223l_ligand
  -I-interpret- 

 12 12  0  0  0  0  0  0  0  0999 V2000
   29.4090    7.9130   -1.7090 C   0  0  0  0  0
   30.1620    7.3800   -2.7460 C   0  0  0  0  0
   31.3980    7.9340   -3.0780 C   0  0  0  0  0
   31.8660    9.0540   -2.4000 C   0  0  0  0  0
   31.1000    9.6020   -1.3760 C   0  0  0  0  0
   29.8700    9.0320   -1.0270 C   0  0  0  0  0
   28.4596    7.4554   -1.4308 H   0  0  0  0  0
   29.7850    6.5231   -3.3043 H   0  0  0  0  0
   31.9985    7.4880   -3.8708 H   0  0  0  0  0
   32.8243    9.4987   -2.6683 H   0  0  0  0  0
   31.4601   10.4812   -0.8418 H   0  0  0  0  0
   29.2757    9.4650   -0.2224 H   0  0  0  0  0
  1  2  4  0  0  0
  1  6  4  0  0  0
  2  3  4  0  0  0
  3  4  4  0  0  0
  4  5  4  0  0  0
  5  6  4  0  0  0
  1  7  1  0  0  0
  2  8  1  0  0  0
  3  9  1  0  0  0
  4 10  1  0  0  0
  5 11  1  0  0  0
  6 12  1  0  0  0
M  END
$$$$
