1uwf_ligand
  -I-interpret- 

 36 36  0  0  0  0  0  0  0  0999 V2000
    9.6880   14.7890   40.6340 C   0  0  0  0  0
    9.6030   14.0160   41.9330 C   0  0  0  0  0
    9.0430   15.4140   38.1340 C   0  0  0  0  0
    8.8570   14.5640   39.3790 C   0  0  0  0  0
    7.2140   14.8730   34.8130 C   0  0  0  0  0
    7.4110   15.3800   33.5040 O   0  0  0  0  0
    7.3680   13.2960   34.7580 C   0  0  0  0  0
    6.3800   12.7570   33.8740 O   0  0  0  0  0
    8.7660   12.9250   34.2330 C   0  0  0  0  0
    8.9190   11.4860   34.1850 O   0  0  0  0  0
    9.8510   13.5190   35.1970 C   0  0  0  0  0
    9.6810   15.0020   35.2810 O   0  0  0  0  0
   11.2620   13.2090   34.7100 C   0  0  0  0  0
   11.5150   13.7850   33.4460 O   0  0  0  0  0
    8.1120   14.9640   37.1100 O   0  0  0  0  0
    8.3350   15.4590   35.7760 C   0  0  0  0  0
   10.6850   14.5194   40.2856 H   0  0  0  0  0
    9.3473   15.7763   40.9460 H   0  0  0  0  0
    8.5991   14.1121   42.3465 H   0  0  0  0  0
    9.8202   12.9648   41.7436 H   0  0  0  0  0
   10.3288   14.4165   42.6408 H   0  0  0  0  0
   10.0657   15.3146   37.7704 H   0  0  0  0  0
    8.8511   16.4604   38.3712 H   0  0  0  0  0
    7.8402   14.7927   39.6982 H   0  0  0  0  0
    9.1452   13.5642   39.0544 H   0  0  0  0  0
    6.2278   15.1542   35.1822 H   0  0  0  0  0
    7.3217   16.3358   33.5154 H   0  0  0  0  0
    7.2368   12.8874   35.7599 H   0  0  0  0  0
    5.5051   12.9853   34.1964 H   0  0  0  0  0
    8.8868   13.3319   33.2290 H   0  0  0  0  0
    9.7945   11.2692   33.8561 H   0  0  0  0  0
    9.7171   13.0615   36.1772 H   0  0  0  0  0
   11.3657   12.1275   34.6221 H   0  0  0  0  0
   11.9718   13.6242   35.4255 H   0  0  0  0  0
   12.4094   13.5704   33.1710 H   0  0  0  0  0
    8.2982   16.5483   35.7850 H   0  0  0  0  0
  1  2  1  0  0  0
  4  1  1  0  0  0
  3  4  1  0  0  0
 15  3  1  0  0  0
  5  6  1  0  0  0
  5  7  1  0  0  0
 16  5  1  0  0  0
  7  8  1  0  0  0
  7  9  1  0  0  0
  9 10  1  0  0  0
 11  9  1  0  0  0
 12 11  1  0  0  0
 11 13  1  0  0  0
 16 12  1  0  0  0
 13 14  1  0  0  0
 15 16  1  0  0  0
  1 17  1  0  0  0
  1 18  1  0  0  0
  2 19  1  0  0  0
  2 20  1  0  0  0
  2 21  1  0  0  0
  3 22  1  0  0  0
  3 23  1  0  0  0
  4 24  1  0  0  0
  4 25  1  0  0  0
  5 26  1  0  0  0
  6 27  1  0  0  0
  7 28  1  0  0  0
  8 29  1  0  0  0
  9 30  1  0  0  0
 10 31  1  0  0  0
 11 32  1  0  0  0
 13 33  1  0  0  0
 13 34  1  0  0  0
 14 35  1  0  0  0
 16 36  1  0  0  0
M  END
$$$$
