5i40_ligand
  -I-interpret- 

 18 19  0  0  0  0  0  0  0  0999 V2000
  -16.7130    6.0720    9.2980 C   0  0  0  0  0
  -17.3090    6.5160   10.5520 C   0  0  0  0  0
  -16.8580    7.2700   11.6580 C   0  0  0  0  0
  -19.3830    5.3980    9.8940 C   0  0  0  0  0
  -17.8840    7.3640   12.5270 C   0  0  0  0  0
  -18.6420    6.1600   10.8200 C   0  0  0  0  0
  -18.7740    5.0290    8.7510 N   0  0  0  0  0
  -17.4770    5.3540    8.4550 C   0  0  0  0  0
  -19.5460    4.2530    7.7820 C   0  0  0  0  0
  -18.9660    6.6930   12.0360 N   0  0  0  0  0
  -20.5550    5.0740   10.1180 O   0  0  0  0  0
  -15.6795    6.3144    9.0508 H   0  0  0  0  0
  -15.8633    7.6972   11.7853 H   0  0  0  0  0
  -17.8540    7.8956   13.4781 H   0  0  0  0  0
  -17.0511    5.0211    7.5085 H   0  0  0  0  0
  -19.6075    4.8040    6.8435 H   0  0  0  0  0
  -19.0543    3.2953    7.6110 H   0  0  0  0  0
  -20.5497    4.0831    8.1715 H   0  0  0  0  0
  1  2  1  0  0  0
  1  8  2  0  0  0
  2  3  4  0  0  0
  2  6  4  0  0  0
  3  5  4  0  0  0
  6  4  1  0  0  0
  4  7  1  0  0  0
  4 11  2  0  0  0
  5 10  4  0  0  0
  6 10  4  0  0  0
  7  8  1  0  0  0
  7  9  1  0  0  0
  1 12  1  0  0  0
  3 13  1  0  0  0
  5 14  1  0  0  0
  8 15  1  0  0  0
  9 16  1  0  0  0
  9 17  1  0  0  0
  9 18  1  0  0  0
M  END
$$$$
