3pd4_ligand
  -I-interpret- 

 41 43  0  0  0  0  0  0  0  0999 V2000
   10.2690    2.9110  -13.2890 C   0  0  0  0  0
    9.0200    0.7700  -13.0340 N   0  3  0  0  0
   11.5350    3.2640  -12.9790 O   0  0  0  0  0
   16.3710    5.7050  -16.3700 N   0  0  0  0  0
   15.7270    4.5450  -16.3270 C   0  0  0  0  0
   14.4270    4.4380  -16.6040 N   0  0  0  0  0
   13.7140    5.5320  -16.9270 C   0  0  0  0  0
   14.3450    6.7620  -16.9960 C   0  0  0  0  0
   15.7090    6.8330  -16.7160 C   0  0  0  0  0
   16.3170    8.0210  -16.7980 N   0  0  0  0  0
   13.4470    7.6760  -17.3410 N   0  0  0  0  0
   12.2930    7.0720  -17.5060 C   0  0  0  0  0
    9.6090    3.3960  -14.3490 N   0  0  0  0  0
   12.4370    5.7580  -17.2400 N   0  0  0  0  0
    9.6040    1.9180  -12.3400 C   0  0  0  0  0
   11.3030    4.7540  -17.3560 C   0  0  0  0  0
   11.1780    3.7030  -16.2720 C   0  0  0  0  0
   10.4830    2.6080  -16.8570 O   0  0  0  0  0
   10.2690    4.3870  -15.2490 C   0  0  0  0  0
    9.2720    5.1760  -16.1370 C   0  0  0  0  0
   10.0240    5.5000  -17.3630 O   0  0  0  0  0
    8.7410    6.4760  -15.5370 C   0  0  0  0  0
    9.8240    7.3010  -15.1350 O   0  0  0  0  0
    8.5920    0.1437  -12.3521 H   0  0  0  0  0
    8.3105    1.0959  -13.6904 H   0  0  0  0  0
    9.7518    0.2728  -13.5417 H   0  0  0  0  0
   16.2814    3.6467  -16.0552 H   0  0  0  0  0
   17.3138    8.0988  -16.5963 H   0  0  0  0  0
   15.7840    8.8495  -17.0623 H   0  0  0  0  0
   11.3650    7.5563  -17.8100 H   0  0  0  0  0
    8.6557    3.0882  -14.5410 H   0  0  0  0  0
    8.7982    2.4398  -11.8236 H   0  0  0  0  0
   10.3699    1.5422  -11.6615 H   0  0  0  0  0
   11.5349    4.2071  -18.2699 H   0  0  0  0  0
   12.1170    3.3545  -15.8420 H   0  0  0  0  0
   10.3784    1.9115  -16.2046 H   0  0  0  0  0
   10.8012    5.0399  -14.5571 H   0  0  0  0  0
    8.3865    4.5577  -16.2843 H   0  0  0  0  0
    8.1236    6.2452  -14.6689 H   0  0  0  0  0
    8.1478    7.0012  -16.2855 H   0  0  0  0  0
    9.4820    8.1155  -14.7592 H   0  0  0  0  0
  1  3  2  0  0  0
 13  1  1  0  0  0
  1 15  1  0  0  0
 15  2  1  0  0  0
  5  4  4  0  0  0
  9  4  4  0  0  0
  6  5  4  0  0  0
  7  6  4  0  0  0
  7  8  4  0  0  0
 14  7  4  0  0  0
  8  9  4  0  0  0
 11  8  4  0  0  0
  9 10  1  0  0  0
 12 11  4  0  0  0
 14 12  4  0  0  0
 19 13  1  0  0  0
 16 14  1  0  0  0
 17 16  1  0  0  0
 16 21  1  0  0  0
 17 18  1  0  0  0
 17 19  1  0  0  0
 19 20  1  0  0  0
 20 21  1  0  0  0
 20 22  1  0  0  0
 22 23  1  0  0  0
  2 24  1  0  0  0
  2 25  1  0  0  0
  2 26  1  0  0  0
  5 27  1  0  0  0
 10 28  1  0  0  0
 10 29  1  0  0  0
 12 30  1  0  0  0
 13 31  1  0  0  0
 15 32  1  0  0  0
 15 33  1  0  0  0
 16 34  1  0  0  0
 17 35  1  0  0  0
 18 36  1  0  0  0
 19 37  1  0  0  0
 20 38  1  0  0  0
 22 39  1  0  0  0
 22 40  1  0  0  0
 23 41  1  0  0  0
M  END
$$$$
