5i59_ligand
  -I-interpret- 

 47 49  0  0  0  0  0  0  0  0999 V2000
   17.8790   95.8980   28.5420 C   0  0  0  0  0
   18.7870   95.5290   27.5860 C   0  0  0  0  0
   20.3190   96.9780   28.4130 C   0  0  0  0  0
   19.4110   97.3550   29.3770 C   0  0  0  0  0
   21.7170   97.5930   28.3730 C   0  0  0  0  0
   23.9850  101.7230   25.6660 C   0  0  0  0  0
   22.4950  100.2250   26.5120 C   0  0  0  0  0
   24.5190  103.0310   25.1040 C   0  0  0  0  0
   18.4190   94.4790   26.6040 C   0  0  0  0  0
   18.3100  100.2050   27.7900 C   0  0  0  0  0
   18.1270   99.2390   26.8290 C   0  0  0  0  0
   17.0780   98.3880   26.9330 C   0  0  0  0  0
   16.2250   98.5020   27.9570 C   0  0  0  0  0
   16.3990   99.4480   28.9160 C   0  0  0  0  0
   17.4410  100.3120   28.8300 C   0  0  0  0  0
   14.9040   97.3740   28.0600 S   0  0  0  0  0
   15.3470   95.9930   28.7400 N   0  0  0  0  0
   16.5030   95.2390   28.5590 C   0  0  0  0  0
   19.9940   96.0610   27.5260 N   0  0  0  0  0
   18.2050   96.8030   29.4290 N   0  0  0  0  0
   22.2200   98.1510   29.3130 O   0  0  0  0  0
   22.4470   97.4430   27.1840 N   0  0  0  0  0
   23.7370   97.9670   27.0360 C   0  0  0  0  0
   23.6350   99.3970   26.5550 C   0  0  0  0  0
   24.8580  100.3690   25.9370 S   0  0  0  0  0
   22.7530  101.4570   26.0230 N   0  0  0  0  0
   13.9150   97.8220   28.8190 O   0  0  0  0  0
   14.2510   97.1640   26.9310 O   0  0  0  0  0
   18.9180   99.0920   25.7980 F   0  0  0  0  0
   19.2900  101.0420   27.7520 F   0  0  0  0  0
   19.6861   98.1165   30.1068 H   0  0  0  0  0
   21.5064   99.9037   26.8399 H   0  0  0  0  0
   25.2960  103.4179   25.7633 H   0  0  0  0  0
   24.9362  102.8555   24.1124 H   0  0  0  0  0
   23.7062  103.7540   25.0348 H   0  0  0  0  0
   18.1893   93.5537   27.1323 H   0  0  0  0  0
   17.5451   94.8025   26.0385 H   0  0  0  0  0
   19.2532   94.3123   25.9225 H   0  0  0  0  0
   16.9293   97.6112   26.1830 H   0  0  0  0  0
   15.7031   99.5126   29.7525 H   0  0  0  0  0
   17.5802  101.0840   29.5868 H   0  0  0  0  0
   14.6798   95.6070   29.4080 H   0  0  0  0  0
   16.5330   94.5887   29.4332 H   0  0  0  0  0
   16.3952   94.8281   27.5552 H   0  0  0  0  0
   22.0256   96.9375   26.4047 H   0  0  0  0  0
   24.2938   97.3739   26.3105 H   0  0  0  0  0
   24.2580   97.9373   27.9930 H   0  0  0  0  0
  2  1  4  0  0  0
  1 18  1  0  0  0
 20  1  4  0  0  0
  2  9  1  0  0  0
 19  2  4  0  0  0
  3  4  4  0  0  0
  5  3  1  0  0  0
  3 19  4  0  0  0
  4 20  4  0  0  0
  5 21  2  0  0  0
 22  5  1  0  0  0
  6  8  1  0  0  0
  6 25  4  0  0  0
 26  6  4  0  0  0
 24  7  4  0  0  0
  7 26  4  0  0  0
 11 10  4  0  0  0
 15 10  4  0  0  0
 10 30  1  0  0  0
 12 11  4  0  0  0
 11 29  1  0  0  0
 13 12  4  0  0  0
 13 14  4  0  0  0
 16 13  1  0  0  0
 14 15  4  0  0  0
 17 16  1  0  0  0
 16 27  2  0  0  0
 16 28  2  0  0  0
 18 17  1  0  0  0
 23 22  1  0  0  0
 23 24  1  0  0  0
 24 25  4  0  0  0
  4 31  1  0  0  0
  7 32  1  0  0  0
  8 33  1  0  0  0
  8 34  1  0  0  0
  8 35  1  0  0  0
  9 36  1  0  0  0
  9 37  1  0  0  0
  9 38  1  0  0  0
 12 39  1  0  0  0
 14 40  1  0  0  0
 15 41  1  0  0  0
 17 42  1  0  0  0
 18 43  1  0  0  0
 18 44  1  0  0  0
 22 45  1  0  0  0
 23 46  1  0  0  0
 23 47  1  0  0  0
M  END
$$$$
