2o9i_ligand
  -I-interpret- 

 43 44  0  0  0  0  0  0  0  0999 V2000
   12.8080   33.8760   28.4650 O   0  0  0  0  0
   12.5550   33.3080   26.9880 S   0  0  0  0  0
   11.4650   32.1610   27.1920 O   0  0  0  0  0
   13.9900   32.3060   26.5190 C   0  0  0  0  0
   15.1260   32.1970   27.5130 C   0  0  0  0  0
   16.3220   31.3860   27.1480 C   0  0  0  0  0
   16.4020   30.6870   25.8280 C   0  0  0  0  0
   15.2730   30.8070   24.8650 C   0  0  0  0  0
   14.0820   31.6030   25.2020 C   0  0  0  0  0
   11.9680   34.4560   26.0260 N   0  0  0  0  0
   13.1230   35.4660   25.9290 C   0  0  0  0  0
   12.9530   36.8720   25.3390 C   0  0  0  0  0
   13.0530   36.8670   23.9860 F   0  0  0  0  0
   11.7370   37.3950   25.6850 F   0  0  0  0  0
   13.9420   37.6860   25.8220 F   0  0  0  0  0
   11.3140   33.9480   24.6150 C   0  0  0  0  0
   12.2500   33.9830   23.3950 C   0  0  0  0  0
   11.7860   33.5630   22.1160 C   0  0  0  0  0
    9.9330   33.4640   24.4170 C   0  0  0  0  0
    9.4670   33.0410   23.1290 C   0  0  0  0  0
   10.3710   33.0660   21.9110 C   0  0  0  0  0
    9.8800   32.6010   20.4090 C   0  0  0  0  0
   10.5510   31.3130   19.8060 C   0  0  0  0  0
    9.9770   30.8770   18.6860 F   0  0  0  0  0
   11.8390   31.5590   19.5350 F   0  0  0  0  0
   10.5240   30.3090   20.7280 F   0  0  0  0  0
    8.4950   32.2430   20.6560 O   0  0  0  0  0
    9.8180   33.8640   19.4420 C   0  0  0  0  0
    9.1380   33.6680   18.3220 F   0  0  0  0  0
    9.2130   34.9250   20.0400 F   0  0  0  0  0
   11.0310   34.3370   19.1070 F   0  0  0  0  0
   15.0706   32.7019   28.4774 H   0  0  0  0  0
   17.1495   31.3011   27.8524 H   0  0  0  0  0
   17.2804   30.0941   25.5730 H   0  0  0  0  0
   15.3291   30.3006   23.9014 H   0  0  0  0  0
   13.2623   31.6807   24.4878 H   0  0  0  0  0
   13.8150   34.9872   25.2362 H   0  0  0  0  0
   13.3707   35.6620   26.9722 H   0  0  0  0  0
   13.2762   34.3319   23.5104 H   0  0  0  0  0
   12.4656   33.6003   21.2646 H   0  0  0  0  0
    9.2534   33.4276   25.2684 H   0  0  0  0  0
    8.4394   32.6934   23.0223 H   0  0  0  0  0
    8.0907   31.9488   19.8365 H   0  0  0  0  0
  1  2  2  0  0  0
  2  3  2  0  0  0
  2  4  1  0  0  0
  2 10  1  0  0  0
  4  5  4  0  0  0
  4  9  4  0  0  0
  5  6  4  0  0  0
  6  7  4  0  0  0
  7  8  4  0  0  0
  8  9  4  0  0  0
 10 11  1  0  0  0
 10 16  1  0  0  0
 11 12  1  0  0  0
 12 13  1  0  0  0
 12 14  1  0  0  0
 12 15  1  0  0  0
 16 17  4  0  0  0
 16 19  4  0  0  0
 17 18  4  0  0  0
 18 21  4  0  0  0
 19 20  4  0  0  0
 20 21  4  0  0  0
 21 22  1  0  0  0
 22 23  1  0  0  0
 22 27  1  0  0  0
 22 28  1  0  0  0
 23 24  1  0  0  0
 23 25  1  0  0  0
 23 26  1  0  0  0
 28 29  1  0  0  0
 28 30  1  0  0  0
 28 31  1  0  0  0
  5 32  1  0  0  0
  6 33  1  0  0  0
  7 34  1  0  0  0
  8 35  1  0  0  0
  9 36  1  0  0  0
 11 37  1  0  0  0
 11 38  1  0  0  0
 17 39  1  0  0  0
 18 40  1  0  0  0
 19 41  1  0  0  0
 20 42  1  0  0  0
 27 43  1  0  0  0
M  END
$$$$
