3qmk_ligand
  -I-interpret- 

111114  0  0  0  0  0  0  0  0999 V2000
   20.6440  -48.4560   36.1850 C   0  0  0  0  0
   20.4240  -47.3900   35.1100 C   0  0  0  0  0
   21.7530  -46.9050   34.5270 C   0  0  0  0  0
   22.6480  -46.4400   35.6770 C   0  0  0  0  0
   22.7820  -47.5490   36.7230 C   0  0  0  0  0
   23.6210  -47.0250   37.8880 C   0  0  0  0  0
   19.5650  -47.9150   34.0390 N   0  0  0  0  0
   21.2590  -49.6180   35.6220 O   0  0  0  0  0
   21.5090  -45.8060   33.6440 O   0  0  0  0  0
   23.9380  -46.0760   35.1750 O   0  0  0  0  0
   21.4800  -47.9080   37.2170 O   0  0  0  0  0
   23.7460  -48.0320   38.8930 O   0  0  0  0  0
   18.0000  -47.6380   34.4010 S   0  0  0  0  0
   17.7930  -46.1660   34.6090 O   0  0  0  0  0
   17.1410  -48.1060   33.2630 O   0  0  0  0  0
   17.6340  -48.3790   35.6530 O   0  0  0  0  0
   24.3250  -47.6970   40.1560 S   0  0  0  0  0
   25.1740  -46.4690   40.0060 O   0  0  0  0  0
   23.2410  -47.4240   41.1570 O   0  0  0  0  0
   25.1720  -48.8430   40.6260 O   0  0  0  0  0
   24.4610  -44.8780   35.6630 C   0  0  0  0  0
   25.9770  -44.7930   35.4640 C   0  0  0  0  0
   26.3210  -44.7010   33.9760 C   0  0  0  0  0
   25.5220  -43.5780   33.3080 C   0  0  0  0  0
   24.0330  -43.7770   33.5940 C   0  0  0  0  0
   23.2160  -42.6380   32.9790 C   0  0  0  0  0
   26.4540  -43.6240   36.1400 O   0  0  0  0  0
   26.0300  -45.9450   33.3320 O   0  0  0  0  0
   25.9610  -42.3020   33.7830 O   0  0  0  0  0
   23.8080  -43.7760   35.0120 O   0  0  0  0  0
   22.7060  -41.8060   33.7520 O   0  0  0  0  0
   23.1000  -42.6130   31.7310 O   0  0  0  0  0
   27.0020  -43.9270   37.4270 S   0  0  0  0  0
   28.3510  -44.5600   37.2520 O   0  0  0  0  0
   26.0990  -44.8520   38.1870 O   0  0  0  0  0
   27.1360  -42.6530   38.2080 O   0  0  0  0  0
   26.9380  -41.6640   33.0370 C   0  0  0  0  0
   27.6870  -40.6300   33.8810 C   0  0  0  0  0
   26.7480  -39.5100   34.3340 C   0  0  0  0  0
   26.0650  -38.9060   33.1060 C   0  0  0  0  0
   25.3710  -39.9950   32.2830 C   0  0  0  0  0
   24.8130  -39.3720   31.0000 C   0  0  0  0  0
   28.3170  -41.2640   35.0490 N   0  0  0  0  0
   27.5100  -38.5000   35.0010 O   0  0  0  0  0
   25.1170  -37.9180   33.5220 O   0  0  0  0  0
   26.3220  -41.0080   31.9150 O   0  0  0  0  0
   25.8760  -38.8390   30.2040 O   0  0  0  0  0
   29.8100  -41.8060   34.6800 S   0  0  0  0  0
   30.6780  -40.6540   34.2690 O   0  0  0  0  0
   30.4090  -42.4610   35.8900 O   0  0  0  0  0
   29.7200  -42.8060   33.5650 O   0  0  0  0  0
   25.5920  -38.1070   29.0090 S   0  0  0  0  0
   24.5370  -37.0790   29.2960 O   0  0  0  0  0
   26.8360  -37.4210   28.5300 O   0  0  0  0  0
   25.1020  -39.0430   27.9440 O   0  0  0  0  0
   25.1780  -36.6520   32.9220 C   0  0  0  0  0
   24.0140  -35.7640   33.3760 C   0  0  0  0  0
   24.1120  -35.4860   34.8770 C   0  0  0  0  0
   25.4950  -34.9210   35.2100 C   0  0  0  0  0
   26.6010  -35.8270   34.6600 C   0  0  0  0  0
   27.9700  -35.1810   34.9010 C   0  0  0  0  0
   24.0670  -34.5180   32.6720 O   0  0  0  0  0
   23.8680  -36.6910   35.6100 O   0  0  0  0  0
   25.6260  -33.5990   34.6780 O   0  0  0  0  0
   26.4350  -36.0330   33.2470 O   0  0  0  0  0
   28.7840  -35.1540   33.9500 O   0  0  0  0  0
   28.2210  -34.7360   36.0390 O   0  0  0  0  0
   22.7910  -34.1480   32.1380 S   0  0  0  0  0
   22.9910  -33.1820   31.0080 O   0  0  0  0  0
   21.9530  -33.5010   33.2000 O   0  0  0  0  0
   22.0840  -35.3660   31.6250 O   0  0  0  0  0
   19.6818  -48.7505   36.6040 H   0  0  0  0  0
   19.9301  -46.5394   35.5797 H   0  0  0  0  0
   22.2377  -47.7113   33.9764 H   0  0  0  0  0
   22.1937  -45.5686   36.1486 H   0  0  0  0  0
   23.2555  -48.4214   36.2726 H   0  0  0  0  0
   23.1322  -46.1500   38.3164 H   0  0  0  0  0
   24.6128  -46.7577   37.5234 H   0  0  0  0  0
   19.8982  -48.3825   33.1959 H   0  0  0  0  0
   20.6934  -49.9765   34.9341 H   0  0  0  0  0
   20.9473  -46.0961   32.9215 H   0  0  0  0  0
   18.3425  -45.8664   35.3370 H   0  0  0  0  0
   24.6249  -49.6261   40.7205 H   0  0  0  0  0
   24.2761  -44.8364   36.7364 H   0  0  0  0  0
   26.4485  -45.6887   35.8684 H   0  0  0  0  0
   27.3842  -44.4812   33.8794 H   0  0  0  0  0
   25.6857  -43.6102   32.2308 H   0  0  0  0  0
   23.7250  -44.7284   33.1603 H   0  0  0  0  0
   26.2481  -45.8800   32.3994 H   0  0  0  0  0
   23.5784  -43.3537   31.3514 H   0  0  0  0  0
   28.9230  -43.9623   36.7650 H   0  0  0  0  0
   27.6542  -42.4099   32.6924 H   0  0  0  0  0
   28.4683  -40.1961   33.2571 H   0  0  0  0  0
   25.9949  -39.9072   35.0146 H   0  0  0  0  0
   26.8214  -38.4361   32.4773 H   0  0  0  0  0
   24.5702  -40.4359   32.8766 H   0  0  0  0  0
   24.1278  -38.5665   31.2642 H   0  0  0  0  0
   24.2914  -40.1401   30.4290 H   0  0  0  0  0
   27.8792  -41.3527   35.9660 H   0  0  0  0  0
   26.9242  -37.7952   35.2869 H   0  0  0  0  0
   29.8578  -43.1997   36.1584 H   0  0  0  0  0
   23.7399  -37.5172   29.6028 H   0  0  0  0  0
   25.0972  -36.7735   31.8418 H   0  0  0  0  0
   23.0766  -36.2787   33.1652 H   0  0  0  0  0
   23.3595  -34.7499   35.1600 H   0  0  0  0  0
   25.5979  -34.8790   36.2943 H   0  0  0  0  0
   26.5396  -36.7859   35.1746 H   0  0  0  0  0
   23.9308  -36.5103   36.5507 H   0  0  0  0  0
   26.4959  -33.2539   34.8920 H   0  0  0  0  0
   28.3802  -35.5483   33.1734 H   0  0  0  0  0
   23.5274  -33.5945   30.3270 H   0  0  0  0  0
  1  2  1  0  0  0
  1  8  1  0  0  0
  1 11  1  0  0  0
  2  3  1  0  0  0
  2  7  1  0  0  0
  3  4  1  0  0  0
  3  9  1  0  0  0
  4  5  1  0  0  0
  4 10  1  0  0  0
  5  6  1  0  0  0
  5 11  1  0  0  0
  6 12  1  0  0  0
  7 13  1  0  0  0
 10 21  1  0  0  0
 12 17  1  0  0  0
 13 14  1  0  0  0
 13 15  2  0  0  0
 13 16  2  0  0  0
 17 18  2  0  0  0
 17 19  2  0  0  0
 17 20  1  0  0  0
 21 22  1  0  0  0
 21 30  1  0  0  0
 22 23  1  0  0  0
 22 27  1  0  0  0
 23 24  1  0  0  0
 23 28  1  0  0  0
 24 25  1  0  0  0
 24 29  1  0  0  0
 25 26  1  0  0  0
 25 30  1  0  0  0
 26 31  2  0  0  0
 26 32  1  0  0  0
 27 33  1  0  0  0
 29 37  1  0  0  0
 33 34  1  0  0  0
 33 35  2  0  0  0
 33 36  2  0  0  0
 37 38  1  0  0  0
 37 46  1  0  0  0
 38 39  1  0  0  0
 38 43  1  0  0  0
 39 40  1  0  0  0
 39 44  1  0  0  0
 40 41  1  0  0  0
 40 45  1  0  0  0
 41 42  1  0  0  0
 41 46  1  0  0  0
 42 47  1  0  0  0
 43 48  1  0  0  0
 45 56  1  0  0  0
 47 52  1  0  0  0
 48 49  2  0  0  0
 48 50  1  0  0  0
 48 51  2  0  0  0
 52 53  1  0  0  0
 52 54  2  0  0  0
 52 55  2  0  0  0
 56 57  1  0  0  0
 56 65  1  0  0  0
 57 58  1  0  0  0
 57 62  1  0  0  0
 58 59  1  0  0  0
 58 63  1  0  0  0
 59 60  1  0  0  0
 59 64  1  0  0  0
 60 61  1  0  0  0
 60 65  1  0  0  0
 61 66  1  0  0  0
 61 67  2  0  0  0
 62 68  1  0  0  0
 68 69  1  0  0  0
 68 70  2  0  0  0
 68 71  2  0  0  0
  1 72  1  0  0  0
  2 73  1  0  0  0
  3 74  1  0  0  0
  4 75  1  0  0  0
  5 76  1  0  0  0
  6 77  1  0  0  0
  6 78  1  0  0  0
  7 79  1  0  0  0
  8 80  1  0  0  0
  9 81  1  0  0  0
 14 82  1  0  0  0
 20 83  1  0  0  0
 21 84  1  0  0  0
 22 85  1  0  0  0
 23 86  1  0  0  0
 24 87  1  0  0  0
 25 88  1  0  0  0
 28 89  1  0  0  0
 32 90  1  0  0  0
 34 91  1  0  0  0
 37 92  1  0  0  0
 38 93  1  0  0  0
 39 94  1  0  0  0
 40 95  1  0  0  0
 41 96  1  0  0  0
 42 97  1  0  0  0
 42 98  1  0  0  0
 43 99  1  0  0  0
 44100  1  0  0  0
 50101  1  0  0  0
 53102  1  0  0  0
 56103  1  0  0  0
 57104  1  0  0  0
 58105  1  0  0  0
 59106  1  0  0  0
 60107  1  0  0  0
 63108  1  0  0  0
 64109  1  0  0  0
 66110  1  0  0  0
 69111  1  0  0  0
M  END
$$$$
