### 
### Created by X-TOOL on Mon Sep 10 21:13:07 2018
### 

@<TRIPOS>MOLECULE
3qmk_ligand
  103   106     1     0     0
SMALL
GAST_HUCK


@<TRIPOS>ATOM
      1 C1         20.6440  -48.4560   36.1850 C.3       1 SGN         0.1788
      2 C2         20.4240  -47.3900   35.1100 C.3       1 SGN         0.1136
      3 C3         21.7530  -46.9050   34.5270 C.3       1 SGN         0.1080
      4 C4         22.6480  -46.4400   35.6770 C.3       1 SGN         0.1179
      5 C5         22.7820  -47.5490   36.7230 C.3       1 SGN         0.1157
      6 C6         23.6210  -47.0250   37.8880 C.3       1 SGN         0.1025
      7 N          19.5650  -47.9150   34.0390 N.am      1 SGN        -0.2705
      8 O1         21.2590  -49.6180   35.6220 O.3       1 SGN        -0.3654
      9 O3         21.5090  -45.8060   33.6440 O.3       1 SGN        -0.3871
     10 O4         23.9380  -46.0760   35.1750 O.3       1 SGN        -0.3400
     11 O5         21.4800  -47.9080   37.2170 O.3       1 SGN        -0.3413
     12 O6         23.7460  -48.0320   38.8930 O.3       1 SGN        -0.2631
     13 S1         18.0000  -47.6380   34.4010 S.o2      1 SGN        -0.1197
     14 O1S        17.7930  -46.1660   34.6090 O.co2     1 SGN        -0.4676
     15 O2S        17.1410  -48.1060   33.2630 O.co2     1 SGN        -0.4676
     16 O3S        17.6340  -48.3790   35.6530 O.co2     1 SGN        -0.4676
     17 S2         24.3250  -47.6970   40.1560 S.o2      1 SGN        -0.0736
     18 O4S        25.1740  -46.4690   40.0060 O.co2     1 SGN        -0.4611
     19 O5S        23.2410  -47.4240   41.1570 O.co2     1 SGN        -0.4611
     20 O6S        25.1720  -48.8430   40.6260 O.co2     1 SGN        -0.4611
     21 C1         24.4610  -44.8780   35.6630 C.3       1 IDS         0.1927
     22 C2         25.9770  -44.7930   35.4640 C.3       1 IDS         0.1635
     23 C3         26.3210  -44.7010   33.9760 C.3       1 IDS         0.1184
     24 C4         25.5220  -43.5780   33.3080 C.3       1 IDS         0.1280
     25 C5         24.0330  -43.7770   33.5940 C.3       1 IDS         0.1424
     26 C6         23.2160  -42.6380   32.9790 C.2       1 IDS         0.0664
     27 O2         26.4540  -43.6240   36.1400 O.3       1 IDS        -0.2546
     28 O3         26.0300  -45.9450   33.3320 O.3       1 IDS        -0.3862
     29 O4         25.9610  -42.3020   33.7830 O.3       1 IDS        -0.3391
     30 O5         23.8080  -43.7760   35.0120 O.3       1 IDS        -0.3284
     31 O61        22.7060  -41.8060   33.7520 O.co2     1 IDS        -0.5662
     32 O62        23.1000  -42.6130   31.7310 O.co2     1 IDS        -0.5662
     33 S          27.0020  -43.9270   37.4270 S.o2      1 IDS        -0.0732
     34 O1S        28.3510  -44.5600   37.2520 O.co2     1 IDS        -0.4611
     35 O2S        26.0990  -44.8520   38.1870 O.co2     1 IDS        -0.4611
     36 O3S        27.1360  -42.6530   38.2080 O.co2     1 IDS        -0.4611
     37 C1         26.9380  -41.6640   33.0370 C.3       1 SGN         0.1821
     38 C2         27.6870  -40.6300   33.8810 C.3       1 SGN         0.1138
     39 C3         26.7480  -39.5100   34.3340 C.3       1 SGN         0.1080
     40 C4         26.0650  -38.9060   33.1060 C.3       1 SGN         0.1179
     41 C5         25.3710  -39.9950   32.2830 C.3       1 SGN         0.1157
     42 C6         24.8130  -39.3720   31.0000 C.3       1 SGN         0.1025
     43 N          28.3170  -41.2640   35.0490 N.am      1 SGN        -0.2705
     44 O3         27.5100  -38.5000   35.0010 O.3       1 SGN        -0.3871
     45 O4         25.1170  -37.9180   33.5220 O.3       1 SGN        -0.3400
     46 O5         26.3220  -41.0080   31.9150 O.3       1 SGN        -0.3411
     47 O6         25.8760  -38.8390   30.2040 O.3       1 SGN        -0.2631
     48 S1         29.8100  -41.8060   34.6800 S.o2      1 SGN        -0.1197
     49 O1S        30.6780  -40.6540   34.2690 O.co2     1 SGN        -0.4676
     50 O2S        30.4090  -42.4610   35.8900 O.co2     1 SGN        -0.4676
     51 O3S        29.7200  -42.8060   33.5650 O.co2     1 SGN        -0.4676
     52 S2         25.5920  -38.1070   29.0090 S.o2      1 SGN        -0.0736
     53 O4S        24.5370  -37.0790   29.2960 O.co2     1 SGN        -0.4611
     54 O5S        26.8360  -37.4210   28.5300 O.co2     1 SGN        -0.4611
     55 O6S        25.1020  -39.0430   27.9440 O.co2     1 SGN        -0.4611
     56 C1         25.1780  -36.6520   32.9220 C.3       1 IDS         0.1927
     57 C2         24.0140  -35.7640   33.3760 C.3       1 IDS         0.1635
     58 C3         24.1120  -35.4860   34.8770 C.3       1 IDS         0.1181
     59 C4         25.4950  -34.9210   35.2100 C.3       1 IDS         0.1215
     60 C5         26.6010  -35.8270   34.6600 C.3       1 IDS         0.1420
     61 C6         27.9700  -35.1810   34.9010 C.2       1 IDS         0.0663
     62 O2         24.0670  -34.5180   32.6720 O.3       1 IDS        -0.2546
     63 O3         23.8680  -36.6910   35.6100 O.3       1 IDS        -0.3862
     64 O4         25.6260  -33.5990   34.6780 O.3       1 IDS        -0.3848
     65 O5         26.4350  -36.0330   33.2470 O.3       1 IDS        -0.3284
     66 O61        28.7840  -35.1540   33.9500 O.co2     1 IDS        -0.5662
     67 O62        28.2210  -34.7360   36.0390 O.co2     1 IDS        -0.5662
     68 S          22.7910  -34.1480   32.1380 S.o2      1 IDS        -0.0732
     69 O1S        22.9910  -33.1820   31.0080 O.co2     1 IDS        -0.4611
     70 O2S        21.9530  -33.5010   33.2000 O.co2     1 IDS        -0.4611
     71 O3S        22.0840  -35.3660   31.6250 O.co2     1 IDS        -0.4611
     72 H          19.6818  -48.7505   36.6040 H         1 SGN         0.0928
     73 H          19.9301  -46.5394   35.5797 H         1 SGN         0.0587
     74 H          22.2377  -47.7113   33.9764 H         1 SGN         0.0641
     75 H          22.1937  -45.5686   36.1486 H         1 SGN         0.0650
     76 H          23.2555  -48.4214   36.2726 H         1 SGN         0.0648
     77 H          23.1322  -46.1500   38.3164 H         1 SGN         0.0610
     78 H          24.6128  -46.7577   37.5234 H         1 SGN         0.0610
     79 H          19.8982  -48.3825   33.1959 H         1 SGN         0.1646
     80 H          21.3857  -50.2763   36.3091 H         1 SGN         0.2125
     81 H          22.3439  -45.4870   33.2936 H         1 SGN         0.2100
     82 H          24.2761  -44.8364   36.7364 H         1 SGN         0.0940
     83 H          26.4485  -45.6887   35.8684 H         1 SGN         0.0697
     84 H          27.3842  -44.4812   33.8794 H         1 SGN         0.0650
     85 H          25.6857  -43.6102   32.2308 H         1 SGN         0.0669
     86 H          23.7250  -44.7284   33.1603 H         1 SGN         0.0794
     87 H          25.0914  -46.1315   33.4080 H         1 SGN         0.2100
     88 H          27.6542  -42.4099   32.6924 H         1 SGN         0.0930
     89 H          28.4683  -40.1961   33.2571 H         1 SGN         0.0587
     90 H          25.9949  -39.9072   35.0146 H         1 SGN         0.0641
     91 H          26.8214  -38.4361   32.4773 H         1 SGN         0.0650
     92 H          24.5702  -40.4359   32.8766 H         1 SGN         0.0648
     93 H          24.1278  -38.5665   31.2642 H         1 SGN         0.0610
     94 H          24.2914  -40.1401   30.4290 H         1 SGN         0.0610
     95 H          27.8792  -41.3527   35.9660 H         1 SGN         0.1646
     96 H          26.9260  -37.7895   35.2761 H         1 SGN         0.2100
     97 H          25.0972  -36.7735   31.8418 H         1 SGN         0.0940
     98 H          23.0766  -36.2787   33.1652 H         1 SGN         0.0697
     99 H          23.3595  -34.7499   35.1600 H         1 SGN         0.0650
    100 H          25.5979  -34.8790   36.2943 H         1 SGN         0.0665
    101 H          26.5396  -36.7859   35.1746 H         1 SGN         0.0794
    102 H          24.5337  -37.3437   35.3813 H         1 SGN         0.2100
    103 H          26.4802  -33.2383   34.9268 H         1 SGN         0.2102
@<TRIPOS>BOND
     1    1    2 1  
     2    1    8 1  
     3    1   11 1  
     4    2    3 1  
     5    2    7 1  
     6    3    4 1  
     7    3    9 1  
     8    4    5 1  
     9    4   10 1  
    10    5    6 1  
    11    5   11 1  
    12    6   12 1  
    13    7   13 am 
    14   10   21 1  
    15   12   17 1  
    16   13   14 ar 
    17   13   15 ar 
    18   13   16 ar 
    19   17   18 ar 
    20   17   19 ar 
    21   17   20 ar 
    22   21   22 1  
    23   21   30 1  
    24   22   23 1  
    25   22   27 1  
    26   23   24 1  
    27   23   28 1  
    28   24   25 1  
    29   24   29 1  
    30   25   26 1  
    31   25   30 1  
    32   26   31 ar 
    33   26   32 ar 
    34   27   33 1  
    35   29   37 1  
    36   33   34 ar 
    37   33   35 ar 
    38   33   36 ar 
    39   37   38 1  
    40   37   46 1  
    41   38   39 1  
    42   38   43 1  
    43   39   40 1  
    44   39   44 1  
    45   40   41 1  
    46   40   45 1  
    47   41   42 1  
    48   41   46 1  
    49   42   47 1  
    50   43   48 am 
    51   45   56 1  
    52   47   52 1  
    53   48   49 ar 
    54   48   50 ar 
    55   48   51 ar 
    56   52   53 ar 
    57   52   54 ar 
    58   52   55 ar 
    59   56   57 1  
    60   56   65 1  
    61   57   58 1  
    62   57   62 1  
    63   58   59 1  
    64   58   63 1  
    65   59   60 1  
    66   59   64 1  
    67   60   61 1  
    68   60   65 1  
    69   61   66 ar 
    70   61   67 ar 
    71   62   68 1  
    72   68   69 ar 
    73   68   70 ar 
    74   68   71 ar 
    75    1   72 1  
    76    2   73 1  
    77    3   74 1  
    78    4   75 1  
    79    5   76 1  
    80    6   77 1  
    81    6   78 1  
    82    7   79 1  
    83    8   80 1  
    84    9   81 1  
    85   21   82 1  
    86   22   83 1  
    87   23   84 1  
    88   24   85 1  
    89   25   86 1  
    90   28   87 1  
    91   37   88 1  
    92   38   89 1  
    93   39   90 1  
    94   40   91 1  
    95   41   92 1  
    96   42   93 1  
    97   42   94 1  
    98   43   95 1  
    99   44   96 1  
   100   56   97 1  
   101   57   98 1  
   102   58   99 1  
   103   59  100 1  
   104   60  101 1  
   105   63  102 1  
   106   64  103 1  
@<TRIPOS>SUBSTRUCTURE
     1 SGN         1

