3jy0_ligand
  -I-interpret- 

 37 40  0  0  0  0  0  0  0  0999 V2000
  -37.6130   -5.4470    4.2080 C   0  0  0  0  0
  -37.6470   -3.5830    2.9950 N   0  3  0  0  0
  -36.5630   -6.2880    3.7830 O   0  0  0  0  0
  -41.3380   -2.9260   -2.6070 S   0  0  0  0  0
  -45.6760   -1.0860    1.0960 Cl  0  0  0  0  0
  -36.8330   -4.2930    4.8730 C   0  0  0  0  0
  -40.1570   -2.3540    1.0210 N   0  0  0  0  0
  -38.2560   -3.6080   -2.3870 O   0  0  0  0  0
  -36.2680   -3.5870    3.6200 C   0  0  0  0  0
  -38.2250   -3.1170   -0.1740 N   0  0  0  0  0
  -38.0070   -2.5050    2.0840 C   0  0  0  0  0
  -38.9010   -2.6680    0.9240 C   0  0  0  0  0
  -40.8560   -2.4830   -0.1790 C   0  0  0  0  0
  -42.2420   -2.1910   -0.3700 C   0  0  0  0  0
  -43.1680   -1.7470    0.5270 C   0  0  0  0  0
  -44.4390   -1.5930    0.0040 C   0  0  0  0  0
  -44.8330   -1.8330   -1.2860 C   0  0  0  0  0
  -43.9080   -2.2520   -2.2090 C   0  0  0  0  0
  -42.6660   -2.4160   -1.6790 C   0  0  0  0  0
  -40.2130   -2.8950   -1.3070 C   0  0  0  0  0
  -38.8430   -3.2530   -1.3820 C   0  0  0  0  0
  -38.1900   -4.9650    2.8720 C   0  0  0  0  0
  -38.3825   -5.8576    4.8618 H   0  0  0  0  0
  -38.3086   -3.1627    3.6477 H   0  0  0  0  0
  -36.1186   -6.6559    4.5503 H   0  0  0  0  0
  -36.0745   -4.6165    5.5858 H   0  0  0  0  0
  -37.4392   -3.6525    5.5137 H   0  0  0  0  0
  -35.7163   -2.6528    3.7250 H   0  0  0  0  0
  -35.4284   -4.0260    3.0811 H   0  0  0  0  0
  -37.2370   -3.3557   -0.0889 H   0  0  0  0  0
  -37.0533   -2.2563    1.6184 H   0  0  0  0  0
  -38.5688   -1.8264    2.7259 H   0  0  0  0  0
  -42.9270   -1.5317    1.5680 H   0  0  0  0  0
  -45.8739   -1.6921   -1.5772 H   0  0  0  0  0
  -44.1439   -2.4344   -3.2574 H   0  0  0  0  0
  -39.2651   -5.0686    2.7252 H   0  0  0  0  0
  -37.9224   -5.5297    1.9789 H   0  0  0  0  0
  1  3  1  0  0  0
  1  6  1  0  0  0
 22  1  1  0  0  0
  2  9  1  0  0  0
 11  2  1  0  0  0
  2 22  1  0  0  0
 19  4  4  0  0  0
  4 20  4  0  0  0
 16  5  1  0  0  0
  9  6  1  0  0  0
  7 12  2  0  0  0
 13  7  1  0  0  0
 21  8  2  0  0  0
 12 10  1  0  0  0
 10 21  1  0  0  0
 12 11  1  0  0  0
 14 13  4  0  0  0
 13 20  4  0  0  0
 15 14  4  0  0  0
 14 19  4  0  0  0
 15 16  4  0  0  0
 16 17  4  0  0  0
 17 18  4  0  0  0
 18 19  4  0  0  0
 20 21  1  0  0  0
  1 23  1  0  0  0
  2 24  1  0  0  0
  3 25  1  0  0  0
  6 26  1  0  0  0
  6 27  1  0  0  0
  9 28  1  0  0  0
  9 29  1  0  0  0
 10 30  1  0  0  0
 11 31  1  0  0  0
 11 32  1  0  0  0
 15 33  1  0  0  0
 17 34  1  0  0  0
 18 35  1  0  0  0
 22 36  1  0  0  0
 22 37  1  0  0  0
M  END
$$$$
