6ayt_ligand
  -I-interpret- 

 44 47  0  0  0  0  0  0  0  0999 V2000
  -14.2390   -3.7070   36.7450 O   0  0  0  0  0
  -14.5780   -5.1010   36.6440 C   0  0  0  0  0
  -14.4200   -5.8710   37.9390 C   0  0  0  0  0
  -15.3840   -7.0640   37.9770 C   0  0  0  0  0
  -15.3010   -7.9140   39.5150 S   0  0  0  0  0
  -13.5510   -5.7490   35.7490 C   0  0  0  0  0
  -12.4110   -5.8070   36.6730 N   0  3  0  0  0
  -12.9460   -6.2660   37.9790 C   0  0  0  0  0
  -11.2410   -6.4800   36.1060 C   0  0  0  0  0
  -11.1960   -7.9800   36.1640 C   0  0  0  0  0
  -12.0080   -8.9870   35.4770 C   0  0  0  0  0
  -13.0520   -8.8290   34.6170 N   0  0  0  0  0
  -13.6430   -9.9180   34.1280 C   0  0  0  0  0
  -10.2860   -8.7200   36.8990 C   0  0  0  0  0
  -10.5050  -10.0490   36.7050 N   0  0  0  0  0
  -11.5380  -10.2350   35.8660 C   0  0  0  0  0
  -12.1860  -11.3450   35.3310 C   0  0  0  0  0
  -13.2310  -11.1560   34.4730 N   0  0  0  0  0
  -11.7840  -12.5960   35.6530 N   0  0  0  0  0
  -16.1380   -7.0820   40.7360 C   0  0  0  0  0
  -16.2160   -7.6060   42.0260 C   0  0  0  0  0
  -16.8760   -6.9540   42.9980 N   0  0  0  0  0
  -17.4660   -5.7830   42.7290 C   0  0  0  0  0
  -17.3880   -5.2460   41.4440 C   0  0  0  0  0
  -16.7320   -5.9040   40.4710 N   0  0  0  0  0
  -14.8761   -3.2641   37.3103 H   0  0  0  0  0
  -15.6142   -5.1329   36.3072 H   0  0  0  0  0
  -14.6766   -5.2894   38.8244 H   0  0  0  0  0
  -15.1048   -7.7580   37.1842 H   0  0  0  0  0
  -16.3995   -6.6909   37.8438 H   0  0  0  0  0
  -13.3542   -5.2086   34.8231 H   0  0  0  0  0
  -13.8518   -6.7146   35.3424 H   0  0  0  0  0
  -11.9887   -4.8944   36.8437 H   0  0  0  0  0
  -12.8110   -7.3377   38.1252 H   0  0  0  0  0
  -12.4214   -5.8135   38.8205 H   0  0  0  0  0
  -10.3942   -6.1413   36.7029 H   0  0  0  0  0
  -11.2494   -6.2311   35.0448 H   0  0  0  0  0
  -14.4768   -9.8069   33.4347 H   0  0  0  0  0
   -9.5092   -8.3005   37.5383 H   0  0  0  0  0
  -11.0007  -12.7313   36.2922 H   0  0  0  0  0
  -12.2642  -13.4039   35.2566 H   0  0  0  0  0
  -15.7346   -8.5582   42.2490 H   0  0  0  0  0
  -18.0059   -5.2505   43.5120 H   0  0  0  0  0
  -17.8610   -4.2882   41.2270 H   0  0  0  0  0
  1  2  1  0  0  0
  2  3  1  0  0  0
  2  6  1  0  0  0
  3  4  1  0  0  0
  3  8  1  0  0  0
  4  5  1  0  0  0
  5 20  1  0  0  0
  6  7  1  0  0  0
  7  8  1  0  0  0
  7  9  1  0  0  0
  9 10  1  0  0  0
 10 11  4  0  0  0
 10 14  4  0  0  0
 11 12  4  0  0  0
 11 16  4  0  0  0
 12 13  4  0  0  0
 13 18  4  0  0  0
 14 15  4  0  0  0
 15 16  4  0  0  0
 16 17  4  0  0  0
 17 18  4  0  0  0
 17 19  1  0  0  0
 20 21  4  0  0  0
 20 25  4  0  0  0
 21 22  4  0  0  0
 22 23  4  0  0  0
 23 24  4  0  0  0
 24 25  4  0  0  0
  1 26  1  0  0  0
  2 27  1  0  0  0
  3 28  1  0  0  0
  4 29  1  0  0  0
  4 30  1  0  0  0
  6 31  1  0  0  0
  6 32  1  0  0  0
  7 33  1  0  0  0
  8 34  1  0  0  0
  8 35  1  0  0  0
  9 36  1  0  0  0
  9 37  1  0  0  0
 13 38  1  0  0  0
 14 39  1  0  0  0
 19 40  1  0  0  0
 19 41  1  0  0  0
 21 42  1  0  0  0
 23 43  1  0  0  0
 24 44  1  0  0  0
M  END
$$$$
