### 
### Created by X-TOOL on Mon Sep 10 21:12:45 2018
### 

@<TRIPOS>MOLECULE
1sps_ligand
  111   113     1     0     0
SMALL
GAST_HUCK


@<TRIPOS>ATOM
      1 N          69.1890   95.0830   15.6060 N.4       1 PRO         0.2461
      2 CA         70.2630   95.4900   16.5160 C.3       1 PRO         0.0669
      3 C          71.0660   94.2840   16.9690 C.2       1 PRO         0.2268
      4 O          70.4880   93.2120   17.1230 O.2       1 PRO        -0.3907
      5 CB         69.5890   96.2040   17.6710 C.3       1 PRO         0.0127
      6 CG         68.2580   95.4820   17.7770 C.3       1 PRO        -0.0053
      7 CD         67.9200   95.2630   16.3100 C.3       1 PRO        -0.0313
      8 N          72.3680   94.4080   17.2300 N.am      1 GLN        -0.2613
      9 CA         73.1510   93.2190   17.5880 C.3       1 GLN         0.1283
     10 C          73.1020   92.9350   19.0720 C.2       1 GLN         0.2037
     11 O          72.9640   93.7940   19.9420 O.2       1 GLN        -0.3944
     12 CB         74.6320   93.3380   17.2400 C.3       1 GLN        -0.0244
     13 H1         69.3049   94.1153   15.3487 H         1 PRO         0.2035
     14 N          73.1430   91.6420   19.3050 N.am      1 PTR        -0.2621
     15 CA         73.1040   91.1190   20.6440 C.3       1 PTR         0.1390
     16 C          74.3120   90.2300   20.8510 C.2       1 PTR         0.2057
     17 O          74.7250   89.5130   19.9420 O.2       1 PTR        -0.3942
     18 CB         71.8360   90.3010   20.8620 C.3       1 PTR         0.0163
     19 CG         70.5210   91.0580   21.0580 C.ar      1 PTR        -0.0493
     20 CD1        69.9530   91.7590   20.0120 C.ar      1 PTR        -0.0685
     21 CD2        69.8770   90.9990   22.2780 C.ar      1 PTR        -0.0685
     22 CE1        68.7370   92.3920   20.1700 C.ar      1 PTR        -0.0398
     23 CE2        68.6640   91.6250   22.4540 C.ar      1 PTR        -0.0398
     24 CZ         68.1180   92.3040   21.3930 C.ar      1 PTR         0.0805
     25 OH         66.8260   92.8920   21.5470 O.3       1 PTR        -0.3376
     26 H2         69.2060   95.6556   14.7766 H         1 PRO         0.2035
     27 N          74.9110   90.2870   22.0330 N.am      1 GLU        -0.2635
     28 CA         75.9820   89.3840   22.3480 C.3       1 GLU         0.1325
     29 C          75.4570   87.9920   22.5910 C.2       1 GLU         0.2040
     30 O          74.3720   87.7980   23.1210 O.2       1 GLU        -0.3944
     31 CB         76.7000   89.8080   23.5820 C.3       1 GLU        -0.0008
     32 CG         77.5070   91.0530   23.4770 C.3       1 GLU         0.0044
     33 CD         78.6670   90.9100   22.5290 C.2       1 GLU         0.0350
     34 OE1        79.7530   90.4670   22.9280 O.co2     1 GLU        -0.5690
     35 OE2        78.4660   91.2690   21.3760 O.co2     1 GLU        -0.5690
     36 H3         70.9409   96.1873   16.0020 H         1 PRO         0.1099
     37 N          76.2170   87.0090   22.1430 N.am      1 GLU        -0.2636
     38 CA         75.9160   85.6360   22.5060 C.3       1 GLU         0.1325
     39 C          77.1100   85.0830   23.2660 C.2       1 GLU         0.2040
     40 O          78.2470   85.4630   22.9860 O.2       1 GLU        -0.3944
     41 CB         75.6530   84.7990   21.2550 C.3       1 GLU        -0.0008
     42 CG         74.2700   85.0830   20.6560 C.3       1 GLU         0.0044
     43 CD         73.9870   84.4120   19.3130 C.2       1 GLU         0.0350
     44 OE1        73.8540   83.1830   19.2760 O.co2     1 GLU        -0.5690
     45 OE2        73.8890   85.1300   18.3090 O.co2     1 GLU        -0.5690
     46 H4         69.4447   97.2714   17.4479 H         1 PRO         0.0347
     47 N          76.8130   84.2570   24.2800 N.am      1 ILE        -0.2635
     48 CA         77.8270   83.5860   25.0920 C.3       1 ILE         0.1337
     49 C          78.4480   82.5010   24.1970 C.2       1 ILE         0.2067
     50 O          77.6740   81.7940   23.5460 O.2       1 ILE        -0.3942
     51 CB         77.1330   82.9890   26.3620 C.3       1 ILE        -0.0037
     52 CG1        76.4920   84.1040   27.1940 C.3       1 ILE        -0.0491
     53 CG2        78.1680   82.1990   27.1700 C.3       1 ILE        -0.0582
     54 CD1        76.0240   83.6770   28.5950 C.3       1 ILE        -0.0648
     55 H5         70.1725   96.0986   18.5975 H         1 PRO         0.0347
     56 N          79.7670   82.3520   24.0260 N.am      1 PRO        -0.2511
     57 CA         80.3390   81.8440   22.7780 C.3       1 PRO         0.1156
     58 C          79.8830   80.4710   22.2690 C.2       1 PRO         0.1247
     59 O          79.3310   80.3910   21.1430 O.2       1 PRO        -0.3725
     60 CB         81.8410   81.9380   23.0240 C.3       1 PRO        -0.0117
     61 CG         81.9790   82.1640   24.5110 C.3       1 PRO        -0.0281
     62 CD         80.7850   83.0210   24.8000 C.3       1 PRO         0.0370
     63 H6         68.3595   94.5272   18.3137 H         1 PRO         0.0320
     64 H7         67.5009   96.1046   18.2761 H         1 PRO         0.0320
     65 H8         67.2931   94.3664   16.1957 H         1 PRO         0.0814
     66 H9         67.3858   96.1374   15.9100 H         1 PRO         0.0814
     67 H10        72.8079   95.3048   17.1822 H         1 GLN         0.1884
     68 H11        72.7256   92.3637   17.0427 H         1 GLN         0.0797
     69 H12        75.1532   92.4154   17.5351 H         1 GLN         0.0277
     70 H13        75.0675   94.1931   17.7777 H         1 GLN         0.0277
     71 H14        74.7429   93.4912   16.1564 H         1 GLN         0.0277
     72 H15        73.2026   91.0079   18.5340 H         1 PTR         0.1885
     73 H16        73.1284   91.9512   21.3629 H         1 PTR         0.0821
     74 H17        71.9948   89.6829   21.7579 H         1 PTR         0.0453
     75 H18        71.7114   89.6496   19.9844 H         1 PTR         0.0453
     76 H19        70.4668   91.8123   19.0590 H         1 PTR         0.0530
     77 H20        70.3289   90.4571   23.1009 H         1 PTR         0.0530
     78 H21        68.2839   92.9422   19.3533 H         1 PTR         0.0525
     79 H22        68.1516   91.5829   23.4083 H         1 PTR         0.0525
     80 H23        66.1929   92.2138   21.7512 H         1 PTR         0.2458
     81 H24        74.6151   90.9625   22.7084 H         1 GLU         0.1883
     82 H25        76.6871   89.3667   21.5039 H         1 GLU         0.0801
     83 H26        77.3780   88.9921   23.8729 H         1 GLU         0.0330
     84 H27        75.9494   89.9602   24.3716 H         1 GLU         0.0330
     85 H28        77.8958   91.3065   24.4743 H         1 GLU         0.0433
     86 H29        76.8573   91.8654   23.1193 H         1 GLU         0.0433
     87 H30        76.9995   87.2105   21.5539 H         1 GLU         0.1883
     88 H31        75.0245   85.6116   23.1499 H         1 GLU         0.0801
     89 H32        75.7130   83.7334   21.5212 H         1 GLU         0.0330
     90 H33        76.4209   85.0329   20.5029 H         1 GLU         0.0330
     91 H34        74.1766   86.1703   20.5184 H         1 GLU         0.0433
     92 H35        73.5117   84.7378   21.3742 H         1 GLU         0.0433
     93 H36        75.8497   84.0917   24.4913 H         1 ILE         0.1883
     94 H37        78.6044   84.2988   25.4044 H         1 ILE         0.0803
     95 H38        76.3389   82.2988   26.0411 H         1 ILE         0.0345
     96 H39        75.6190   84.4833   26.6427 H         1 ILE         0.0267
     97 H40        77.2304   84.9108   27.3113 H         1 ILE         0.0267
     98 H41        78.6028   81.4108   26.5378 H         1 ILE         0.0235
     99 H42        77.6799   81.7411   28.0430 H         1 ILE         0.0235
    100 H43        78.9643   82.8779   27.5092 H         1 ILE         0.0235
    101 H44        75.5803   84.5404   29.1123 H         1 ILE         0.0230
    102 H45        76.8842   83.3064   29.1718 H         1 ILE         0.0230
    103 H46        75.2727   82.8788   28.5032 H         1 ILE         0.0230
    104 H47        80.0725   82.5541   21.9813 H         1 PRO         0.0792
    105 H48        80.0353   79.5787   22.8744 H         1 PRO         0.1373
    106 H49        82.2729   82.7799   22.4631 H         1 PRO         0.0314
    107 H50        82.3409   81.0044   22.7267 H         1 PRO         0.0314
    108 H51        81.9357   81.2155   25.0664 H         1 PRO         0.0287
    109 H52        82.9160   82.6875   24.7517 H         1 PRO         0.0287
    110 H53        80.5401   83.0229   25.8724 H         1 PRO         0.0524
    111 H54        80.9382   84.0548   24.4569 H         1 PRO         0.0524
@<TRIPOS>BOND
     1    3    2 1  
     2    2    5 1  
     3    2    1 1  
     4    1    7 1  
     5    7    6 1  
     6    5    6 1  
     7    3    4 2  
     8    9    8 1  
     9    9   12 1  
    10   10    9 1  
    11   10   11 2  
    12    1   13 1  
    13    8    3 am 
    14   15   14 1  
    15   15   18 1  
    16   16   15 1  
    17   16   17 2  
    18   18   19 1  
    19   19   20 ar 
    20   19   21 ar 
    21   21   23 ar 
    22   23   24 ar 
    23   24   25 1  
    24   22   24 ar 
    25   20   22 ar 
    26    1   26 1  
    27   14   10 am 
    28   28   27 1  
    29   28   31 1  
    30   29   28 1  
    31   29   30 2  
    32   31   32 1  
    33   32   33 1  
    34   33   35 ar 
    35   33   34 ar 
    36    2   36 1  
    37   27   16 am 
    38   38   37 1  
    39   38   41 1  
    40   39   38 1  
    41   39   40 2  
    42   41   42 1  
    43   42   43 1  
    44   43   45 ar 
    45   43   44 ar 
    46    5   46 1  
    47   37   29 am 
    48   48   47 1  
    49   48   51 1  
    50   49   48 1  
    51   49   50 2  
    52   51   53 1  
    53   51   52 1  
    54   52   54 1  
    55    5   55 1  
    56   47   39 am 
    57   57   58 1  
    58   57   60 1  
    59   56   57 1  
    60   56   62 1  
    61   62   61 1  
    62   61   60 1  
    63   58   59 2  
    64   49   56 am 
    65    6   63 1  
    66    6   64 1  
    67    7   65 1  
    68    7   66 1  
    69    8   67 1  
    70    9   68 1  
    71   12   69 1  
    72   12   70 1  
    73   12   71 1  
    74   14   72 1  
    75   15   73 1  
    76   18   74 1  
    77   18   75 1  
    78   20   76 1  
    79   21   77 1  
    80   22   78 1  
    81   23   79 1  
    82   25   80 1  
    83   27   81 1  
    84   28   82 1  
    85   31   83 1  
    86   31   84 1  
    87   32   85 1  
    88   32   86 1  
    89   37   87 1  
    90   38   88 1  
    91   41   89 1  
    92   41   90 1  
    93   42   91 1  
    94   42   92 1  
    95   47   93 1  
    96   48   94 1  
    97   51   95 1  
    98   52   96 1  
    99   52   97 1  
   100   53   98 1  
   101   53   99 1  
   102   53  100 1  
   103   54  101 1  
   104   54  102 1  
   105   54  103 1  
   106   57  104 1  
   107   58  105 1  
   108   60  106 1  
   109   60  107 1  
   110   61  108 1  
   111   61  109 1  
   112   62  110 1  
   113   62  111 1  
@<TRIPOS>SUBSTRUCTURE
     1 PRO         1

