1sps_ligand
  -I-interpret- 

113115  0  0  0  0  0  0  0  0999 V2000
   69.1890   95.0830   15.6060 N   0  3  0  0  0
   70.2630   95.4900   16.5160 C   0  0  0  0  0
   71.0660   94.2840   16.9690 C   0  0  0  0  0
   70.4880   93.2120   17.1230 O   0  0  0  0  0
   69.5890   96.2040   17.6710 C   0  0  0  0  0
   68.2580   95.4820   17.7770 C   0  0  0  0  0
   67.9200   95.2630   16.3100 C   0  0  0  0  0
   72.3680   94.4080   17.2300 N   0  0  0  0  0
   73.1510   93.2190   17.5880 C   0  0  0  0  0
   73.1020   92.9350   19.0720 C   0  0  0  0  0
   72.9640   93.7940   19.9420 O   0  0  0  0  0
   74.6320   93.3380   17.2400 C   0  0  0  0  0
   73.1430   91.6420   19.3050 N   0  0  0  0  0
   73.1040   91.1190   20.6440 C   0  0  0  0  0
   74.3120   90.2300   20.8510 C   0  0  0  0  0
   74.7250   89.5130   19.9420 O   0  0  0  0  0
   71.8360   90.3010   20.8620 C   0  0  0  0  0
   70.5210   91.0580   21.0580 C   0  0  0  0  0
   69.9530   91.7590   20.0120 C   0  0  0  0  0
   69.8770   90.9990   22.2780 C   0  0  0  0  0
   68.7370   92.3920   20.1700 C   0  0  0  0  0
   68.6640   91.6250   22.4540 C   0  0  0  0  0
   68.1180   92.3040   21.3930 C   0  0  0  0  0
   66.8260   92.8920   21.5470 O   0  0  0  0  0
   74.9110   90.2870   22.0330 N   0  0  0  0  0
   75.9820   89.3840   22.3480 C   0  0  0  0  0
   75.4570   87.9920   22.5910 C   0  0  0  0  0
   74.3720   87.7980   23.1210 O   0  0  0  0  0
   76.7000   89.8080   23.5820 C   0  0  0  0  0
   77.5070   91.0530   23.4770 C   0  0  0  0  0
   78.6670   90.9100   22.5290 C   0  0  0  0  0
   79.7530   90.4670   22.9280 O   0  0  0  0  0
   78.4660   91.2690   21.3760 O   0  0  0  0  0
   76.2170   87.0090   22.1430 N   0  0  0  0  0
   75.9160   85.6360   22.5060 C   0  0  0  0  0
   77.1100   85.0830   23.2660 C   0  0  0  0  0
   78.2470   85.4630   22.9860 O   0  0  0  0  0
   75.6530   84.7990   21.2550 C   0  0  0  0  0
   74.2700   85.0830   20.6560 C   0  0  0  0  0
   73.9870   84.4120   19.3130 C   0  0  0  0  0
   73.8540   83.1830   19.2760 O   0  0  0  0  0
   73.8890   85.1300   18.3090 O   0  0  0  0  0
   76.8130   84.2570   24.2800 N   0  0  0  0  0
   77.8270   83.5860   25.0920 C   0  0  0  0  0
   78.4480   82.5010   24.1970 C   0  0  0  0  0
   77.6740   81.7940   23.5460 O   0  0  0  0  0
   77.1330   82.9890   26.3620 C   0  0  0  0  0
   76.4920   84.1040   27.1940 C   0  0  0  0  0
   78.1680   82.1990   27.1700 C   0  0  0  0  0
   76.0240   83.6770   28.5950 C   0  0  0  0  0
   79.7670   82.3520   24.0260 N   0  0  0  0  0
   80.3390   81.8440   22.7780 C   0  0  0  0  0
   79.8830   80.4710   22.2690 C   0  0  0  0  0
   79.3310   80.3910   21.1430 O   0  0  0  0  0
   81.8410   81.9380   23.0240 C   0  0  0  0  0
   81.9790   82.1640   24.5110 C   0  0  0  0  0
   80.7850   83.0210   24.8000 C   0  0  0  0  0
   69.3073   94.1082   15.3299 H   0  0  0  0  0
   69.2083   95.6489   14.7576 H   0  0  0  0  0
   70.9789   96.1536   16.0311 H   0  0  0  0  0
   69.4798   97.2755   17.5035 H   0  0  0  0  0
   70.1693   96.1643   18.5928 H   0  0  0  0  0
   68.3041   94.5611   18.3583 H   0  0  0  0  0
   67.4983   96.0414   18.3229 H   0  0  0  0  0
   67.2808   94.3888   16.1860 H   0  0  0  0  0
   67.3711   96.1144   15.9076 H   0  0  0  0  0
   72.8166   95.3227   17.1812 H   0  0  0  0  0
   72.6895   92.4207   17.0067 H   0  0  0  0  0
   74.7405   93.4898   16.1661 H   0  0  0  0  0
   75.0623   94.1856   17.7734 H   0  0  0  0  0
   75.1474   92.4233   17.5328 H   0  0  0  0  0
   73.2038   90.9953   18.5186 H   0  0  0  0  0
   73.1113   91.9466   21.3533 H   0  0  0  0  0
   71.9985   89.7562   21.7920 H   0  0  0  0  0
   71.7038   89.7217   19.9482 H   0  0  0  0  0
   70.4697   91.8126   19.0537 H   0  0  0  0  0
   70.3314   90.4541   23.1055 H   0  0  0  0  0
   68.2813   92.9453   19.3488 H   0  0  0  0  0
   68.1487   91.5827   23.4136 H   0  0  0  0  0
   66.5755   93.3297   20.7302 H   0  0  0  0  0
   74.6092   90.9760   22.7219 H   0  0  0  0  0
   76.6600   89.3949   21.4946 H   0  0  0  0  0
   77.4030   89.0083   23.8152 H   0  0  0  0  0
   75.9311   90.0057   24.3289 H   0  0  0  0  0
   77.9066   91.2790   24.4656 H   0  0  0  0  0
   76.8586   91.8430   23.0981 H   0  0  0  0  0
   79.6852   90.2489   23.8604 H   0  0  0  0  0
   77.0152   87.2145   21.5421 H   0  0  0  0  0
   75.0205   85.5988   23.1263 H   0  0  0  0  0
   75.6947   83.7461   21.5337 H   0  0  0  0  0
   76.4066   85.0530   20.5096 H   0  0  0  0  0
   74.2205   86.1581   20.4833 H   0  0  0  0  0
   73.5385   84.6885   21.3612 H   0  0  0  0  0
   74.0262   86.0469   18.5581 H   0  0  0  0  0
   75.8304   84.0884   24.4955 H   0  0  0  0  0
   78.6111   84.2579   25.4410 H   0  0  0  0  0
   76.3329   82.3106   26.0658 H   0  0  0  0  0
   75.6058   84.4335   26.6516 H   0  0  0  0  0
   77.2538   84.8707   27.3353 H   0  0  0  0  0
   78.5684   81.3927   26.5555 H   0  0  0  0  0
   78.9772   82.8645   27.4707 H   0  0  0  0  0
   77.6921   81.7799   28.0565 H   0  0  0  0  0
   75.2796   82.8861   28.5027 H   0  0  0  0  0
   76.8772   83.3099   29.1655 H   0  0  0  0  0
   75.5846   84.5333   29.1066 H   0  0  0  0  0
   79.9749   82.4407   21.9416 H   0  0  0  0  0
   80.0355   79.5779   22.8750 H   0  0  0  0  0
   82.2953   82.7446   22.4485 H   0  0  0  0  0
   82.3607   81.0355   22.7022 H   0  0  0  0  0
   82.0019   81.2411   25.0905 H   0  0  0  0  0
   82.9245   82.6264   24.7943 H   0  0  0  0  0
   80.5484   83.1017   25.8609 H   0  0  0  0  0
   80.9216   84.0692   24.5339 H   0  0  0  0  0
  3  2  1  0  0  0
  2  5  1  0  0  0
  2  1  1  0  0  0
  1  7  1  0  0  0
  7  6  1  0  0  0
  5  6  1  0  0  0
  3  4  2  0  0  0
  9  8  1  0  0  0
  9 12  1  0  0  0
 10  9  1  0  0  0
 10 11  2  0  0  0
  8  3  1  0  0  0
 14 13  1  0  0  0
 14 17  1  0  0  0
 15 14  1  0  0  0
 15 16  2  0  0  0
 17 18  1  0  0  0
 18 19  4  0  0  0
 18 20  4  0  0  0
 20 22  4  0  0  0
 22 23  4  0  0  0
 23 24  1  0  0  0
 21 23  4  0  0  0
 19 21  4  0  0  0
 13 10  1  0  0  0
 26 25  1  0  0  0
 26 29  1  0  0  0
 27 26  1  0  0  0
 27 28  2  0  0  0
 29 30  1  0  0  0
 30 31  1  0  0  0
 31 33  2  0  0  0
 31 32  1  0  0  0
 25 15  1  0  0  0
 35 34  1  0  0  0
 35 38  1  0  0  0
 36 35  1  0  0  0
 36 37  2  0  0  0
 38 39  1  0  0  0
 39 40  1  0  0  0
 40 42  1  0  0  0
 40 41  2  0  0  0
 34 27  1  0  0  0
 44 43  1  0  0  0
 44 47  1  0  0  0
 45 44  1  0  0  0
 45 46  2  0  0  0
 47 49  1  0  0  0
 47 48  1  0  0  0
 48 50  1  0  0  0
 43 36  1  0  0  0
 52 53  1  0  0  0
 52 55  1  0  0  0
 51 52  1  0  0  0
 51 57  1  0  0  0
 57 56  1  0  0  0
 56 55  1  0  0  0
 53 54  2  0  0  0
 45 51  1  0  0  0
  1 58  1  0  0  0
  1 59  1  0  0  0
  2 60  1  0  0  0
  5 61  1  0  0  0
  5 62  1  0  0  0
  6 63  1  0  0  0
  6 64  1  0  0  0
  7 65  1  0  0  0
  7 66  1  0  0  0
  8 67  1  0  0  0
  9 68  1  0  0  0
 12 69  1  0  0  0
 12 70  1  0  0  0
 12 71  1  0  0  0
 13 72  1  0  0  0
 14 73  1  0  0  0
 17 74  1  0  0  0
 17 75  1  0  0  0
 19 76  1  0  0  0
 20 77  1  0  0  0
 21 78  1  0  0  0
 22 79  1  0  0  0
 24 80  1  0  0  0
 25 81  1  0  0  0
 26 82  1  0  0  0
 29 83  1  0  0  0
 29 84  1  0  0  0
 30 85  1  0  0  0
 30 86  1  0  0  0
 32 87  1  0  0  0
 34 88  1  0  0  0
 35 89  1  0  0  0
 38 90  1  0  0  0
 38 91  1  0  0  0
 39 92  1  0  0  0
 39 93  1  0  0  0
 42 94  1  0  0  0
 43 95  1  0  0  0
 44 96  1  0  0  0
 47 97  1  0  0  0
 48 98  1  0  0  0
 48 99  1  0  0  0
 49100  1  0  0  0
 49101  1  0  0  0
 49102  1  0  0  0
 50103  1  0  0  0
 50104  1  0  0  0
 50105  1  0  0  0
 52106  1  0  0  0
 53107  1  0  0  0
 55108  1  0  0  0
 55109  1  0  0  0
 56110  1  0  0  0
 56111  1  0  0  0
 57112  1  0  0  0
 57113  1  0  0  0
M  END
$$$$
