5hjd_ligand
  -I-interpret- 

139139  0  0  0  0  0  0  0  0999 V2000
   -4.1130   10.2390   64.8040 N   0  3  0  0  0
   -3.0580    9.3410   64.3340 C   0  0  0  0  0
   -2.5570    9.5660   62.8890 C   0  0  0  0  0
   -1.3410    9.6030   62.6990 O   0  0  0  0  0
   -3.5080    7.8810   64.4910 C   0  0  0  0  0
   -2.5580    6.8620   63.8740 C   0  0  0  0  0
   -1.7240    6.1620   64.9310 C   0  0  0  0  0
   -1.5090    4.7060   64.5510 C   0  0  0  0  0
   -1.0020    4.5730   63.1530 N   0  3  0  0  0
   -3.4140    9.7380   61.8720 N   0  0  0  0  0
   -4.8580    9.9940   61.9510 C   0  0  0  0  0
   -5.7030    8.7870   62.3430 C   0  0  0  0  0
   -5.4320    7.6650   61.9160 O   0  0  0  0  0
   -5.3440   10.5510   60.6200 C   0  0  0  0  0
   -6.7350    9.0260   63.1730 N   0  0  0  0  0
   -7.6070    7.9680   63.6830 C   0  0  0  0  0
   -8.6850    7.5890   62.6780 C   0  0  0  0  0
   -9.1630    8.4430   61.9320 O   0  0  0  0  0
   -8.2200    8.6070   64.9250 C   0  0  0  0  0
   -8.3450   10.0410   64.5460 C   0  0  0  0  0
   -7.1610   10.3550   63.6570 C   0  0  0  0  0
   -9.0560    6.3150   62.6600 N   0  0  0  0  0
  -10.0970    5.8400   61.7600 C   0  0  0  0  0
  -11.1940    5.1460   62.5580 C   0  0  0  0  0
  -11.0060    4.8210   63.7270 O   0  0  0  0  0
   -9.5100    4.9010   60.7020 C   0  0  0  0  0
   -8.1040    5.2880   60.2560 C   0  0  0  0  0
   -7.7730    4.7650   58.8670 C   0  0  0  0  0
   -8.1580    5.7160   57.8270 N   0  0  0  0  0
   -9.0870    5.4900   56.9050 C   0  0  0  0  0
   -9.3620    6.4190   56.0010 N   0  0  0  0  0
   -9.7370    4.3360   56.8800 N   0  0  0  0  0
  -12.3410    4.9260   61.9250 N   0  0  0  0  0
  -13.4750    4.3850   62.5980 C   0  0  0  0  0
  -14.7240    4.8220   61.8690 C   0  0  0  0  0
  -14.8350    6.3320   61.8130 C   0  0  0  0  0
  -16.2630    6.8110   61.9500 C   0  0  0  0  0
  -16.3670    8.3170   62.0430 C   0  0  0  0  0
  -17.7100    8.6620   62.3500 N   0  0  0  0  0
  -18.0850    9.9850   62.7000 C   0  0  0  0  0
  -17.2600   10.8770   62.7500 O   0  0  0  0  0
  -19.5380   10.2580   63.0210 C   0  0  0  0  0
  -19.9550   11.4930   63.3550 C   0  0  0  0  0
  -21.4180   11.7250   63.6630 C   0  0  0  0  0
  -13.4020    2.8750   62.6950 C   0  0  0  0  0
  -12.5650    2.2340   62.0070 O   0  0  0  0  0
  -14.2540    2.2850   63.5320 N   0  0  0  0  0
  -14.1930    0.8450   63.7740 C   0  0  0  0  0
  -14.9960    0.0640   62.7350 C   0  0  0  0  0
  -16.0830    0.4750   62.3190 O   0  0  0  0  0
  -14.6620    0.5080   65.1980 C   0  0  0  0  0
  -16.1220    0.1200   65.3510 C   0  0  0  0  0
  -16.3320   -0.9030   66.4540 C   0  0  0  0  0
  -15.6560   -1.9310   66.4950 O   0  0  0  0  0
  -17.2580   -0.6180   67.3640 N   0  0  0  0  0
  -14.4350   -1.0650   62.3150 N   0  0  0  0  0
  -14.9680   -1.8320   61.1970 C   0  0  0  0  0
  -15.0710   -3.3160   61.5290 C   0  0  0  0  0
  -14.5840   -3.7670   62.5660 O   0  0  0  0  0
  -14.0950   -1.6340   59.9520 C   0  0  0  0  0
  -12.5830   -1.8580   60.1110 C   0  0  0  0  0
  -11.9520   -2.3030   58.8010 C   0  0  0  0  0
  -11.8720   -0.6080   60.6290 C   0  0  0  0  0
  -15.6430   -4.0960   60.7670 O   0  0  0  0  0
   -3.8073   11.2062   64.6968 H   0  0  0  0  0
   -4.9584   10.0854   64.2544 H   0  0  0  0  0
   -4.3062   10.0493   65.7874 H   0  0  0  0  0
   -2.2031    9.5780   64.9674 H   0  0  0  0  0
   -4.4630    7.7826   63.9749 H   0  0  0  0  0
   -3.5520    7.6722   65.5599 H   0  0  0  0  0
   -1.8844    7.3863   63.1961 H   0  0  0  0  0
   -3.1510    6.1115   63.3513 H   0  0  0  0  0
   -2.2470    6.2079   65.8862 H   0  0  0  0  0
   -0.7561    6.6574   65.0075 H   0  0  0  0  0
   -2.4646    4.1864   64.6221 H   0  0  0  0  0
   -0.7694    4.2786   65.2281 H   0  0  0  0  0
   -0.8697    3.5858   62.9331 H   0  0  0  0  0
   -1.6791    4.9787   62.5070 H   0  0  0  0  0
   -0.1120    5.0639   63.0672 H   0  0  0  0  0
   -3.0166    9.6848   60.9341 H   0  0  0  0  0
   -4.9900   10.7154   62.7574 H   0  0  0  0  0
   -4.8192   11.4815   60.4036 H   0  0  0  0  0
   -5.1438    9.8273   59.8299 H   0  0  0  0  0
   -6.4157   10.7416   60.6769 H   0  0  0  0  0
   -7.0726    7.0398   63.8855 H   0  0  0  0  0
   -7.6106    8.4602   65.8167 H   0  0  0  0  0
   -9.1760    8.1603   65.1984 H   0  0  0  0  0
   -8.3499   10.6793   65.4295 H   0  0  0  0  0
   -9.2843   10.2267   64.0251 H   0  0  0  0  0
   -7.4162   11.0348   62.8441 H   0  0  0  0  0
   -6.3675   10.8820   64.1868 H   0  0  0  0  0
   -8.6019    5.6542   63.2905 H   0  0  0  0  0
  -10.5324    6.6939   61.2410 H   0  0  0  0  0
  -10.1564    4.9507   59.8258 H   0  0  0  0  0
   -9.4508    3.9064   61.1441 H   0  0  0  0  0
   -7.3946    4.8514   60.9590 H   0  0  0  0  0
   -8.0457    6.3761   60.2298 H   0  0  0  0  0
   -8.3252    3.8389   58.7076 H   0  0  0  0  0
   -6.6962    4.6067   58.8067 H   0  0  0  0  0
   -7.6798    6.6168   57.8075 H   0  0  0  0  0
  -10.0717    6.2441   55.2896 H   0  0  0  0  0
   -8.8639    7.3090   56.0165 H   0  0  0  0  0
   -9.5249    3.6161   57.5708 H   0  0  0  0  0
  -12.4120    5.1499   60.9324 H   0  0  0  0  0
  -13.4946    4.7616   63.6207 H   0  0  0  0  0
  -15.5901    4.4318   62.4036 H   0  0  0  0  0
  -14.6792    4.4411   60.8487 H   0  0  0  0  0
  -14.4603    6.6618   60.8440 H   0  0  0  0  0
  -14.2604    6.7433   62.6429 H   0  0  0  0  0
  -16.6705    6.3900   62.8691 H   0  0  0  0  0
  -16.8097    6.4919   61.0626 H   0  0  0  0  0
  -16.0763    8.7677   61.0941 H   0  0  0  0  0
  -15.7018    8.6868   62.8233 H   0  0  0  0  0
  -18.4266    7.9369   62.3179 H   0  0  0  0  0
  -20.2586    9.4412   62.9811 H   0  0  0  0  0
  -19.2452   12.3188   63.4032 H   0  0  0  0  0
  -22.0174   11.4642   62.7908 H   0  0  0  0  0
  -21.7133   11.1026   64.5077 H   0  0  0  0  0
  -21.5736   12.7748   63.9117 H   0  0  0  0  0
  -14.9587    2.8460   64.0106 H   0  0  0  0  0
  -13.1508    0.5406   63.6772 H   0  0  0  0  0
  -14.5260    1.4161   65.7853 H   0  0  0  0  0
  -14.0826   -0.3606   65.5109 H   0  0  0  0  0
  -16.4557   -0.3211   64.4117 H   0  0  0  0  0
  -16.6857    1.0166   65.6086 H   0  0  0  0  0
  -17.4311   -1.2631   68.1349 H   0  0  0  0  0
  -17.7955    0.2458   67.2914 H   0  0  0  0  0
  -13.6011   -1.4069   62.7926 H   0  0  0  0  0
  -15.9739   -1.4633   60.9960 H   0  0  0  0  0
  -14.2111   -0.5868   59.6729 H   0  0  0  0  0
  -14.4308   -2.3816   59.2334 H   0  0  0  0  0
  -12.4605   -2.6499   60.8499 H   0  0  0  0  0
  -12.4104   -3.2375   58.4774 H   0  0  0  0  0
  -12.1127   -1.5364   58.0429 H   0  0  0  0  0
  -10.8823   -2.4529   58.9469 H   0  0  0  0  0
  -12.0239    0.2120   59.9271 H   0  0  0  0  0
  -12.2812   -0.3357   61.6019 H   0  0  0  0  0
  -10.8057   -0.8120   60.7261 H   0  0  0  0  0
  -15.9718   -3.6137   60.0049 H   0  0  0  0  0
  1  2  1  0  0  0
  2  3  1  0  0  0
  2  5  1  0  0  0
  3  4  2  0  0  0
  3 10  1  0  0  0
  5  6  1  0  0  0
  6  7  1  0  0  0
  7  8  1  0  0  0
  8  9  1  0  0  0
 10 11  1  0  0  0
 11 12  1  0  0  0
 11 14  1  0  0  0
 12 13  2  0  0  0
 12 15  1  0  0  0
 15 16  1  0  0  0
 15 21  1  0  0  0
 16 17  1  0  0  0
 16 19  1  0  0  0
 17 18  2  0  0  0
 17 22  1  0  0  0
 19 20  1  0  0  0
 20 21  1  0  0  0
 22 23  1  0  0  0
 23 24  1  0  0  0
 23 26  1  0  0  0
 24 25  2  0  0  0
 24 33  1  0  0  0
 26 27  1  0  0  0
 27 28  1  0  0  0
 28 29  1  0  0  0
 29 30  1  0  0  0
 30 31  1  0  0  0
 30 32  2  0  0  0
 33 34  1  0  0  0
 34 35  1  0  0  0
 34 45  1  0  0  0
 35 36  1  0  0  0
 36 37  1  0  0  0
 37 38  1  0  0  0
 38 39  1  0  0  0
 39 40  1  0  0  0
 40 41  2  0  0  0
 40 42  1  0  0  0
 42 43  2  0  0  0
 43 44  1  0  0  0
 45 46  2  0  0  0
 45 47  1  0  0  0
 47 48  1  0  0  0
 48 49  1  0  0  0
 48 51  1  0  0  0
 49 50  2  0  0  0
 49 56  1  0  0  0
 51 52  1  0  0  0
 52 53  1  0  0  0
 53 54  2  0  0  0
 53 55  1  0  0  0
 56 57  1  0  0  0
 57 58  1  0  0  0
 57 60  1  0  0  0
 58 59  2  0  0  0
 58 64  1  0  0  0
 60 61  1  0  0  0
 61 62  1  0  0  0
 61 63  1  0  0  0
  1 65  1  0  0  0
  1 66  1  0  0  0
  1 67  1  0  0  0
  2 68  1  0  0  0
  5 69  1  0  0  0
  5 70  1  0  0  0
  6 71  1  0  0  0
  6 72  1  0  0  0
  7 73  1  0  0  0
  7 74  1  0  0  0
  8 75  1  0  0  0
  8 76  1  0  0  0
  9 77  1  0  0  0
  9 78  1  0  0  0
  9 79  1  0  0  0
 10 80  1  0  0  0
 11 81  1  0  0  0
 14 82  1  0  0  0
 14 83  1  0  0  0
 14 84  1  0  0  0
 16 85  1  0  0  0
 19 86  1  0  0  0
 19 87  1  0  0  0
 20 88  1  0  0  0
 20 89  1  0  0  0
 21 90  1  0  0  0
 21 91  1  0  0  0
 22 92  1  0  0  0
 23 93  1  0  0  0
 26 94  1  0  0  0
 26 95  1  0  0  0
 27 96  1  0  0  0
 27 97  1  0  0  0
 28 98  1  0  0  0
 28 99  1  0  0  0
 29100  1  0  0  0
 31101  1  0  0  0
 31102  1  0  0  0
 32103  1  0  0  0
 33104  1  0  0  0
 34105  1  0  0  0
 35106  1  0  0  0
 35107  1  0  0  0
 36108  1  0  0  0
 36109  1  0  0  0
 37110  1  0  0  0
 37111  1  0  0  0
 38112  1  0  0  0
 38113  1  0  0  0
 39114  1  0  0  0
 42115  1  0  0  0
 43116  1  0  0  0
 44117  1  0  0  0
 44118  1  0  0  0
 44119  1  0  0  0
 47120  1  0  0  0
 48121  1  0  0  0
 51122  1  0  0  0
 51123  1  0  0  0
 52124  1  0  0  0
 52125  1  0  0  0
 55126  1  0  0  0
 55127  1  0  0  0
 56128  1  0  0  0
 57129  1  0  0  0
 60130  1  0  0  0
 60131  1  0  0  0
 61132  1  0  0  0
 62133  1  0  0  0
 62134  1  0  0  0
 62135  1  0  0  0
 63136  1  0  0  0
 63137  1  0  0  0
 63138  1  0  0  0
 64139  1  0  0  0
M  END
$$$$
