### 
### Created by X-TOOL on Mon Sep 10 21:13:30 2018
### 

@<TRIPOS>MOLECULE
5hjd_ligand
  139   139     1     0     0
SMALL
GAST_HUCK


@<TRIPOS>ATOM
      1 N          -4.1130   10.2390   64.8040 N.4       1 LYS         0.2379
      2 CA         -3.0580    9.3410   64.3340 C.3       1 LYS         0.0650
      3 C          -2.5570    9.5660   62.8890 C.2       1 LYS         0.2267
      4 O          -1.3410    9.6030   62.6990 O.2       1 LYS        -0.3907
      5 CB         -3.5080    7.8810   64.4910 C.3       1 LYS         0.0080
      6 CG         -2.5580    6.8620   63.8740 C.3       1 LYS        -0.0410
      7 CD         -1.7240    6.1620   64.9310 C.3       1 LYS        -0.0123
      8 CE         -1.5090    4.7060   64.5510 C.3       1 LYS        -0.0354
      9 NZ         -1.0020    4.5730   63.1530 N.4       1 LYS         0.2185
     10 N          -3.4140    9.7380   61.8720 N.am      1 ALA        -0.2613
     11 CA         -4.8580    9.9940   61.9510 C.3       1 ALA         0.1285
     12 C          -5.7030    8.7870   62.3430 C.2       1 ALA         0.2061
     13 O          -5.4320    7.6650   61.9160 O.2       1 ALA        -0.3942
     14 CB         -5.3440   10.5510   60.6200 C.3       1 ALA        -0.0244
     15 N          -6.7350    9.0260   63.1730 N.am      1 PRO        -0.2498
     16 CA         -7.6070    7.9680   63.6830 C.3       1 PRO         0.1338
     17 C          -8.6850    7.5890   62.6780 C.2       1 PRO         0.2041
     18 O          -9.1630    8.4430   61.9320 O.2       1 PRO        -0.3944
     19 CB         -8.2200    8.6070   64.9250 C.3       1 PRO        -0.0104
     20 CG         -8.3450   10.0410   64.5460 C.3       1 PRO        -0.0281
     21 CD         -7.1610   10.3550   63.6570 C.3       1 PRO         0.0369
     22 N          -9.0560    6.3150   62.6600 N.am      1 ARG        -0.2637
     23 CA        -10.0970    5.8400   61.7600 C.3       1 ARG         0.1311
     24 C         -11.1940    5.1460   62.5580 C.2       1 ARG         0.2039
     25 O         -11.0060    4.8210   63.7270 O.2       1 ARG        -0.3944
     26 CB         -9.5100    4.9010   60.7020 C.3       1 ARG        -0.0092
     27 CG         -8.1040    5.2880   60.2560 C.3       1 ARG        -0.0156
     28 CD         -7.7730    4.7650   58.8670 C.3       1 ARG         0.0627
     29 NE         -8.1580    5.7160   57.8270 N.pl3     1 ARG        -0.2723
     30 CZ         -9.0870    5.4900   56.9050 C.cat     1 ARG         0.2882
     31 NH1        -9.3620    6.4190   56.0010 N.pl3     1 ARG        -0.2849
     32 NH2        -9.7370    4.3360   56.8800 N.pl3     1 ARG        -0.2849
     33 N         -12.3410    4.9260   61.9250 N.am      1 KCR        -0.2637
     34 CA        -13.4750    4.3850   62.5980 C.3       1 KCR         0.1310
     35 CB        -14.7240    4.8220   61.8690 C.3       1 KCR        -0.0123
     36 CG        -14.8350    6.3320   61.8130 C.3       1 KCR        -0.0470
     37 CD        -16.2630    6.8110   61.9500 C.3       1 KCR        -0.0327
     38 CE        -16.3670    8.3170   62.0430 C.3       1 KCR         0.0295
     39 NZ        -17.7100    8.6620   62.3500 N.am      1 KCR        -0.2917
     40 CH        -18.0850    9.9850   62.7000 C.2       1 KCR         0.1759
     41 OH        -17.2600   10.8770   62.7500 O.2       1 KCR        -0.4012
     42 CX        -19.5380   10.2580   63.0210 C.2       1 KCR        -0.0032
     43 CY        -19.9550   11.4930   63.3550 C.2       1 KCR        -0.0626
     44 CH3       -21.4180   11.7250   63.6630 C.3       1 KCR        -0.0267
     45 C         -13.4020    2.8750   62.6950 C.2       1 KCR         0.2039
     46 O         -12.5650    2.2340   62.0070 O.2       1 KCR        -0.3944
     47 N         -14.2540    2.2850   63.5320 N.am      1 GLN        -0.2636
     48 CA        -14.1930    0.8450   63.7740 C.3       1 GLN         0.1330
     49 C         -14.9960    0.0640   62.7350 C.2       1 GLN         0.2035
     50 O         -16.0830    0.4750   62.3190 O.2       1 GLN        -0.3944
     51 CB        -14.6620    0.5080   65.1980 C.3       1 GLN         0.0045
     52 CG        -16.1220    0.1200   65.3510 C.3       1 GLN         0.0412
     53 CD        -16.3320   -0.9030   66.4540 C.2       1 GLN         0.1737
     54 OE1       -15.6560   -1.9310   66.4950 O.2       1 GLN        -0.3973
     55 NE2       -17.2580   -0.6180   67.3640 N.am      1 GLN        -0.3009
     56 N         -14.4350   -1.0650   62.3150 N.am      1 LEU        -0.2695
     57 CA        -14.9680   -1.8320   61.1970 C.3       1 LEU         0.0946
     58 C         -15.0710   -3.3160   61.5290 C.2       1 LEU         0.0601
     59 O         -14.5840   -3.7670   62.5660 O.co2     1 LEU        -0.5666
     60 CB        -14.0950   -1.6340   59.9520 C.3       1 LEU        -0.0156
     61 CG        -12.5830   -1.8580   60.1110 C.3       1 LEU        -0.0431
     62 CD1       -11.9520   -2.3030   58.8010 C.3       1 LEU        -0.0625
     63 CD2       -11.8720   -0.6080   60.6290 C.3       1 LEU        -0.0625
     64 OXT       -15.6430   -4.0960   60.7670 O.co2     1 LEU        -0.5666
     65 H1         -4.3589   10.0012   65.7522 H         1 LYS         0.2015
     66 H2         -4.9237   10.1435   64.2126 H         1 LYS         0.2015
     67 H3         -3.7833   11.1910   64.7711 H         1 LYS         0.2015
     68 H4         -2.1937    9.5017   64.9951 H         1 LYS         0.1098
     69 H5         -4.4913    7.7701   64.0107 H         1 LYS         0.0346
     70 H6         -3.5978    7.6618   65.5652 H         1 LYS         0.0346
     71 H7         -1.8855    7.3794   63.1740 H         1 LYS         0.0270
     72 H8         -3.1469    6.1099   63.3285 H         1 LYS         0.0270
     73 H9         -2.2464    6.2118   65.8978 H         1 LYS         0.0317
     74 H10        -0.7485    6.6634   65.0150 H         1 LYS         0.0317
     75 H11        -2.4655    4.1695   64.6365 H         1 LYS         0.0813
     76 H12        -0.7762    4.2614   65.2404 H         1 LYS         0.0813
     77 H13        -0.8709    3.5977   62.9345 H         1 LYS         0.1994
     78 H14        -0.1224    5.0578   63.0670 H         1 LYS         0.1994
     79 H15        -1.6704    4.9736   62.5136 H         1 LYS         0.1994
     80 H16        -3.0244    9.6859   60.9525 H         1 ALA         0.1884
     81 H17        -5.0113   10.7623   62.7231 H         1 ALA         0.0797
     82 H18        -6.4255   10.7438   60.6762 H         1 ALA         0.0277
     83 H19        -5.1426    9.8215   59.8217 H         1 ALA         0.0277
     84 H20        -4.8151   11.4902   60.4005 H         1 ALA         0.0277
     85 H21        -7.0246    7.0725   63.9456 H         1 PRO         0.0802
     86 H22        -7.5603    8.4860   65.7969 H         1 PRO         0.0313
     87 H23        -9.2051    8.1709   65.1472 H         1 PRO         0.0313
     88 H24        -8.3241   10.6749   65.4447 H         1 PRO         0.0287
     89 H25        -9.2851   10.2094   64.0003 H         1 PRO         0.0287
     90 H26        -7.4587   11.0024   62.8190 H         1 PRO         0.0524
     91 H27        -6.3574   10.8419   64.2290 H         1 PRO         0.0524
     92 H28        -8.6108    5.6671   63.2781 H         1 ARG         0.1883
     93 H29       -10.5365    6.7074   61.2457 H         1 ARG         0.0800
     94 H30       -10.1697    4.9128   59.8219 H         1 ARG         0.0313
     95 H31        -9.4747    3.8843   61.1203 H         1 ARG         0.0313
     96 H32        -7.3793    4.8729   60.9719 H         1 ARG         0.0301
     97 H33        -8.0249    6.3851   60.2486 H         1 ARG         0.0301
     98 H34        -8.3122    3.8202   58.7037 H         1 ARG         0.0689
     99 H35        -6.6898    4.5849   58.8024 H         1 ARG         0.0689
    100 H36        -7.6751    6.6256   57.8074 H         1 ARG         0.2642
    101 H37       -10.0823    6.2444   55.2858 H         1 ARG         0.2615
    102 H38        -8.8555    7.3158   56.0136 H         1 ARG         0.2615
    103 H39        -9.5265    3.6111   57.5807 H         1 ARG         0.2615
    104 H40       -10.4529    4.1637   56.1598 H         1 ARG         0.2615
    105 H41       -12.4106    5.1455   60.9519 H         1 KCR         0.1883
    106 H42       -13.5026    4.7918   63.6196 H         1 KCR         0.0800
    107 H43       -15.6031    4.4183   62.3925 H         1 KCR         0.0312
    108 H44       -14.6952    4.4275   60.8426 H         1 KCR         0.0312
    109 H45       -14.4368    6.6799   60.8484 H         1 KCR         0.0268
    110 H46       -14.2387    6.7606   62.6319 H         1 KCR         0.0268
    111 H47       -16.6958    6.3715   62.8608 H         1 KCR         0.0285
    112 H48       -16.8335    6.4724   61.0726 H         1 KCR         0.0285
    113 H49       -16.0793    8.7681   61.0819 H         1 KCR         0.0518
    114 H50       -15.6995    8.6860   62.8356 H         1 KCR         0.0518
    115 H51       -18.4126    7.9511   62.3186 H         1 KCR         0.1831
    116 H52       -20.2580    9.4419   62.9811 H         1 KCR         0.0472
    117 H53       -19.2458   12.3180   63.4032 H         1 KCR         0.0843
    118 H54       -21.5763   12.7842   63.9141 H         1 KCR         0.0453
    119 H55       -21.7173   11.0974   64.5154 H         1 KCR         0.0453
    120 H56       -22.0241   11.4622   62.7835 H         1 KCR         0.0453
    121 H57       -14.9449    2.8350   64.0012 H         1 GLN         0.1883
    122 H58       -13.1412    0.5356   63.6843 H         1 GLN         0.0801
    123 H59       -14.4822    1.3916   65.8280 H         1 GLN         0.0337
    124 H60       -14.0521   -0.3320   65.5618 H         1 GLN         0.0337
    125 H61       -16.4767   -0.3059   64.4009 H         1 GLN         0.0504
    126 H62       -16.7051    1.0219   65.5889 H         1 GLN         0.0504
    127 H63       -17.4371   -1.2569   68.1122 H         1 GLN         0.1814
    128 H64       -17.7755    0.2353   67.3005 H         1 GLN         0.1814
    129 H65       -13.6175   -1.4002   62.7833 H         1 LEU         0.1875
    130 H66       -15.9789   -1.4584   60.9768 H         1 LEU         0.0726
    131 H67       -14.2416   -0.6002   59.6061 H         1 LEU         0.0308
    132 H68       -14.4537   -2.3327   59.1819 H         1 LEU         0.0308
    133 H69       -12.4398   -2.6605   60.8496 H         1 LEU         0.0297
    134 H70       -10.8723   -2.4547   58.9470 H         1 LEU         0.0232
    135 H71       -12.1134   -1.5302   58.0351 H         1 LEU         0.0232
    136 H72       -12.4137   -3.2461   58.4733 H         1 LEU         0.0232
    137 H73       -12.3322   -0.2905   61.5763 H         1 LEU         0.0232
    138 H74       -11.9639    0.1997   59.8880 H         1 LEU         0.0232
    139 H75       -10.8084   -0.8336   60.7956 H         1 LEU         0.0232
@<TRIPOS>BOND
     1    1    2 1  
     2    2    3 1  
     3    2    5 1  
     4    3    4 2  
     5    3   10 am 
     6    5    6 1  
     7    6    7 1  
     8    7    8 1  
     9    8    9 1  
    10   10   11 1  
    11   11   12 1  
    12   11   14 1  
    13   12   13 2  
    14   12   15 am 
    15   15   16 1  
    16   15   21 1  
    17   16   17 1  
    18   16   19 1  
    19   17   18 2  
    20   17   22 am 
    21   19   20 1  
    22   20   21 1  
    23   22   23 1  
    24   23   24 1  
    25   23   26 1  
    26   24   25 2  
    27   24   33 am 
    28   26   27 1  
    29   27   28 1  
    30   28   29 1  
    31   29   30 ar 
    32   30   31 ar 
    33   30   32 ar 
    34   33   34 1  
    35   34   35 1  
    36   34   45 1  
    37   35   36 1  
    38   36   37 1  
    39   37   38 1  
    40   38   39 1  
    41   39   40 am 
    42   40   41 2  
    43   40   42 1  
    44   42   43 2  
    45   43   44 1  
    46   45   46 2  
    47   45   47 am 
    48   47   48 1  
    49   48   49 1  
    50   48   51 1  
    51   49   50 2  
    52   49   56 am 
    53   51   52 1  
    54   52   53 1  
    55   53   54 2  
    56   53   55 am 
    57   56   57 1  
    58   57   58 1  
    59   57   60 1  
    60   58   59 ar 
    61   58   64 ar 
    62   60   61 1  
    63   61   62 1  
    64   61   63 1  
    65    1   65 1  
    66    1   66 1  
    67    1   67 1  
    68    2   68 1  
    69    5   69 1  
    70    5   70 1  
    71    6   71 1  
    72    6   72 1  
    73    7   73 1  
    74    7   74 1  
    75    8   75 1  
    76    8   76 1  
    77    9   77 1  
    78    9   78 1  
    79    9   79 1  
    80   10   80 1  
    81   11   81 1  
    82   14   82 1  
    83   14   83 1  
    84   14   84 1  
    85   16   85 1  
    86   19   86 1  
    87   19   87 1  
    88   20   88 1  
    89   20   89 1  
    90   21   90 1  
    91   21   91 1  
    92   22   92 1  
    93   23   93 1  
    94   26   94 1  
    95   26   95 1  
    96   27   96 1  
    97   27   97 1  
    98   28   98 1  
    99   28   99 1  
   100   29  100 1  
   101   31  101 1  
   102   31  102 1  
   103   32  103 1  
   104   32  104 1  
   105   33  105 1  
   106   34  106 1  
   107   35  107 1  
   108   35  108 1  
   109   36  109 1  
   110   36  110 1  
   111   37  111 1  
   112   37  112 1  
   113   38  113 1  
   114   38  114 1  
   115   39  115 1  
   116   42  116 1  
   117   43  117 1  
   118   44  118 1  
   119   44  119 1  
   120   44  120 1  
   121   47  121 1  
   122   48  122 1  
   123   51  123 1  
   124   51  124 1  
   125   52  125 1  
   126   52  126 1  
   127   55  127 1  
   128   55  128 1  
   129   56  129 1  
   130   57  130 1  
   131   60  131 1  
   132   60  132 1  
   133   61  133 1  
   134   62  134 1  
   135   62  135 1  
   136   62  136 1  
   137   63  137 1  
   138   63  138 1  
   139   63  139 1  
@<TRIPOS>SUBSTRUCTURE
     1 LYS         1

