1apv_ligand
  -I-interpret- 

 80 79  0  0  0  0  0  0  0  0999 V2000
   16.0190    4.5530   17.9340 C   0  0  0  0  0
   14.7990    3.9160   18.5820 C   0  0  0  0  0
   14.3210    4.9180   19.6410 C   0  0  0  0  0
   13.7190    3.6180   17.5740 C   0  0  0  0  0
   17.1300    4.8030   18.9660 C   0  0  0  0  0
   17.1600    4.1620   20.0510 O   0  0  0  0  0
   18.0000    5.7030   18.5940 N   0  0  0  0  0
   19.1740    6.0020   19.4660 C   0  0  0  0  0
   19.0780    7.3870   20.1050 C   0  0  0  0  0
   18.2360    8.1860   19.6660 O   0  0  0  0  0
   20.4050    5.8710   18.5450 C   0  0  0  0  0
   20.5140    4.4980   17.8720 C   0  0  0  0  0
   20.3940    6.9660   17.4880 C   0  0  0  0  0
   19.9330    7.5290   21.0860 N   0  0  0  0  0
   19.9710    8.8400   21.8490 C   0  0  0  0  0
   21.4750    9.1630   22.0480 C   0  0  0  0  0
   22.0280    8.5270   22.9380 O   0  0  0  0  0
   19.2190    8.7390   23.1690 C   0  0  0  0  0
   19.1830   10.1550   23.8360 C   0  0  0  0  0
   17.8090    8.2400   23.1190 C   0  0  0  0  0
   22.0060   10.0660   21.2120 N   0  0  0  0  0
   23.4390   10.3800   21.3090 C   0  0  0  0  0
   24.0620    9.9190   19.9650 C   0  0  0  0  0
   23.7960    8.4950   19.5250 C   0  0  0  0  0
   24.3870    8.2280   18.1500 C   0  0  0  0  0
   24.4460    7.4540   20.4830 C   0  0  0  0  0
   23.6380   11.8880   21.5110 C   0  0  0  0  0
   22.8910   12.6110   20.4760 O   0  0  0  0  0
   23.2280   12.4820   22.8930 C   0  0  0  0  0
   24.3170   12.1080   23.9700 C   0  0  0  0  0
   24.3070   11.0000   24.5350 O   0  0  0  0  0
   25.0190   12.1230   21.4170 O   0  0  0  0  0
   22.0750   11.9820   23.2420 F   0  0  0  0  0
   23.1050   13.8100   22.8380 F   0  0  0  0  0
   25.1930   13.0570   24.1750 N   0  0  0  0  0
   26.3230   12.9170   25.1300 C   0  0  0  0  0
   15.7239    5.5093   17.5021 H   0  0  0  0  0
   16.4003    3.8758   17.1697 H   0  0  0  0  0
   15.0482    2.9530   19.0277 H   0  0  0  0  0
   14.0363    5.8509   19.1544 H   0  0  0  0  0
   13.4613    4.5048   20.1685 H   0  0  0  0  0
   15.1270    5.1077   20.3499 H   0  0  0  0  0
   12.8542    3.1942   18.0845 H   0  0  0  0  0
   13.4293    4.5403   17.0704 H   0  0  0  0  0
   14.0951    2.9048   16.8406 H   0  0  0  0  0
   17.8778    6.1995   17.7114 H   0  0  0  0  0
   19.2310    5.3149   20.3102 H   0  0  0  0  0
   21.2805    5.9799   19.1851 H   0  0  0  0  0
   20.5910    3.7251   18.6367 H   0  0  0  0  0
   19.6271    4.3217   17.2634 H   0  0  0  0  0
   21.4011    4.4744   17.2391 H   0  0  0  0  0
   19.4888    6.8799   16.8869 H   0  0  0  0  0
   20.4164    7.9404   17.9759 H   0  0  0  0  0
   21.2690    6.8591   16.8468 H   0  0  0  0  0
   20.5655    6.7682   21.3343 H   0  0  0  0  0
   19.4715    9.6404   21.3032 H   0  0  0  0  0
   19.7751    7.9870   23.7287 H   0  0  0  0  0
   20.2024   10.4968   24.0152 H   0  0  0  0  0
   18.6751   10.8549   23.1725 H   0  0  0  0  0
   18.6466   10.0956   24.7830 H   0  0  0  0  0
   17.2118    8.9041   22.4942 H   0  0  0  0  0
   17.7955    7.2343   22.6989 H   0  0  0  0  0
   17.3962    8.2194   24.1276 H   0  0  0  0  0
   21.4224   10.5303   20.5161 H   0  0  0  0  0
   23.9084    9.8803   22.1564 H   0  0  0  0  0
   25.1411    9.9874   20.1025 H   0  0  0  0  0
   23.6121   10.5519   19.2001 H   0  0  0  0  0
   22.7112    8.3886   19.5233 H   0  0  0  0  0
   23.9385    8.9073   17.4250 H   0  0  0  0  0
   25.4647    8.3884   18.1818 H   0  0  0  0  0
   24.1801    7.1976   17.8608 H   0  0  0  0  0
   25.5250    7.6068   20.5053 H   0  0  0  0  0
   24.0389    7.5814   21.4861 H   0  0  0  0  0
   24.2276    6.4476   20.1260 H   0  0  0  0  0
   23.0115   13.5557   20.5970 H   0  0  0  0  0
   25.1920   13.0595   21.5378 H   0  0  0  0  0
   25.0966   13.9306   23.6574 H   0  0  0  0  0
   25.9309   12.7376   26.1311 H   0  0  0  0  0
   26.9502   12.0781   24.8283 H   0  0  0  0  0
   26.9138   13.8330   25.1286 H   0  0  0  0  0
  8  7  1  0  0  0
  8 11  1  0  0  0
  9  8  1  0  0  0
  9 10  2  0  0  0
 11 13  1  0  0  0
 11 12  1  0  0  0
 15 14  1  0  0  0
 15 18  1  0  0  0
 16 15  1  0  0  0
 16 17  2  0  0  0
 18 20  1  0  0  0
 18 19  1  0  0  0
 14  9  1  0  0  0
 35 36  1  0  0  0
  1  2  1  0  0  0
  5  1  1  0  0  0
  2  3  1  0  0  0
  2  4  1  0  0  0
  5  6  2  0  0  0
  7  5  1  0  0  0
 21 16  1  0  0  0
 22 21  1  0  0  0
 22 23  1  0  0  0
 27 22  1  0  0  0
 23 24  1  0  0  0
 24 25  1  0  0  0
 24 26  1  0  0  0
 27 28  1  0  0  0
 29 27  1  0  0  0
 27 32  1  0  0  0
 30 29  1  0  0  0
 29 33  1  0  0  0
 29 34  1  0  0  0
 30 31  2  0  0  0
 30 35  1  0  0  0
  1 37  1  0  0  0
  1 38  1  0  0  0
  2 39  1  0  0  0
  3 40  1  0  0  0
  3 41  1  0  0  0
  3 42  1  0  0  0
  4 43  1  0  0  0
  4 44  1  0  0  0
  4 45  1  0  0  0
  7 46  1  0  0  0
  8 47  1  0  0  0
 11 48  1  0  0  0
 12 49  1  0  0  0
 12 50  1  0  0  0
 12 51  1  0  0  0
 13 52  1  0  0  0
 13 53  1  0  0  0
 13 54  1  0  0  0
 14 55  1  0  0  0
 15 56  1  0  0  0
 18 57  1  0  0  0
 19 58  1  0  0  0
 19 59  1  0  0  0
 19 60  1  0  0  0
 20 61  1  0  0  0
 20 62  1  0  0  0
 20 63  1  0  0  0
 21 64  1  0  0  0
 22 65  1  0  0  0
 23 66  1  0  0  0
 23 67  1  0  0  0
 24 68  1  0  0  0
 25 69  1  0  0  0
 25 70  1  0  0  0
 25 71  1  0  0  0
 26 72  1  0  0  0
 26 73  1  0  0  0
 26 74  1  0  0  0
 28 75  1  0  0  0
 32 76  1  0  0  0
 35 77  1  0  0  0
 36 78  1  0  0  0
 36 79  1  0  0  0
 36 80  1  0  0  0
M  END
$$$$
