3s68_ligand
  -I-interpret- 

 31 32  0  0  0  0  0  0  0  0999 V2000
  -13.3170   35.2330   60.2030 O   0  0  0  0  0
  -13.5590   36.0750   61.0640 C   0  0  0  0  0
  -12.3980   36.6530   61.8190 C   0  0  0  0  0
  -11.2040   35.8810   61.9370 C   0  0  0  0  0
  -10.0940   36.4350   62.6250 C   0  0  0  0  0
   -8.9270   35.7180   62.7920 O   0  0  0  0  0
  -12.4720   37.9530   62.3310 C   0  0  0  0  0
  -11.3610   38.4980   62.9780 C   0  0  0  0  0
  -11.4610   39.8150   63.4940 N   0  0  0  0  0
  -12.4810   40.4540   63.2540 O   0  0  0  0  0
  -10.5760   40.3390   64.1970 O   0  0  0  0  0
  -10.1770   37.7240   63.1130 C   0  0  0  0  0
   -9.0720   38.2390   63.7360 O   0  0  0  0  0
  -14.9510   36.5700   61.2700 C   0  0  0  0  0
  -15.7120   36.8580   60.1250 C   0  0  0  0  0
  -17.0150   37.3330   60.2810 C   0  0  0  0  0
  -17.5400   37.5300   61.5650 C   0  0  0  0  0
  -18.9460   38.0550   61.7210 C   0  0  0  0  0
  -16.7690   37.2590   62.7070 C   0  0  0  0  0
  -15.4610   36.7790   62.5580 C   0  0  0  0  0
  -11.1456   34.8817   61.5055 H   0  0  0  0  0
   -8.2925   36.2502   63.2776 H   0  0  0  0  0
  -13.3878   38.5346   62.2259 H   0  0  0  0  0
   -9.2583   39.1347   64.0267 H   0  0  0  0  0
  -15.2913   36.7127   59.1300 H   0  0  0  0  0
  -17.6243   37.5508   59.4038 H   0  0  0  0  0
  -19.0219   39.0333   61.2465 H   0  0  0  0  0
  -19.6447   37.3651   61.2478 H   0  0  0  0  0
  -19.1835   38.1445   62.7810 H   0  0  0  0  0
  -17.1848   37.4208   63.7015 H   0  0  0  0  0
  -14.8472   36.5706   63.4343 H   0  0  0  0  0
  1  2  2  0  0  0
  2  3  1  0  0  0
  2 14  1  0  0  0
  3  4  4  0  0  0
  3  7  4  0  0  0
  4  5  4  0  0  0
  5  6  1  0  0  0
  5 12  4  0  0  0
  7  8  4  0  0  0
  8  9  1  0  0  0
  8 12  4  0  0  0
  9 10  2  0  0  0
  9 11  2  0  0  0
 12 13  1  0  0  0
 14 15  4  0  0  0
 14 20  4  0  0  0
 15 16  4  0  0  0
 16 17  4  0  0  0
 17 18  1  0  0  0
 17 19  4  0  0  0
 19 20  4  0  0  0
  4 21  1  0  0  0
  6 22  1  0  0  0
  7 23  1  0  0  0
 13 24  1  0  0  0
 15 25  1  0  0  0
 16 26  1  0  0  0
 18 27  1  0  0  0
 18 28  1  0  0  0
 18 29  1  0  0  0
 19 30  1  0  0  0
 20 31  1  0  0  0
M  END
$$$$
