4rgd_ligand
  -I-interpret- 

 21 20  0  0  0  0  0  0  0  0999 V2000
   47.2170   21.5620   89.2180 C   0  0  0  0  0
   47.7720   20.8290   90.0680 O   0  0  0  0  0
   47.4940   22.8030   88.9840 O   0  0  0  0  0
   46.1900   20.8670   88.3650 C   0  0  0  0  0
   45.4510   19.6870   88.9730 C   0  0  0  0  0
   44.8620   19.9770   90.2910 O   0  0  0  0  0
   44.3590   19.3680   87.9550 C   0  0  0  0  0
   43.5780   18.0870   88.2830 C   0  0  0  0  0
   43.7810   17.4920   89.3920 O   0  0  0  0  0
   42.7280   17.7260   87.3860 O   0  0  0  0  0
   46.3600   18.4960   89.1190 C   0  0  0  0  0
   46.4700   18.0900   90.2710 O   0  0  0  0  0
   46.8900   17.9710   88.1620 O   0  0  0  0  0
   46.9236   23.1307   88.2848 H   0  0  0  0  0
   46.7410   20.4611   87.5166 H   0  0  0  0  0
   45.4254   21.6162   88.1594 H   0  0  0  0  0
   45.5626   20.1749   90.9168 H   0  0  0  0  0
   44.8420   19.2210   86.9890 H   0  0  0  0  0
   43.6506   20.1964   87.9614 H   0  0  0  0  0
   42.7665   18.3365   86.6462 H   0  0  0  0  0
   45.9672   18.6585   90.8588 H   0  0  0  0  0
  1  2  2  0  0  0
  1  3  1  0  0  0
  1  4  1  0  0  0
  4  5  1  0  0  0
  5  6  1  0  0  0
  5  7  1  0  0  0
  5 11  1  0  0  0
  7  8  1  0  0  0
  8  9  2  0  0  0
  8 10  1  0  0  0
 11 12  1  0  0  0
 11 13  2  0  0  0
  3 14  1  0  0  0
  4 15  1  0  0  0
  4 16  1  0  0  0
  6 17  1  0  0  0
  7 18  1  0  0  0
  7 19  1  0  0  0
 10 20  1  0  0  0
 12 21  1  0  0  0
M  END
$$$$
