5w0e_ligand
  -I-interpret- 

 71 76  0  0  0  0  0  0  0  0999 V2000
    0.0490    3.1150    6.4670 C   0  0  0  0  0
   -5.1510    1.1700    4.5500 C   0  0  0  0  0
   -4.0590    1.8710    5.3410 C   0  0  0  0  0
   -2.7670    1.7090    4.6080 C   0  0  0  0  0
   -2.6570    1.4280    3.2790 C   0  0  0  0  0
   -1.2250    1.3680    3.0270 C   0  0  0  0  0
   -1.0750    2.0910    6.4750 C   0  0  0  0  0
   -6.0910    2.1790    1.1690 N   0  0  0  0  0
   -6.1750    2.0500    2.4960 C   0  0  0  0  0
   -7.2270    2.6490    0.3980 C   0  0  0  0  0
    0.6160    3.2980    7.8560 C   0  0  0  0  0
   -0.0450    1.1540    8.5150 C   0  0  0  0  0
   -0.6170    0.8170    7.1600 C   0  0  0  0  0
   -0.9250    0.0350    0.9500 C   0  0  0  0  0
    0.2740   -0.3400    0.1230 C   0  0  0  0  0
    0.6660    0.8080   -0.7670 C   0  0  0  0  0
    0.7320    2.1070   -0.0040 C   0  0  0  0  0
    0.0280    2.3080    1.1900 C   0  0  0  0  0
    0.0400    3.5610    1.7980 C   0  0  0  0  0
    0.7700    4.6200    1.2640 C   0  0  0  0  0
    1.5020    4.4110    0.0880 C   0  0  0  0  0
    1.4710    3.1630   -0.5350 C   0  0  0  0  0
    2.3400    5.4750   -0.5160 C   0  0  0  0  0
    2.0440    6.8320   -0.7410 C   0  0  0  0  0
    3.6230    5.3330   -0.9910 C   0  0  0  0  0
    5.2910    6.8940   -2.0320 C   0  0  0  0  0
    0.7340    5.9430    2.0210 C   0  0  0  0  0
   -3.8590    1.2520    2.3950 C   0  0  0  0  0
    0.2760    5.7290    3.2840 F   0  0  0  0  0
   -0.1670    6.7850    1.4520 F   0  0  0  0  0
   -0.5590    1.5760    4.1280 N   0  0  0  0  0
   -1.5130    1.8000    5.0970 N   0  0  0  0  0
   -0.6150    1.2040    1.7910 N   0  0  0  0  0
    3.0550    7.4780   -1.2940 N   0  0  0  0  0
    4.0090    6.5320   -1.4410 N   0  0  0  0  0
   -5.0890    1.5350    3.1320 N   0  0  0  0  0
    1.0520    2.0610    8.4070 O   0  0  0  0  0
   -7.1850    2.3480    3.1140 O   0  0  0  0  0
   -0.3467    4.0694    6.1197 H   0  0  0  0  0
    0.8415    2.7627    5.8068 H   0  0  0  0  0
   -6.1198    1.4730    4.9471 H   0  0  0  0  0
   -5.0115    0.0927    4.6402 H   0  0  0  0  0
   -3.9803    1.4336    6.3363 H   0  0  0  0  0
   -4.2969    2.9294    5.4477 H   0  0  0  0  0
   -1.9187    2.5032    7.0284 H   0  0  0  0  0
   -5.2198    1.9448    0.6930 H   0  0  0  0  0
   -8.0664    1.9678    0.5380 H   0  0  0  0  0
   -7.5066    3.6466    0.7367 H   0  0  0  0  0
   -6.9583    2.6843   -0.6578 H   0  0  0  0  0
   -0.1653    3.7059    8.4974 H   0  0  0  0  0
    1.4721    3.9698    7.7942 H   0  0  0  0  0
    0.3111    0.2341    8.9787 H   0  0  0  0  0
   -0.8256    1.6248    9.1126 H   0  0  0  0  0
    0.1473    0.3319    6.5528 H   0  0  0  0  0
   -1.4654    0.1434    7.2805 H   0  0  0  0  0
   -1.1944   -0.8048    1.5905 H   0  0  0  0  0
   -1.7539    0.2816    0.2866 H   0  0  0  0  0
    0.0274   -1.2038   -0.4943 H   0  0  0  0  0
    1.1055   -0.5796    0.7857 H   0  0  0  0  0
   -0.0851    0.9074   -1.5506 H   0  0  0  0  0
    1.6534    0.6013   -1.1797 H   0  0  0  0  0
   -0.5343    3.7161    2.7114 H   0  0  0  0  0
    2.0356    3.0107   -1.4548 H   0  0  0  0  0
    1.0909    7.2965   -0.4883 H   0  0  0  0  0
    4.2134    4.4168   -0.9992 H   0  0  0  0  0
    6.0880    6.7014   -1.3138 H   0  0  0  0  0
    5.4571    6.2982   -2.9295 H   0  0  0  0  0
    5.2834    7.9522   -2.2931 H   0  0  0  0  0
    1.7407    6.3606    2.0077 H   0  0  0  0  0
   -3.8890    0.2210    2.0426 H   0  0  0  0  0
   -3.7838    1.9443    1.5564 H   0  0  0  0  0
  7  1  1  0  0  0
  1 11  1  0  0  0
  3  2  1  0  0  0
  2 36  1  0  0  0
  4  3  1  0  0  0
  5  4  4  0  0  0
  4 32  4  0  0  0
  6  5  4  0  0  0
  5 28  1  0  0  0
  6 31  4  0  0  0
 33  6  1  0  0  0
  7 13  1  0  0  0
 32  7  1  0  0  0
  9  8  1  0  0  0
  8 10  1  0  0  0
 36  9  1  0  0  0
  9 38  2  0  0  0
 11 37  1  0  0  0
 13 12  1  0  0  0
 12 37  1  0  0  0
 14 15  1  0  0  0
 14 33  1  0  0  0
 15 16  1  0  0  0
 16 17  1  0  0  0
 17 18  4  0  0  0
 17 22  4  0  0  0
 18 19  4  0  0  0
 18 33  1  0  0  0
 19 20  4  0  0  0
 20 21  4  0  0  0
 20 27  1  0  0  0
 21 22  4  0  0  0
 21 23  1  0  0  0
 23 24  4  0  0  0
 23 25  4  0  0  0
 24 34  4  0  0  0
 25 35  4  0  0  0
 35 26  1  0  0  0
 27 29  1  0  0  0
 27 30  1  0  0  0
 28 36  1  0  0  0
 31 32  4  0  0  0
 34 35  4  0  0  0
  1 39  1  0  0  0
  1 40  1  0  0  0
  2 41  1  0  0  0
  2 42  1  0  0  0
  3 43  1  0  0  0
  3 44  1  0  0  0
  7 45  1  0  0  0
  8 46  1  0  0  0
 10 47  1  0  0  0
 10 48  1  0  0  0
 10 49  1  0  0  0
 11 50  1  0  0  0
 11 51  1  0  0  0
 12 52  1  0  0  0
 12 53  1  0  0  0
 13 54  1  0  0  0
 13 55  1  0  0  0
 14 56  1  0  0  0
 14 57  1  0  0  0
 15 58  1  0  0  0
 15 59  1  0  0  0
 16 60  1  0  0  0
 16 61  1  0  0  0
 19 62  1  0  0  0
 22 63  1  0  0  0
 24 64  1  0  0  0
 25 65  1  0  0  0
 26 66  1  0  0  0
 26 67  1  0  0  0
 26 68  1  0  0  0
 27 69  1  0  0  0
 28 70  1  0  0  0
 28 71  1  0  0  0
M  END
$$$$
