4ddm_ligand
  -I-interpret- 

 16 17  0  0  0  0  0  0  0  0999 V2000
   15.4630   11.4810    2.0480 O   0  0  0  0  0
   15.1360   11.7620    3.2270 C   0  0  0  0  0
   15.2630   12.9170    3.6320 O   0  0  0  0  0
   14.7450   10.7480    4.1030 C   0  0  0  0  0
   14.4470   11.0470    5.4150 C   0  0  0  0  0
   14.1300   10.1160    6.2960 C   0  0  0  0  0
   13.8090   10.3290    7.5720 N   0  0  0  0  0
   13.5130    8.8480    8.2560 S   0  0  0  0  0
   13.7650    7.9700    6.9130 N   0  0  0  0  0
   14.0920    8.8160    5.9140 C   0  0  0  0  0
   14.4050    8.4840    4.6680 C   0  0  0  0  0
   14.7420    9.4220    3.7010 C   0  0  0  0  0
   15.3053   10.5478    1.8871 H   0  0  0  0  0
   14.4739   12.0882    5.7365 H   0  0  0  0  0
   14.3973    7.4297    4.3916 H   0  0  0  0  0
   14.9908    9.1308    2.6805 H   0  0  0  0  0
  1  2  1  0  0  0
  2  3  2  0  0  0
  2  4  1  0  0  0
  4  5  4  0  0  0
  4 12  4  0  0  0
  5  6  4  0  0  0
  6  7  4  0  0  0
  6 10  4  0  0  0
  7  8  4  0  0  0
  8  9  4  0  0  0
  9 10  4  0  0  0
 10 11  4  0  0  0
 11 12  4  0  0  0
  1 13  1  0  0  0
  5 14  1  0  0  0
 11 15  1  0  0  0
 12 16  1  0  0  0
M  END
$$$$
