6rnt_ligand
  -I-interpret- 

 37 39  0  0  0  0  0  0  0  0999 V2000
   19.6670   13.8280    1.3770 P   0  0  0  0  0
   20.8080   14.4870    1.9610 O   0  0  0  0  0
   19.7300   12.3840    1.8180 O   0  0  0  0  0
   18.3820   14.4730    1.2140 O   0  0  0  0  0
   24.9010   13.9850   -1.2850 O   0  0  0  0  0
   24.2320   14.3790   -2.5090 C   0  0  0  0  0
   22.8470   13.7720   -2.5210 C   0  0  0  0  0
   22.8640   12.3600   -2.0880 O   0  0  0  0  0
   21.8520   14.6060   -1.6310 C   0  0  0  0  0
   20.6810   15.0010   -2.3770 O   0  0  0  0  0
   21.4830   13.4520   -0.6570 C   0  0  0  0  0
   20.1630   13.6280   -0.1880 O   0  0  0  0  0
   21.6040   12.1450   -1.4110 C   0  0  0  0  0
   21.7510   10.9030   -0.6290 N   0  0  0  0  0
   22.5990   10.6230    0.4300 C   0  0  0  0  0
   22.6320    9.3420    0.7560 N   0  0  0  0  0
   21.7210    8.7570   -0.1050 C   0  0  0  0  0
   21.3360    7.3840   -0.1210 C   0  0  0  0  0
   21.6480    6.5340    0.7520 N   0  0  0  0  0
   20.5410    7.0930   -1.2200 N   0  0  0  0  0
   20.1580    8.0700   -2.1250 C   0  0  0  0  0
   20.4480    9.4030   -2.0900 N   0  0  0  0  0
   21.3800    9.6440   -1.1130 C   0  0  0  0  0
   18.9840   11.9052    1.4494 H   0  0  0  0  0
   17.7664   13.8591    0.8068 H   0  0  0  0  0
   25.7823   14.3652   -1.2667 H   0  0  0  0  0
   24.7985   14.0263   -3.3708 H   0  0  0  0  0
   24.1607   15.4655   -2.5590 H   0  0  0  0  0
   22.4956   13.8015   -3.5524 H   0  0  0  0  0
   22.2387   15.5331   -1.2079 H   0  0  0  0  0
   20.0959   15.5064   -1.8080 H   0  0  0  0  0
   22.1530   13.4481    0.2027 H   0  0  0  0  0
   20.6931   11.9711   -1.9838 H   0  0  0  0  0
   23.1831   11.3856    0.9452 H   0  0  0  0  0
   22.2206    6.8091    1.5500 H   0  0  0  0  0
   21.3284    5.5695    0.6619 H   0  0  0  0  0
   19.5521    7.7332   -2.9662 H   0  0  0  0  0
  1  2  2  0  0  0
  1  3  1  0  0  0
  1  4  1  0  0  0
 12  1  1  0  0  0
  6  5  1  0  0  0
  7  6  1  0  0  0
  7  8  1  0  0  0
  9  7  1  0  0  0
  9 10  1  0  0  0
 11  9  1  0  0  0
 11 12  1  0  0  0
 11 13  1  0  0  0
 13  8  1  0  0  0
 13 14  1  0  0  0
 14 15  4  0  0  0
 14 23  4  0  0  0
 15 16  4  0  0  0
 16 17  4  0  0  0
 17 18  4  0  0  0
 17 23  4  0  0  0
 18 19  1  0  0  0
 18 20  4  0  0  0
 20 21  4  0  0  0
 21 22  4  0  0  0
 22 23  4  0  0  0
  3 24  1  0  0  0
  4 25  1  0  0  0
  5 26  1  0  0  0
  6 27  1  0  0  0
  6 28  1  0  0  0
  7 29  1  0  0  0
  9 30  1  0  0  0
 10 31  1  0  0  0
 11 32  1  0  0  0
 13 33  1  0  0  0
 15 34  1  0  0  0
 19 35  1  0  0  0
 19 36  1  0  0  0
 21 37  1  0  0  0
M  END
$$$$
