5ejv_ligand
  -I-interpret- 

 43 44  0  0  0  0  0  0  0  0999 V2000
    9.3240   74.5240  -16.1360 O   0  0  0  0  0
    9.4670   73.0640  -15.8490 S   0  0  0  0  0
   10.1400   72.3900  -17.0050 O   0  0  0  0  0
   10.2930   72.8540  -14.6590 C   0  0  0  0  0
   10.6280   71.5620  -14.3520 C   0  0  0  0  0
   11.3980   71.3570  -13.2310 C   0  0  0  0  0
   11.8230   72.4090  -12.4360 C   0  0  0  0  0
   11.4560   73.6890  -12.7580 C   0  0  0  0  0
   10.6820   73.9190  -13.8790 C   0  0  0  0  0
    7.9380   72.5200  -15.5010 N   0  0  0  0  0
    7.0740   72.8390  -16.6590 C   0  0  0  0  0
    5.5880   72.9070  -16.2640 C   0  0  0  0  0
    5.5300   73.2990  -15.2010 F   0  0  0  0  0
    4.9750   73.6670  -16.9990 F   0  0  0  0  0
    5.0460   71.7460  -16.3460 F   0  0  0  0  0
    7.6410   71.2380  -15.2040 C   0  0  0  0  0
    6.5950   71.0430  -14.3010 C   0  0  0  0  0
    6.1680   69.7810  -13.9670 C   0  0  0  0  0
    8.2330   70.1340  -15.8070 C   0  0  0  0  0
    7.7860   68.8580  -15.4610 C   0  0  0  0  0
    6.7570   68.6470  -14.5390 C   0  0  0  0  0
    6.3090   67.3170  -14.2540 C   0  0  0  0  0
    4.8760   67.2590  -13.6800 C   0  0  0  0  0
    4.9100   67.3560  -12.5250 F   0  0  0  0  0
    4.0690   68.1940  -14.1600 F   0  0  0  0  0
    4.3290   66.1590  -14.0190 F   0  0  0  0  0
    6.1030   66.7460  -15.4690 O   0  0  0  0  0
    7.3170   66.2450  -13.8160 C   0  0  0  0  0
    7.9500   66.5080  -13.5260 F   0  0  0  0  0
    7.5370   65.7230  -14.6130 F   0  0  0  0  0
    6.9310   65.6280  -13.2250 F   0  0  0  0  0
   10.2973   70.7287  -14.9719 H   0  0  0  0  0
   11.6814   70.3397  -12.9609 H   0  0  0  0  0
   12.4447   72.2197  -11.5609 H   0  0  0  0  0
   11.7735   74.5229  -12.1320 H   0  0  0  0  0
   10.3826   74.9333  -14.1429 H   0  0  0  0  0
    7.1945   72.0514  -17.4028 H   0  0  0  0  0
    7.3694   73.8134  -17.0480 H   0  0  0  0  0
    6.1077   71.9086  -13.8523 H   0  0  0  0  0
    5.3591   69.6607  -13.2464 H   0  0  0  0  0
    9.0321   70.2628  -16.5371 H   0  0  0  0  0
    8.2573   67.9930  -15.9276 H   0  0  0  0  0
    5.7982   65.8435  -15.3497 H   0  0  0  0  0
  1  2  2  0  0  0
  2  3  2  0  0  0
  2  4  1  0  0  0
  2 10  1  0  0  0
  4  5  4  0  0  0
  4  9  4  0  0  0
  5  6  4  0  0  0
  6  7  4  0  0  0
  7  8  4  0  0  0
  8  9  4  0  0  0
 10 11  1  0  0  0
 10 16  1  0  0  0
 11 12  1  0  0  0
 12 13  1  0  0  0
 12 14  1  0  0  0
 12 15  1  0  0  0
 16 17  4  0  0  0
 16 19  4  0  0  0
 17 18  4  0  0  0
 18 21  4  0  0  0
 19 20  4  0  0  0
 20 21  4  0  0  0
 21 22  1  0  0  0
 22 23  1  0  0  0
 22 27  1  0  0  0
 22 28  1  0  0  0
 23 24  1  0  0  0
 23 25  1  0  0  0
 23 26  1  0  0  0
 28 29  1  0  0  0
 28 30  1  0  0  0
 28 31  1  0  0  0
  5 32  1  0  0  0
  6 33  1  0  0  0
  7 34  1  0  0  0
  8 35  1  0  0  0
  9 36  1  0  0  0
 11 37  1  0  0  0
 11 38  1  0  0  0
 17 39  1  0  0  0
 18 40  1  0  0  0
 19 41  1  0  0  0
 20 42  1  0  0  0
 27 43  1  0  0  0
M  END
$$$$
