6bee_ligand
  -I-interpret- 

108113  0  0  0  0  0  0  0  0999 V2000
   92.8650  100.7540   42.7610 N   0  0  0  0  0
   92.7580  102.1340   43.0360 C   0  0  0  0  0
   90.8510  100.1760   43.4740 O   0  0  0  0  0
   91.9490   99.7950   43.0270 C   0  0  0  0  0
   92.1490   98.3380   42.8450 C   0  0  0  0  0
   91.0180   97.3760   43.1820 C   0  0  0  0  0
   93.2890   97.7030   42.3870 C   0  0  0  0  0
   94.6210   98.1730   41.9620 C   0  0  0  0  0
   94.9500   99.1040   41.0520 C   0  0  0  0  0
   96.3960   99.4880   40.7360 C   0  0  0  0  0
   97.2800   99.3490   42.0120 C   0  0  0  0  0
   96.4290  100.9580   40.2840 C   0  0  0  0  0
   95.8200  101.0460   38.9850 O   0  0  0  0  0
   97.8230  101.6810   40.3560 C   0  0  0  0  0
   98.8300  101.1110   39.3330 C   0  0  0  0  0
   97.7150  103.2420   40.2420 C   0  0  0  0  0
   97.6300  103.6710   38.8650 O   0  0  0  0  0
   96.5760  103.9080   41.0320 C   0  0  0  0  0
   96.5510  103.5040   42.5100 C   0  0  0  0  0
   96.5480  105.4560   40.9110 C   0  0  0  0  0
   97.5770  106.0100   41.8090 O   0  0  0  0  0
   98.8250  106.3480   41.4090 C   0  0  0  0  0
   99.3040  106.0150   40.3350 O   0  0  0  0  0
   99.6540  107.1690   42.3460 C   0  0  0  0  0
   95.2010  106.2280   41.0370 C   0  0  0  0  0
   94.1550  105.8070   39.9760 C   0  0  0  0  0
   95.4540  107.7780   41.0130 C   0  0  0  0  0
   95.4090  108.3430   39.6920 O   0  0  0  0  0
   96.7520  108.6230   39.2920 C   0  0  0  0  0
   94.5330  108.4810   42.0190 C   0  0  0  0  0
   94.9100  108.8800   43.2530 C   0  0  0  0  0
   94.0680  109.5110   44.2130 O   0  0  0  0  0
   92.9140  108.7330   44.6560 C   0  0  0  0  0
   91.8140  108.6330   43.7210 O   0  0  0  0  0
   91.7050  107.3350   43.2950 C   0  0  0  0  0
   92.3100  109.2300   45.9910 C   0  0  0  0  0
   93.4040  107.3120   44.9230 C   0  0  0  0  0
   94.2810  107.0400   45.7240 O   0  0  0  0  0
   92.6300  106.4450   43.9750 C   0  0  0  0  0
   92.6520  105.0370   43.6770 C   0  0  0  0  0
   91.7340  104.5120   42.6510 C   0  0  0  0  0
   90.8220  105.4270   41.9820 C   0  0  0  0  0
   89.9530  104.9900   41.0230 O   0  0  0  0  0
   90.8200  106.8160   42.3110 C   0  0  0  0  0
   89.8720  107.7780   41.6180 C   0  0  0  0  0
   91.7820  103.0270   42.3340 C   0  0  0  0  0
   91.0280  102.5360   41.4870 O   0  0  0  0  0
   93.6130  104.0950   44.3350 C   0  0  0  0  0
   94.5270  104.3360   45.2260 N   0  0  0  0  0
   95.2620  103.1530   45.5750 C   0  0  0  0  0
   94.6690  102.0610   44.7660 N   0  0  0  0  0
   93.6530  102.6410   43.9960 C   0  0  0  0  0
   96.3160  102.9340   46.4600 C   0  0  0  0  0
   96.8360  101.6390   46.5730 C   0  0  0  0  0
   95.2290  100.8330   44.9380 C   0  0  0  0  0
   96.2940  100.5900   45.8110 C   0  0  0  0  0
   97.9840  101.3580   47.5190 C   0  0  0  0  0
   93.7277  100.4460   42.3124 H   0  0  0  0  0
   91.7716  102.4824   42.7300 H   0  0  0  0  0
   90.7446   96.8120   42.2902 H   0  0  0  0  0
   91.3473   96.6888   43.9613 H   0  0  0  0  0
   90.1552   97.9410   43.5349 H   0  0  0  0  0
   93.1794   96.6202   42.3271 H   0  0  0  0  0
   95.4633   97.6934   42.4606 H   0  0  0  0  0
   94.1487   99.6098   40.5133 H   0  0  0  0  0
   96.7773   98.8307   39.9545 H   0  0  0  0  0
   96.8971  100.0079   42.7913 H   0  0  0  0  0
   97.2521   98.3168   42.3611 H   0  0  0  0  0
   98.3069   99.6254   41.7729 H   0  0  0  0  0
   95.8545  101.5232   41.0179 H   0  0  0  0  0
   95.8327  101.9588   38.6881 H   0  0  0  0  0
   98.2105  101.4691   41.3525 H   0  0  0  0  0
   98.9873  100.0509   39.5319 H   0  0  0  0  0
   98.4338  101.2381   38.3255 H   0  0  0  0  0
   99.7771  101.6431   39.4222 H   0  0  0  0  0
   98.6417  103.5781   40.7071 H   0  0  0  0  0
   97.5653  104.6283   38.8327 H   0  0  0  0  0
   95.6737  103.5246   40.5556 H   0  0  0  0  0
   96.4200  102.4247   42.5882 H   0  0  0  0  0
   97.4913  103.7921   42.9800 H   0  0  0  0  0
   95.7240  104.0088   43.0094 H   0  0  0  0  0
   96.7524  105.6284   39.8543 H   0  0  0  0  0
  100.5582  106.6188   42.6063 H   0  0  0  0  0
   99.9248  108.1075   41.8623 H   0  0  0  0  0
   99.0807  107.3767   43.2495 H   0  0  0  0  0
   94.7691  105.9576   42.0006 H   0  0  0  0  0
   94.5529  105.9985   38.9794 H   0  0  0  0  0
   93.9375  104.7444   40.0838 H   0  0  0  0  0
   93.2408  106.3828   40.1204 H   0  0  0  0  0
   96.4806  107.9537   41.3343 H   0  0  0  0  0
   97.1983  109.3296   39.9917 H   0  0  0  0  0
   97.3293  107.6984   39.2895 H   0  0  0  0  0
   96.7492  109.0538   38.2907 H   0  0  0  0  0
   93.5032  108.6716   41.7168 H   0  0  0  0  0
   95.9471  108.7041   43.5386 H   0  0  0  0  0
   93.0652  109.1698   46.7747 H   0  0  0  0  0
   91.9834  110.2638   45.8780 H   0  0  0  0  0
   91.4574  108.6053   46.2574 H   0  0  0  0  0
   89.4365  105.7315   40.6990 H   0  0  0  0  0
   89.2248  108.2459   42.3598 H   0  0  0  0  0
   90.4486  108.5453   41.1013 H   0  0  0  0  0
   89.2643  107.2311   40.8970 H   0  0  0  0  0
   96.7264  103.7527   47.0511 H   0  0  0  0  0
   94.8272   99.9964   44.3664 H   0  0  0  0  0
   96.7048   99.5844   45.9007 H   0  0  0  0  0
   98.8452  101.9617   47.2326 H   0  0  0  0  0
   97.6846  101.6094   48.5365 H   0  0  0  0  0
   98.2459  100.3012   47.4666 H   0  0  0  0  0
  1  2  1  0  0  0
  1  4  1  0  0  0
  2 46  1  0  0  0
  2 52  1  0  0  0
  4  3  2  0  0  0
  4  5  1  0  0  0
  5  6  1  0  0  0
  5  7  2  0  0  0
  7  8  1  0  0  0
  8  9  2  0  0  0
  9 10  1  0  0  0
 10 11  1  0  0  0
 10 12  1  0  0  0
 12 13  1  0  0  0
 12 14  1  0  0  0
 14 15  1  0  0  0
 14 16  1  0  0  0
 16 17  1  0  0  0
 16 18  1  0  0  0
 18 19  1  0  0  0
 18 20  1  0  0  0
 20 21  1  0  0  0
 20 25  1  0  0  0
 21 22  1  0  0  0
 22 23  2  0  0  0
 22 24  1  0  0  0
 25 26  1  0  0  0
 25 27  1  0  0  0
 27 28  1  0  0  0
 27 30  1  0  0  0
 28 29  1  0  0  0
 30 31  2  0  0  0
 31 32  1  0  0  0
 32 33  1  0  0  0
 33 34  1  0  0  0
 33 36  1  0  0  0
 33 37  1  0  0  0
 34 35  1  0  0  0
 35 39  4  0  0  0
 35 44  4  0  0  0
 37 38  2  0  0  0
 37 39  1  0  0  0
 39 40  4  0  0  0
 40 41  4  0  0  0
 40 48  1  0  0  0
 41 42  4  0  0  0
 41 46  1  0  0  0
 42 43  1  0  0  0
 42 44  4  0  0  0
 44 45  1  0  0  0
 46 47  2  0  0  0
 48 49  4  0  0  0
 48 52  4  0  0  0
 49 50  4  0  0  0
 50 51  4  0  0  0
 50 53  4  0  0  0
 51 52  4  0  0  0
 51 55  4  0  0  0
 53 54  4  0  0  0
 54 56  4  0  0  0
 54 57  1  0  0  0
 55 56  4  0  0  0
  1 58  1  0  0  0
  2 59  1  0  0  0
  6 60  1  0  0  0
  6 61  1  0  0  0
  6 62  1  0  0  0
  7 63  1  0  0  0
  8 64  1  0  0  0
  9 65  1  0  0  0
 10 66  1  0  0  0
 11 67  1  0  0  0
 11 68  1  0  0  0
 11 69  1  0  0  0
 12 70  1  0  0  0
 13 71  1  0  0  0
 14 72  1  0  0  0
 15 73  1  0  0  0
 15 74  1  0  0  0
 15 75  1  0  0  0
 16 76  1  0  0  0
 17 77  1  0  0  0
 18 78  1  0  0  0
 19 79  1  0  0  0
 19 80  1  0  0  0
 19 81  1  0  0  0
 20 82  1  0  0  0
 24 83  1  0  0  0
 24 84  1  0  0  0
 24 85  1  0  0  0
 25 86  1  0  0  0
 26 87  1  0  0  0
 26 88  1  0  0  0
 26 89  1  0  0  0
 27 90  1  0  0  0
 29 91  1  0  0  0
 29 92  1  0  0  0
 29 93  1  0  0  0
 30 94  1  0  0  0
 31 95  1  0  0  0
 36 96  1  0  0  0
 36 97  1  0  0  0
 36 98  1  0  0  0
 43 99  1  0  0  0
 45100  1  0  0  0
 45101  1  0  0  0
 45102  1  0  0  0
 53103  1  0  0  0
 55104  1  0  0  0
 56105  1  0  0  0
 57106  1  0  0  0
 57107  1  0  0  0
 57108  1  0  0  0
M  END
$$$$
