### 
### Created by X-TOOL on Mon Sep 10 21:13:17 2018
### 

@<TRIPOS>MOLECULE
4pid_ligand
   30    31     1     0     0
SMALL
GAST_HUCK


@<TRIPOS>ATOM
      1 C1        -24.6560   50.4500   39.0120 C.ar      1 2UQ         0.1075
      2 C2        -23.7850   50.6510   40.1100 C.ar      1 2UQ         0.0547
      3 C11       -27.0950   46.4310   38.3930 C.ar      1 2UQ        -0.0210
      4 C12       -21.1570   52.7170   38.6040 C.2       1 2UQ         0.0644
      5 C14       -25.9150   46.0740   39.1230 C.ar      1 2UQ        -0.0584
      6 C15       -25.4810   44.7260   39.2230 C.ar      1 2UQ        -0.0685
      7 C16       -26.2410   43.6900   38.6110 C.ar      1 2UQ        -0.0687
      8 C17       -27.4250   44.0120   37.8760 C.ar      1 2UQ        -0.0685
      9 C18       -27.8480   45.3740   37.7690 C.ar      1 2UQ        -0.0584
     10 N3        -22.6090   51.3750   39.9730 N.ar      1 2UQ        -0.2412
     11 C4        -22.3210   51.8700   38.7080 C.ar      1 2UQ         0.1649
     12 N5        -23.1700   51.7210   37.6190 N.ar      1 2UQ        -0.2412
     13 C6        -24.3390   51.0230   37.7370 C.ar      1 2UQ         0.0547
     14 C7        -25.8930   49.5480   39.2650 C.2       1 2UQ         0.2235
     15 O8        -26.2410   49.3660   40.4700 O.2       1 2UQ        -0.3780
     16 N9        -26.4370   48.8810   38.1720 N.am      1 2UQ        -0.2725
     17 C10       -27.5680   47.9250   38.2690 C.3       1 2UQ         0.0642
     18 N13       -20.3690   52.7620   39.5820 N.2       1 2UQ        -0.3278
     19 H         -24.0416   50.2314   41.0760 H         1 2UQ         0.1005
     20 H         -20.9671   53.3002   37.7041 H         1 2UQ         0.1171
     21 H         -25.3395   46.8523   39.6109 H         1 2UQ         0.0557
     22 H         -24.5729   44.4864   39.7642 H         1 2UQ         0.0599
     23 H         -25.9228   42.6577   38.7018 H         1 2UQ         0.0559
     24 H         -28.0004   43.2255   37.4012 H         1 2UQ         0.0599
     25 H         -28.7462   45.6135   37.2115 H         1 2UQ         0.0557
     26 H         -25.0069   50.9061   36.8912 H         1 2UQ         0.1005
     27 H         -26.0435   49.0557   37.2694 H         1 2UQ         0.1875
     28 H         -28.1672   48.1786   39.1559 H         1 2UQ         0.0683
     29 H         -28.1892   48.0231   37.3665 H         1 2UQ         0.0683
     30 H         -19.5470   53.3440   39.5406 H         1 2UQ         0.1409
@<TRIPOS>BOND
     1    1    2 ar 
     2    1   13 ar 
     3   14    1 1  
     4    2   10 ar 
     5    3    5 ar 
     6    3    9 ar 
     7   17    3 1  
     8   11    4 1  
     9    4   18 2  
    10    5    6 ar 
    11    6    7 ar 
    12    8    7 ar 
    13    9    8 ar 
    14   10   11 ar 
    15   12   11 ar 
    16   13   12 ar 
    17   14   15 2  
    18   16   14 am 
    19   16   17 1  
    20    2   19 1  
    21    4   20 1  
    22    5   21 1  
    23    6   22 1  
    24    7   23 1  
    25    8   24 1  
    26    9   25 1  
    27   13   26 1  
    28   16   27 1  
    29   17   28 1  
    30   17   29 1  
    31   18   30 1  
@<TRIPOS>SUBSTRUCTURE
     1 2UQ         1

