5tbj_ligand
  -I-interpret- 

 57 60  0  0  0  0  0  0  0  0999 V2000
   50.8410   41.2690  126.1390 C   0  0  0  0  0
   50.6920   40.0390  126.8070 C   0  0  0  0  0
   50.5800   40.0830  128.1860 C   0  0  0  0  0
   50.6050   41.1760  128.9580 N   0  0  0  0  0
   50.7610   42.2770  128.2190 C   0  0  0  0  0
   50.8760   42.3890  126.8920 N   0  0  0  0  0
   50.4600   38.7760  128.5900 N   0  0  0  0  0
   50.5120   38.0250  127.4500 C   0  0  0  0  0
   50.6490   38.7300  126.3520 N   0  0  0  0  0
   50.2940   38.2800  129.9580 C   0  0  0  0  0
   51.4770   37.6010  130.3320 O   0  0  0  0  0
   51.1500   36.4250  131.1090 C   0  0  0  0  0
   49.6400   36.4670  131.3210 C   0  0  0  0  0
   49.1540   37.2750  130.1160 C   0  0  0  0  0
   47.9140   37.9250  130.3750 O   0  0  0  0  0
   49.3070   37.0890  132.5560 O   0  0  0  0  0
   52.7440   32.9530  130.4760 N   0  3  0  0  0
   53.3100   31.8540  131.3050 C   0  0  0  0  0
   52.2040   30.8700  131.5020 C   0  0  0  0  0
   50.9350   41.3870  124.8110 N   0  0  0  0  0
   51.3230   30.8770  132.6410 C   0  0  0  0  0
   50.3150   30.0090  132.7700 N   0  0  0  0  0
   50.0810   29.0690  131.8160 C   0  0  0  0  0
   50.9160   29.0320  130.6990 N   0  0  0  0  0
   51.9480   29.9220  130.5820 C   0  0  0  0  0
   51.5240   31.7760  133.6100 N   0  0  0  0  0
   50.7230   28.0860  129.5910 C   0  0  0  0  0
   50.7280   26.7510  130.0110 O   0  0  0  0  0
   51.8060   26.4110  130.8640 C   0  0  0  0  0
   49.1580   28.2580  131.9010 O   0  0  0  0  0
   51.6740   35.1970  130.3930 C   0  0  0  0  0
   52.1900   34.0830  131.2810 C   0  0  0  0  0
   50.8000   43.2140  128.7746 H   0  0  0  0  0
   50.4456   36.9370  127.4524 H   0  0  0  0  0
   50.0721   39.1508  130.5749 H   0  0  0  0  0
   51.6216   36.3915  132.0911 H   0  0  0  0  0
   49.1794   35.4810  131.3822 H   0  0  0  0  0
   48.9564   36.6742  129.2283 H   0  0  0  0  0
   47.2220   37.2662  130.4685 H   0  0  0  0  0
   48.3527   37.1002  132.6603 H   0  0  0  0  0
   51.9768   32.5609  129.9300 H   0  0  0  0  0
   53.5015   33.3267  129.9043 H   0  0  0  0  0
   53.6763   32.2304  132.2601 H   0  0  0  0  0
   54.1655   31.3909  130.8132 H   0  0  0  0  0
   50.8999   40.5554  124.2213 H   0  0  0  0  0
   51.0418   42.3086  124.3872 H   0  0  0  0  0
   52.5917   29.8606  129.7045 H   0  0  0  0  0
   50.9138   31.7900  134.4273 H   0  0  0  0  0
   51.5478   28.2189  128.8909 H   0  0  0  0  0
   49.7511   28.2912  129.1422 H   0  0  0  0  0
   52.7480   26.5853  130.3440 H   0  0  0  0  0
   51.7656   27.0277  131.7619 H   0  0  0  0  0
   51.7312   25.3593  131.1403 H   0  0  0  0  0
   52.5216   35.5294  129.7937 H   0  0  0  0  0
   50.8322   34.7825  129.8384 H   0  0  0  0  0
   52.9865   34.4827  131.9087 H   0  0  0  0  0
   51.3605   33.7063  131.8795 H   0  0  0  0  0
  2  1  4  0  0  0
  1  6  4  0  0  0
  1 20  1  0  0  0
  3  2  4  0  0  0
  9  2  4  0  0  0
  3  4  4  0  0  0
  7  3  4  0  0  0
  4  5  4  0  0  0
  5  6  4  0  0  0
  7  8  4  0  0  0
 10  7  1  0  0  0
  8  9  4  0  0  0
 11 10  1  0  0  0
 14 10  1  0  0  0
 12 11  1  0  0  0
 12 13  1  0  0  0
 31 12  1  0  0  0
 13 14  1  0  0  0
 13 16  1  0  0  0
 14 15  1  0  0  0
 17 18  1  0  0  0
 32 17  1  0  0  0
 18 19  1  0  0  0
 19 21  1  0  0  0
 19 25  2  0  0  0
 21 22  4  0  0  0
 21 26  2  0  0  0
 22 23  1  0  0  0
 24 23  1  0  0  0
 23 30  2  0  0  0
 25 24  1  0  0  0
 24 27  1  0  0  0
 27 28  1  0  0  0
 28 29  1  0  0  0
 31 32  1  0  0  0
  5 33  1  0  0  0
  8 34  1  0  0  0
 10 35  1  0  0  0
 12 36  1  0  0  0
 13 37  1  0  0  0
 14 38  1  0  0  0
 15 39  1  0  0  0
 16 40  1  0  0  0
 17 41  1  0  0  0
 17 42  1  0  0  0
 18 43  1  0  0  0
 18 44  1  0  0  0
 20 45  1  0  0  0
 20 46  1  0  0  0
 25 47  1  0  0  0
 26 48  1  0  0  0
 27 49  1  0  0  0
 27 50  1  0  0  0
 29 51  1  0  0  0
 29 52  1  0  0  0
 29 53  1  0  0  0
 31 54  1  0  0  0
 31 55  1  0  0  0
 32 56  1  0  0  0
 32 57  1  0  0  0
M  END
$$$$
