### 
### Created by X-TOOL on Mon Sep 10 21:13:02 2018
### 

@<TRIPOS>MOLECULE
3dow_ligand
  120   124     1     0     0
SMALL
GAST_HUCK


@<TRIPOS>ATOM
      1 N          -3.4180    5.2640   31.8160 N.4       1 ASP         0.2391
      2 CA         -3.2670    6.2450   30.7470 C.3       1 ASP         0.0765
      3 C          -2.7380    7.5610   31.3140 C.2       1 ASP         0.2285
      4 O          -1.8280    8.1680   30.7500 O.2       1 ASP        -0.3906
      5 CB         -4.6080    6.4720   30.0470 C.3       1 ASP         0.0607
      6 CG         -4.4520    7.0830   28.6670 C.2       1 ASP         0.0425
      7 OD1        -3.3510    6.9810   28.0830 O.co2     1 ASP        -0.5686
      8 OD2        -5.4380    7.6580   28.1630 O.co2     1 ASP        -0.5686
      9 N          -3.3120    7.9930   32.4330 N.am      1 TRP        -0.2599
     10 CA         -2.8660    9.2070   33.1050 C.3       1 TRP         0.1353
     11 C          -1.7120    8.9140   34.0520 C.2       1 TRP         0.2052
     12 O          -1.7460    7.9500   34.8150 O.2       1 TRP        -0.3942
     13 CB         -4.0070    9.8370   33.9040 C.3       1 TRP         0.0042
     14 CG         -5.1000   10.4170   33.0710 C.2       1 TRP        -0.0418
     15 CD1        -6.2080    9.7690   32.6110 C.2       1 TRP         0.0167
     16 CD2        -5.2070   11.7640   32.6070 C.ar      1 TRP        -0.0214
     17 NE1        -6.9940   10.6260   31.8850 N.pl3     1 TRP        -0.2890
     18 CE2        -6.3950   11.8700   31.8670 C.ar      1 TRP         0.0603
     19 CE3        -4.4020   12.9060   32.7450 C.ar      1 TRP        -0.0747
     20 CZ2        -6.8120   13.0490   31.2630 C.ar      1 TRP        -0.0443
     21 CZ3        -4.8120   14.0830   32.1460 C.ar      1 TRP        -0.0792
     22 CH2        -6.0060   14.1460   31.4140 C.ar      1 TRP        -0.0768
     23 N          -0.6950    9.7640   34.0060 N.am      1 ASP        -0.2621
     24 CA          0.4420    9.6470   34.9040 C.3       1 ASP         0.1423
     25 C           0.2650   10.6210   36.0660 C.2       1 ASP         0.2057
     26 O           0.0470   11.8110   35.8590 O.2       1 ASP        -0.3943
     27 CB          1.7360    9.9470   34.1440 C.3       1 ASP         0.0406
     28 CG          2.9510    9.2870   34.7690 C.2       1 ASP         0.0393
     29 OD1         3.1490    9.4240   35.9960 O.co2     1 ASP        -0.5688
     30 OD2         3.7140    8.6340   34.0250 O.co2     1 ASP        -0.5688
     31 N           0.3490   10.1110   37.2880 N.am      1 PHE        -0.2618
     32 CA          0.1920   10.9470   38.4720 C.3       1 PHE         0.1404
     33 C           1.5210   11.5940   38.8410 C.2       1 PHE         0.2060
     34 O           2.5540   10.9290   38.8850 O.2       1 PHE        -0.3942
     35 CB         -0.3530   10.1180   39.6330 C.3       1 PHE         0.0214
     36 CG         -1.7230    9.5580   39.3770 C.ar      1 PHE        -0.0386
     37 CD1        -1.9050    8.5270   38.4680 C.ar      1 PHE        -0.0601
     38 CD2        -2.8290   10.0680   40.0360 C.ar      1 PHE        -0.0601
     39 CE1        -3.1640    8.0120   38.2230 C.ar      1 PHE        -0.0686
     40 CE2        -4.0910    9.5570   39.7970 C.ar      1 PHE        -0.0686
     41 CZ         -4.2590    8.5260   38.8880 C.ar      1 PHE        -0.0687
     42 N           1.4870   12.8970   39.1020 N.am      1 LEU        -0.2636
     43 CA          2.7060   13.6680   39.2990 C.3       1 LEU         0.1314
     44 C           2.5490   14.6850   40.4260 C.2       1 LEU         0.2064
     45 O           1.9230   15.7260   40.2370 O.2       1 LEU        -0.3942
     46 CB          3.0610   14.4000   38.0040 C.3       1 LEU        -0.0101
     47 CG          4.5380   14.7240   37.8010 C.3       1 LEU        -0.0425
     48 CD1         5.2790   13.4840   37.3370 C.3       1 LEU        -0.0625
     49 CD2         4.7030   15.8450   36.7970 C.3       1 LEU        -0.0625
     50 N           3.1230   14.3900   41.6060 N.am      1 PRO        -0.2498
     51 CA          3.8450   13.1520   41.9190 C.3       1 PRO         0.1340
     52 C           2.8820   11.9990   42.1540 C.2       1 PRO         0.2066
     53 O           1.7200   12.2410   42.4820 O.2       1 PRO        -0.3942
     54 CB          4.5830   13.4880   43.2260 C.3       1 PRO        -0.0104
     55 CG          4.4340   14.9690   43.4180 C.3       1 PRO        -0.0281
     56 CD          3.1690   15.3400   42.7270 C.3       1 PRO         0.0369
     57 N           3.3570   10.7560   41.9910 N.am      1 PRO        -0.2498
     58 CA          2.5120    9.5800   42.2250 C.3       1 PRO         0.1334
     59 C           1.9120    9.5700   43.6310 C.2       1 PRO         0.1994
     60 O           0.6990    9.3870   43.7570 O.2       1 PRO        -0.3947
     61 CB          3.4850    8.4090   42.0440 C.3       1 PRO        -0.0104
     62 CG          4.5640    8.9430   41.1650 C.3       1 PRO        -0.0281
     63 CD          4.7090   10.3880   41.5380 C.3       1 PRO         0.0369
     64 N           2.6120   10.0610   44.6520 N.am      1 NH2        -0.2990
     65 H1         -3.7672    4.3999   31.4321 H         1 ASP         0.2016
     66 H2         -4.0675    5.6131   32.5032 H         1 ASP         0.2016
     67 H3         -2.5236    5.1010   32.2513 H         1 ASP         0.2016
     68 H4         -2.5448    5.8601   30.0120 H         1 ASP         0.1117
     69 H5         -5.2173    7.1484   30.6645 H         1 ASP         0.0512
     70 H6         -5.1213    5.5042   29.9474 H         1 ASP         0.0512
     71 H7         -4.0700    7.4709   32.8239 H         1 TRP         0.1886
     72 H8         -2.5272    9.9231   32.3418 H         1 TRP         0.0815
     73 H9         -3.5872   10.6403   34.5273 H         1 TRP         0.0397
     74 H10        -4.4429    9.0611   34.5505 H         1 TRP         0.0397
     75 H11        -6.4361    8.7200   32.7942 H         1 TRP         0.0795
     76 H12        -7.8844   10.3822   31.4283 H         1 TRP         0.2216
     77 H13        -3.4776   12.8659   33.3098 H         1 TRP         0.0540
     78 H14        -7.7350   13.0988   30.6968 H         1 TRP         0.0541
     79 H15        -4.1997   14.9721   32.2441 H         1 TRP         0.0510
     80 H16        -6.2980   15.0846   30.9570 H         1 TRP         0.0530
     81 H17        -0.7108   10.5056   33.3353 H         1 ASP         0.1884
     82 H18         0.4886    8.6211   35.2982 H         1 ASP         0.0819
     83 H19         1.8935   11.0356   34.1340 H         1 ASP         0.0478
     84 H20         1.6300    9.5823   33.1116 H         1 ASP         0.0478
     85 H21         0.5237    9.1327   37.3992 H         1 PHE         0.1885
     86 H22        -0.5310   11.7441   38.2445 H         1 PHE         0.0823
     87 H23        -0.3997   10.7581   40.5263 H         1 PHE         0.0474
     88 H24         0.3365    9.2810   39.8173 H         1 PHE         0.0474
     89 H25        -1.0488    8.1196   37.9427 H         1 PHE         0.0557
     90 H26        -2.7038   10.8767   40.7470 H         1 PHE         0.0557
     91 H27        -3.2913    7.2057   37.5097 H         1 PHE         0.0599
     92 H28        -4.9487    9.9632   40.3209 H         1 PHE         0.0599
     93 H29        -5.2477    8.1237   38.6991 H         1 PHE         0.0559
     94 H30         0.6023   13.3589   39.1646 H         1 LEU         0.1883
     95 H31         3.5220   12.9772   39.5579 H         1 LEU         0.0800
     96 H32         2.5037   15.3482   37.9900 H         1 LEU         0.0315
     97 H33         2.7359   13.7711   37.1621 H         1 LEU         0.0315
     98 H34         4.9625   15.0495   38.7621 H         1 LEU         0.0298
     99 H35         6.3426   13.7249   37.1928 H         1 LEU         0.0232
    100 H36         4.8500   13.1347   36.3862 H         1 LEU         0.0232
    101 H37         5.1818   12.6934   38.0956 H         1 LEU         0.0232
    102 H38         4.1603   16.7349   37.1486 H         1 LEU         0.0232
    103 H39         4.2977   15.5289   35.8245 H         1 LEU         0.0232
    104 H40         5.7708   16.0859   36.6885 H         1 LEU         0.0232
    105 H41         4.5503   12.8915   41.1161 H         1 PRO         0.0802
    106 H42         5.6464   13.2186   43.1443 H         1 PRO         0.0313
    107 H43         4.1312   12.9461   44.0699 H         1 PRO         0.0313
    108 H44         5.2860   15.5014   42.9700 H         1 PRO         0.0287
    109 H45         4.3715   15.2125   44.4889 H         1 PRO         0.0287
    110 H46         2.3018   15.2119   43.3914 H         1 PRO         0.0524
    111 H47         3.2041   16.3784   42.3659 H         1 PRO         0.0524
    112 H48         1.6991    9.5337   41.4854 H         1 PRO         0.0802
    113 H49         2.9809    7.5569   41.5647 H         1 PRO         0.0313
    114 H50         3.8963    8.0934   43.0142 H         1 PRO         0.0313
    115 H51         4.2803    8.8462   40.1066 H         1 PRO         0.0287
    116 H52         5.5063    8.4041   41.3429 H         1 PRO         0.0287
    117 H53         5.4440   10.5148   42.3465 H         1 PRO         0.0524
    118 H54         5.0117   10.9911   40.6693 H         1 PRO         0.0524
    119 H55         2.2229   10.0562   45.5732 H         1 NH2         0.1815
    120 H56         3.5267   10.4345   44.4975 H         1 NH2         0.1815
@<TRIPOS>BOND
     1    1    2 1  
     2    2    3 1  
     3    2    5 1  
     4    3    4 2  
     5    3    9 am 
     6    5    6 1  
     7    6    7 ar 
     8    6    8 ar 
     9    9   10 1  
    10   10   11 1  
    11   10   13 1  
    12   11   12 2  
    13   11   23 am 
    14   13   14 1  
    15   14   15 2  
    16   14   16 1  
    17   15   17 1  
    18   16   18 ar 
    19   16   19 ar 
    20   17   18 1  
    21   18   20 ar 
    22   19   21 ar 
    23   20   22 ar 
    24   21   22 ar 
    25   23   24 1  
    26   24   25 1  
    27   24   27 1  
    28   25   26 2  
    29   25   31 am 
    30   27   28 1  
    31   28   29 ar 
    32   28   30 ar 
    33   31   32 1  
    34   32   33 1  
    35   32   35 1  
    36   33   34 2  
    37   33   42 am 
    38   35   36 1  
    39   36   37 ar 
    40   36   38 ar 
    41   37   39 ar 
    42   38   40 ar 
    43   39   41 ar 
    44   40   41 ar 
    45   42   43 1  
    46   43   44 1  
    47   43   46 1  
    48   44   45 2  
    49   44   50 am 
    50   46   47 1  
    51   47   48 1  
    52   47   49 1  
    53   50   51 1  
    54   50   56 1  
    55   51   52 1  
    56   51   54 1  
    57   52   53 2  
    58   52   57 am 
    59   54   55 1  
    60   55   56 1  
    61   57   58 1  
    62   57   63 1  
    63   58   59 1  
    64   58   61 1  
    65   59   60 2  
    66   59   64 am 
    67   61   62 1  
    68   62   63 1  
    69    1   65 1  
    70    1   66 1  
    71    1   67 1  
    72    2   68 1  
    73    5   69 1  
    74    5   70 1  
    75    9   71 1  
    76   10   72 1  
    77   13   73 1  
    78   13   74 1  
    79   15   75 1  
    80   17   76 1  
    81   19   77 1  
    82   20   78 1  
    83   21   79 1  
    84   22   80 1  
    85   23   81 1  
    86   24   82 1  
    87   27   83 1  
    88   27   84 1  
    89   31   85 1  
    90   32   86 1  
    91   35   87 1  
    92   35   88 1  
    93   37   89 1  
    94   38   90 1  
    95   39   91 1  
    96   40   92 1  
    97   41   93 1  
    98   42   94 1  
    99   43   95 1  
   100   46   96 1  
   101   46   97 1  
   102   47   98 1  
   103   48   99 1  
   104   48  100 1  
   105   48  101 1  
   106   49  102 1  
   107   49  103 1  
   108   49  104 1  
   109   51  105 1  
   110   54  106 1  
   111   54  107 1  
   112   55  108 1  
   113   55  109 1  
   114   56  110 1  
   115   56  111 1  
   116   58  112 1  
   117   61  113 1  
   118   61  114 1  
   119   62  115 1  
   120   62  116 1  
   121   63  117 1  
   122   63  118 1  
   123   64  119 1  
   124   64  120 1  
@<TRIPOS>SUBSTRUCTURE
     1 ASP         1

