3dow_ligand
  -I-interpret- 

121125  0  0  0  0  0  0  0  0999 V2000
   -3.4180    5.2640   31.8160 N   0  3  0  0  0
   -3.2670    6.2450   30.7470 C   0  0  0  0  0
   -2.7380    7.5610   31.3140 C   0  0  0  0  0
   -1.8280    8.1680   30.7500 O   0  0  0  0  0
   -4.6080    6.4720   30.0470 C   0  0  0  0  0
   -4.4520    7.0830   28.6670 C   0  0  0  0  0
   -3.3510    6.9810   28.0830 O   0  0  0  0  0
   -5.4380    7.6580   28.1630 O   0  0  0  0  0
   -3.3120    7.9930   32.4330 N   0  0  0  0  0
   -2.8660    9.2070   33.1050 C   0  0  0  0  0
   -1.7120    8.9140   34.0520 C   0  0  0  0  0
   -1.7460    7.9500   34.8150 O   0  0  0  0  0
   -4.0070    9.8370   33.9040 C   0  0  0  0  0
   -5.1000   10.4170   33.0710 C   0  0  0  0  0
   -6.2080    9.7690   32.6110 C   0  0  0  0  0
   -5.2070   11.7640   32.6070 C   0  0  0  0  0
   -6.9940   10.6260   31.8850 N   0  0  0  0  0
   -6.3950   11.8700   31.8670 C   0  0  0  0  0
   -4.4020   12.9060   32.7450 C   0  0  0  0  0
   -6.8120   13.0490   31.2630 C   0  0  0  0  0
   -4.8120   14.0830   32.1460 C   0  0  0  0  0
   -6.0060   14.1460   31.4140 C   0  0  0  0  0
   -0.6950    9.7640   34.0060 N   0  0  0  0  0
    0.4420    9.6470   34.9040 C   0  0  0  0  0
    0.2650   10.6210   36.0660 C   0  0  0  0  0
    0.0470   11.8110   35.8590 O   0  0  0  0  0
    1.7360    9.9470   34.1440 C   0  0  0  0  0
    2.9510    9.2870   34.7690 C   0  0  0  0  0
    3.1490    9.4240   35.9960 O   0  0  0  0  0
    3.7140    8.6340   34.0250 O   0  0  0  0  0
    0.3490   10.1110   37.2880 N   0  0  0  0  0
    0.1920   10.9470   38.4720 C   0  0  0  0  0
    1.5210   11.5940   38.8410 C   0  0  0  0  0
    2.5540   10.9290   38.8850 O   0  0  0  0  0
   -0.3530   10.1180   39.6330 C   0  0  0  0  0
   -1.7230    9.5580   39.3770 C   0  0  0  0  0
   -1.9050    8.5270   38.4680 C   0  0  0  0  0
   -2.8290   10.0680   40.0360 C   0  0  0  0  0
   -3.1640    8.0120   38.2230 C   0  0  0  0  0
   -4.0910    9.5570   39.7970 C   0  0  0  0  0
   -4.2590    8.5260   38.8880 C   0  0  0  0  0
    1.4870   12.8970   39.1020 N   0  0  0  0  0
    2.7060   13.6680   39.2990 C   0  0  0  0  0
    2.5490   14.6850   40.4260 C   0  0  0  0  0
    1.9230   15.7260   40.2370 O   0  0  0  0  0
    3.0610   14.4000   38.0040 C   0  0  0  0  0
    4.5380   14.7240   37.8010 C   0  0  0  0  0
    5.2790   13.4840   37.3370 C   0  0  0  0  0
    4.7030   15.8450   36.7970 C   0  0  0  0  0
    3.1230   14.3900   41.6060 N   0  0  0  0  0
    3.8450   13.1520   41.9190 C   0  0  0  0  0
    2.8820   11.9990   42.1540 C   0  0  0  0  0
    1.7200   12.2410   42.4820 O   0  0  0  0  0
    4.5830   13.4880   43.2260 C   0  0  0  0  0
    4.4340   14.9690   43.4180 C   0  0  0  0  0
    3.1690   15.3400   42.7270 C   0  0  0  0  0
    3.3570   10.7560   41.9910 N   0  0  0  0  0
    2.5120    9.5800   42.2250 C   0  0  0  0  0
    1.9120    9.5700   43.6310 C   0  0  0  0  0
    0.6990    9.3870   43.7570 O   0  0  0  0  0
    3.4850    8.4090   42.0440 C   0  0  0  0  0
    4.5640    8.9430   41.1650 C   0  0  0  0  0
    4.7090   10.3880   41.5380 C   0  0  0  0  0
    2.6120   10.0610   44.6520 N   0  0  0  0  0
   -2.5181    5.1214   32.2746 H   0  0  0  0  0
   -4.0971    5.6057   32.4960 H   0  0  0  0  0
   -3.7439    4.3813   31.4223 H   0  0  0  0  0
   -2.5519    5.8643   30.0178 H   0  0  0  0  0
   -5.1903    7.1639   30.6555 H   0  0  0  0  0
   -5.0933    5.5029   29.9311 H   0  0  0  0  0
   -2.7348    6.5054   28.6449 H   0  0  0  0  0
   -4.0852    7.4605   32.8318 H   0  0  0  0  0
   -2.5340    9.9001   32.3321 H   0  0  0  0  0
   -3.5776   10.6558   34.4813 H   0  0  0  0  0
   -4.4512    9.0436   34.5050 H   0  0  0  0  0
   -6.4363    8.7191   32.7944 H   0  0  0  0  0
   -3.4725   12.8656   33.3129 H   0  0  0  0  0
   -7.7401   13.0991   30.6937 H   0  0  0  0  0
   -4.1963   14.9770   32.2447 H   0  0  0  0  0
   -6.2996   15.0898   30.9545 H   0  0  0  0  0
   -0.7111   10.5204   33.3219 H   0  0  0  0  0
    0.5004    8.6316   35.2961 H   0  0  0  0  0
    1.8936   11.0253   34.1655 H   0  0  0  0  0
    1.6272    9.5564   33.1322 H   0  0  0  0  0
    2.4472    9.9586   36.3745 H   0  0  0  0  0
    0.5272    9.1131   37.4014 H   0  0  0  0  0
   -0.5229   11.7404   38.2537 H   0  0  0  0  0
   -0.4240   10.7748   40.5000 H   0  0  0  0  0
    0.3232    9.2759   39.7804 H   0  0  0  0  0
   -1.0441    8.1173   37.9398 H   0  0  0  0  0
   -2.7031   10.8811   40.7509 H   0  0  0  0  0
   -3.2920    7.2012   37.5058 H   0  0  0  0  0
   -4.9534    9.9654   40.3238 H   0  0  0  0  0
   -5.2532    8.1214   38.6981 H   0  0  0  0  0
    0.5846   13.3682   39.1658 H   0  0  0  0  0
    3.5023   12.9759   39.5730 H   0  0  0  0  0
    2.5404   15.3569   38.0411 H   0  0  0  0  0
    2.7794   13.7333   37.1889 H   0  0  0  0  0
    4.9593   15.0526   38.7511 H   0  0  0  0  0
    5.1818   12.7014   38.0894 H   0  0  0  0  0
    4.8530   13.1389   36.3949 H   0  0  0  0  0
    6.3327   13.7240   37.1945 H   0  0  0  0  0
    4.2722   15.5425   35.8425 H   0  0  0  0  0
    4.1918   16.7359   37.1618 H   0  0  0  0  0
    5.7634   16.0609   36.6664 H   0  0  0  0  0
    4.5056   12.8409   41.1098 H   0  0  0  0  0
    5.6332   13.2013   43.1707 H   0  0  0  0  0
    4.1640   12.9372   44.0681 H   0  0  0  0  0
    5.2854   15.5107   43.0060 H   0  0  0  0  0
    4.4008   15.2312   44.4755 H   0  0  0  0  0
    2.2953   15.2753   43.3755 H   0  0  0  0  0
    3.1504   16.3808   42.4036 H   0  0  0  0  0
    1.6549    9.5471   41.5523 H   0  0  0  0  0
    2.9963    7.5396   41.6042 H   0  0  0  0  0
    3.8764    8.0554   42.9979 H   0  0  0  0  0
    4.3133    8.8267   40.1106 H   0  0  0  0  0
    5.4982    8.3993   41.3055 H   0  0  0  0  0
    5.4677   10.5505   42.3036 H   0  0  0  0  0
    5.0565   11.0036   40.7083 H   0  0  0  0  0
    2.1445   10.2831   45.5309 H   0  0  0  0  0
    3.6156   10.2150   44.5551 H   0  0  0  0  0
  1  2  1  0  0  0
  2  3  1  0  0  0
  2  5  1  0  0  0
  3  4  2  0  0  0
  3  9  1  0  0  0
  5  6  1  0  0  0
  6  7  1  0  0  0
  6  8  2  0  0  0
  9 10  1  0  0  0
 10 11  1  0  0  0
 10 13  1  0  0  0
 11 12  2  0  0  0
 11 23  1  0  0  0
 13 14  1  0  0  0
 14 15  4  0  0  0
 14 16  4  0  0  0
 15 17  4  0  0  0
 16 18  4  0  0  0
 16 19  4  0  0  0
 17 18  4  0  0  0
 18 20  4  0  0  0
 19 21  4  0  0  0
 20 22  4  0  0  0
 21 22  4  0  0  0
 23 24  1  0  0  0
 24 25  1  0  0  0
 24 27  1  0  0  0
 25 26  2  0  0  0
 25 31  1  0  0  0
 27 28  1  0  0  0
 28 29  1  0  0  0
 28 30  2  0  0  0
 31 32  1  0  0  0
 32 33  1  0  0  0
 32 35  1  0  0  0
 33 34  2  0  0  0
 33 42  1  0  0  0
 35 36  1  0  0  0
 36 37  4  0  0  0
 36 38  4  0  0  0
 37 39  4  0  0  0
 38 40  4  0  0  0
 39 41  4  0  0  0
 40 41  4  0  0  0
 42 43  1  0  0  0
 43 44  1  0  0  0
 43 46  1  0  0  0
 44 45  2  0  0  0
 44 50  1  0  0  0
 46 47  1  0  0  0
 47 48  1  0  0  0
 47 49  1  0  0  0
 50 51  1  0  0  0
 50 56  1  0  0  0
 51 52  1  0  0  0
 51 54  1  0  0  0
 52 53  2  0  0  0
 52 57  1  0  0  0
 54 55  1  0  0  0
 55 56  1  0  0  0
 57 58  1  0  0  0
 57 63  1  0  0  0
 58 59  1  0  0  0
 58 61  1  0  0  0
 59 60  2  0  0  0
 59 64  1  0  0  0
 61 62  1  0  0  0
 62 63  1  0  0  0
  1 65  1  0  0  0
  1 66  1  0  0  0
  1 67  1  0  0  0
  2 68  1  0  0  0
  5 69  1  0  0  0
  5 70  1  0  0  0
  7 71  1  0  0  0
  9 72  1  0  0  0
 10 73  1  0  0  0
 13 74  1  0  0  0
 13 75  1  0  0  0
 15 76  1  0  0  0
 19 77  1  0  0  0
 20 78  1  0  0  0
 21 79  1  0  0  0
 22 80  1  0  0  0
 23 81  1  0  0  0
 24 82  1  0  0  0
 27 83  1  0  0  0
 27 84  1  0  0  0
 29 85  1  0  0  0
 31 86  1  0  0  0
 32 87  1  0  0  0
 35 88  1  0  0  0
 35 89  1  0  0  0
 37 90  1  0  0  0
 38 91  1  0  0  0
 39 92  1  0  0  0
 40 93  1  0  0  0
 41 94  1  0  0  0
 42 95  1  0  0  0
 43 96  1  0  0  0
 46 97  1  0  0  0
 46 98  1  0  0  0
 47 99  1  0  0  0
 48100  1  0  0  0
 48101  1  0  0  0
 48102  1  0  0  0
 49103  1  0  0  0
 49104  1  0  0  0
 49105  1  0  0  0
 51106  1  0  0  0
 54107  1  0  0  0
 54108  1  0  0  0
 55109  1  0  0  0
 55110  1  0  0  0
 56111  1  0  0  0
 56112  1  0  0  0
 58113  1  0  0  0
 61114  1  0  0  0
 61115  1  0  0  0
 62116  1  0  0  0
 62117  1  0  0  0
 63118  1  0  0  0
 63119  1  0  0  0
 64120  1  0  0  0
 64121  1  0  0  0
M  END
$$$$
