4qag_ligand
  -I-interpret- 

 25 26  0  0  0  0  0  0  0  0999 V2000
    5.8230   29.1990    3.9310 C   0  0  0  0  0
    6.9370   28.3580    3.9400 C   0  0  0  0  0
    8.2220   28.9070    4.0410 C   0  0  0  0  0
    8.3700   30.2940    4.1510 C   0  0  0  0  0
    7.2670   31.1530    4.1500 C   0  0  0  0  0
    5.9800   30.6090    4.0380 C   0  0  0  0  0
    9.3270   28.1240    4.0630 O   0  0  0  0  0
    9.6020   30.8200    4.2450 O   0  0  0  0  0
    6.7630   27.0020    3.8320 O   0  0  0  0  0
    5.5560   26.3450    3.7160 C   0  0  0  0  0
    4.3510   27.2670    3.7200 C   0  0  0  0  0
    4.4940   28.6120    3.8200 C   0  0  0  0  0
    5.4450   25.1290    3.6190 O   0  0  0  0  0
    3.2890   29.5600    3.8230 C   0  0  0  0  0
    3.1540   30.4340    5.0770 C   0  0  0  0  0
    3.2630   29.8670    6.1880 O   0  0  0  0  0
    2.9550   31.6560    4.8940 O   0  0  0  0  0
    7.4059   32.2308    4.2351 H   0  0  0  0  0
    5.1065   31.2610    4.0329 H   0  0  0  0  0
   10.1083   28.6771    4.1357 H   0  0  0  0  0
    9.5365   31.7753    4.3133 H   0  0  0  0  0
    3.3512   26.8402    3.6410 H   0  0  0  0  0
    2.3971   28.9351    3.7777 H   0  0  0  0  0
    3.4202   30.2380    2.9797 H   0  0  0  0  0
    3.4114   28.9281    6.0536 H   0  0  0  0  0
  1  2  4  0  0  0
  1  6  4  0  0  0
  1 12  1  0  0  0
  2  3  4  0  0  0
  2  9  1  0  0  0
  3  4  4  0  0  0
  3  7  1  0  0  0
  4  5  4  0  0  0
  4  8  1  0  0  0
  5  6  4  0  0  0
  9 10  1  0  0  0
 10 11  1  0  0  0
 10 13  2  0  0  0
 11 12  2  0  0  0
 12 14  1  0  0  0
 14 15  1  0  0  0
 15 16  1  0  0  0
 15 17  2  0  0  0
  5 18  1  0  0  0
  6 19  1  0  0  0
  7 20  1  0  0  0
  8 21  1  0  0  0
 11 22  1  0  0  0
 14 23  1  0  0  0
 14 24  1  0  0  0
 16 25  1  0  0  0
M  END
$$$$
