4no8_ligand
  -I-interpret- 

 91 92  0  0  0  0  0  0  0  0999 V2000
   10.8910 -137.1200   22.0140 C   0  0  0  0  0
   11.3710 -138.2320   21.7840 O   0  0  0  0  0
   11.1680 -136.4750   23.1870 O   0  0  0  0  0
   12.5540 -136.4170   23.5760 C   0  0  0  0  0
   12.6450 -136.5540   24.9660 C   0  0  0  0  0
   12.2960 -137.7640   25.5710 C   0  0  0  0  0
   12.3810 -137.9150   26.9550 C   0  0  0  0  0
   12.8170 -136.8500   27.7420 C   0  0  0  0  0
   13.1660 -135.6400   27.1440 C   0  0  0  0  0
   13.0810 -135.4900   25.7590 C   0  0  0  0  0
   10.0610 -136.5410   21.1260 N   0  0  0  0  0
    9.6910 -137.1970   19.8590 C   0  0  0  0  0
   10.7810 -137.0120   18.8060 C   0  0  0  0  0
   11.4620 -135.9890   18.7650 O   0  0  0  0  0
    8.3990 -136.5930   19.2920 C   0  0  0  0  0
    7.2140 -136.7710   20.2480 C   0  0  0  0  0
    5.9530 -136.2280   19.5700 C   0  0  0  0  0
    7.0040 -138.2470   20.6050 C   0  0  0  0  0
   10.8830 -138.0380   17.9480 N   0  0  0  0  0
   11.8360 -138.0630   16.8330 C   0  0  0  0  0
   11.0040 -138.0860   15.5540 C   0  0  0  0  0
    9.9980 -138.7890   15.4890 O   0  0  0  0  0
   12.6890 -139.3370   16.9290 C   0  0  0  0  0
   14.1590 -138.9900   17.1940 C   0  0  0  0  0
   14.3390 -138.4760   18.6330 C   0  0  0  0  0
   15.0120 -140.2470   16.9780 C   0  0  0  0  0
   11.2290 -138.3660   12.3290 C   0  0  0  0  0
   10.7600 -139.6230   12.8230 O   0  0  0  0  0
   10.6980 -137.2590   13.2720 C   0  0  0  0  0
   10.8030 -135.8980   12.6100 C   0  0  0  0  0
   10.2640 -134.7970   13.5630 C   0  0  0  0  0
   10.1540 -133.5060   12.7880 C   0  0  0  0  0
    8.8810 -135.0940   14.1100 C   0  0  0  0  0
   11.4300 -137.3020   14.5510 N   0  0  0  0  0
   12.7780 -138.4090   12.2930 C   0  0  0  0  0
   13.4380 -137.3740   12.2050 O   0  0  0  0  0
   14.6310 -139.8460   12.3090 C   0  0  0  0  0
   15.4780 -139.2060   11.3940 C   0  0  0  0  0
   16.8490 -139.4570   11.4160 C   0  0  0  0  0
   17.3810 -140.3560   12.3400 C   0  0  0  0  0
   16.5400 -141.0020   13.2460 C   0  0  0  0  0
   15.1710 -140.7500   13.2240 C   0  0  0  0  0
   13.3050 -139.6550   12.3340 N   0  0  0  0  0
   12.9805 -135.4608   23.2728 H   0  0  0  0  0
   13.1052 -137.2226   23.0910 H   0  0  0  0  0
   11.9545 -138.5969   24.9564 H   0  0  0  0  0
   12.1075 -138.8623   27.4196 H   0  0  0  0  0
   12.8850 -136.9633   28.8240 H   0  0  0  0  0
   13.5065 -134.8080   27.7604 H   0  0  0  0  0
   13.3550 -134.5421   25.2959 H   0  0  0  0  0
    9.6764 -135.6200   21.3365 H   0  0  0  0  0
    9.5552 -138.2559   20.0791 H   0  0  0  0  0
    8.1641 -137.1053   18.3590 H   0  0  0  0  0
    8.5589 -135.5252   19.1426 H   0  0  0  0  0
    7.4213 -136.2270   21.1695 H   0  0  0  0  0
    6.0910 -135.1711   19.3421 H   0  0  0  0  0
    5.7721 -136.7793   18.6473 H   0  0  0  0  0
    5.1014 -136.3484   20.2397 H   0  0  0  0  0
    6.8055 -138.8147   19.6959 H   0  0  0  0  0
    7.9013 -138.6339   21.0879 H   0  0  0  0  0
    6.1563 -138.3382   21.2842 H   0  0  0  0  0
   10.2672 -138.8408   18.0773 H   0  0  0  0  0
   12.5026 -137.2007   16.8493 H   0  0  0  0  0
   12.6203 -139.8777   15.9851 H   0  0  0  0  0
   12.3180 -139.9469   17.7527 H   0  0  0  0  0
   14.4745 -138.2043   16.5075 H   0  0  0  0  0
   13.7316 -137.5824   18.7769 H   0  0  0  0  0
   14.0241 -139.2479   19.3352 H   0  0  0  0  0
   15.3883 -138.2348   18.8027 H   0  0  0  0  0
   14.6869 -141.0277   17.6657 H   0  0  0  0  0
   14.8934 -140.5930   15.9512 H   0  0  0  0  0
   16.0595 -140.0101   17.1642 H   0  0  0  0  0
   10.8733 -138.1581   11.3199 H   0  0  0  0  0
   11.0770 -140.3278   12.2534 H   0  0  0  0  0
    9.6426 -137.4366   13.4787 H   0  0  0  0  0
   10.2113 -135.8993   11.6946 H   0  0  0  0  0
   11.8485 -135.6918   12.3808 H   0  0  0  0  0
   10.9603 -134.7426   14.3999 H   0  0  0  0  0
   11.1375 -133.2247   12.4116 H   0  0  0  0  0
    9.4690 -133.6432   11.9513 H   0  0  0  0  0
    9.7764 -132.7213   13.4435 H   0  0  0  0  0
    8.1764 -135.1843   13.2833 H   0  0  0  0  0
    8.9065 -136.0282   14.6711 H   0  0  0  0  0
    8.5696 -134.2822   14.7674 H   0  0  0  0  0
   12.2665 -136.7317   14.6748 H   0  0  0  0  0
   15.0639 -138.5107   10.6638 H   0  0  0  0  0
   17.5064 -138.9498   10.7098 H   0  0  0  0  0
   18.4529 -140.5536   12.3541 H   0  0  0  0  0
   16.9541 -141.7033   13.9704 H   0  0  0  0  0
   14.5156 -141.2633   13.9276 H   0  0  0  0  0
   12.6827 -140.4616   12.3847 H   0  0  0  0  0
  1  2  2  0  0  0
  1  3  1  0  0  0
 11  1  1  0  0  0
  3  4  1  0  0  0
  4  5  1  0  0  0
  5  6  4  0  0  0
  5 10  4  0  0  0
  6  7  4  0  0  0
  7  8  4  0  0  0
  9  8  4  0  0  0
 10  9  4  0  0  0
 12 11  1  0  0  0
 13 12  1  0  0  0
 12 15  1  0  0  0
 13 14  2  0  0  0
 19 13  1  0  0  0
 15 16  1  0  0  0
 16 17  1  0  0  0
 16 18  1  0  0  0
 20 19  1  0  0  0
 21 20  1  0  0  0
 20 23  1  0  0  0
 21 22  2  0  0  0
 34 21  1  0  0  0
 23 24  1  0  0  0
 24 25  1  0  0  0
 24 26  1  0  0  0
 27 28  1  0  0  0
 27 29  1  0  0  0
 35 27  1  0  0  0
 29 30  1  0  0  0
 29 34  1  0  0  0
 30 31  1  0  0  0
 31 32  1  0  0  0
 31 33  1  0  0  0
 35 36  2  0  0  0
 43 35  1  0  0  0
 37 38  4  0  0  0
 37 42  4  0  0  0
 37 43  1  0  0  0
 38 39  4  0  0  0
 39 40  4  0  0  0
 40 41  4  0  0  0
 41 42  4  0  0  0
  4 44  1  0  0  0
  4 45  1  0  0  0
  6 46  1  0  0  0
  7 47  1  0  0  0
  8 48  1  0  0  0
  9 49  1  0  0  0
 10 50  1  0  0  0
 11 51  1  0  0  0
 12 52  1  0  0  0
 15 53  1  0  0  0
 15 54  1  0  0  0
 16 55  1  0  0  0
 17 56  1  0  0  0
 17 57  1  0  0  0
 17 58  1  0  0  0
 18 59  1  0  0  0
 18 60  1  0  0  0
 18 61  1  0  0  0
 19 62  1  0  0  0
 20 63  1  0  0  0
 23 64  1  0  0  0
 23 65  1  0  0  0
 24 66  1  0  0  0
 25 67  1  0  0  0
 25 68  1  0  0  0
 25 69  1  0  0  0
 26 70  1  0  0  0
 26 71  1  0  0  0
 26 72  1  0  0  0
 27 73  1  0  0  0
 28 74  1  0  0  0
 29 75  1  0  0  0
 30 76  1  0  0  0
 30 77  1  0  0  0
 31 78  1  0  0  0
 32 79  1  0  0  0
 32 80  1  0  0  0
 32 81  1  0  0  0
 33 82  1  0  0  0
 33 83  1  0  0  0
 33 84  1  0  0  0
 34 85  1  0  0  0
 38 86  1  0  0  0
 39 87  1  0  0  0
 40 88  1  0  0  0
 41 89  1  0  0  0
 42 90  1  0  0  0
 43 91  1  0  0  0
M  END
$$$$
