3bsc_ligand
  -I-interpret- 

 57 60  0  0  0  0  0  0  0  0999 V2000
   95.4380    5.6880   59.2740 O   0  0  0  0  0
   96.1770    6.8860   58.9730 S   0  0  0  0  0
   97.6190    6.8960   59.0780 O   0  0  0  0  0
   95.5770    8.1840   59.9980 C   0  0  0  0  0
   95.7690    8.0720   61.3900 C   0  0  0  0  0
   95.3260    9.0850   62.2440 C   0  0  0  0  0
   95.4950    8.9880   63.6040 O   0  0  0  0  0
   96.7880    9.2010   64.1730 C   0  0  0  0  0
   94.6850   10.1950   61.6850 C   0  0  0  0  0
   95.7390    7.4020   57.4290 N   0  0  0  0  0
   95.0410    8.6010   57.1500 C   0  0  0  0  0
   94.7070    9.4800   58.0480 N   0  0  0  0  0
   94.9380    9.2900   59.4240 C   0  0  0  0  0
   94.4940   10.2970   60.2970 C   0  0  0  0  0
   94.8680    8.8500   55.7000 C   0  0  0  0  0
   95.7230    8.2840   54.8090 C   0  0  0  0  0
   96.6970    7.3850   55.1870 O   0  0  0  0  0
   93.8700    9.8430   55.1790 C   0  0  0  0  0
   93.0860   10.4120   55.9440 O   0  0  0  0  0
   93.8510   10.0620   53.8060 N   0  0  0  0  0
   92.9100   10.9690   53.1840 C   0  0  0  0  0
   91.9370   10.2190   52.2880 C   0  0  0  0  0
   90.8340    9.5250   53.0970 C   0  0  0  0  0
   90.3680   10.4040   54.2570 C   0  0  0  0  0
   89.6560    9.1740   52.1870 C   0  0  0  0  0
   94.6900    9.4590   52.9140 N   0  0  0  0  0
   95.5620    8.6180   53.3660 C   0  0  0  0  0
   96.5220    7.9760   52.4230 C   0  0  0  0  0
   96.7600    6.6040   52.4010 C   0  0  0  0  0
   97.7030    6.0800   51.5140 C   0  0  0  0  0
   97.2550    8.8090   51.5800 C   0  0  0  0  0
   98.1960    8.2850   50.6930 C   0  0  0  0  0
   98.4260    6.9120   50.6630 C   0  0  0  0  0
   96.2645    7.1925   61.8012 H   0  0  0  0  0
   97.4881    8.4725   63.7639 H   0  0  0  0  0
   97.1279   10.2083   63.9325 H   0  0  0  0  0
   96.7310    9.0841   65.2552 H   0  0  0  0  0
   94.3282   10.9931   62.3360 H   0  0  0  0  0
   95.9952    6.8081   56.6403 H   0  0  0  0  0
   93.9916   11.1744   59.8896 H   0  0  0  0  0
   97.1908    7.1055   54.4126 H   0  0  0  0  0
   93.4645   11.6835   52.5756 H   0  0  0  0  0
   92.3444   11.4752   53.9663 H   0  0  0  0  0
   92.4927    9.4561   51.7428 H   0  0  0  0  0
   91.4676   10.9375   51.6160 H   0  0  0  0  0
   91.2441    8.6059   53.5155 H   0  0  0  0  0
   91.2105   10.6080   54.9178 H   0  0  0  0  0
   89.9762   11.3427   53.8653 H   0  0  0  0  0
   89.5861    9.8860   54.8124 H   0  0  0  0  0
   89.2557   10.0863   51.7448 H   0  0  0  0  0
   89.9958    8.5045   51.3968 H   0  0  0  0  0
   88.8798    8.6819   52.7731 H   0  0  0  0  0
   96.2130    5.9424   53.0727 H   0  0  0  0  0
   97.8756    5.0041   51.4875 H   0  0  0  0  0
   97.0908    9.8860   51.6140 H   0  0  0  0  0
   98.7485    8.9474   50.0266 H   0  0  0  0  0
   99.1648    6.4926   49.9801 H   0  0  0  0  0
  1  2  2  0  0  0
  2  3  2  0  0  0
  2  4  1  0  0  0
  2 10  1  0  0  0
  4  5  4  0  0  0
  4 13  4  0  0  0
  5  6  4  0  0  0
  6  7  1  0  0  0
  6  9  4  0  0  0
  7  8  1  0  0  0
  9 14  4  0  0  0
 10 11  1  0  0  0
 11 12  2  0  0  0
 11 15  1  0  0  0
 12 13  1  0  0  0
 13 14  4  0  0  0
 15 16  2  0  0  0
 15 18  1  0  0  0
 16 17  1  0  0  0
 16 27  1  0  0  0
 18 19  2  0  0  0
 18 20  1  0  0  0
 20 21  1  0  0  0
 20 26  1  0  0  0
 21 22  1  0  0  0
 22 23  1  0  0  0
 23 24  1  0  0  0
 23 25  1  0  0  0
 26 27  2  0  0  0
 27 28  1  0  0  0
 28 29  4  0  0  0
 28 31  4  0  0  0
 29 30  4  0  0  0
 30 33  4  0  0  0
 31 32  4  0  0  0
 32 33  4  0  0  0
  5 34  1  0  0  0
  8 35  1  0  0  0
  8 36  1  0  0  0
  8 37  1  0  0  0
  9 38  1  0  0  0
 10 39  1  0  0  0
 14 40  1  0  0  0
 17 41  1  0  0  0
 21 42  1  0  0  0
 21 43  1  0  0  0
 22 44  1  0  0  0
 22 45  1  0  0  0
 23 46  1  0  0  0
 24 47  1  0  0  0
 24 48  1  0  0  0
 24 49  1  0  0  0
 25 50  1  0  0  0
 25 51  1  0  0  0
 25 52  1  0  0  0
 29 53  1  0  0  0
 30 54  1  0  0  0
 31 55  1  0  0  0
 32 56  1  0  0  0
 33 57  1  0  0  0
M  END
$$$$
