2v3u_ligand
  -I-interpret- 

 15 14  0  0  0  0  0  0  0  0999 V2000
   32.1550   33.6830   27.7210 N   0  3  0  0  0
   31.5070   32.4280   28.1870 C   0  0  0  0  0
   32.3370   31.2060   27.8800 C   0  0  0  0  0
   31.9790   30.1020   28.3270 O   0  0  0  0  0
   33.3570   31.2980   27.1340 O   0  0  0  0  0
   31.2480   32.4560   29.7140 C   0  0  0  0  0
   32.4660   32.6110   30.4640 O   0  0  0  0  0
   32.3104   33.6305   26.7143 H   0  0  0  0  0
   31.5488   34.4758   27.9317 H   0  0  0  0  0
   33.0486   33.8004   28.1985 H   0  0  0  0  0
   30.5626   32.3681   27.6460 H   0  0  0  0  0
   33.4866   32.2154   26.8827 H   0  0  0  0  0
   30.7898   31.5091   29.9996 H   0  0  0  0  0
   30.6012   33.3052   29.9347 H   0  0  0  0  0
   32.2633   32.6236   31.4023 H   0  0  0  0  0
  1  2  1  0  0  0
  2  3  1  0  0  0
  2  6  1  0  0  0
  3  4  2  0  0  0
  3  5  1  0  0  0
  6  7  1  0  0  0
  1  8  1  0  0  0
  1  9  1  0  0  0
  1 10  1  0  0  0
  2 11  1  0  0  0
  5 12  1  0  0  0
  6 13  1  0  0  0
  6 14  1  0  0  0
  7 15  1  0  0  0
M  END
$$$$
