2y36_ligand
  -I-interpret- 

157159  0  0  0  0  0  0  0  0999 V2000
    3.4240    9.3620  -45.9520 N   0  3  0  0  0
    2.6280    8.5660  -46.9370 C   0  0  0  0  0
    3.0700    7.1010  -46.8580 C   0  0  0  0  0
    4.2720    6.8190  -46.8030 O   0  0  0  0  0
    2.8500    9.1330  -48.3470 C   0  0  0  0  0
    2.3650   10.5780  -48.4760 C   0  0  0  0  0
    2.4670   11.3280  -47.4770 O   0  0  0  0  0
    1.8950   10.9700  -49.5690 O   0  0  0  0  0
    2.1150    6.1670  -46.8410 N   0  0  0  0  0
    2.4990    4.7620  -46.7370 C   0  0  0  0  0
    1.8720    3.6400  -47.5910 C   0  0  0  0  0
    1.8350    3.6930  -48.8270 O   0  0  0  0  0
    2.4880    4.3210  -45.2510 C   0  0  0  0  0
    1.5020    4.6840  -44.1220 C   0  0  0  0  0
    1.5770    6.1850  -43.8500 C   0  0  0  0  0
    0.0900    4.2380  -44.4560 C   0  0  0  0  0
    1.4340    2.6120  -46.8730 N   0  0  0  0  0
    0.8550    1.3700  -47.3660 C   0  0  0  0  0
    1.9430    0.3140  -47.6070 C   0  0  0  0  0
    1.7800   -0.5900  -48.4280 O   0  0  0  0  0
   -0.0930    1.5490  -48.5740 C   0  0  0  0  0
   -1.4810    0.9860  -48.2200 C   0  0  0  0  0
   -2.5320    0.7150  -49.0700 C   0  0  0  0  0
   -1.9210    0.5890  -46.9090 C   0  0  0  0  0
   -3.5880    0.1700  -48.3600 N   0  0  0  0  0
   -3.2380    0.0830  -47.0350 C   0  0  0  0  0
   -1.3260    0.6130  -45.6340 C   0  0  0  0  0
   -3.9640   -0.3990  -45.9320 C   0  0  0  0  0
   -2.0470    0.1390  -44.5440 C   0  0  0  0  0
   -3.3510   -0.3610  -44.7000 C   0  0  0  0  0
    3.0300    0.4860  -46.8290 N   0  0  0  0  0
    4.2580   -0.3410  -46.6640 C   0  0  0  0  0
    5.7050    0.1670  -46.6710 C   0  0  0  0  0
    6.0100    1.3630  -46.7250 O   0  0  0  0  0
    4.3600   -1.6450  -47.5370 C   0  0  0  0  0
    3.5300   -1.5900  -48.7000 O   0  0  0  0  0
    4.0650   -2.8520  -46.6660 C   0  0  0  0  0
    6.5680   -0.8470  -46.5640 N   0  0  0  0  0
    8.0320   -0.8110  -46.5190 C   0  0  0  0  0
    8.7710    0.3590  -45.8470 C   0  0  0  0  0
    9.3880    0.1670  -44.7930 O   0  0  0  0  0
    8.6330   -1.0850  -47.9380 C   0  0  0  0  0
    8.2020   -0.0750  -48.8600 O   0  0  0  0  0
    8.1750   -2.4540  -48.4500 C   0  0  0  0  0
    8.7140    1.5550  -46.4260 N   0  0  0  0  0
    9.4060    2.7190  -45.8650 C   0  0  0  0  0
    8.8960    3.2500  -44.5170 C   0  0  0  0  0
    9.3800    4.2810  -44.0430 O   0  0  0  0  0
    9.3760    3.8540  -46.8910 C   0  0  0  0  0
    7.9930    2.5170  -43.9260 N   0  0  0  0  0
    7.4510    2.9640  -42.8180 C   0  0  0  0  0
    7.0780    2.0130  -41.7560 C   0  0  0  0  0
    6.2420    0.9890  -41.9320 O   0  0  0  0  0
    6.1270    3.9300  -43.2930 C   0  0  0  0  0
    6.1510    5.3660  -42.7420 C   0  0  0  0  0
    4.8100    3.2730  -43.1210 C   0  0  0  0  0
    5.3350    6.3480  -43.6280 C   0  0  0  0  0
    7.9680    2.0260  -40.7010 N   0  0  0  0  0
    8.0360    1.3540  -39.4170 C   0  0  0  0  0
    8.3940    2.6290  -38.5430 C   0  0  0  0  0
    9.4860    3.2340  -38.6380 O   0  0  0  0  0
    9.2630    0.4200  -39.4700 C   0  0  0  0  0
    9.5580    0.2220  -40.8350 C   0  0  0  0  0
    9.2080    1.6220  -41.4260 C   0  0  0  0  0
    7.3950    3.0680  -37.7230 N   0  0  0  0  0
    7.5290    4.2170  -36.7920 C   0  0  0  0  0
    6.8810    5.4640  -37.3340 C   0  0  0  0  0
    7.1570    6.5640  -36.8690 O   0  0  0  0  0
    6.0530    5.2870  -38.3560 N   0  0  0  0  0
    5.3600    6.4070  -38.9700 C   0  0  0  0  0
    4.3200    5.8810  -39.9570 C   0  0  0  0  0
    3.4990    6.6860  -40.4540 O   0  0  0  0  0
    6.3710    7.4140  -39.6490 C   0  0  0  0  0
    5.5970    8.5770  -40.2830 C   0  0  0  0  0
    7.2830    6.7000  -40.6300 C   0  0  0  0  0
    6.4620    9.7780  -40.6430 C   0  0  0  0  0
    4.3200    4.6510  -40.1890 N   0  0  0  0  0
    3.2772    8.9862  -45.0152 H   0  0  0  0  0
    4.4139    9.3049  -46.1913 H   0  0  0  0  0
    3.1218   10.3358  -45.9802 H   0  0  0  0  0
    1.5641    8.6264  -46.7077 H   0  0  0  0  0
    2.2829    8.5224  -49.0497 H   0  0  0  0  0
    3.9202    9.1163  -48.5531 H   0  0  0  0  0
    2.8491   10.8360  -46.7466 H   0  0  0  0  0
    1.1317    6.4315  -46.8998 H   0  0  0  0  0
    3.4742    4.8332  -47.2186 H   0  0  0  0  0
    3.3894    4.8176  -44.8919 H   0  0  0  0  0
    2.2757    3.2578  -45.3631 H   0  0  0  0  0
    1.7856    4.1518  -43.2140 H   0  0  0  0  0
    2.5909    6.4481  -43.5486 H   0  0  0  0  0
    1.3127    6.7307  -44.7558 H   0  0  0  0  0
    0.8807    6.4436  -43.0522 H   0  0  0  0  0
   -0.2371    4.7281  -45.3730 H   0  0  0  0  0
    0.0751    3.1570  -44.5951 H   0  0  0  0  0
   -0.5783    4.5097  -43.6389 H   0  0  0  0  0
    1.5121    2.7029  -45.8601 H   0  0  0  0  0
    0.2041    0.9993  -46.5741 H   0  0  0  0  0
    0.3085    1.0146  -49.4350 H   0  0  0  0  0
   -0.1799    2.6084  -48.8155 H   0  0  0  0  0
   -2.5315    0.9024  -50.1438 H   0  0  0  0  0
   -0.3146    0.9976  -45.5030 H   0  0  0  0  0
   -4.9754   -0.7886  -46.0480 H   0  0  0  0  0
   -1.5938    0.1554  -43.5528 H   0  0  0  0  0
   -3.8893   -0.7270  -43.8257 H   0  0  0  0  0
    3.0080    1.3280  -46.2537 H   0  0  0  0  0
    3.9704   -0.4303  -45.6164 H   0  0  0  0  0
    5.3770   -1.7325  -47.9194 H   0  0  0  0  0
    3.6257   -2.4046  -49.1989 H   0  0  0  0  0
    4.7895   -2.8975  -45.8529 H   0  0  0  0  0
    3.0597   -2.7642  -46.2541 H   0  0  0  0  0
    4.1347   -3.7583  -47.2676 H   0  0  0  0  0
    6.1496   -1.7754  -46.5055 H   0  0  0  0  0
    8.2245   -1.6115  -45.8047 H   0  0  0  0  0
    9.7201   -1.0692  -47.8599 H   0  0  0  0  0
    8.5763   -0.2531  -49.7259 H   0  0  0  0  0
    8.5131   -3.2293  -47.7625 H   0  0  0  0  0
    7.0870   -2.4716  -48.5128 H   0  0  0  0  0
    8.6002   -2.6319  -49.4378 H   0  0  0  0  0
    8.1738    1.6653  -47.2842 H   0  0  0  0  0
   10.4128    2.3606  -45.6504 H   0  0  0  0  0
    9.8770    3.5306  -47.8034 H   0  0  0  0  0
    8.3410    4.1121  -47.1152 H   0  0  0  0  0
    9.8887    4.7249  -46.4826 H   0  0  0  0  0
    7.7147    1.6168  -44.3165 H   0  0  0  0  0
    8.2436    3.5044  -42.3004 H   0  0  0  0  0
    6.2660    4.0386  -44.3686 H   0  0  0  0  0
    7.1867    5.7054  -42.7245 H   0  0  0  0  0
    5.7047    5.3554  -41.7476 H   0  0  0  0  0
    4.7778    2.3638  -43.7213 H   0  0  0  0  0
    4.6653    3.0215  -42.0703 H   0  0  0  0  0
    4.0215    3.9521  -43.4452 H   0  0  0  0  0
    5.7556    6.3633  -44.6335 H   0  0  0  0  0
    4.2969    6.0187  -43.6719 H   0  0  0  0  0
    5.3823    7.3484  -43.1978 H   0  0  0  0  0
    7.1754    0.7696  -39.0914 H   0  0  0  0  0
    9.0530   -0.5281  -38.9749 H   0  0  0  0  0
   10.1118    0.8613  -38.9477 H   0  0  0  0  0
    9.0028   -0.5983  -41.2900 H   0  0  0  0  0
   10.5858   -0.0893  -41.0217 H   0  0  0  0  0
   10.0167    2.3399  -41.2893 H   0  0  0  0  0
    9.0605    1.5875  -42.5054 H   0  0  0  0  0
    6.5016    2.5766  -37.7515 H   0  0  0  0  0
    8.5909    4.4190  -36.6519 H   0  0  0  0  0
    7.0344    3.9560  -35.8564 H   0  0  0  0  0
    5.9000    4.3457  -38.7178 H   0  0  0  0  0
    4.8434    6.9736  -38.1953 H   0  0  0  0  0
    7.0274    7.8362  -38.8881 H   0  0  0  0  0
    4.8655    8.9152  -39.5491 H   0  0  0  0  0
    5.1596    8.2057  -41.2098 H   0  0  0  0  0
    7.8543    5.9358  -40.1029 H   0  0  0  0  0
    6.6812    6.2326  -41.4094 H   0  0  0  0  0
    7.9661    7.4206  -41.0796 H   0  0  0  0  0
    6.9395   10.1633  -39.7421 H   0  0  0  0  0
    7.2257    9.4727  -41.3583 H   0  0  0  0  0
    5.8376   10.5543  -41.0853 H   0  0  0  0  0
    3.6223    4.2503  -40.8160 H   0  0  0  0  0
    5.0177    4.0494  -39.7511 H   0  0  0  0  0
  1  2  1  0  0  0
  2  3  1  0  0  0
  2  5  1  0  0  0
  3  4  2  0  0  0
  3  9  1  0  0  0
  5  6  1  0  0  0
  6  7  1  0  0  0
  6  8  2  0  0  0
  9 10  1  0  0  0
 10 11  1  0  0  0
 10 13  1  0  0  0
 11 12  2  0  0  0
 11 17  1  0  0  0
 13 14  1  0  0  0
 14 15  1  0  0  0
 14 16  1  0  0  0
 17 18  1  0  0  0
 18 19  1  0  0  0
 18 21  1  0  0  0
 19 20  2  0  0  0
 19 31  1  0  0  0
 21 22  1  0  0  0
 22 23  4  0  0  0
 22 24  4  0  0  0
 23 25  4  0  0  0
 24 26  4  0  0  0
 24 27  4  0  0  0
 25 26  4  0  0  0
 26 28  4  0  0  0
 27 29  4  0  0  0
 28 30  4  0  0  0
 29 30  4  0  0  0
 31 32  1  0  0  0
 32 33  1  0  0  0
 32 35  1  0  0  0
 33 34  2  0  0  0
 33 38  1  0  0  0
 35 36  1  0  0  0
 35 37  1  0  0  0
 38 39  1  0  0  0
 39 40  1  0  0  0
 39 42  1  0  0  0
 40 41  2  0  0  0
 40 45  1  0  0  0
 42 43  1  0  0  0
 42 44  1  0  0  0
 45 46  1  0  0  0
 46 47  1  0  0  0
 46 49  1  0  0  0
 47 48  2  0  0  0
 47 50  1  0  0  0
 50 51  1  0  0  0
 51 52  1  0  0  0
 51 54  1  0  0  0
 52 53  2  0  0  0
 52 58  1  0  0  0
 54 55  1  0  0  0
 54 56  1  0  0  0
 55 57  1  0  0  0
 58 59  1  0  0  0
 58 64  1  0  0  0
 59 60  1  0  0  0
 59 62  1  0  0  0
 60 61  2  0  0  0
 60 65  1  0  0  0
 62 63  1  0  0  0
 63 64  1  0  0  0
 65 66  1  0  0  0
 66 67  1  0  0  0
 67 68  2  0  0  0
 67 69  1  0  0  0
 69 70  1  0  0  0
 70 71  1  0  0  0
 70 73  1  0  0  0
 71 72  2  0  0  0
 71 77  1  0  0  0
 73 74  1  0  0  0
 73 75  1  0  0  0
 74 76  1  0  0  0
  1 78  1  0  0  0
  1 79  1  0  0  0
  1 80  1  0  0  0
  2 81  1  0  0  0
  5 82  1  0  0  0
  5 83  1  0  0  0
  7 84  1  0  0  0
  9 85  1  0  0  0
 10 86  1  0  0  0
 13 87  1  0  0  0
 13 88  1  0  0  0
 14 89  1  0  0  0
 15 90  1  0  0  0
 15 91  1  0  0  0
 15 92  1  0  0  0
 16 93  1  0  0  0
 16 94  1  0  0  0
 16 95  1  0  0  0
 17 96  1  0  0  0
 18 97  1  0  0  0
 21 98  1  0  0  0
 21 99  1  0  0  0
 23100  1  0  0  0
 27101  1  0  0  0
 28102  1  0  0  0
 29103  1  0  0  0
 30104  1  0  0  0
 31105  1  0  0  0
 32106  1  0  0  0
 35107  1  0  0  0
 36108  1  0  0  0
 37109  1  0  0  0
 37110  1  0  0  0
 37111  1  0  0  0
 38112  1  0  0  0
 39113  1  0  0  0
 42114  1  0  0  0
 43115  1  0  0  0
 44116  1  0  0  0
 44117  1  0  0  0
 44118  1  0  0  0
 45119  1  0  0  0
 46120  1  0  0  0
 49121  1  0  0  0
 49122  1  0  0  0
 49123  1  0  0  0
 50124  1  0  0  0
 51125  1  0  0  0
 54126  1  0  0  0
 55127  1  0  0  0
 55128  1  0  0  0
 56129  1  0  0  0
 56130  1  0  0  0
 56131  1  0  0  0
 57132  1  0  0  0
 57133  1  0  0  0
 57134  1  0  0  0
 59135  1  0  0  0
 62136  1  0  0  0
 62137  1  0  0  0
 63138  1  0  0  0
 63139  1  0  0  0
 64140  1  0  0  0
 64141  1  0  0  0
 65142  1  0  0  0
 66143  1  0  0  0
 66144  1  0  0  0
 69145  1  0  0  0
 70146  1  0  0  0
 73147  1  0  0  0
 74148  1  0  0  0
 74149  1  0  0  0
 75150  1  0  0  0
 75151  1  0  0  0
 75152  1  0  0  0
 76153  1  0  0  0
 76154  1  0  0  0
 76155  1  0  0  0
 77156  1  0  0  0
 77157  1  0  0  0
M  END
$$$$
