### 
### Created by X-TOOL on Mon Sep 10 21:13:07 2018
### 

@<TRIPOS>MOLECULE
2y36_ligand
  157   159     1     0     0
SMALL
GAST_HUCK


@<TRIPOS>ATOM
      1 N           3.4240    9.3620  -45.9520 N.4       1 ASP         0.2391
      2 CA          2.6280    8.5660  -46.9370 C.3       1 ASP         0.0764
      3 C           3.0700    7.1010  -46.8580 C.2       1 ASP         0.2284
      4 O           4.2720    6.8190  -46.8030 O.2       1 ASP        -0.3906
      5 CB          2.8500    9.1330  -48.3470 C.3       1 ASP         0.0607
      6 CG          2.3650   10.5780  -48.4760 C.2       1 ASP         0.0425
      7 OD1         2.4670   11.3280  -47.4770 O.co2     1 ASP        -0.5686
      8 OD2         1.8950   10.9700  -49.5690 O.co2     1 ASP        -0.5686
      9 N           2.1150    6.1670  -46.8410 N.am      1 LEU        -0.2609
     10 CA          2.4990    4.7620  -46.7370 C.3       1 LEU         0.1313
     11 C           1.8720    3.6400  -47.5910 C.2       1 LEU         0.2040
     12 O           1.8350    3.6930  -48.8270 O.2       1 LEU        -0.3944
     13 CB          2.4880    4.3210  -45.2510 C.3       1 LEU        -0.0101
     14 CG          1.5020    4.6840  -44.1220 C.3       1 LEU        -0.0425
     15 CD1         1.5770    6.1850  -43.8500 C.3       1 LEU        -0.0625
     16 CD2         0.0900    4.2380  -44.4560 C.3       1 LEU        -0.0625
     17 N           1.4340    2.6120  -46.8730 N.am      1 TRP        -0.2627
     18 CA          0.8550    1.3700  -47.3660 C.3       1 TRP         0.1352
     19 C           1.9430    0.3140  -47.6070 C.2       1 TRP         0.2052
     20 O           1.7800   -0.5900  -48.4280 O.2       1 TRP        -0.3942
     21 CB         -0.0930    1.5490  -48.5740 C.3       1 TRP         0.0042
     22 CG         -1.4810    0.9860  -48.2200 C.2       1 TRP        -0.0418
     23 CD1        -2.5320    0.7150  -49.0700 C.2       1 TRP         0.0167
     24 CD2        -1.9210    0.5890  -46.9090 C.ar      1 TRP        -0.0214
     25 NE1        -3.5880    0.1700  -48.3600 N.pl3     1 TRP        -0.2890
     26 CE2        -3.2380    0.0830  -47.0350 C.ar      1 TRP         0.0603
     27 CE3        -1.3260    0.6130  -45.6340 C.ar      1 TRP        -0.0747
     28 CZ2        -3.9640   -0.3990  -45.9320 C.ar      1 TRP        -0.0443
     29 CZ3        -2.0470    0.1390  -44.5440 C.ar      1 TRP        -0.0792
     30 CH2        -3.3510   -0.3610  -44.7000 C.ar      1 TRP        -0.0768
     31 N           3.0300    0.4860  -46.8290 N.am      1 THR        -0.2612
     32 CA          4.2580   -0.3410  -46.6640 C.3       1 THR         0.1565
     33 C           5.7050    0.1670  -46.6710 C.2       1 THR         0.2065
     34 O           6.0100    1.3630  -46.7250 O.2       1 THR        -0.3943
     35 CB          4.3600   -1.6450  -47.5370 C.3       1 THR         0.0924
     36 OG1         3.5300   -1.5900  -48.7000 O.3       1 THR        -0.3874
     37 CG2         4.0650   -2.8520  -46.6660 C.3       1 THR        -0.0346
     38 N           6.5680   -0.8470  -46.5640 N.am      1 THR        -0.2613
     39 CA          8.0320   -0.8110  -46.5190 C.3       1 THR         0.1565
     40 C           8.7710    0.3590  -45.8470 C.2       1 THR         0.2065
     41 O           9.3880    0.1670  -44.7930 O.2       1 THR        -0.3943
     42 CB          8.6330   -1.0850  -47.9380 C.3       1 THR         0.0924
     43 OG1         8.2020   -0.0750  -48.8600 O.3       1 THR        -0.3874
     44 CG2         8.1750   -2.4540  -48.4500 C.3       1 THR        -0.0346
     45 N           8.7140    1.5550  -46.4260 N.am      1 ALA        -0.2639
     46 CA          9.4060    2.7190  -45.8650 C.3       1 ALA         0.1282
     47 C           8.8960    3.2500  -44.5170 C.2       1 ALA         0.2036
     48 O           9.3800    4.2810  -44.0430 O.2       1 ALA        -0.3944
     49 CB          9.3760    3.8540  -46.8910 C.3       1 ALA        -0.0244
     50 N           7.9930    2.5170  -43.9260 N.am      1 ILE        -0.2635
     51 CA          7.4510    2.9640  -42.8180 C.3       1 ILE         0.1337
     52 C           7.0780    2.0130  -41.7560 C.2       1 ILE         0.2067
     53 O           6.2420    0.9890  -41.9320 O.2       1 ILE        -0.3942
     54 CB          6.1270    3.9300  -43.2930 C.3       1 ILE        -0.0037
     55 CG1         6.1510    5.3660  -42.7420 C.3       1 ILE        -0.0491
     56 CG2         4.8100    3.2730  -43.1210 C.3       1 ILE        -0.0582
     57 CD1         5.3350    6.3480  -43.6280 C.3       1 ILE        -0.0648
     58 N           7.9680    2.0260  -40.7010 N.am      1 PRO        -0.2498
     59 CA          8.0360    1.3540  -39.4170 C.3       1 PRO         0.1338
     60 C           8.3940    2.6290  -38.5430 C.2       1 PRO         0.2039
     61 O           9.4860    3.2340  -38.6380 O.2       1 PRO        -0.3944
     62 CB          9.2630    0.4200  -39.4700 C.3       1 PRO        -0.0104
     63 CG          9.5580    0.2220  -40.8350 C.3       1 PRO        -0.0281
     64 CD          9.2080    1.6220  -41.4260 C.3       1 PRO         0.0369
     65 N           7.3950    3.0680  -37.7230 N.am      1 THR        -0.2664
     66 CA          7.5290    4.2170  -36.7920 C.3       1 THR         0.1201
     67 C           6.8810    5.4640  -37.3340 C.2       1 THR         0.2008
     68 O           7.1570    6.5640  -36.8690 O.2       1 THR        -0.3947
     69 N           6.0530    5.2870  -38.3560 N.am      1 ILE        -0.2637
     70 CA          5.3600    6.4070  -38.9700 C.3       1 ILE         0.1331
     71 C           4.3200    5.8810  -39.9570 C.2       1 ILE         0.1994
     72 O           3.4990    6.6860  -40.4540 O.2       1 ILE        -0.3947
     73 CB          6.3710    7.4140  -39.6490 C.3       1 ILE        -0.0037
     74 CG1         5.5970    8.5770  -40.2830 C.3       1 ILE        -0.0491
     75 CG2         7.2830    6.7000  -40.6300 C.3       1 ILE        -0.0582
     76 CD1         6.4620    9.7780  -40.6430 C.3       1 ILE        -0.0648
     77 N           4.3200    4.6510  -40.1890 N.am      1 PRO        -0.2990
     78 H           3.2772    8.9862  -45.0152 H         1 ASP         0.2016
     79 H           4.4139    9.3049  -46.1913 H         1 ASP         0.2016
     80 H           3.1218   10.3358  -45.9802 H         1 ASP         0.2016
     81 H           1.5641    8.6264  -46.7077 H         1 ASP         0.1117
     82 H           2.2829    8.5224  -49.0497 H         1 ASP         0.0512
     83 H           3.9202    9.1163  -48.5531 H         1 ASP         0.0512
     84 H           1.1317    6.4315  -46.8998 H         1 LEU         0.1885
     85 H           3.4742    4.8332  -47.2186 H         1 LEU         0.0800
     86 H           3.3894    4.8176  -44.8919 H         1 LEU         0.0315
     87 H           2.2757    3.2578  -45.3631 H         1 LEU         0.0315
     88 H           1.7856    4.1518  -43.2140 H         1 LEU         0.0298
     89 H           2.5909    6.4481  -43.5486 H         1 LEU         0.0232
     90 H           1.3127    6.7307  -44.7558 H         1 LEU         0.0232
     91 H           0.8807    6.4436  -43.0522 H         1 LEU         0.0232
     92 H          -0.2371    4.7281  -45.3730 H         1 LEU         0.0232
     93 H           0.0751    3.1570  -44.5951 H         1 LEU         0.0232
     94 H          -0.5783    4.5097  -43.6389 H         1 LEU         0.0232
     95 H           1.5121    2.7029  -45.8601 H         1 TRP         0.1884
     96 H           0.2041    0.9993  -46.5741 H         1 TRP         0.0815
     97 H           0.3085    1.0146  -49.4350 H         1 TRP         0.0397
     98 H          -0.1799    2.6084  -48.8155 H         1 TRP         0.0397
     99 H          -2.5315    0.9024  -50.1438 H         1 TRP         0.0795
    100 H          -4.4817   -0.1201  -48.7569 H         1 TRP         0.2216
    101 H          -0.3146    0.9976  -45.5030 H         1 TRP         0.0540
    102 H          -4.9754   -0.7886  -46.0480 H         1 TRP         0.0541
    103 H          -1.5938    0.1554  -43.5528 H         1 TRP         0.0510
    104 H          -3.8893   -0.7270  -43.8257 H         1 TRP         0.0530
    105 H           3.0080    1.3280  -46.2537 H         1 THR         0.1884
    106 H           3.9704   -0.4303  -45.6164 H         1 THR         0.0826
    107 H           5.3770   -1.7325  -47.9194 H         1 THR         0.0639
    108 H           2.6141   -1.4825  -48.4333 H         1 THR         0.2101
    109 H           4.7895   -2.8975  -45.8529 H         1 THR         0.0257
    110 H           3.0597   -2.7642  -46.2541 H         1 THR         0.0257
    111 H           4.1347   -3.7583  -47.2676 H         1 THR         0.0257
    112 H           6.1496   -1.7754  -46.5055 H         1 THR         0.1884
    113 H           8.2245   -1.6115  -45.8047 H         1 THR         0.0826
    114 H           9.7201   -1.0692  -47.8599 H         1 THR         0.0639
    115 H           8.5763   -0.2531  -49.7259 H         1 THR         0.2101
    116 H           8.5131   -3.2293  -47.7625 H         1 THR         0.0257
    117 H           7.0870   -2.4716  -48.5128 H         1 THR         0.0257
    118 H           8.6002   -2.6319  -49.4378 H         1 THR         0.0257
    119 H           8.1738    1.6653  -47.2842 H         1 ALA         0.1883
    120 H          10.4128    2.3606  -45.6504 H         1 ALA         0.0797
    121 H           9.8770    3.5306  -47.8034 H         1 ALA         0.0277
    122 H           8.3410    4.1121  -47.1152 H         1 ALA         0.0277
    123 H           9.8887    4.7249  -46.4826 H         1 ALA         0.0277
    124 H           7.7147    1.6168  -44.3165 H         1 ILE         0.1883
    125 H           8.2436    3.5044  -42.3004 H         1 ILE         0.0803
    126 H           6.2660    4.0386  -44.3686 H         1 ILE         0.0345
    127 H           7.1867    5.7054  -42.7245 H         1 ILE         0.0267
    128 H           5.7047    5.3554  -41.7476 H         1 ILE         0.0267
    129 H           4.7778    2.3638  -43.7213 H         1 ILE         0.0235
    130 H           4.6653    3.0215  -42.0703 H         1 ILE         0.0235
    131 H           4.0215    3.9521  -43.4452 H         1 ILE         0.0235
    132 H           5.7556    6.3633  -44.6335 H         1 ILE         0.0230
    133 H           4.2969    6.0187  -43.6719 H         1 ILE         0.0230
    134 H           5.3823    7.3484  -43.1978 H         1 ILE         0.0230
    135 H           7.1754    0.7696  -39.0914 H         1 PRO         0.0802
    136 H           9.0530   -0.5281  -38.9749 H         1 PRO         0.0313
    137 H          10.1118    0.8613  -38.9477 H         1 PRO         0.0313
    138 H           9.0028   -0.5983  -41.2900 H         1 PRO         0.0287
    139 H          10.5858   -0.0893  -41.0217 H         1 PRO         0.0287
    140 H          10.0167    2.3399  -41.2893 H         1 PRO         0.0524
    141 H           9.0605    1.5875  -42.5054 H         1 PRO         0.0524
    142 H           6.5016    2.5766  -37.7515 H         1 THR         0.1881
    143 H           8.5909    4.4190  -36.6519 H         1 THR         0.0763
    144 H           7.0344    3.9560  -35.8564 H         1 THR         0.0763
    145 H           5.9000    4.3457  -38.7178 H         1 ILE         0.1883
    146 H           4.8434    6.9736  -38.1953 H         1 ILE         0.0802
    147 H           7.0274    7.8362  -38.8881 H         1 ILE         0.0345
    148 H           4.8655    8.9152  -39.5491 H         1 ILE         0.0267
    149 H           5.1596    8.2057  -41.2098 H         1 ILE         0.0267
    150 H           7.8543    5.9358  -40.1029 H         1 ILE         0.0235
    151 H           6.6812    6.2326  -41.4094 H         1 ILE         0.0235
    152 H           7.9661    7.4206  -41.0796 H         1 ILE         0.0235
    153 H           6.9395   10.1633  -39.7421 H         1 ILE         0.0230
    154 H           7.2257    9.4727  -41.3583 H         1 ILE         0.0230
    155 H           5.8376   10.5543  -41.0853 H         1 ILE         0.0230
    156 H           3.6223    4.2503  -40.8160 H         1 PRO         0.1815
    157 H           5.0177    4.0494  -39.7511 H         1 PRO         0.1815
@<TRIPOS>BOND
     1    1    2 1  
     2    2    3 1  
     3    2    5 1  
     4    3    4 2  
     5    3    9 am 
     6    5    6 1  
     7    6    7 ar 
     8    6    8 ar 
     9    9   10 1  
    10   10   11 1  
    11   10   13 1  
    12   11   12 2  
    13   11   17 am 
    14   13   14 1  
    15   14   15 1  
    16   14   16 1  
    17   17   18 1  
    18   18   19 1  
    19   18   21 1  
    20   19   20 2  
    21   19   31 am 
    22   21   22 1  
    23   22   23 2  
    24   22   24 1  
    25   23   25 1  
    26   24   26 ar 
    27   24   27 ar 
    28   25   26 1  
    29   26   28 ar 
    30   27   29 ar 
    31   28   30 ar 
    32   29   30 ar 
    33   31   32 1  
    34   32   33 1  
    35   32   35 1  
    36   33   34 2  
    37   33   38 am 
    38   35   36 1  
    39   35   37 1  
    40   38   39 1  
    41   39   40 1  
    42   39   42 1  
    43   40   41 2  
    44   40   45 am 
    45   42   43 1  
    46   42   44 1  
    47   45   46 1  
    48   46   47 1  
    49   46   49 1  
    50   47   48 2  
    51   47   50 am 
    52   50   51 1  
    53   51   52 1  
    54   51   54 1  
    55   52   53 2  
    56   52   58 am 
    57   54   55 1  
    58   54   56 1  
    59   55   57 1  
    60   58   59 1  
    61   58   64 1  
    62   59   60 1  
    63   59   62 1  
    64   60   61 2  
    65   60   65 am 
    66   62   63 1  
    67   63   64 1  
    68   65   66 1  
    69   66   67 1  
    70   67   68 2  
    71   67   69 am 
    72   69   70 1  
    73   70   71 1  
    74   70   73 1  
    75   71   72 2  
    76   71   77 am 
    77   73   74 1  
    78   73   75 1  
    79   74   76 1  
    80    1   78 1  
    81    1   79 1  
    82    1   80 1  
    83    2   81 1  
    84    5   82 1  
    85    5   83 1  
    86    9   84 1  
    87   10   85 1  
    88   13   86 1  
    89   13   87 1  
    90   14   88 1  
    91   15   89 1  
    92   15   90 1  
    93   15   91 1  
    94   16   92 1  
    95   16   93 1  
    96   16   94 1  
    97   17   95 1  
    98   18   96 1  
    99   21   97 1  
   100   21   98 1  
   101   23   99 1  
   102   25  100 1  
   103   27  101 1  
   104   28  102 1  
   105   29  103 1  
   106   30  104 1  
   107   31  105 1  
   108   32  106 1  
   109   35  107 1  
   110   36  108 1  
   111   37  109 1  
   112   37  110 1  
   113   37  111 1  
   114   38  112 1  
   115   39  113 1  
   116   42  114 1  
   117   43  115 1  
   118   44  116 1  
   119   44  117 1  
   120   44  118 1  
   121   45  119 1  
   122   46  120 1  
   123   49  121 1  
   124   49  122 1  
   125   49  123 1  
   126   50  124 1  
   127   51  125 1  
   128   54  126 1  
   129   55  127 1  
   130   55  128 1  
   131   56  129 1  
   132   56  130 1  
   133   56  131 1  
   134   57  132 1  
   135   57  133 1  
   136   57  134 1  
   137   59  135 1  
   138   62  136 1  
   139   62  137 1  
   140   63  138 1  
   141   63  139 1  
   142   64  140 1  
   143   64  141 1  
   144   65  142 1  
   145   66  143 1  
   146   66  144 1  
   147   69  145 1  
   148   70  146 1  
   149   73  147 1  
   150   74  148 1  
   151   74  149 1  
   152   75  150 1  
   153   75  151 1  
   154   75  152 1  
   155   76  153 1  
   156   76  154 1  
   157   76  155 1  
   158   77  156 1  
   159   77  157 1  
@<TRIPOS>SUBSTRUCTURE
     1 ASP         1

