5k48_ligand
  -I-interpret- 

 29 30  0  0  0  0  0  0  0  0999 V2000
  -25.9140    4.5020   60.2700 C   0  0  0  0  0
  -28.6060    5.1060   60.4100 C   0  0  0  0  0
  -28.0370    9.7650   58.9590 C   0  0  0  0  0
  -28.8990   12.5930   59.6600 O   0  0  0  0  0
  -29.6910   11.6350   59.7180 C   0  0  0  0  0
  -30.9460   11.7190   59.7330 O   0  0  0  0  0
  -29.0920   10.2180   59.7730 C   0  0  0  0  0
  -29.6440    9.3290   60.6850 C   0  0  0  0  0
  -29.1880    8.0210   60.8170 C   0  0  0  0  0
  -28.1440    7.5580   60.0270 C   0  0  0  0  0
  -27.7020    6.1540   60.1940 C   0  0  0  0  0
  -26.3420    5.8180   60.1240 C   0  0  0  0  0
  -26.8240    3.4770   60.4880 C   0  0  0  0  0
  -28.1750    3.7880   60.5580 C   0  0  0  0  0
  -27.5850    8.4440   59.1000 C   0  0  0  0  0
  -27.3900   10.6500   57.9490 C   0  0  0  0  0
  -26.8440    9.7630   56.4860 S   0  0  0  0  0
  -24.8499    4.2731   60.2124 H   0  0  0  0  0
  -29.6722    5.3260   60.4637 H   0  0  0  0  0
  -31.3240   10.8379   59.7810 H   0  0  0  0  0
  -30.4630    9.6672   61.3197 H   0  0  0  0  0
  -29.6530    7.3559   61.5447 H   0  0  0  0  0
  -25.6059    6.6032   59.9518 H   0  0  0  0  0
  -26.4843    2.4476   60.6021 H   0  0  0  0  0
  -28.9043    2.9963   60.7299 H   0  0  0  0  0
  -26.7701    8.0962   58.4652 H   0  0  0  0  0
  -26.5111   11.0970   58.4136 H   0  0  0  0  0
  -28.1271   11.3885   57.6338 H   0  0  0  0  0
  -26.2800   10.6169   55.6365 H   0  0  0  0  0
 12  1  4  0  0  0
  1 13  4  0  0  0
 11  2  4  0  0  0
  2 14  4  0  0  0
  3  7  4  0  0  0
 15  3  4  0  0  0
  3 16  1  0  0  0
  5  4  2  0  0  0
  5  6  1  0  0  0
  7  5  1  0  0  0
  8  7  4  0  0  0
  9  8  4  0  0  0
 10  9  4  0  0  0
 11 10  1  0  0  0
 10 15  4  0  0  0
 11 12  4  0  0  0
 13 14  4  0  0  0
 16 17  1  0  0  0
  1 18  1  0  0  0
  2 19  1  0  0  0
  6 20  1  0  0  0
  8 21  1  0  0  0
  9 22  1  0  0  0
 12 23  1  0  0  0
 13 24  1  0  0  0
 14 25  1  0  0  0
 15 26  1  0  0  0
 16 27  1  0  0  0
 16 28  1  0  0  0
 17 29  1  0  0  0
M  END
$$$$
