6eqx_ligand
  -I-interpret- 

131131  0  0  0  0  0  0  0  0999 V2000
   56.2090  -36.8740   -7.2140 N   0  3  0  0  0
   55.3780  -35.6830   -7.0130 C   0  0  0  0  0
   54.8520  -35.6830   -5.5770 C   0  0  0  0  0
   54.5480  -36.7310   -5.0120 O   0  0  0  0  0
   54.1900  -35.6410   -7.9960 C   0  0  0  0  0
   54.6270  -35.2450   -9.4020 C   0  0  0  0  0
   53.3870  -35.1330  -10.2950 C   0  0  0  0  0
   52.4500  -34.1890   -9.6680 N   0  0  0  0  0
   52.0780  -33.0200  -10.2110 C   0  0  0  0  0
   52.5620  -32.6590  -11.4150 N   0  0  0  0  0
   51.2250  -32.2130   -9.5550 N   0  0  0  0  0
   54.7190  -34.4890   -4.9990 N   0  0  0  0  0
   54.1680  -34.4080   -3.6460 C   0  0  0  0  0
   52.6540  -34.7150   -3.7160 C   0  0  0  0  0
   52.1050  -35.3500   -2.8150 O   0  0  0  0  0
   54.4060  -32.9980   -3.0860 C   0  0  0  0  0
   53.8670  -32.8860   -1.6330 C   0  0  0  0  0
   54.3290  -31.5460   -1.0220 C   0  0  0  0  0
   53.6950  -31.2750    0.2910 N   0  0  0  0  0
   52.4940  -30.6650    0.4500 C   0  0  0  0  0
   51.7880  -30.2820   -0.6310 N   0  0  0  0  0
   52.0010  -30.4330    1.6890 N   0  0  0  0  0
   51.9880  -34.2200   -4.7830 N   0  0  0  0  0
   50.5320  -34.4140   -4.9730 C   0  0  0  0  0
   50.2890  -34.8460   -6.4190 C   0  0  0  0  0
   50.9040  -34.2900   -7.3320 O   0  0  0  0  0
   49.7810  -33.1030   -4.6930 C   0  0  0  0  0
   50.0010  -32.6600   -3.2260 C   0  0  0  0  0
   49.3780  -33.6570   -2.2430 C   0  0  0  0  0
   49.5670  -33.2020   -0.8380 N   0  0  0  0  0
   50.3670  -33.8140    0.0560 C   0  0  0  0  0
   51.0770  -34.8910   -0.3020 N   0  0  0  0  0
   50.4270  -33.3780    1.3310 N   0  0  0  0  0
   49.4150  -35.8550   -6.6050 N   0  0  0  0  0
   49.1600  -36.3940   -7.9570 C   0  0  0  0  0
   47.6740  -36.3440   -8.3020 C   0  0  0  0  0
   46.8260  -36.3500   -7.4130 O   0  0  0  0  0
   49.6120  -37.8680   -8.0140 C   0  0  0  0  0
   51.1120  -37.9850   -7.7230 C   0  0  0  0  0
   48.8460  -38.7080   -6.9760 C   0  0  0  0  0
   47.3980  -36.3300   -9.6180 N   0  0  0  0  0
   46.0250  -36.3670  -10.1210 C   0  0  0  0  0
   45.4650  -37.7280   -9.7130 C   0  0  0  0  0
   46.1510  -38.7330   -9.8550 O   0  0  0  0  0
   46.0520  -36.3080  -11.6400 C   0  0  0  0  0
   46.5180  -34.9310  -12.1340 C   0  0  0  0  0
   46.7760  -35.0420  -13.6480 C   0  0  0  0  0
   47.1920  -33.7420  -14.1900 N   0  0  0  0  0
   48.4600  -33.2990  -14.1400 C   0  0  0  0  0
   48.7850  -32.1130  -14.6820 N   0  0  0  0  0
   49.4020  -34.0410  -13.5440 N   0  0  0  0  0
   44.2280  -37.7470   -9.1990 N   0  0  0  0  0
   43.6090  -39.0040   -8.7330 C   0  0  0  0  0
   43.7260  -39.0490   -7.3170 C   0  0  0  0  0
   42.6760  -38.6480   -6.4930 C   0  0  0  0  0
   42.8120  -38.6850   -5.0990 C   0  0  0  0  0
   43.9820  -39.1210   -4.4900 C   0  0  0  0  0
   44.0990  -39.1600   -3.0770 C   0  0  0  0  0
   45.2770  -39.4390   -2.5270 N   0  0  0  0  0
   43.0270  -38.9110   -2.3240 N   0  0  0  0  0
   45.0250  -39.5330   -5.3120 C   0  0  0  0  0
   44.8990  -39.4900   -6.7120 C   0  0  0  0  0
   56.9810  -36.8649   -6.5474 H   0  0  0  0  0
   55.6432  -37.7103   -7.0694 H   0  0  0  0  0
   56.5790  -36.8725   -8.1645 H   0  0  0  0  0
   55.9923  -34.8018   -7.1978 H   0  0  0  0  0
   53.4773  -34.8979   -7.6383 H   0  0  0  0  0
   53.7508  -36.6375   -8.0432 H   0  0  0  0  0
   55.3030  -35.9998   -9.8037 H   0  0  0  0  0
   55.1455  -34.2868   -9.3702 H   0  0  0  0  0
   52.9160  -36.1098  -10.4049 H   0  0  0  0  0
   53.6704  -34.7763  -11.2852 H   0  0  0  0  0
   52.0571  -34.4394   -8.7606 H   0  0  0  0  0
   52.2818  -31.7713  -11.8320 H   0  0  0  0  0
   53.2087  -33.2733  -11.9098 H   0  0  0  0  0
   50.8601  -32.4895   -8.6435 H   0  0  0  0  0
   54.9981  -33.6420   -5.4941 H   0  0  0  0  0
   54.6538  -35.1292   -2.9888 H   0  0  0  0  0
   53.8817  -32.2767   -3.7129 H   0  0  0  0  0
   55.4773  -32.7971   -3.0809 H   0  0  0  0  0
   54.2518  -33.7124   -1.0354 H   0  0  0  0  0
   52.7778  -32.9273   -1.6427 H   0  0  0  0  0
   54.0429  -30.7470   -1.7060 H   0  0  0  0  0
   55.4073  -31.5979   -0.8716 H   0  0  0  0  0
   54.1955  -31.5668    1.1305 H   0  0  0  0  0
   52.1567  -30.4508   -1.5669 H   0  0  0  0  0
   51.0989  -29.9702    1.8005 H   0  0  0  0  0
   52.5316  -30.7210    2.5112 H   0  0  0  0  0
   52.5081  -33.6926   -5.4842 H   0  0  0  0  0
   50.1680  -35.1755   -4.2832 H   0  0  0  0  0
   48.7156  -33.2605   -4.8610 H   0  0  0  0  0
   50.1588  -32.3274   -5.3592 H   0  0  0  0  0
   49.5269  -31.6891   -3.0822 H   0  0  0  0  0
   51.0732  -32.6098   -3.0361 H   0  0  0  0  0
   49.8645  -34.6244   -2.3677 H   0  0  0  0  0
   48.3100  -33.7318   -2.4477 H   0  0  0  0  0
   49.0574  -32.3728   -0.5327 H   0  0  0  0  0
   51.0130  -35.2505   -1.2544 H   0  0  0  0  0
   51.0089  -33.8678    2.0106 H   0  0  0  0  0
   49.8905  -32.5585    1.6155 H   0  0  0  0  0
   48.9240  -36.2510   -5.8034 H   0  0  0  0  0
   49.7153  -35.7842   -8.6697 H   0  0  0  0  0
   49.4024  -38.2392   -9.0172 H   0  0  0  0  0
   51.6704  -37.4152   -8.4657 H   0  0  0  0  0
   51.3198  -37.5899   -6.7286 H   0  0  0  0  0
   51.4090  -39.0328   -7.7684 H   0  0  0  0  0
   49.0409  -38.3158   -5.9778 H   0  0  0  0  0
   47.7776  -38.6565   -7.1858 H   0  0  0  0  0
   49.1790  -39.7444   -7.0320 H   0  0  0  0  0
   48.1687  -36.2925  -10.2851 H   0  0  0  0  0
   45.4338  -35.5380   -9.7320 H   0  0  0  0  0
   45.0439  -36.4886  -12.0132 H   0  0  0  0  0
   46.7486  -37.0627  -12.0051 H   0  0  0  0  0
   47.4273  -34.6286  -11.6146 H   0  0  0  0  0
   45.7569  -34.1773  -11.9324 H   0  0  0  0  0
   45.8578  -35.3571  -14.1436 H   0  0  0  0  0
   47.5681  -35.7703  -13.8218 H   0  0  0  0  0
   46.4860  -33.1478  -14.6245 H   0  0  0  0  0
   49.7479  -31.7793  -14.6390 H   0  0  0  0  0
   48.0688  -31.5465  -15.1364 H   0  0  0  0  0
   49.1565  -34.9400  -13.1294 H   0  0  0  0  0
   43.7030  -36.8753   -9.1281 H   0  0  0  0  0
   44.1114  -39.8613   -9.1810 H   0  0  0  0  0
   42.5599  -39.0401   -9.0267 H   0  0  0  0  0
   41.7419  -38.3030   -6.9364 H   0  0  0  0  0
   41.9776  -38.3631   -4.4758 H   0  0  0  0  0
   46.0862  -39.6226   -3.1202 H   0  0  0  0  0
   43.1020  -38.9326   -1.3070 H   0  0  0  0  0
   42.1321  -38.6989   -2.7650 H   0  0  0  0  0
   45.9517  -39.8938   -4.8658 H   0  0  0  0  0
   45.7354  -39.8079   -7.3345 H   0  0  0  0  0
  1  2  1  0  0  0
  2  3  1  0  0  0
  2  5  1  0  0  0
  3  4  2  0  0  0
  3 12  1  0  0  0
  5  6  1  0  0  0
  6  7  1  0  0  0
  7  8  1  0  0  0
  8  9  1  0  0  0
  9 10  1  0  0  0
  9 11  2  0  0  0
 12 13  1  0  0  0
 13 14  1  0  0  0
 13 16  1  0  0  0
 14 15  2  0  0  0
 14 23  1  0  0  0
 16 17  1  0  0  0
 17 18  1  0  0  0
 18 19  1  0  0  0
 19 20  1  0  0  0
 20 21  2  0  0  0
 20 22  1  0  0  0
 23 24  1  0  0  0
 24 25  1  0  0  0
 24 27  1  0  0  0
 25 26  2  0  0  0
 25 34  1  0  0  0
 27 28  1  0  0  0
 28 29  1  0  0  0
 29 30  1  0  0  0
 30 31  1  0  0  0
 31 32  2  0  0  0
 31 33  1  0  0  0
 34 35  1  0  0  0
 35 36  1  0  0  0
 35 38  1  0  0  0
 36 37  2  0  0  0
 36 41  1  0  0  0
 38 39  1  0  0  0
 38 40  1  0  0  0
 41 42  1  0  0  0
 42 43  1  0  0  0
 42 45  1  0  0  0
 43 44  2  0  0  0
 43 52  1  0  0  0
 45 46  1  0  0  0
 46 47  1  0  0  0
 47 48  1  0  0  0
 48 49  1  0  0  0
 49 50  1  0  0  0
 49 51  2  0  0  0
 52 53  1  0  0  0
 53 54  1  0  0  0
 54 55  4  0  0  0
 54 62  4  0  0  0
 55 56  4  0  0  0
 56 57  4  0  0  0
 57 58  1  0  0  0
 57 61  4  0  0  0
 58 59  2  0  0  0
 58 60  1  0  0  0
 61 62  4  0  0  0
  1 63  1  0  0  0
  1 64  1  0  0  0
  1 65  1  0  0  0
  2 66  1  0  0  0
  5 67  1  0  0  0
  5 68  1  0  0  0
  6 69  1  0  0  0
  6 70  1  0  0  0
  7 71  1  0  0  0
  7 72  1  0  0  0
  8 73  1  0  0  0
 10 74  1  0  0  0
 10 75  1  0  0  0
 11 76  1  0  0  0
 12 77  1  0  0  0
 13 78  1  0  0  0
 16 79  1  0  0  0
 16 80  1  0  0  0
 17 81  1  0  0  0
 17 82  1  0  0  0
 18 83  1  0  0  0
 18 84  1  0  0  0
 19 85  1  0  0  0
 21 86  1  0  0  0
 22 87  1  0  0  0
 22 88  1  0  0  0
 23 89  1  0  0  0
 24 90  1  0  0  0
 27 91  1  0  0  0
 27 92  1  0  0  0
 28 93  1  0  0  0
 28 94  1  0  0  0
 29 95  1  0  0  0
 29 96  1  0  0  0
 30 97  1  0  0  0
 32 98  1  0  0  0
 33 99  1  0  0  0
 33100  1  0  0  0
 34101  1  0  0  0
 35102  1  0  0  0
 38103  1  0  0  0
 39104  1  0  0  0
 39105  1  0  0  0
 39106  1  0  0  0
 40107  1  0  0  0
 40108  1  0  0  0
 40109  1  0  0  0
 41110  1  0  0  0
 42111  1  0  0  0
 45112  1  0  0  0
 45113  1  0  0  0
 46114  1  0  0  0
 46115  1  0  0  0
 47116  1  0  0  0
 47117  1  0  0  0
 48118  1  0  0  0
 50119  1  0  0  0
 50120  1  0  0  0
 51121  1  0  0  0
 52122  1  0  0  0
 53123  1  0  0  0
 53124  1  0  0  0
 55125  1  0  0  0
 56126  1  0  0  0
 59127  1  0  0  0
 60128  1  0  0  0
 60129  1  0  0  0
 61130  1  0  0  0
 62131  1  0  0  0
M  END
$$$$
