### 
### Created by X-TOOL on Wed Jan  1 15:39:35 2020
### 

@<TRIPOS>MOLECULE
6eqx_ligand
  136   136     1     0     0
SMALL
GAST_HUCK


@<TRIPOS>ATOM
      1 N          56.2090  -36.8740   -7.2140 N.4       1 ARG         0.2379
      2 CA         55.3780  -35.6830   -7.0130 C.3       1 ARG         0.0651
      3 C          54.8520  -35.6830   -5.5770 C.2       1 ARG         0.2267
      4 O          54.5480  -36.7310   -5.0120 O.2       1 ARG        -0.3907
      5 CB         54.1900  -35.6410   -7.9960 C.3       1 ARG         0.0110
      6 CG         54.6270  -35.2450   -9.4020 C.3       1 ARG        -0.0125
      7 CD         53.3870  -35.1330  -10.2950 C.3       1 ARG         0.0629
      8 NE         52.4500  -34.1890   -9.6680 N.pl3     1 ARG        -0.2723
      9 CZ         52.0780  -33.0200  -10.2110 C.cat     1 ARG         0.2882
     10 NH1        52.5620  -32.6590  -11.4150 N.pl3     1 ARG        -0.2849
     11 NH2        51.2250  -32.2130   -9.5550 N.pl3     1 ARG        -0.2849
     12 N          54.7190  -34.4890   -4.9990 N.am      1 ARG        -0.2610
     13 CA         54.1680  -34.4080   -3.6460 C.3       1 ARG         0.1312
     14 C          52.6540  -34.7150   -3.7160 C.2       1 ARG         0.2039
     15 O          52.1050  -35.3500   -2.8150 O.2       1 ARG        -0.3944
     16 CB         54.4060  -32.9980   -3.0860 C.3       1 ARG        -0.0092
     17 CG         53.8670  -32.8860   -1.6330 C.3       1 ARG        -0.0156
     18 CD         54.3290  -31.5460   -1.0220 C.3       1 ARG         0.0627
     19 NE         53.6950  -31.2750    0.2910 N.pl3     1 ARG        -0.2723
     20 CZ         52.4940  -30.6650    0.4500 C.cat     1 ARG         0.2882
     21 NH1        51.7880  -30.2820   -0.6310 N.pl3     1 ARG        -0.2849
     22 NH2        52.0010  -30.4330    1.6890 N.pl3     1 ARG        -0.2849
     23 N          51.9880  -34.2200   -4.7830 N.am      1 ARG        -0.2637
     24 CA         50.5320  -34.4140   -4.9730 C.3       1 ARG         0.1311
     25 C          50.2890  -34.8460   -6.4190 C.2       1 ARG         0.2039
     26 O          50.9040  -34.2900   -7.3320 O.2       1 ARG        -0.3944
     27 CB         49.7810  -33.1030   -4.6930 C.3       1 ARG        -0.0092
     28 CG         50.0010  -32.6600   -3.2260 C.3       1 ARG        -0.0156
     29 CD         49.3780  -33.6570   -2.2430 C.3       1 ARG         0.0627
     30 NE         49.5670  -33.2020   -0.8380 N.pl3     1 ARG        -0.2723
     31 CZ         50.3670  -33.8140    0.0560 C.cat     1 ARG         0.2882
     32 NH1        51.0770  -34.8910   -0.3020 N.pl3     1 ARG        -0.2849
     33 NH2        50.4270  -33.3780    1.3310 N.pl3     1 ARG        -0.2849
     34 N          49.4150  -35.8550   -6.6050 N.am      1 VAL        -0.2635
     35 CA         49.1600  -36.3940   -7.9570 C.3       1 VAL         0.1332
     36 C          47.6740  -36.3440   -8.3020 C.2       1 VAL         0.2041
     37 O          46.8260  -36.3500   -7.4130 O.2       1 VAL        -0.3944
     38 CB         49.6120  -37.8680   -8.0140 C.3       1 VAL        -0.0063
     39 CG1        51.1120  -37.9850   -7.7230 C.3       1 VAL        -0.0584
     40 CG2        48.8460  -38.7080   -6.9760 C.3       1 VAL        -0.0584
     41 N          47.3980  -36.3300   -9.6180 N.am      1 ARG        -0.2637
     42 CA         46.0250  -36.3670  -10.1210 C.3       1 ARG         0.1311
     43 C          45.4650  -37.7280   -9.7130 C.2       1 ARG         0.2035
     44 O          46.1510  -38.7330   -9.8550 O.2       1 ARG        -0.3944
     45 CB         46.0520  -36.3080  -11.6400 C.3       1 ARG        -0.0092
     46 CG         46.5180  -34.9310  -12.1340 C.3       1 ARG        -0.0156
     47 CD         46.7760  -35.0420  -13.6480 C.3       1 ARG         0.0627
     48 NE         47.1920  -33.7420  -14.1900 N.pl3     1 ARG        -0.2723
     49 CZ         48.4600  -33.2990  -14.1400 C.cat     1 ARG         0.2882
     50 NH1        48.7850  -32.1130  -14.6820 N.pl3     1 ARG        -0.2849
     51 NH2        49.4020  -34.0410  -13.5440 N.pl3     1 ARG        -0.2849
     52 N23        44.2280  -37.7470   -9.1990 N.am      1 00S        -0.2737
     53 C16        43.6090  -39.0040   -8.7330 C.3       1 00S         0.0645
     54 C17        43.7260  -39.0490   -7.3170 C.ar      1 00S        -0.0210
     55 C22        42.6760  -38.6480   -6.4930 C.ar      1 00S        -0.0584
     56 C21        42.8120  -38.6850   -5.0990 C.ar      1 00S        -0.0633
     57 C24        43.9820  -39.1210   -4.4900 C.ar      1 00S         0.0188
     58 C27        44.0990  -39.1600   -3.0770 C.cat     1 00S         0.2318
     59 N35        45.2770  -39.4390   -2.5270 N.pl3     1 00S        -0.2729
     60 N34        43.0270  -38.9110   -2.3240 N.pl3     1 00S        -0.2729
     61 C19        45.0250  -39.5330   -5.3120 C.ar      1 00S        -0.0633
     62 C18        44.8990  -39.4900   -6.7120 C.ar      1 00S        -0.0584
     63 H1         56.5606  -36.8828   -8.1586 H         1 ARG         0.2015
     64 H2         55.6553  -37.7010   -7.0539 H         1 ARG         0.2015
     65 H3         56.9824  -36.8571   -6.5678 H         1 ARG         0.2015
     66 H4         55.9977  -34.7882   -7.1718 H         1 ARG         0.1098
     67 H5         53.4542  -34.9083   -7.6331 H         1 ARG         0.0347
     68 H6         53.7262  -36.6376   -8.0356 H         1 ARG         0.0347
     69 H7         55.3055  -36.0103   -9.8069 H         1 ARG         0.0302
     70 H8         55.1460  -34.2758   -9.3680 H         1 ARG         0.0302
     71 H9         52.9102  -36.1192  -10.3948 H         1 ARG         0.0689
     72 H10        53.6771  -34.7636  -11.2897 H         1 ARG         0.0689
     73 H11        52.0532  -34.4419   -8.7517 H         1 ARG         0.2642
     74 H12        52.2793  -31.7625  -11.8360 H         1 ARG         0.2615
     75 H13        53.2148  -33.2795  -11.9148 H         1 ARG         0.2615
     76 H14        50.8568  -32.4921   -8.6345 H         1 ARG         0.2615
     77 H15        50.9400  -31.3159   -9.9732 H         1 ARG         0.2615
     78 H16        54.9926  -33.6586   -5.4844 H         1 ARG         0.1884
     79 H17        54.6631  -35.1460   -2.9977 H         1 ARG         0.0800
     80 H18        53.8872  -32.2649   -3.7211 H         1 ARG         0.0313
     81 H19        55.4854  -32.7861   -3.0880 H         1 ARG         0.0313
     82 H20        54.2577  -33.7192   -1.0304 H         1 ARG         0.0301
     83 H21        52.7678  -32.9255   -1.6443 H         1 ARG         0.0301
     84 H22        54.0675  -30.7329   -1.7151 H         1 ARG         0.0689
     85 H23        55.4203  -31.5766   -0.8877 H         1 ARG         0.0689
     86 H24        54.2004  -31.5697    1.1387 H         1 ARG         0.2642
     87 H25        50.8758  -29.8186   -0.5126 H         1 ARG         0.2615
     88 H26        52.1603  -30.4525   -1.5761 H         1 ARG         0.2615
     89 H27        52.5368  -30.7238    2.5192 H         1 ARG         0.2615
     90 H28        51.0901  -29.9656    1.8016 H         1 ARG         0.2615
     91 H29        52.4979  -33.7030   -5.4705 H         1 ARG         0.1883
     92 H30        50.1710  -35.1943   -4.2869 H         1 ARG         0.0800
     93 H31        48.7059  -33.2562   -4.8683 H         1 ARG         0.0313
     94 H32        50.1547  -32.3194   -5.3685 H         1 ARG         0.0313
     95 H33        49.5384  -31.6732   -3.0766 H         1 ARG         0.0301
     96 H34        51.0813  -32.5920   -3.0306 H         1 ARG         0.0301
     97 H35        49.8578  -34.6384   -2.3719 H         1 ARG         0.0689
     98 H36        48.3016  -33.7448   -2.4519 H         1 ARG         0.0689
     99 H37        49.0524  -32.3647   -0.5297 H         1 ARG         0.2642
    100 H38        51.6878  -35.3566    0.3843 H         1 ARG         0.2615
    101 H39        51.0124  -35.2540   -1.2637 H         1 ARG         0.2615
    102 H40        49.8852  -32.5505    1.6183 H         1 ARG         0.2615
    103 H41        51.0146  -33.8726    2.0173 H         1 ARG         0.2615
    104 H42        48.9337  -36.2433   -5.8191 H         1 VAL         0.1883
    105 H43        49.7255  -35.8030   -8.6925 H         1 VAL         0.0802
    106 H44        49.4074  -38.2623   -9.0203 H         1 VAL         0.0343
    107 H45        51.4130  -39.0420   -7.7686 H         1 VAL         0.0234
    108 H46        51.3230  -37.5866   -6.7196 H         1 VAL         0.0234
    109 H47        51.6767  -37.4104   -8.4719 H         1 VAL         0.0234
    110 H48        47.7658  -38.6352   -7.1705 H         1 VAL         0.0234
    111 H49        49.0630  -38.3299   -5.9661 H         1 VAL         0.0234
    112 H50        49.1618  -39.7591   -7.0498 H         1 VAL         0.0234
    113 H51        48.1536  -36.2932  -10.2720 H         1 ARG         0.1883
    114 H52        45.4253  -35.5431   -9.7068 H         1 ARG         0.0800
    115 H53        45.0402  -36.5036  -12.0247 H         1 ARG         0.0313
    116 H54        46.7426  -37.0769  -12.0167 H         1 ARG         0.0313
    117 H55        47.4439  -34.6404  -11.6161 H         1 ARG         0.0301
    118 H56        45.7383  -34.1796  -11.9406 H         1 ARG         0.0301
    119 H57        45.8529  -35.3663  -14.1508 H         1 ARG         0.0689
    120 H58        47.5705  -35.7812  -13.8276 H         1 ARG         0.0689
    121 H59        46.4790  -33.1419  -14.6288 H         1 ARG         0.2642
    122 H60        49.7580  -31.7775  -14.6413 H         1 ARG         0.2615
    123 H61        48.0611  -31.5395  -15.1381 H         1 ARG         0.2615
    124 H62        49.1547  -34.9503  -13.1281 H         1 ARG         0.2615
    125 H63        50.3739  -33.7025  -13.5015 H         1 ARG         0.2615
    126 H64        43.7133  -36.8924   -9.1295 H         1 00S         0.1878
    127 H65        44.1293  -39.8646   -9.1786 H         1 00S         0.0683
    128 H66        42.5477  -39.0275   -9.0214 H         1 00S         0.0683
    129 H67        41.7471  -38.3049   -6.9339 H         1 00S         0.0557
    130 H68        41.9822  -38.3649   -4.4792 H         1 00S         0.0599
    131 H69        45.3724  -39.4697   -1.5019 H         1 00S         0.3180
    132 H70        46.0941  -39.6244   -3.1261 H         1 00S         0.3180
    133 H71        42.1233  -38.6969   -2.7694 H         1 00S         0.3180
    134 H72        43.1027  -38.9328   -1.2970 H         1 00S         0.3180
    135 H73        45.9466  -39.8918   -4.8682 H         1 00S         0.0599
    136 H74        45.7308  -39.8061   -7.3311 H         1 00S         0.0557
@<TRIPOS>BOND
     1    1    2 1  
     2    2    3 1  
     3    2    5 1  
     4    3    4 2  
     5    3   12 am 
     6    5    6 1  
     7    6    7 1  
     8    7    8 1  
     9    8    9 ar 
    10    9   10 ar 
    11    9   11 ar 
    12   12   13 1  
    13   13   14 1  
    14   13   16 1  
    15   14   15 2  
    16   14   23 am 
    17   16   17 1  
    18   17   18 1  
    19   18   19 1  
    20   19   20 ar 
    21   20   21 ar 
    22   20   22 ar 
    23   23   24 1  
    24   24   25 1  
    25   24   27 1  
    26   25   26 2  
    27   25   34 am 
    28   27   28 1  
    29   28   29 1  
    30   29   30 1  
    31   30   31 ar 
    32   31   32 ar 
    33   31   33 ar 
    34   34   35 1  
    35   35   36 1  
    36   35   38 1  
    37   36   37 2  
    38   36   41 am 
    39   38   39 1  
    40   38   40 1  
    41   41   42 1  
    42   42   43 1  
    43   42   45 1  
    44   43   44 2  
    45   43   52 am 
    46   45   46 1  
    47   46   47 1  
    48   47   48 1  
    49   48   49 ar 
    50   49   50 ar 
    51   49   51 ar 
    52   52   53 1  
    53   53   54 1  
    54   54   55 ar 
    55   54   62 ar 
    56   55   56 ar 
    57   56   57 ar 
    58   57   58 1  
    59   57   61 ar 
    60   58   59 ar 
    61   58   60 ar 
    62   61   62 ar 
    63    1   63 1  
    64    1   64 1  
    65    1   65 1  
    66    2   66 1  
    67    5   67 1  
    68    5   68 1  
    69    6   69 1  
    70    6   70 1  
    71    7   71 1  
    72    7   72 1  
    73    8   73 1  
    74   10   74 1  
    75   10   75 1  
    76   11   76 1  
    77   11   77 1  
    78   12   78 1  
    79   13   79 1  
    80   16   80 1  
    81   16   81 1  
    82   17   82 1  
    83   17   83 1  
    84   18   84 1  
    85   18   85 1  
    86   19   86 1  
    87   21   87 1  
    88   21   88 1  
    89   22   89 1  
    90   22   90 1  
    91   23   91 1  
    92   24   92 1  
    93   27   93 1  
    94   27   94 1  
    95   28   95 1  
    96   28   96 1  
    97   29   97 1  
    98   29   98 1  
    99   30   99 1  
   100   32  100 1  
   101   32  101 1  
   102   33  102 1  
   103   33  103 1  
   104   34  104 1  
   105   35  105 1  
   106   38  106 1  
   107   39  107 1  
   108   39  108 1  
   109   39  109 1  
   110   40  110 1  
   111   40  111 1  
   112   40  112 1  
   113   41  113 1  
   114   42  114 1  
   115   45  115 1  
   116   45  116 1  
   117   46  117 1  
   118   46  118 1  
   119   47  119 1  
   120   47  120 1  
   121   48  121 1  
   122   50  122 1  
   123   50  123 1  
   124   51  124 1  
   125   51  125 1  
   126   52  126 1  
   127   53  127 1  
   128   53  128 1  
   129   55  129 1  
   130   56  130 1  
   131   59  131 1  
   132   59  132 1  
   133   60  133 1  
   134   60  134 1  
   135   61  135 1  
   136   62  136 1  
@<TRIPOS>SUBSTRUCTURE
     1 ARG         1

