1cr6_ligand
  -I-interpret- 

 43 44  0  0  0  0  0  0  0  0999 V2000
  -46.1960 -117.2040  -33.2330 C   0  0  0  0  0
  -47.2420 -117.6300  -34.0980 C   0  0  0  0  0
  -48.1780 -116.6820  -34.5580 C   0  0  0  0  0
  -48.0550 -115.3210  -34.1490 C   0  0  0  0  0
  -46.9990 -114.8860  -33.2730 C   0  0  0  0  0
  -46.0720 -115.8200  -32.8130 C   0  0  0  0  0
  -43.1870 -113.4940  -29.2740 N   0  0  0  0  0
  -44.9120 -115.4690  -31.8810 C   0  0  0  0  0
  -44.9130 -114.2970  -30.9330 C   0  0  0  0  0
  -43.5610 -114.4830  -30.2650 C   0  0  0  0  0
  -42.0260 -113.5950  -28.5970 C   0  0  0  0  0
  -41.7970 -112.7000  -27.7740 O   0  0  0  0  0
  -41.1650 -114.6340  -28.8030 N   0  0  0  0  0
  -39.8600 -114.8490  -28.0930 C   0  0  0  0  0
  -39.3470 -116.3060  -28.3840 C   0  0  0  0  0
  -37.9780 -116.6520  -27.6610 C   0  0  0  0  0
  -37.9900 -116.3180  -26.1040 C   0  0  0  0  0
  -38.6350 -114.9040  -25.7700 C   0  0  0  0  0
  -40.0010 -114.6530  -26.5380 C   0  0  0  0  0
  -45.4699 -117.9347  -32.8769 H   0  0  0  0  0
  -47.3184 -118.6744  -34.4006 H   0  0  0  0  0
  -48.9885 -116.9861  -35.2203 H   0  0  0  0  0
  -48.7799 -114.5911  -34.5094 H   0  0  0  0  0
  -46.9252 -113.8406  -32.9734 H   0  0  0  0  0
  -43.8117 -112.7099  -29.0861 H   0  0  0  0  0
  -44.1146 -115.2118  -32.5782 H   0  0  0  0  0
  -44.8817 -116.3234  -31.2048 H   0  0  0  0  0
  -45.7549 -114.2833  -30.2408 H   0  0  0  0  0
  -45.0417 -113.3298  -31.4189 H   0  0  0  0  0
  -43.6144 -115.4346  -29.7361 H   0  0  0  0  0
  -42.8191 -114.4087  -31.0601 H   0  0  0  0  0
  -41.4324 -115.3267  -29.5023 H   0  0  0  0  0
  -39.1502 -114.1094  -28.4633 H   0  0  0  0  0
  -39.1791 -116.3855  -29.4581 H   0  0  0  0  0
  -40.0998 -116.9991  -28.0085 H   0  0  0  0  0
  -37.1980 -116.0468  -28.1230 H   0  0  0  0  0
  -37.8092 -117.7235  -27.7680 H   0  0  0  0  0
  -36.9548 -116.2969  -25.7633 H   0  0  0  0  0
  -38.5911 -117.0800  -25.6080 H   0  0  0  0  0
  -37.9301 -114.1337  -26.0830 H   0  0  0  0  0
  -38.8440 -114.8771  -24.7006 H   0  0  0  0  0
  -40.7311 -115.3749  -26.1720 H   0  0  0  0  0
  -40.3067 -113.6230  -26.3544 H   0  0  0  0  0
  1  2  4  0  0  0
  6  1  4  0  0  0
  2  3  4  0  0  0
  4  3  4  0  0  0
  5  4  4  0  0  0
  6  5  4  0  0  0
  8  6  1  0  0  0
 10  7  1  0  0  0
  7 11  1  0  0  0
  9  8  1  0  0  0
  9 10  1  0  0  0
 11 12  2  0  0  0
 11 13  1  0  0  0
 13 14  1  0  0  0
 14 15  1  0  0  0
 14 19  1  0  0  0
 15 16  1  0  0  0
 16 17  1  0  0  0
 17 18  1  0  0  0
 18 19  1  0  0  0
  1 20  1  0  0  0
  2 21  1  0  0  0
  3 22  1  0  0  0
  4 23  1  0  0  0
  5 24  1  0  0  0
  7 25  1  0  0  0
  8 26  1  0  0  0
  8 27  1  0  0  0
  9 28  1  0  0  0
  9 29  1  0  0  0
 10 30  1  0  0  0
 10 31  1  0  0  0
 13 32  1  0  0  0
 14 33  1  0  0  0
 15 34  1  0  0  0
 15 35  1  0  0  0
 16 36  1  0  0  0
 16 37  1  0  0  0
 17 38  1  0  0  0
 17 39  1  0  0  0
 18 40  1  0  0  0
 18 41  1  0  0  0
 19 42  1  0  0  0
 19 43  1  0  0  0
M  END
$$$$
