2olb_ligand
  -I-interpret- 

 70 69  0  0  0  0  0  0  0  0999 V2000
    6.9400   16.7800   15.2420 N   0  3  0  0  0
    6.5110   18.1000   14.6390 C   0  0  0  0  0
    5.3150   18.6000   15.4640 C   0  0  0  0  0
    4.5190   17.8340   16.0260 O   0  0  0  0  0
    6.1690   18.0650   13.1680 C   0  0  0  0  0
    5.2840   16.9110   12.7450 C   0  0  0  0  0
    5.2350   16.7790   11.2090 C   0  0  0  0  0
    6.4850   16.0800   10.6940 C   0  0  0  0  0
    6.4490   14.6190   11.0410 N   0  3  0  0  0
    5.2380   19.9040   15.5650 N   0  0  0  0  0
    4.1810   20.5480   16.3260 C   0  0  0  0  0
    2.8690   20.5120   15.5430 C   0  0  0  0  0
    2.8130   20.7590   14.3570 O   0  0  0  0  0
    4.5720   22.0490   16.5940 C   0  0  0  0  0
    5.5030   22.0830   17.8720 C   0  0  0  0  0
    5.7550   23.4500   18.3690 C   0  0  0  0  0
    6.4210   23.5250   19.7390 C   0  0  0  0  0
    7.2180   22.3310   20.1020 N   0  3  0  0  0
    1.8010   20.2070   16.3100 N   0  0  0  0  0
    0.4570   20.1860   15.7510 C   0  0  0  0  0
   -0.5260   20.7670   16.8180 C   0  0  0  0  0
   -1.7000   20.3460   16.8040 O   0  0  0  0  0
    0.0050   18.8020   15.3110 C   0  0  0  0  0
   -1.0890   18.9880   14.2210 C   0  0  0  0  0
   -1.6830   17.6400   13.8820 C   0  0  0  0  0
   -2.6230   17.6560   12.6830 C   0  0  0  0  0
   -3.7330   18.6580   12.8350 N   0  3  0  0  0
   -0.1580   21.6290   17.6390 O   0  0  0  0  0
    7.7358   16.4121   14.7208 H   0  0  0  0  0
    7.2069   16.9233   16.2160 H   0  0  0  0  0
    6.1654   16.1180   15.1943 H   0  0  0  0  0
    7.3654   18.7753   14.6845 H   0  0  0  0  0
    7.1096   17.9549   12.6284 H   0  0  0  0  0
    5.6185   18.9803   12.9507 H   0  0  0  0  0
    4.2738   17.0953   13.1106 H   0  0  0  0  0
    5.6919   15.9895   13.1604 H   0  0  0  0  0
    5.1797   17.7749   10.7695 H   0  0  0  0  0
    4.3605   16.1904   10.9318 H   0  0  0  0  0
    7.3614   16.5333   11.1572 H   0  0  0  0  0
    6.5300   16.1863    9.6101 H   0  0  0  0  0
    7.2926   14.1663   10.6892 H   0  0  0  0  0
    6.4020   14.5125   12.0543 H   0  0  0  0  0
    5.6281   14.1896   10.6143 H   0  0  0  0  0
    5.9373   20.4813   15.0979 H   0  0  0  0  0
    4.0530   20.0175   17.2696 H   0  0  0  0  0
    3.6779   22.6499   16.7602 H   0  0  0  0  0
    5.0952   22.4641   15.7326 H   0  0  0  0  0
    6.4636   21.6496   17.5935 H   0  0  0  0  0
    4.9980   21.5305   18.6643 H   0  0  0  0  0
    4.7832   23.9343   18.4645 H   0  0  0  0  0
    6.4369   23.9215   17.6613 H   0  0  0  0  0
    5.6232   23.6117   20.4766 H   0  0  0  0  0
    7.1081   24.3708   19.7133 H   0  0  0  0  0
    7.6256   22.4643   21.0274 H   0  0  0  0  0
    6.6132   21.5097   20.1107 H   0  0  0  0  0
    7.9623   22.1994   19.4171 H   0  0  0  0  0
    1.9378   19.9878   17.2967 H   0  0  0  0  0
    0.4604   20.7950   14.8470 H   0  0  0  0  0
   -1.7956   19.6911   16.1086 H   0  0  0  0  0
   -0.3942   18.2453   16.1588 H   0  0  0  0  0
    0.8469   18.2365   14.9116 H   0  0  0  0  0
   -0.6459   19.4287   13.3279 H   0  0  0  0  0
   -1.8704   19.6497   14.5947 H   0  0  0  0  0
   -2.2672   17.3197   14.7447 H   0  0  0  0  0
   -0.8547   16.9769   13.6327 H   0  0  0  0  0
   -3.0726   16.6669   12.5950 H   0  0  0  0  0
   -2.0410   17.9299   11.8030 H   0  0  0  0  0
   -4.3312   18.6289   12.0093 H   0  0  0  0  0
   -4.2834   18.4309   13.6632 H   0  0  0  0  0
   -3.3351   19.5918   12.9353 H   0  0  0  0  0
  2  1  1  0  0  0
  2  5  1  0  0  0
  3  2  1  0  0  0
  3  4  2  0  0  0
  5  6  1  0  0  0
  6  7  1  0  0  0
  7  8  1  0  0  0
  8  9  1  0  0  0
 11 10  1  0  0  0
 11 14  1  0  0  0
 12 11  1  0  0  0
 12 13  2  0  0  0
 14 15  1  0  0  0
 15 16  1  0  0  0
 16 17  1  0  0  0
 17 18  1  0  0  0
 10  3  1  0  0  0
 19 20  1  0  0  0
 20 23  1  0  0  0
 20 21  1  0  0  0
 21 22  1  0  0  0
 21 28  2  0  0  0
 23 24  1  0  0  0
 24 25  1  0  0  0
 25 26  1  0  0  0
 26 27  1  0  0  0
 12 19  1  0  0  0
  1 29  1  0  0  0
  1 30  1  0  0  0
  1 31  1  0  0  0
  2 32  1  0  0  0
  5 33  1  0  0  0
  5 34  1  0  0  0
  6 35  1  0  0  0
  6 36  1  0  0  0
  7 37  1  0  0  0
  7 38  1  0  0  0
  8 39  1  0  0  0
  8 40  1  0  0  0
  9 41  1  0  0  0
  9 42  1  0  0  0
  9 43  1  0  0  0
 10 44  1  0  0  0
 11 45  1  0  0  0
 14 46  1  0  0  0
 14 47  1  0  0  0
 15 48  1  0  0  0
 15 49  1  0  0  0
 16 50  1  0  0  0
 16 51  1  0  0  0
 17 52  1  0  0  0
 17 53  1  0  0  0
 18 54  1  0  0  0
 18 55  1  0  0  0
 18 56  1  0  0  0
 19 57  1  0  0  0
 20 58  1  0  0  0
 22 59  1  0  0  0
 23 60  1  0  0  0
 23 61  1  0  0  0
 24 62  1  0  0  0
 24 63  1  0  0  0
 25 64  1  0  0  0
 25 65  1  0  0  0
 26 66  1  0  0  0
 26 67  1  0  0  0
 27 68  1  0  0  0
 27 69  1  0  0  0
 27 70  1  0  0  0
M  END
$$$$
