2ax9_ligand
  -I-interpret- 

 31 31  0  0  0  0  0  0  0  0999 V2000
   30.7480    1.5620    6.2840 Br  0  0  0  0  0
   30.2680    0.0440    5.1690 C   0  0  0  0  0
   29.7970    0.5240    3.7940 C   0  0  0  0  0
   30.8330    1.3130    3.2020 O   0  0  0  0  0
   29.4750   -0.6770    2.9030 C   0  0  0  0  0
   28.5410    1.3860    3.9430 C   0  0  0  0  0
   27.4770    0.8860    4.3090 O   0  0  0  0  0
   28.7280    2.6800    3.6910 N   0  0  0  0  0
   27.7870    3.6220    3.7460 C   0  0  0  0  0
   26.4540    3.3450    4.0380 C   0  0  0  0  0
   28.1540    4.9350    3.4700 C   0  0  0  0  0
   27.1930    5.9390    3.5080 C   0  0  0  0  0
   25.8650    5.6570    3.8170 C   0  0  0  0  0
   25.0390    6.7030    3.8740 N   0  0  0  0  0
   23.6970    6.6110    4.3290 O   0  0  0  0  0
   25.5390    8.0010    3.5840 O   0  0  0  0  0
   25.4740    4.3390    4.0700 C   0  0  0  0  0
   24.0080    3.9230    4.2900 C   0  0  0  0  0
   23.6120    4.2800    5.5080 F   0  0  0  0  0
   23.1820    4.4620    3.3970 F   0  0  0  0  0
   23.8340    2.6090    4.1820 F   0  0  0  0  0
   29.4608   -0.5093    5.6489 H   0  0  0  0  0
   31.1415   -0.5958    5.0430 H   0  0  0  0  0
   31.6248    0.7788    3.1052 H   0  0  0  0  0
   28.6783   -1.2637    3.3602 H   0  0  0  0  0
   29.1522   -0.3248    1.9233 H   0  0  0  0  0
   30.3659   -1.2953    2.7928 H   0  0  0  0  0
   29.6701    2.9749    3.4344 H   0  0  0  0  0
   26.1653    2.3154    4.2491 H   0  0  0  0  0
   29.1887    5.1753    3.2254 H   0  0  0  0  0
   27.4848    6.9667    3.2917 H   0  0  0  0  0
  1  2  1  0  0  0
  2  3  1  0  0  0
  3  4  1  0  0  0
  3  5  1  0  0  0
  3  6  1  0  0  0
  6  7  2  0  0  0
  6  8  1  0  0  0
  8  9  1  0  0  0
  9 10  4  0  0  0
  9 11  4  0  0  0
 10 17  4  0  0  0
 11 12  4  0  0  0
 12 13  4  0  0  0
 13 14  1  0  0  0
 13 17  4  0  0  0
 14 15  2  0  0  0
 14 16  2  0  0  0
 17 18  1  0  0  0
 18 19  1  0  0  0
 18 20  1  0  0  0
 18 21  1  0  0  0
  2 22  1  0  0  0
  2 23  1  0  0  0
  4 24  1  0  0  0
  5 25  1  0  0  0
  5 26  1  0  0  0
  5 27  1  0  0  0
  8 28  1  0  0  0
 10 29  1  0  0  0
 11 30  1  0  0  0
 12 31  1  0  0  0
M  END
$$$$
