6g3y_ligand
  -I-interpret- 

 47 50  0  0  0  0  0  0  0  0999 V2000
    4.7400   14.4620   29.3080 C   0  0  0  0  0
    3.8780   13.5740   26.6730 C   0  0  0  0  0
    4.9360   10.6070   31.2530 C   0  0  0  0  0
    5.5240    8.1080   32.2330 C   0  0  0  0  0
    6.5750    8.9830   31.9790 C   0  0  0  0  0
    6.1400   12.0830   25.3940 C   0  0  0  0  0
    6.4830    9.6720   25.6800 C   0  0  0  0  0
    7.4310   10.5940   22.1790 N   0  0  0  0  0
    6.9810   10.7060   23.5340 C   0  0  0  0  0
    6.5780   11.9680   24.0670 C   0  0  0  0  0
    6.5360   13.2760   23.4690 N   0  0  0  0  0
    6.0600   14.1820   24.4390 C   0  0  0  0  0
    5.9080   15.3690   24.2420 O   0  0  0  0  0
    5.7840   13.4810   25.6450 N   0  0  0  0  0
    5.3030   14.1210   26.8940 C   0  0  0  0  0
    5.8310   14.0700   28.3140 C   0  0  0  0  0
    3.7810   13.4240   29.0030 N   0  0  0  0  0
    2.9360   13.7770   27.8790 C   0  0  0  0  0
    3.8570   12.1230   29.5980 C   0  0  0  0  0
    3.0750   11.2680   29.2310 O   0  0  0  0  0
    4.8050   11.8920   30.6680 N   0  0  0  0  0
    3.8870    9.7130   31.4850 C   0  0  0  0  0
    4.1950    8.4600   31.9910 C   0  0  0  0  0
    5.9600    6.2020   32.9790 I   0  0  0  0  0
    6.2720   10.2330   31.4660 C   0  0  0  0  0
    6.0880   10.9110   26.2130 C   0  0  0  0  0
    6.9290    9.5620   24.3450 C   0  0  0  0  0
    4.3663   15.4808   29.2058 H   0  0  0  0  0
    5.0580   14.5056   30.3497 H   0  0  0  0  0
    3.9651   12.5003   26.5069 H   0  0  0  0  0
    3.4489   14.1178   25.8314 H   0  0  0  0  0
    7.6068    8.6933   32.1779 H   0  0  0  0  0
    6.4444    8.7816   26.3075 H   0  0  0  0  0
    7.4662   11.4212   21.5833 H   0  0  0  0  0
    7.7163    9.6870   21.8097 H   0  0  0  0  0
    6.8034   13.5071   22.5122 H   0  0  0  0  0
    5.6221   15.1614   26.9554 H   0  0  0  0  0
    6.1589   13.0537   28.5324 H   0  0  0  0  0
    6.6615   14.7698   28.4072 H   0  0  0  0  0
    2.0311   13.1722   27.8196 H   0  0  0  0  0
    2.5404   14.7905   27.9450 H   0  0  0  0  0
    5.3843   12.6613   31.0042 H   0  0  0  0  0
    2.8551    9.9935   31.2738 H   0  0  0  0  0
    3.3973    7.7474   32.2006 H   0  0  0  0  0
    7.0750   10.9300   31.2264 H   0  0  0  0  0
    5.7438   10.9787   27.2450 H   0  0  0  0  0
    7.2313    8.5936   23.9464 H   0  0  0  0  0
  1 16  1  0  0  0
 17  1  1  0  0  0
  2 15  1  0  0  0
 18  2  1  0  0  0
 21  3  1  0  0  0
  3 22  4  0  0  0
  3 25  4  0  0  0
  5  4  4  0  0  0
  4 23  4  0  0  0
  4 24  1  0  0  0
 25  5  4  0  0  0
  6 10  4  0  0  0
 14  6  1  0  0  0
  6 26  4  0  0  0
 26  7  4  0  0  0
  7 27  4  0  0  0
  9  8  1  0  0  0
 10  9  4  0  0  0
  9 27  4  0  0  0
 11 10  1  0  0  0
 12 11  1  0  0  0
 12 13  2  0  0  0
 14 12  1  0  0  0
 15 14  1  0  0  0
 16 15  1  0  0  0
 17 18  1  0  0  0
 19 17  1  0  0  0
 19 20  2  0  0  0
 19 21  1  0  0  0
 22 23  4  0  0  0
  1 28  1  0  0  0
  1 29  1  0  0  0
  2 30  1  0  0  0
  2 31  1  0  0  0
  5 32  1  0  0  0
  7 33  1  0  0  0
  8 34  1  0  0  0
  8 35  1  0  0  0
 11 36  1  0  0  0
 15 37  1  0  0  0
 16 38  1  0  0  0
 16 39  1  0  0  0
 18 40  1  0  0  0
 18 41  1  0  0  0
 21 42  1  0  0  0
 22 43  1  0  0  0
 23 44  1  0  0  0
 25 45  1  0  0  0
 26 46  1  0  0  0
 27 47  1  0  0  0
M  END
$$$$
