3e64_ligand
  -I-interpret- 

 43 45  0  0  0  0  0  0  0  0999 V2000
   30.0080   33.3830   38.5690 O   0  0  0  0  0
   32.6360   36.3980   37.0060 C   0  0  0  0  0
   29.1580   35.0050   40.2630 O   0  0  0  0  0
   31.8480   35.4090   37.6030 C   0  0  0  0  0
   33.7460   33.6920   41.3140 C   0  0  0  0  0
   31.3820   33.9130   40.7950 N   0  0  0  0  0
   31.2700   35.6550   38.8510 C   0  0  0  0  0
   32.9110   32.5760   39.2990 C   0  0  0  0  0
   32.2480   31.6990   41.5400 C   0  0  0  0  0
   32.5370   32.9690   40.7350 C   0  0  0  0  0
   30.2760   34.3750   39.5910 S   0  0  0  0  0
   31.4670   36.8690   39.5250 C   0  0  0  0  0
   32.2440   37.8610   38.9180 C   0  0  0  0  0
   32.8600   37.6250   37.6630 C   0  0  0  0  0
   33.6390   38.6620   36.9790 C   0  0  0  0  0
   33.0980   39.9660   37.0080 C   0  0  0  0  0
   33.7580   41.0150   36.3330 C   0  0  0  0  0
   33.5390   42.4050   36.1310 C   0  0  0  0  0
   32.4560   43.0880   36.5580 N   0  0  0  0  0
   34.5070   42.9430   35.3840 N   0  0  0  0  0
   35.3360   41.9210   35.1090 N   0  0  0  0  0
   34.9420   40.7200   35.6530 C   0  0  0  0  0
   35.5060   39.4370   35.5790 C   0  0  0  0  0
   34.8290   38.4080   36.2580 C   0  0  0  0  0
   33.0798   36.2191   36.0266 H   0  0  0  0  0
   31.6863   34.4557   37.0998 H   0  0  0  0  0
   34.6067   33.0233   41.3041 H   0  0  0  0  0
   33.9628   34.5744   40.7119 H   0  0  0  0  0
   33.5307   33.9939   42.3390 H   0  0  0  0  0
   31.2331   34.3506   41.7043 H   0  0  0  0  0
   33.7971   31.9414   39.3164 H   0  0  0  0  0
   32.0823   32.0327   38.8448 H   0  0  0  0  0
   33.1182   33.4758   38.7197 H   0  0  0  0  0
   31.4214   31.1584   41.0790 H   0  0  0  0  0
   33.1361   31.0671   41.5506 H   0  0  0  0  0
   31.9815   31.9706   42.5614 H   0  0  0  0  0
   31.0219   37.0367   40.5057 H   0  0  0  0  0
   32.3769   38.8227   39.4135 H   0  0  0  0  0
   32.1730   40.1619   37.5503 H   0  0  0  0  0
   31.7167   42.6047   37.0682 H   0  0  0  0  0
   32.3768   44.0875   36.3705 H   0  0  0  0  0
   36.4238   39.2473   35.0225 H   0  0  0  0  0
   35.2294   37.3946   36.2280 H   0  0  0  0  0
 11  1  2  0  0  0
  4  2  4  0  0  0
  2 14  4  0  0  0
 11  3  2  0  0  0
  7  4  4  0  0  0
 10  5  1  0  0  0
  6 10  1  0  0  0
 11  6  1  0  0  0
  7 11  1  0  0  0
  7 12  4  0  0  0
 10  8  1  0  0  0
 10  9  1  0  0  0
 12 13  4  0  0  0
 13 14  4  0  0  0
 14 15  1  0  0  0
 15 16  4  0  0  0
 15 24  4  0  0  0
 16 17  4  0  0  0
 17 18  4  0  0  0
 17 22  4  0  0  0
 18 19  1  0  0  0
 18 20  4  0  0  0
 20 21  4  0  0  0
 21 22  4  0  0  0
 22 23  4  0  0  0
 23 24  4  0  0  0
  2 25  1  0  0  0
  4 26  1  0  0  0
  5 27  1  0  0  0
  5 28  1  0  0  0
  5 29  1  0  0  0
  6 30  1  0  0  0
  8 31  1  0  0  0
  8 32  1  0  0  0
  8 33  1  0  0  0
  9 34  1  0  0  0
  9 35  1  0  0  0
  9 36  1  0  0  0
 12 37  1  0  0  0
 13 38  1  0  0  0
 16 39  1  0  0  0
 19 40  1  0  0  0
 19 41  1  0  0  0
 23 42  1  0  0  0
 24 43  1  0  0  0
M  END
$$$$
