5hmk_ligand
  -I-interpret- 

 88 92  0  0  0  0  0  0  0  0999 V2000
   17.4520    4.7330   23.1450 F   0  0  0  0  0
   19.0890    3.2310   22.9000 F   0  0  0  0  0
   17.0020    2.7330   23.5990 F   0  0  0  0  0
   20.1200    4.9160   15.3680 F   0  0  0  0  0
   18.1160    5.3230   16.1750 F   0  0  0  0  0
   19.3720    6.9650   15.4470 F   0  0  0  0  0
   14.2650    2.7170   16.7690 C   0  0  0  0  0
   14.5710    4.1020   16.2130 C   0  0  0  0  0
   15.1300    4.0480   14.7790 C   0  0  0  0  0
   16.2060    3.0090   14.6330 N   0  0  0  0  0
   15.9070    1.6080   15.1690 C   0  0  0  0  0
   15.4810    1.7050   16.6860 C   0  0  0  0  0
   15.1710    0.2610   17.2130 C   0  0  0  0  0
   16.1620   -0.7240   17.3130 N   0  0  0  0  0
   13.9900    0.0010   17.5080 O   0  0  0  0  0
   16.5960    2.3820   17.3400 O   0  0  0  0  0
   16.7540    2.5790   18.6220 C   0  0  0  0  0
   17.8960    3.3520   18.8960 C   0  0  0  0  0
   18.2140    3.6150   20.2600 C   0  0  0  0  0
   17.3720    3.1810   21.3060 C   0  0  0  0  0
   16.2350    2.4230   20.9910 C   0  0  0  0  0
   15.9060    2.1260   19.6510 C   0  0  0  0  0
   17.4260    3.2820   14.0420 C   0  0  0  0  0
   18.4430    2.5250   14.0720 O   0  0  0  0  0
   17.6170    4.5780   13.3010 C   0  0  0  0  0
   17.0770    4.7210   12.0160 C   0  0  0  0  0
   17.2510    5.8100   11.2370 N   0  0  0  0  0
   17.9860    6.8120   11.6590 C   0  0  0  0  0
   18.5430    6.7980   12.9540 C   0  0  0  0  0
   18.3880    5.6700   13.7890 C   0  0  0  0  0
   15.7880   -2.0920   17.8150 C   0  0  0  0  0
   16.3650   -2.1920   19.2670 C   0  0  0  0  0
   17.8440   -2.0940   19.2160 N   0  0  0  0  0
   18.2410   -0.7900   18.5360 C   0  0  0  0  0
   17.6300   -0.6360   17.0760 C   0  0  0  0  0
   18.4390   -2.4990   20.5040 C   0  0  0  0  0
   19.1180   -1.5050   21.2970 C   0  0  0  0  0
   19.6760   -1.8170   22.5340 C   0  0  0  0  0
   19.5460   -3.0870   23.0710 C   0  0  0  0  0
   18.8820   -4.0900   22.3030 C   0  0  0  0  0
   18.3070   -3.8170   21.0100 C   0  0  0  0  0
   17.6000   -4.8370   20.3360 O   0  0  0  0  0
   17.9790   -5.7530   19.2960 C   0  0  0  0  0
   16.7690   -6.4430   18.5600 C   0  0  0  0  0
   16.4060   -5.9540   17.2320 O   0  0  0  0  0
   17.7400    3.4870   22.7420 C   0  0  0  0  0
   19.0110    5.6860   15.1840 C   0  0  0  0  0
   15.0070    0.7750   14.2430 C   0  0  0  0  0
   15.5070    0.7000   12.7890 C   0  0  0  0  0
   14.8610   -0.4100   11.9220 C   0  0  0  0  0
   13.4561    2.2997   16.1693 H   0  0  0  0  0
   14.0183    2.8396   17.8236 H   0  0  0  0  0
   15.3243    4.5631   16.8517 H   0  0  0  0  0
   13.6409    4.6700   16.1914 H   0  0  0  0  0
   15.5617    5.0210   14.5446 H   0  0  0  0  0
   14.3136    3.7903   14.1044 H   0  0  0  0  0
   16.8169    1.0079   15.1581 H   0  0  0  0  0
   18.5192    3.7384   18.0896 H   0  0  0  0  0
   19.1256    4.1622   20.5001 H   0  0  0  0  0
   15.5950    2.0573   21.7940 H   0  0  0  0  0
   15.0083    1.5541   19.4159 H   0  0  0  0  0
   16.4783    3.9008   11.6200 H   0  0  0  0  0
   18.1675    7.6628   11.0023 H   0  0  0  0  0
   19.0977    7.6647   13.3135 H   0  0  0  0  0
   16.1962   -2.8730   17.1735 H   0  0  0  0  0
   14.7071   -2.2325   17.8093 H   0  0  0  0  0
   16.0781   -3.1465   19.7082 H   0  0  0  0  0
   15.9667   -1.3791   19.8742 H   0  0  0  0  0
   19.3270   -0.7825   18.4428 H   0  0  0  0  0
   17.8579    0.0300   19.1434 H   0  0  0  0  0
   17.9236    0.2957   16.5925 H   0  0  0  0  0
   17.9917   -1.3977   16.3853 H   0  0  0  0  0
   19.1964   -0.4855   20.9195 H   0  0  0  0  0
   20.2219   -1.0523   23.0865 H   0  0  0  0  0
   19.9428   -3.3158   24.0601 H   0  0  0  0  0
   18.8071   -5.0988   22.7090 H   0  0  0  0  0
   18.5607   -6.5461   19.7659 H   0  0  0  0  0
   18.5220   -5.1775   18.5464 H   0  0  0  0  0
   15.8994   -6.2485   19.1877 H   0  0  0  0  0
   17.0722   -7.4797   18.4138 H   0  0  0  0  0
   15.6588   -6.4572   16.9002 H   0  0  0  0  0
   14.0284    1.2547   14.2248 H   0  0  0  0  0
   14.9932   -0.2424   14.6339 H   0  0  0  0  0
   16.5729    0.4774   12.8370 H   0  0  0  0  0
   15.2495    1.6503   12.3214 H   0  0  0  0  0
   15.0635   -1.3830   12.3697 H   0  0  0  0  0
   13.7841   -0.2491   11.8712 H   0  0  0  0  0
   15.2825   -0.3760   10.9174 H   0  0  0  0  0
 46  1  1  0  0  0
 46  2  1  0  0  0
 46  3  1  0  0  0
 47  4  1  0  0  0
 47  5  1  0  0  0
 47  6  1  0  0  0
  8  7  1  0  0  0
 12  7  1  0  0  0
  9  8  1  0  0  0
 10  9  1  0  0  0
 10 11  1  0  0  0
 23 10  1  0  0  0
 11 12  1  0  0  0
 11 48  1  0  0  0
 12 13  1  0  0  0
 12 16  1  0  0  0
 13 14  1  0  0  0
 13 15  2  0  0  0
 14 31  1  0  0  0
 14 35  1  0  0  0
 16 17  1  0  0  0
 17 18  4  0  0  0
 17 22  4  0  0  0
 18 19  4  0  0  0
 19 20  4  0  0  0
 21 20  4  0  0  0
 20 46  1  0  0  0
 22 21  4  0  0  0
 23 24  2  0  0  0
 25 23  1  0  0  0
 25 26  4  0  0  0
 30 25  4  0  0  0
 26 27  4  0  0  0
 28 27  4  0  0  0
 29 28  4  0  0  0
 30 29  4  0  0  0
 30 47  1  0  0  0
 31 32  1  0  0  0
 32 33  1  0  0  0
 33 34  1  0  0  0
 33 36  1  0  0  0
 34 35  1  0  0  0
 36 37  4  0  0  0
 36 41  4  0  0  0
 37 38  4  0  0  0
 38 39  4  0  0  0
 39 40  4  0  0  0
 40 41  4  0  0  0
 41 42  1  0  0  0
 42 43  1  0  0  0
 43 44  1  0  0  0
 44 45  1  0  0  0
 48 49  1  0  0  0
 49 50  1  0  0  0
  7 51  1  0  0  0
  7 52  1  0  0  0
  8 53  1  0  0  0
  8 54  1  0  0  0
  9 55  1  0  0  0
  9 56  1  0  0  0
 11 57  1  0  0  0
 18 58  1  0  0  0
 19 59  1  0  0  0
 21 60  1  0  0  0
 22 61  1  0  0  0
 26 62  1  0  0  0
 28 63  1  0  0  0
 29 64  1  0  0  0
 31 65  1  0  0  0
 31 66  1  0  0  0
 32 67  1  0  0  0
 32 68  1  0  0  0
 34 69  1  0  0  0
 34 70  1  0  0  0
 35 71  1  0  0  0
 35 72  1  0  0  0
 37 73  1  0  0  0
 38 74  1  0  0  0
 39 75  1  0  0  0
 40 76  1  0  0  0
 43 77  1  0  0  0
 43 78  1  0  0  0
 44 79  1  0  0  0
 44 80  1  0  0  0
 45 81  1  0  0  0
 48 82  1  0  0  0
 48 83  1  0  0  0
 49 84  1  0  0  0
 49 85  1  0  0  0
 50 86  1  0  0  0
 50 87  1  0  0  0
 50 88  1  0  0  0
M  END
$$$$
