3opm_ligand
  -I-interpret- 

 54 56  0  0  0  0  0  0  0  0999 V2000
   18.3500  -32.8510   13.6900 C   0  0  0  0  0
   17.7940  -31.6790   13.1880 C   0  0  0  0  0
   16.6670  -31.1300   13.8180 C   0  0  0  0  0
   16.1030  -33.6310   16.6280 C   0  0  0  0  0
   18.3430  -34.7130   15.3530 C   0  0  0  0  0
   21.9730  -35.3770   14.8280 C   0  0  0  0  0
   20.7560  -36.6580   13.1920 C   0  0  0  0  0
   18.3450  -36.5980   17.0620 C   0  0  0  0  0
   14.6300  -36.0250   17.9110 C   0  0  0  0  0
   14.2800  -37.1710   18.8440 C   0  0  0  0  0
   14.6120  -36.5640   16.4910 C   0  0  0  0  0
   18.2630  -29.9640    9.9490 C   0  0  0  0  0
   17.7190  -29.1570    9.1940 O   0  0  0  0  0
   19.4270  -30.5810    9.7230 N   0  0  0  0  0
   17.5750  -30.2850   11.2390 C   0  0  0  0  0
   18.3800  -31.1050   12.0830 O   0  0  0  0  0
   16.1120  -31.7600   14.9310 C   0  0  0  0  0
   17.7820  -33.4660   14.8090 C   0  0  0  0  0
   17.7180  -35.3250   16.5490 C   0  0  0  0  0
   19.4800  -36.2540   17.8830 N   0  3  0  0  0
   16.6320  -34.7610   17.1180 N   0  0  0  0  0
   15.9640  -35.3520   18.2920 C   0  0  0  0  0
   15.1040  -33.1420   17.1930 O   0  0  0  0  0
   16.6700  -32.9340   15.4340 C   0  0  0  0  0
   19.5600  -35.2890   14.7420 C   0  0  0  0  0
   19.5480  -36.1680   13.6760 C   0  0  0  0  0
   21.9630  -36.2640   13.7630 C   0  0  0  0  0
   20.7690  -34.8900   15.3100 C   0  0  0  0  0
   19.2264  -33.2886   13.2119 H   0  0  0  0  0
   16.2247  -30.2096   13.4367 H   0  0  0  0  0
   22.9151  -35.0669   15.2800 H   0  0  0  0  0
   20.7579  -37.3581   12.3566 H   0  0  0  0  0
   18.6669  -37.2167   16.2244 H   0  0  0  0  0
   17.6183  -37.1588   17.6498 H   0  0  0  0  0
   13.8920  -35.2275   17.9980 H   0  0  0  0  0
   13.2894  -37.5512   18.5947 H   0  0  0  0  0
   15.0154  -37.9675   18.7308 H   0  0  0  0  0
   14.2849  -36.8139   19.8738 H   0  0  0  0  0
   15.3444  -37.3660   16.3988 H   0  0  0  0  0
   13.6184  -36.9497   16.2627 H   0  0  0  0  0
   14.8603  -35.7618   15.7961 H   0  0  0  0  0
   19.9433  -30.3967    8.8628 H   0  0  0  0  0
   19.7989  -31.2361   10.4107 H   0  0  0  0  0
   16.6576  -30.8275   11.0106 H   0  0  0  0  0
   17.3760  -29.3494   11.7615 H   0  0  0  0  0
   15.2334  -31.3304   15.4123 H   0  0  0  0  0
   19.9134  -37.1070   18.2365 H   0  0  0  0  0
   20.1567  -35.7336   17.3247 H   0  0  0  0  0
   19.1697  -35.6790   18.6663 H   0  0  0  0  0
   16.6223  -36.1103   18.7159 H   0  0  0  0  0
   15.7549  -34.5548   19.0054 H   0  0  0  0  0
   18.6055  -36.4728   13.2212 H   0  0  0  0  0
   22.9025  -36.6541   13.3715 H   0  0  0  0  0
   20.7669  -34.1868   16.1429 H   0  0  0  0  0
  1  2  4  0  0  0
 18  1  4  0  0  0
  2  3  4  0  0  0
  2 16  1  0  0  0
 17  3  4  0  0  0
 21  4  1  0  0  0
  4 23  2  0  0  0
 24  4  1  0  0  0
  5 18  1  0  0  0
  5 19  2  0  0  0
 25  5  1  0  0  0
 27  6  4  0  0  0
  6 28  4  0  0  0
 26  7  4  0  0  0
  7 27  4  0  0  0
 19  8  1  0  0  0
  8 20  1  0  0  0
  9 10  1  0  0  0
  9 11  1  0  0  0
 22  9  1  0  0  0
 12 13  2  0  0  0
 12 14  1  0  0  0
 15 12  1  0  0  0
 16 15  1  0  0  0
 24 17  4  0  0  0
 18 24  4  0  0  0
 19 21  1  0  0  0
 21 22  1  0  0  0
 25 26  4  0  0  0
 25 28  4  0  0  0
  1 29  1  0  0  0
  3 30  1  0  0  0
  6 31  1  0  0  0
  7 32  1  0  0  0
  8 33  1  0  0  0
  8 34  1  0  0  0
  9 35  1  0  0  0
 10 36  1  0  0  0
 10 37  1  0  0  0
 10 38  1  0  0  0
 11 39  1  0  0  0
 11 40  1  0  0  0
 11 41  1  0  0  0
 14 42  1  0  0  0
 14 43  1  0  0  0
 15 44  1  0  0  0
 15 45  1  0  0  0
 17 46  1  0  0  0
 20 47  1  0  0  0
 20 48  1  0  0  0
 20 49  1  0  0  0
 22 50  1  0  0  0
 22 51  1  0  0  0
 26 52  1  0  0  0
 27 53  1  0  0  0
 28 54  1  0  0  0
M  END
$$$$
