4kyk_ligand
  -I-interpret- 

 41 43  0  0  0  0  0  0  0  0999 V2000
   20.6010   13.9640   61.0470 C   0  0  0  0  0
   20.5860   15.1390   60.2820 C   0  0  0  0  0
   20.4870   15.0430   58.8970 C   0  0  0  0  0
   20.4090   13.7890   58.3050 C   0  0  0  0  0
   20.4350   12.6310   59.0700 C   0  0  0  0  0
   20.5320   12.7130   60.4470 C   0  0  0  0  0
   20.2140   12.4240   56.3570 C   0  0  0  0  0
   20.6680   16.2440   61.1970 C   0  0  0  0  0
   20.7100   15.7530   62.4570 C   0  0  0  0  0
   20.7790   13.4600   63.5280 C   0  0  0  0  0
   19.8850   12.2610   63.5980 C   0  0  0  0  0
   20.3250   11.1460   64.3000 C   0  0  0  0  0
   19.5440   10.0110   64.3890 C   0  0  0  0  0
   18.3190    9.9840   63.7590 C   0  0  0  0  0
   17.8480   11.0830   63.0720 C   0  0  0  0  0
   18.6310   12.2190   62.9950 C   0  0  0  0  0
   20.7540   16.5110   63.7390 C   0  0  0  0  0
   20.7380   17.6940   60.7970 C   0  0  0  0  0
   19.4750   18.1200   60.0980 C   0  0  0  0  0
   20.6820   14.3510   62.4100 N   0  0  0  0  0
   20.3000   13.7190   56.9410 O   0  0  0  0  0
   21.5920   13.6680   64.4080 O   0  0  0  0  0
   19.4550   18.7500   59.0700 O   0  0  0  0  0
   18.4060   17.7310   60.7020 O   0  0  0  0  0
   17.3840    8.5140   63.7740 Cl  0  0  0  0  0
   20.4708   15.9433   58.2828 H   0  0  0  0  0
   20.3789   11.6565   58.5850 H   0  0  0  0  0
   20.5540   11.8078   61.0538 H   0  0  0  0  0
   21.1093   11.8544   56.6060 H   0  0  0  0  0
   19.3349   11.9095   56.7450 H   0  0  0  0  0
   20.1322   12.5198   55.2743 H   0  0  0  0  0
   21.2999   11.1675   64.7871 H   0  0  0  0  0
   19.8929    9.1452   64.9519 H   0  0  0  0  0
   16.8684   11.0559   62.5947 H   0  0  0  0  0
   18.2626   13.0919   62.4561 H   0  0  0  0  0
   21.6462   17.1369   63.7591 H   0  0  0  0  0
   19.8665   17.1386   63.8191 H   0  0  0  0  0
   20.7814   15.8101   64.5733 H   0  0  0  0  0
   21.5782   17.8295   60.1160 H   0  0  0  0  0
   20.8631   18.2995   61.6946 H   0  0  0  0  0
   18.6462   17.2482   61.4962 H   0  0  0  0  0
  1  2  4  0  0  0
  1  6  4  0  0  0
 20  1  4  0  0  0
  2  3  4  0  0  0
  8  2  4  0  0  0
  3  4  4  0  0  0
  5  4  4  0  0  0
  4 21  1  0  0  0
  6  5  4  0  0  0
 21  7  1  0  0  0
  9  8  4  0  0  0
  8 18  1  0  0  0
  9 17  1  0  0  0
 20  9  4  0  0  0
 10 11  1  0  0  0
 10 20  1  0  0  0
 10 22  2  0  0  0
 11 12  4  0  0  0
 11 16  4  0  0  0
 12 13  4  0  0  0
 13 14  4  0  0  0
 14 15  4  0  0  0
 14 25  1  0  0  0
 15 16  4  0  0  0
 18 19  1  0  0  0
 19 23  2  0  0  0
 19 24  1  0  0  0
  3 26  1  0  0  0
  5 27  1  0  0  0
  6 28  1  0  0  0
  7 29  1  0  0  0
  7 30  1  0  0  0
  7 31  1  0  0  0
 12 32  1  0  0  0
 13 33  1  0  0  0
 15 34  1  0  0  0
 16 35  1  0  0  0
 17 36  1  0  0  0
 17 37  1  0  0  0
 17 38  1  0  0  0
 18 39  1  0  0  0
 18 40  1  0  0  0
 24 41  1  0  0  0
M  END
$$$$
