1f92_ligand
  -I-interpret- 

 92 94  0  0  0  0  0  0  0  0999 V2000
   31.6590    9.9960   27.9900 N   0  0  0  0  0
   30.2070    9.9320   28.0070 C   0  0  0  0  0
   32.6280    4.2320   27.7640 C   0  0  0  0  0
   30.3990    9.0980   30.1770 O   0  0  0  0  0
   29.7540    8.7560   27.1090 C   0  0  0  0  0
   30.1480    7.0900   27.7780 C   0  0  0  0  0
   31.2820    6.3160   27.4730 C   0  0  0  0  0
   31.4950    5.0290   28.0620 C   0  0  0  0  0
   30.4890    4.5810   28.9770 C   0  0  0  0  0
   29.3580    5.3590   29.2780 C   0  0  0  0  0
   29.1970    6.5990   28.6780 C   0  0  0  0  0
   32.5900    2.9900   27.7940 N   0  0  0  0  0
   33.8070    4.6630   27.4200 N   0  0  0  0  0
   29.6840    9.7800   29.4370 C   0  0  0  0  0
   31.5900   12.6370   28.0800 C   0  0  0  0  0
   31.7500   12.8130   29.4820 C   0  0  0  0  0
   31.0930   13.8770   30.1310 C   0  0  0  0  0
   30.2750   14.7770   29.4330 C   0  0  0  0  0
   30.1240   14.5950   28.0480 C   0  0  0  0  0
   30.7610   13.5460   27.3510 C   0  0  0  0  0
   32.6300   11.8780   30.3600 C   0  0  0  0  0
   32.0080   11.3980   31.7110 C   0  0  0  0  0
   33.9700   12.5970   30.6480 C   0  0  0  0  0
   30.4990   13.4630   25.8130 C   0  0  0  0  0
   29.2990   14.3090   25.2880 C   0  0  0  0  0
   31.7960   13.8740   25.0610 C   0  0  0  0  0
   29.5630   15.9340   30.1640 C   0  0  0  0  0
   30.4990   16.5520   31.2360 C   0  0  0  0  0
   28.2440   15.4270   30.8150 C   0  0  0  0  0
   32.4540   11.2360   27.2800 S   0  0  0  0  0
   33.8460   11.1910   27.6990 O   0  0  0  0  0
   32.2220   11.1400   25.8530 O   0  0  0  0  0
   28.5060   10.3520   29.8970 N   0  0  0  0  0
   28.1020   10.1310   31.2920 C   0  0  0  0  0
   27.8850   11.5420   31.8800 C   0  0  0  0  0
   26.6970   12.1140   31.2380 N   0  0  0  0  0
   26.9930   12.1820   29.7220 C   0  0  0  0  0
   27.3050   10.9740   29.0810 C   0  0  0  0  0
   25.8310   12.9190   31.9340 C   0  0  0  0  0
   25.0310   13.6610   31.3740 O   0  0  0  0  0
   25.7870   12.9630   33.4550 C   0  0  0  0  0
   24.7450   13.9910   33.9940 C   0  0  0  0  0
   25.0050   14.3210   35.4170 N   0  3  0  0  0
   32.1951    9.2491   28.4318 H   0  0  0  0  0
   29.7917   10.8611   27.6167 H   0  0  0  0  0
   30.2863    8.8538   26.1629 H   0  0  0  0  0
   28.6689    8.8178   27.0259 H   0  0  0  0  0
   32.0177    6.7064   26.7698 H   0  0  0  0  0
   30.6037    3.6078   29.4542 H   0  0  0  0  0
   28.6105    4.9895   29.9800 H   0  0  0  0  0
   28.3173    7.1989   28.9111 H   0  0  0  0  0
   31.7229    2.5121   28.0392 H   0  0  0  0  0
   34.5536    3.9985   27.2166 H   0  0  0  0  0
   33.9843    5.6653   27.3538 H   0  0  0  0  0
   31.2242   14.0041   31.2056 H   0  0  0  0  0
   29.4927   15.2883   27.4923 H   0  0  0  0  0
   32.7478   10.9656   29.7753 H   0  0  0  0  0
   31.7811   12.2639   32.3330 H   0  0  0  0  0
   31.0916   10.8428   31.5107 H   0  0  0  0  0
   32.7190   10.7537   32.2283 H   0  0  0  0  0
   34.4760   12.8105   29.7065 H   0  0  0  0  0
   33.7740   13.5300   31.1763 H   0  0  0  0  0
   34.6004   11.9551   31.2633 H   0  0  0  0  0
   30.2193   12.4281   25.6157 H   0  0  0  0  0
   28.3818   13.9771   25.7744 H   0  0  0  0  0
   29.4715   15.3613   25.5141 H   0  0  0  0  0
   29.2079   14.1779   24.2098 H   0  0  0  0  0
   32.0662   14.8936   25.3358 H   0  0  0  0  0
   32.6041   13.1961   25.3358 H   0  0  0  0  0
   31.6240   13.8195   23.9860 H   0  0  0  0  0
   29.3150   16.7082   29.4378 H   0  0  0  0  0
   30.7726   15.7867   31.9623 H   0  0  0  0  0
   31.3983   16.9352   30.7539 H   0  0  0  0  0
   29.9813   17.3667   31.7423 H   0  0  0  0  0
   27.5854   15.0345   30.0402 H   0  0  0  0  0
   28.4738   14.6388   31.5319 H   0  0  0  0  0
   27.7520   16.2538   31.3274 H   0  0  0  0  0
   28.8592    9.5767   31.8466 H   0  0  0  0  0
   27.1982    9.5251   31.3574 H   0  0  0  0  0
   28.7566   12.1693   31.6930 H   0  0  0  0  0
   27.7432   11.4857   32.9593 H   0  0  0  0  0
   27.8769   12.8114   29.6187 H   0  0  0  0  0
   26.0753   12.5392   29.2547 H   0  0  0  0  0
   26.4474   10.3015   29.0628 H   0  0  0  0  0
   27.5764   11.1370   28.0380 H   0  0  0  0  0
   26.7720   13.2650   33.8110 H   0  0  0  0  0
   25.4987   11.9741   33.8115 H   0  0  0  0  0
   23.7501   13.5529   33.9142 H   0  0  0  0  0
   24.8207   14.9050   33.4050 H   0  0  0  0  0
   24.3100   14.9934   35.7413 H   0  0  0  0  0
   24.9455   13.4713   35.9782 H   0  0  0  0  0
   25.9376   14.7243   35.5063 H   0  0  0  0  0
  2  1  1  0  0  0
  1 30  1  0  0  0
  5  2  1  0  0  0
  2 14  1  0  0  0
  8  3  1  0  0  0
  3 12  2  0  0  0
  3 13  1  0  0  0
 14  4  2  0  0  0
  6  7  4  0  0  0
  6 11  4  0  0  0
  7  8  4  0  0  0
  8  9  4  0  0  0
 10  9  4  0  0  0
 11 10  4  0  0  0
 14 33  1  0  0  0
 15 16  4  0  0  0
 15 20  4  0  0  0
 30 15  1  0  0  0
 16 17  4  0  0  0
 16 21  1  0  0  0
 17 18  4  0  0  0
 19 18  4  0  0  0
 18 27  1  0  0  0
 20 19  4  0  0  0
 20 24  1  0  0  0
 21 22  1  0  0  0
 21 23  1  0  0  0
 24 25  1  0  0  0
 24 26  1  0  0  0
 27 28  1  0  0  0
 27 29  1  0  0  0
 30 31  2  0  0  0
 30 32  2  0  0  0
 33 34  1  0  0  0
 33 38  1  0  0  0
 34 35  1  0  0  0
 35 36  1  0  0  0
 37 36  1  0  0  0
 36 39  1  0  0  0
 38 37  1  0  0  0
 39 40  2  0  0  0
 39 41  1  0  0  0
 41 42  1  0  0  0
 42 43  1  0  0  0
  5  6  1  0  0  0
  1 44  1  0  0  0
  2 45  1  0  0  0
  5 46  1  0  0  0
  5 47  1  0  0  0
  7 48  1  0  0  0
  9 49  1  0  0  0
 10 50  1  0  0  0
 11 51  1  0  0  0
 12 52  1  0  0  0
 13 53  1  0  0  0
 13 54  1  0  0  0
 17 55  1  0  0  0
 19 56  1  0  0  0
 21 57  1  0  0  0
 22 58  1  0  0  0
 22 59  1  0  0  0
 22 60  1  0  0  0
 23 61  1  0  0  0
 23 62  1  0  0  0
 23 63  1  0  0  0
 24 64  1  0  0  0
 25 65  1  0  0  0
 25 66  1  0  0  0
 25 67  1  0  0  0
 26 68  1  0  0  0
 26 69  1  0  0  0
 26 70  1  0  0  0
 27 71  1  0  0  0
 28 72  1  0  0  0
 28 73  1  0  0  0
 28 74  1  0  0  0
 29 75  1  0  0  0
 29 76  1  0  0  0
 29 77  1  0  0  0
 34 78  1  0  0  0
 34 79  1  0  0  0
 35 80  1  0  0  0
 35 81  1  0  0  0
 37 82  1  0  0  0
 37 83  1  0  0  0
 38 84  1  0  0  0
 38 85  1  0  0  0
 41 86  1  0  0  0
 41 87  1  0  0  0
 42 88  1  0  0  0
 42 89  1  0  0  0
 43 90  1  0  0  0
 43 91  1  0  0  0
 43 92  1  0  0  0
M  END
$$$$
