2w2i_ligand
  -I-interpret- 

 17 17  0  0  0  0  0  0  0  0999 V2000
   10.9860   35.0150   86.1640 O   0  0  0  0  0
   10.6850   36.2190   86.1970 C   0  0  0  0  0
   10.7930   37.0110   85.2560 O   0  0  0  0  0
   10.2150   36.8390   87.5140 C   0  0  0  0  0
   10.7780   36.3560   88.6920 C   0  0  0  0  0
   10.4080   36.8820   89.9140 C   0  0  0  0  0
    9.2600   37.8660   87.5340 C   0  0  0  0  0
    8.9330   38.3660   88.8240 C   0  0  0  0  0
    9.5120   37.8350   89.9290 N   0  0  0  0  0
    7.8890   39.3990   89.0310 C   0  0  0  0  0
    7.4640   40.0080   88.0200 O   0  0  0  0  0
    7.3770   39.4730   90.2170 O   0  0  0  0  0
   10.8095   34.6186   87.0203 H   0  0  0  0  0
   11.5170   35.5559   88.6494 H   0  0  0  0  0
   10.8500   36.5136   90.8398 H   0  0  0  0  0
    8.8009   38.2535   86.6245 H   0  0  0  0  0
    7.8795   38.9165   90.8165 H   0  0  0  0  0
  1  2  1  0  0  0
  2  3  2  0  0  0
  2  4  1  0  0  0
  4  5  4  0  0  0
  4  7  4  0  0  0
  5  6  4  0  0  0
  6  9  4  0  0  0
  7  8  4  0  0  0
  8  9  4  0  0  0
  8 10  1  0  0  0
 10 11  2  0  0  0
 10 12  1  0  0  0
  1 13  1  0  0  0
  5 14  1  0  0  0
  6 15  1  0  0  0
  7 16  1  0  0  0
 12 17  1  0  0  0
M  END
$$$$
