5l7f_ligand
  -I-interpret- 

223232  0  0  0  0  0  0  0  0999 V2000
   11.7770    1.4210   22.4570 N   0  0  0  0  0
    1.2500   -9.0770   25.9780 C   0  0  0  0  0
   -1.2260   -8.4580   25.6560 O   0  0  0  0  0
    4.1210   -5.0390   23.3740 N   0  3  0  0  0
    1.9380   -8.0130   25.3380 C   0  0  0  0  0
   13.1330    1.9110   20.7380 O   0  0  0  0  0
   12.1770    1.2760   21.1660 C   0  0  0  0  0
   11.6830    0.2520   23.3670 C   0  0  0  0  0
   10.3280   -0.4540   23.4570 C   0  0  0  0  0
   10.3200   -1.5870   24.4820 C   0  0  0  0  0
    9.2360   -2.4960   24.2210 O   0  0  0  0  0
    7.9180   -1.9450   24.3980 C   0  0  0  0  0
    7.3070   -2.3710   25.7270 C   0  0  0  0  0
    8.2550   -2.0490   26.7320 O   0  0  0  0  0
    7.7870   -1.1240   27.6850 C   0  0  0  0  0
    8.9390   -0.6820   28.5620 C   0  0  0  0  0
    9.3230   -1.7530   29.4400 O   0  0  0  0  0
   10.7120   -2.1720   29.3860 C   0  0  0  0  0
   11.3740   -2.1410   30.7590 C   0  0  0  0  0
   10.6220   -2.8950   31.8320 C   0  0  0  0  0
   11.5730    0.1490   20.3120 C   0  0  0  0  0
   12.4380   -0.2750   19.1210 C   0  0  0  0  0
   12.2200   -1.7480   18.8020 C   0  0  0  0  0
   12.8980   -2.5960   19.8680 C   0  0  0  0  0
   12.8490   -4.0140   19.5170 N   0  3  0  0  0
   13.8670   -4.6680   18.9300 C   0  0  0  0  0
   13.5040   -6.0130   18.7600 C   0  0  0  0  0
   14.4140   -6.9140   18.1620 C   0  0  0  0  0
   14.0990   -8.2670   17.9690 C   0  0  0  0  0
   15.0150   -9.1270   17.3680 C   0  0  0  0  0
   14.6470  -10.6680   17.1390 S   0  0  0  0  0
   13.1980  -10.7510   16.3730 O   0  0  0  0  0
   14.5930  -11.4100   18.5970 O   0  0  0  0  0
   15.7480  -11.4250   16.1830 O   0  0  0  0  0
   16.2520   -8.6480   16.9610 C   0  0  0  0  0
   16.6040   -7.3140   17.1360 C   0  0  0  0  0
   18.0640   -6.8690   16.6160 S   0  0  0  0  0
   18.9100   -8.1160   15.9670 O   0  0  0  0  0
   17.9030   -5.7510   15.4240 O   0  0  0  0  0
   18.9440   -6.2700   17.8590 O   0  0  0  0  0
   15.6800   -6.4390   17.7400 C   0  0  0  0  0
   16.0080   -5.0880   17.9310 C   0  0  0  0  0
   15.1150   -4.2130   18.5160 C   0  0  0  0  0
   12.1180   -6.3020   19.2780 C   0  0  0  0  0
   11.1480   -6.7340   18.1720 C   0  0  0  0  0
   12.1440   -7.2560   20.4870 C   0  0  0  0  0
   11.8400   -4.8960   19.7390 C   0  0  0  0  0
   10.5700   -4.4350   20.3870 C   0  0  0  0  0
    9.4040   -5.2740   20.6500 C   0  0  0  0  0
    8.2340   -4.7370   21.0250 C   0  0  0  0  0
    7.2170   -5.7020   21.3780 C   0  0  0  0  0
    6.3530   -5.1680   22.2650 C   0  0  0  0  0
    5.2050   -5.7490   23.0110 C   0  0  0  0  0
    5.2360   -7.1790   23.4820 C   0  0  0  0  0
    6.3650   -7.4290   24.5030 C   0  0  0  0  0
    5.2180   -8.1830   22.2940 C   0  0  0  0  0
    3.8760   -3.6020   23.1240 C   0  0  0  0  0
    3.1870   -3.3880   21.8260 C   0  0  0  0  0
    3.2790   -5.8830   24.0330 C   0  0  0  0  0
    3.8810   -7.1600   24.1300 C   0  0  0  0  0
    3.2320   -8.2450   24.7730 C   0  0  0  0  0
    2.0050   -5.6770   24.5820 C   0  0  0  0  0
    1.3410   -6.7280   25.2140 C   0  0  0  0  0
   -0.2280   -8.8570   26.6480 S   0  0  0  0  0
   -0.0130   -7.8750   27.6750 O   0  0  0  0  0
   -0.7010  -10.2510   27.4460 O   0  0  0  0  0
    1.8470  -10.3460   26.0710 C   0  0  0  0  0
    3.1100  -10.5950   25.5300 C   0  0  0  0  0
    3.8000   -9.5450   24.8780 C   0  0  0  0  0
    3.7870  -12.1060   25.7140 S   0  0  0  0  0
    4.8840  -12.2280   24.7650 O   0  0  0  0  0
    2.8020  -13.1340   25.5880 O   0  0  0  0  0
    4.2700  -12.2620   27.2820 O   0  0  0  0  0
    9.7640   -7.0360   39.1970 O   0  0  0  0  0
   12.9420   -3.6120   41.7560 N   0  0  0  0  0
   12.2160   -4.7290   41.8780 O   0  0  0  0  0
    9.1940   -5.9990   39.3590 C   0  0  0  0  0
    8.7510   -5.5910   40.7280 C   0  0  0  0  0
    9.8980   -5.6790   41.6810 C   0  0  0  0  0
   10.7850   -3.2420   41.2300 C   0  0  0  0  0
   12.0960   -2.6890   41.3310 C   0  0  0  0  0
   12.5520   -1.3000   41.1320 C   0  0  0  0  0
   11.7070   -0.3300   40.7420 C   0  0  0  0  0
   12.1390    0.9740   40.6030 C   0  0  0  0  0
   13.4660    1.3040   40.8590 C   0  0  0  0  0
   14.3760    0.3150   41.2330 C   0  0  0  0  0
   13.9410   -0.9940   41.4000 C   0  0  0  0  0
   10.9150   -4.5840   41.5540 C   0  0  0  0  0
   17.4220    4.5640   40.0580 Cl  0  0  0  0  0
   15.6790    4.2700   40.2610 C   0  0  0  0  0
   15.2810    2.9710   40.4810 C   0  0  0  0  0
   14.7690    5.2860   40.2040 C   0  0  0  0  0
   13.4330    5.0200   40.3520 C   0  0  0  0  0
   12.9920    3.7350   40.5330 C   0  0  0  0  0
   13.8980    2.6940   40.6360 C   0  0  0  0  0
    7.7130   -6.6200   41.1360 C   0  0  0  0  0
    6.7790   -6.1090   42.5910 P   0  0  0  0  0
    7.5670   -6.3120   43.9570 O   0  0  0  0  0
    6.3680   -4.7040   42.4030 O   0  0  0  0  0
    5.2890   -7.0780   42.6150 C   0  0  0  0  0
    4.1070   -6.4790   42.9470 C   0  0  0  0  0
    2.9160   -7.2080   42.9890 C   0  0  0  0  0
    2.9200   -8.5900   42.7270 C   0  0  0  0  0
    1.2790   -9.5800   42.8570 Br  0  0  0  0  0
    4.1140   -9.2360   42.4120 C   0  0  0  0  0
    5.3350   -8.4640   42.3370 C   0  0  0  0  0
    8.8440   -5.2270   38.3450 N   0  0  0  0  0
    9.1040   -5.6280   36.9670 C   0  0  0  0  0
   10.1880   -5.0230   36.2360 C   0  0  0  0  0
   10.4780   -3.8840   36.4000 O   0  0  0  0  0
    7.8360   -5.3330   36.1230 C   0  0  0  0  0
    6.5740   -5.7530   36.8570 C   0  0  0  0  0
    5.3310   -5.1470   36.3140 C   0  0  0  0  0
    4.6980   -5.8220   35.4890 O   0  0  0  0  0
    4.9440   -3.9370   36.7780 O   0  0  0  0  0
   10.7300   -5.8030   35.3110 N   0  0  0  0  0
   11.7270   -5.3390   34.3870 C   0  0  0  0  0
   10.8270   -4.5730   33.4000 C   0  0  0  0  0
    9.7730   -5.1080   33.0040 O   0  0  0  0  0
   12.4420   -6.5020   33.7710 C   0  0  0  0  0
   12.9640   -6.1250   32.3820 C   0  0  0  0  0
   14.0690   -7.0790   31.9610 C   0  0  0  0  0
   14.5190   -6.9940   30.8280 O   0  0  0  0  0
   14.5790   -7.9920   32.7760 O   0  0  0  0  0
   11.1880   -3.4150   32.8780 N   0  0  0  0  0
   11.5374    2.3488   22.8064 H   0  0  0  0  0
   11.8840    0.6371   24.3667 H   0  0  0  0  0
   12.3779   -0.4887   22.9714 H   0  0  0  0  0
   10.1099   -0.8852   22.4800 H   0  0  0  0  0
    9.5868    0.2827   23.7669 H   0  0  0  0  0
   10.1936   -1.1623   25.4779 H   0  0  0  0  0
   11.2620   -2.1313   24.4151 H   0  0  0  0  0
    7.2807   -2.3102   23.5927 H   0  0  0  0  0
    7.9945   -0.8577   24.3865 H   0  0  0  0  0
    7.0857   -3.4383   25.7289 H   0  0  0  0  0
    6.3628   -1.8559   25.9038 H   0  0  0  0  0
    7.0187   -1.5919   28.3006 H   0  0  0  0  0
    7.3635   -0.2584   27.1756 H   0  0  0  0  0
    8.6294    0.1774   29.1567 H   0  0  0  0  0
    9.7868   -0.4109   27.9329 H   0  0  0  0  0
   11.2496   -1.4839   28.7337 H   0  0  0  0  0
   10.7439   -3.1968   29.0162 H   0  0  0  0  0
   11.4153   -1.0973   31.0707 H   0  0  0  0  0
   12.3482   -2.6188   30.6553 H   0  0  0  0  0
   10.2491   -3.7691   31.2982 H   0  0  0  0  0
    9.9774   -2.1279   32.2611 H   0  0  0  0  0
   10.6326    0.5231   19.9073 H   0  0  0  0  0
   11.4698   -0.7223   20.9587 H   0  0  0  0  0
   13.4872   -0.1181   19.3714 H   0  0  0  0  0
   12.1604    0.3208   18.2515 H   0  0  0  0  0
   12.6464   -1.9780   17.8256 H   0  0  0  0  0
   11.1519   -1.9649   18.7865 H   0  0  0  0  0
   12.3769   -2.4513   20.8144 H   0  0  0  0  0
   13.9414   -2.2907   19.9471 H   0  0  0  0  0
   13.1302   -8.6483   18.2917 H   0  0  0  0  0
   16.6103  -11.3943   16.6038 H   0  0  0  0  0
   16.9621   -9.3310   16.4948 H   0  0  0  0  0
   17.4112   -4.9972   15.7581 H   0  0  0  0  0
   16.9844   -4.7234   17.6120 H   0  0  0  0  0
   15.3873   -3.1665   18.6535 H   0  0  0  0  0
   11.0677   -5.9395   17.4301 H   0  0  0  0  0
   11.5219   -7.6406   17.6963 H   0  0  0  0  0
   10.1672   -6.9280   18.6061 H   0  0  0  0  0
   12.6031   -8.2000   20.1935 H   0  0  0  0  0
   12.7228   -6.8040   21.2925 H   0  0  0  0  0
   11.1245   -7.4367   20.8276 H   0  0  0  0  0
   10.1828   -3.7257   19.6555 H   0  0  0  0  0
   10.9037   -4.1827   21.3935 H   0  0  0  0  0
    9.4862   -6.3553   20.5396 H   0  0  0  0  0
    8.0636   -3.6610   21.0608 H   0  0  0  0  0
    7.1572   -6.7163   20.9835 H   0  0  0  0  0
    6.5289   -4.1129   22.4745 H   0  0  0  0  0
    7.3264   -7.2015   24.0426 H   0  0  0  0  0
    6.2160   -6.7878   25.3718 H   0  0  0  0  0
    6.3475   -8.4737   24.8136 H   0  0  0  0  0
    4.3100   -8.0357   21.7092 H   0  0  0  0  0
    6.0900   -8.0125   21.6626 H   0  0  0  0  0
    5.2414   -9.2019   22.6806 H   0  0  0  0  0
    4.8362   -3.0869   23.0954 H   0  0  0  0  0
    3.2410   -3.2152   23.9210 H   0  0  0  0  0
    3.8058   -3.7797   21.0187 H   0  0  0  0  0
    2.2283   -3.9067   21.8351 H   0  0  0  0  0
    3.0229   -2.3211   21.6748 H   0  0  0  0  0
    1.5342   -4.6962   24.5148 H   0  0  0  0  0
    0.3438   -6.5612   25.6214 H   0  0  0  0  0
   -0.0315  -10.4923   28.0903 H   0  0  0  0  0
    1.3136  -11.1517   26.5754 H   0  0  0  0  0
    4.7836   -9.7359   24.4489 H   0  0  0  0  0
    3.5090  -12.1732   27.8604 H   0  0  0  0  0
    8.3671   -4.5709   40.7366 H   0  0  0  0  0
   10.4147   -6.6142   41.4652 H   0  0  0  0  0
    9.4791   -5.6038   42.6845 H   0  0  0  0  0
    9.8698   -2.7178   40.9549 H   0  0  0  0  0
   10.6661   -0.5764   40.5325 H   0  0  0  0  0
   11.4375    1.7479   40.2915 H   0  0  0  0  0
   15.4240    0.5681   41.3936 H   0  0  0  0  0
   14.6304   -1.7730   41.7256 H   0  0  0  0  0
   16.0162    2.1681   40.5353 H   0  0  0  0  0
   15.1055    6.3098   40.0406 H   0  0  0  0  0
   12.7137    5.8386   40.3255 H   0  0  0  0  0
   11.9229    3.5321   40.5961 H   0  0  0  0  0
    8.2324   -7.5478   41.3760 H   0  0  0  0  0
    7.0127   -6.7403   40.3094 H   0  0  0  0  0
    7.8182   -7.2343   44.0462 H   0  0  0  0  0
    4.0929   -5.4149   43.1830 H   0  0  0  0  0
    1.9793   -6.7035   43.2259 H   0  0  0  0  0
    4.1276  -10.3097   42.2245 H   0  0  0  0  0
    6.2768   -8.9435   42.0701 H   0  0  0  0  0
    8.3841   -4.3354   38.5293 H   0  0  0  0  0
    9.3908   -6.6721   37.0928 H   0  0  0  0  0
    7.8999   -5.8968   35.1923 H   0  0  0  0  0
    7.7868   -4.2606   35.9341 H   0  0  0  0  0
    6.6733   -5.4183   37.8896 H   0  0  0  0  0
    6.4812   -6.8337   36.7495 H   0  0  0  0  0
    5.5946   -3.6130   37.4052 H   0  0  0  0  0
   10.4257   -6.7748   35.2530 H   0  0  0  0  0
   12.5338   -4.7327   34.7988 H   0  0  0  0  0
   11.7492   -7.3383   33.6773 H   0  0  0  0  0
   13.2835   -6.7805   34.4053 H   0  0  0  0  0
   13.3608   -5.1103   32.4129 H   0  0  0  0  0
   12.1461   -6.1869   31.6642 H   0  0  0  0  0
   14.1339   -7.9456   33.6253 H   0  0  0  0  0
   11.9513   -2.9025   33.3197 H   0  0  0  0  0
  1  7  1  0  0  0
  8  1  1  0  0  0
  5  2  4  0  0  0
  2 64  1  0  0  0
  2 67  4  0  0  0
 64  3  2  0  0  0
 53  4  2  0  0  0
  4 57  1  0  0  0
  4 59  1  0  0  0
 61  5  4  0  0  0
  5 63  4  0  0  0
  7  6  2  0  0  0
  7 21  1  0  0  0
  9  8  1  0  0  0
 10  9  1  0  0  0
 11 10  1  0  0  0
 12 11  1  0  0  0
 13 12  1  0  0  0
 14 13  1  0  0  0
 15 14  1  0  0  0
 16 15  1  0  0  0
 17 16  1  0  0  0
 18 17  1  0  0  0
 19 18  1  0  0  0
 20 19  1  0  0  0
125 20  1  0  0  0
 21 22  1  0  0  0
 22 23  1  0  0  0
 23 24  1  0  0  0
 24 25  1  0  0  0
 25 26  1  0  0  0
 25 47  2  0  0  0
 26 27  4  0  0  0
 26 43  4  0  0  0
 27 28  4  0  0  0
 44 27  1  0  0  0
 28 29  4  0  0  0
 28 41  4  0  0  0
 29 30  4  0  0  0
 30 31  1  0  0  0
 30 35  4  0  0  0
 31 32  2  0  0  0
 31 33  2  0  0  0
 31 34  1  0  0  0
 36 35  4  0  0  0
 36 37  1  0  0  0
 41 36  4  0  0  0
 37 38  2  0  0  0
 37 39  1  0  0  0
 37 40  2  0  0  0
 42 41  4  0  0  0
 43 42  4  0  0  0
 44 45  1  0  0  0
 44 46  1  0  0  0
 47 44  1  0  0  0
 47 48  1  0  0  0
 48 49  1  0  0  0
 49 50  2  0  0  0
 50 51  1  0  0  0
 51 52  2  0  0  0
 52 53  1  0  0  0
 53 54  1  0  0  0
 54 55  1  0  0  0
 54 56  1  0  0  0
 54 60  1  0  0  0
 57 58  1  0  0  0
 60 59  4  0  0  0
 59 62  4  0  0  0
 60 61  4  0  0  0
 61 69  4  0  0  0
 62 63  4  0  0  0
 64 65  2  0  0  0
 64 66  1  0  0  0
 68 67  4  0  0  0
 69 68  4  0  0  0
 68 70  1  0  0  0
 70 71  2  0  0  0
 70 72  2  0  0  0
 70 73  1  0  0  0
 77 74  2  0  0  0
 76 75  4  0  0  0
 81 75  4  0  0  0
 88 76  4  0  0  0
 77 78  1  0  0  0
107 77  1  0  0  0
 78 79  1  0  0  0
 78 96  1  0  0  0
 79 88  1  0  0  0
 80 81  4  0  0  0
 88 80  4  0  0  0
 81 82  1  0  0  0
 82 83  4  0  0  0
 82 87  4  0  0  0
 83 84  4  0  0  0
 84 85  4  0  0  0
 86 85  4  0  0  0
 85 95  1  0  0  0
 87 86  4  0  0  0
 90 89  1  0  0  0
 91 90  4  0  0  0
 90 92  4  0  0  0
 95 91  4  0  0  0
 93 92  4  0  0  0
 94 93  4  0  0  0
 95 94  4  0  0  0
 96 97  1  0  0  0
 97 98  1  0  0  0
 97 99  2  0  0  0
 97100  1  0  0  0
100101  4  0  0  0
100106  4  0  0  0
101102  4  0  0  0
102103  4  0  0  0
103104  1  0  0  0
105103  4  0  0  0
106105  4  0  0  0
108107  1  0  0  0
109108  1  0  0  0
108111  1  0  0  0
109110  2  0  0  0
116109  1  0  0  0
111112  1  0  0  0
112113  1  0  0  0
113114  2  0  0  0
113115  1  0  0  0
117116  1  0  0  0
118117  1  0  0  0
117120  1  0  0  0
118119  2  0  0  0
118125  1  0  0  0
120121  1  0  0  0
121122  1  0  0  0
122123  2  0  0  0
122124  1  0  0  0
  1126  1  0  0  0
  8127  1  0  0  0
  8128  1  0  0  0
  9129  1  0  0  0
  9130  1  0  0  0
 10131  1  0  0  0
 10132  1  0  0  0
 12133  1  0  0  0
 12134  1  0  0  0
 13135  1  0  0  0
 13136  1  0  0  0
 15137  1  0  0  0
 15138  1  0  0  0
 16139  1  0  0  0
 16140  1  0  0  0
 18141  1  0  0  0
 18142  1  0  0  0
 19143  1  0  0  0
 19144  1  0  0  0
 20145  1  0  0  0
 20146  1  0  0  0
 21147  1  0  0  0
 21148  1  0  0  0
 22149  1  0  0  0
 22150  1  0  0  0
 23151  1  0  0  0
 23152  1  0  0  0
 24153  1  0  0  0
 24154  1  0  0  0
 29155  1  0  0  0
 34156  1  0  0  0
 35157  1  0  0  0
 39158  1  0  0  0
 42159  1  0  0  0
 43160  1  0  0  0
 45161  1  0  0  0
 45162  1  0  0  0
 45163  1  0  0  0
 46164  1  0  0  0
 46165  1  0  0  0
 46166  1  0  0  0
 48167  1  0  0  0
 48168  1  0  0  0
 49169  1  0  0  0
 50170  1  0  0  0
 51171  1  0  0  0
 52172  1  0  0  0
 55173  1  0  0  0
 55174  1  0  0  0
 55175  1  0  0  0
 56176  1  0  0  0
 56177  1  0  0  0
 56178  1  0  0  0
 57179  1  0  0  0
 57180  1  0  0  0
 58181  1  0  0  0
 58182  1  0  0  0
 58183  1  0  0  0
 62184  1  0  0  0
 63185  1  0  0  0
 66186  1  0  0  0
 67187  1  0  0  0
 69188  1  0  0  0
 73189  1  0  0  0
 78190  1  0  0  0
 79191  1  0  0  0
 79192  1  0  0  0
 80193  1  0  0  0
 83194  1  0  0  0
 84195  1  0  0  0
 86196  1  0  0  0
 87197  1  0  0  0
 91198  1  0  0  0
 92199  1  0  0  0
 93200  1  0  0  0
 94201  1  0  0  0
 96202  1  0  0  0
 96203  1  0  0  0
 98204  1  0  0  0
101205  1  0  0  0
102206  1  0  0  0
105207  1  0  0  0
106208  1  0  0  0
107209  1  0  0  0
108210  1  0  0  0
111211  1  0  0  0
111212  1  0  0  0
112213  1  0  0  0
112214  1  0  0  0
115215  1  0  0  0
116216  1  0  0  0
117217  1  0  0  0
120218  1  0  0  0
120219  1  0  0  0
121220  1  0  0  0
121221  1  0  0  0
124222  1  0  0  0
125223  1  0  0  0
M  END
$$$$
