### 
### Created by X-TOOL on Mon Sep 10 21:13:27 2018
### 

@<TRIPOS>MOLECULE
5l7f_ligand
  216   225     1     0     0
SMALL
GAST_HUCK


@<TRIPOS>ATOM
      1 N2         11.7770    1.4210   22.4570 N.am      1 6PJ        -0.2869
      2 C2          1.2500   -9.0770   25.9780 C.ar      1 6PJ         0.0997
      3 O2         -1.2260   -8.4580   25.6560 O.co2     1 6PJ        -0.4778
      4 N3          4.1210   -5.0390   23.3740 N.2       1 6PJ        -0.2677
      5 C1          1.9380   -8.0130   25.3380 C.ar      1 6PJ         0.0699
      6 O7         13.1330    1.9110   20.7380 O.2       1 6PJ        -0.3971
      7 C22        12.1770    1.2760   21.1660 C.2       1 6PJ         0.1760
      8 C23        11.6830    0.2520   23.3670 C.3       1 6PJ         0.0330
      9 C24        10.3280   -0.4540   23.4570 C.3       1 6PJ        -0.0092
     10 C25        10.3200   -1.5870   24.4820 C.3       1 6PJ         0.0496
     11 O8          9.2360   -2.4960   24.2210 O.3       1 6PJ        -0.3774
     12 C26         7.9180   -1.9450   24.3980 C.3       1 6PJ         0.0710
     13 C27         7.3070   -2.3710   25.7270 C.3       1 6PJ         0.0711
     14 O9          8.2550   -2.0490   26.7320 O.3       1 6PJ        -0.3752
     15 C28         7.7870   -1.1240   27.6850 C.3       1 6PJ         0.0711
     16 C29         8.9390   -0.6820   28.5620 C.3       1 6PJ         0.0710
     17 O10         9.3230   -1.7530   29.4400 O.3       1 6PJ        -0.3774
     18 C30        10.7120   -2.1720   29.3860 C.3       1 6PJ         0.0496
     19 C31        11.3740   -2.1410   30.7590 C.3       1 6PJ        -0.0092
     20 C32        10.6220   -2.8950   31.8320 C.3       1 6PJ         0.0330
     21 C21        11.5730    0.1490   20.3120 C.3       1 6PJ         0.0373
     22 C20        12.4380   -0.2750   19.1210 C.3       1 6PJ        -0.0349
     23 C19        12.2200   -1.7480   18.8020 C.3       1 6PJ        -0.0368
     24 C18        12.8980   -2.5960   19.8680 C.3       1 6PJ         0.0161
     25 N1         12.8490   -4.0140   19.5170 N.2       1 6PJ        -0.3361
     26 C33        13.8670   -4.6680   18.9300 C.ar      1 6PJ         0.0471
     27 C42        13.5040   -6.0130   18.7600 C.ar      1 6PJ        -0.0479
     28 C41        14.4140   -6.9140   18.1620 C.ar      1 6PJ        -0.0053
     29 C40        14.0990   -8.2670   17.9690 C.ar      1 6PJ        -0.0170
     30 C39        15.0150   -9.1270   17.3680 C.ar      1 6PJ         0.0694
     31 S4         14.6470  -10.6680   17.1390 S.o2      1 6PJ        -0.1549
     32 O16        13.1980  -10.7510   16.3730 O.co2     1 6PJ        -0.4775
     33 O15        14.5930  -11.4100   18.5970 O.co2     1 6PJ        -0.4775
     34 O14        15.7480  -11.4250   16.1830 O.co2     1 6PJ        -0.4775
     35 C38        16.2520   -8.6480   16.9610 C.ar      1 6PJ         0.0003
     36 C37        16.6040   -7.3140   17.1360 C.ar      1 6PJ         0.0838
     37 S3         18.0640   -6.8690   16.6160 S.o2      1 6PJ        -0.1543
     38 O13        18.9100   -8.1160   15.9670 O.co2     1 6PJ        -0.4777
     39 O12        17.9030   -5.7510   15.4240 O.co2     1 6PJ        -0.4777
     40 O11        18.9440   -6.2700   17.8590 O.co2     1 6PJ        -0.4777
     41 C36        15.6800   -6.4390   17.7400 C.ar      1 6PJ         0.0499
     42 C35        16.0080   -5.0880   17.9310 C.ar      1 6PJ         0.0064
     43 C34        15.1150   -4.2130   18.5160 C.ar      1 6PJ         0.0123
     44 C43        12.1180   -6.3020   19.2780 C.3       1 6PJ        -0.0146
     45 C44        11.1480   -6.7340   18.1720 C.3       1 6PJ        -0.0914
     46 C45        12.1440   -7.2560   20.4870 C.3       1 6PJ        -0.0914
     47 C17        11.8400   -4.8960   19.7390 C.2       1 6PJ         0.0173
     48 C16        10.5700   -4.4350   20.3870 C.3       1 6PJ         0.0946
     49 C15         9.4040   -5.2740   20.6500 C.2       1 6PJ         0.0750
     50 C14         8.2340   -4.7370   21.0250 C.2       1 6PJ         0.0881
     51 C13         7.2170   -5.7020   21.3780 C.2       1 6PJ         0.0765
     52 C12         6.3530   -5.1680   22.2650 C.2       1 6PJ         0.0796
     53 C11         5.2050   -5.7490   23.0110 C.2       1 6PJ         0.1065
     54 C8          5.2360   -7.1790   23.4820 C.3       1 6PJ         0.0306
     55 C10         6.3650   -7.4290   24.5030 C.3       1 6PJ        -0.0801
     56 C9          5.2180   -8.1830   22.2940 C.3       1 6PJ        -0.0801
     57 C46         3.8760   -3.6020   23.1240 C.3       1 6PJ         0.0599
     58 C47         3.1870   -3.3880   21.8260 C.3       1 6PJ        -0.0371
     59 C48         3.2790   -5.8830   24.0330 C.ar      1 6PJ         0.1386
     60 C7          3.8810   -7.1600   24.1300 C.ar      1 6PJ         0.0194
     61 C6          3.2320   -8.2450   24.7730 C.ar      1 6PJ         0.0404
     62 C49         2.0050   -5.6770   24.5820 C.ar      1 6PJ         0.0409
     63 C50         1.3410   -6.7280   25.2140 C.ar      1 6PJ         0.0176
     64 S1         -0.2280   -8.8570   26.6480 S.o2      1 6PJ        -0.1517
     65 O3         -0.0130   -7.8750   27.6750 O.co2     1 6PJ        -0.4778
     66 O1         -0.7010  -10.2510   27.4460 O.co2     1 6PJ        -0.4778
     67 C3          1.8470  -10.3460   26.0710 C.ar      1 6PJ         0.0160
     68 C4          3.1100  -10.5950   25.5300 C.ar      1 6PJ         0.0861
     69 C5          3.8000   -9.5450   24.8780 C.ar      1 6PJ         0.0057
     70 S2          3.7870  -12.1060   25.7140 S.o2      1 6PJ        -0.1519
     71 O4          4.8840  -12.2280   24.7650 O.co2     1 6PJ        -0.4775
     72 O5          2.8020  -13.1340   25.5880 O.co2     1 6PJ        -0.4775
     73 O6          4.2700  -12.2620   27.2820 O.co2     1 6PJ        -0.4775
     74 O4          9.7640   -7.0360   39.1970 O.2       1 6PJ        -0.3964
     75 N1         12.9420   -3.6120   41.7560 N.2       1 6PJ        -0.1517
     76 O1         12.2160   -4.7290   41.8780 O.3       1 6PJ        -0.1669
     77 C25         9.1940   -5.9990   39.3590 C.2       1 6PJ         0.1851
     78 C17         8.7510   -5.5910   40.7280 C.3       1 6PJ         0.0781
     79 C16         9.8980   -5.6790   41.6810 C.3       1 6PJ         0.0421
     80 C14        10.7850   -3.2420   41.2300 C.2       1 6PJ        -0.0269
     81 C13        12.0960   -2.6890   41.3310 C.2       1 6PJ         0.0432
     82 C12        12.5520   -1.3000   41.1320 C.ar      1 6PJ        -0.0148
     83 C11        11.7070   -0.3300   40.7420 C.ar      1 6PJ        -0.0544
     84 C10        12.1390    0.9740   40.6030 C.ar      1 6PJ        -0.0543
     85 C7         13.4660    1.3040   40.8590 C.ar      1 6PJ        -0.0186
     86 C8         14.3760    0.3150   41.2330 C.ar      1 6PJ        -0.0543
     87 C9         13.9410   -0.9940   41.4000 C.ar      1 6PJ        -0.0544
     88 C15        10.9150   -4.5840   41.5540 C.2       1 6PJ         0.1412
     89 CL1        17.4220    4.5640   40.0580 Cl        1 NON        -0.0707
     90 C1         15.6790    4.2700   40.2610 C.ar      1 NON         0.0409
     91 C2         15.2810    2.9710   40.4810 C.ar      1 6PJ        -0.0403
     92 C3         14.7690    5.2860   40.2040 C.ar      1 NON        -0.0479
     93 C4         13.4330    5.0200   40.3520 C.ar      1 NON        -0.0609
     94 C5         12.9920    3.7350   40.5330 C.ar      1 6PJ        -0.0541
     95 C6         13.8980    2.6940   40.6360 C.ar      1 6PJ        -0.0179
     96 C18         7.7130   -6.6200   41.1360 C.3       1 6PJ         0.0357
     97 P1          6.7790   -6.1090   42.5910 P.3       1 6PJ         0.0120
     98 O2          7.5670   -6.3120   43.9570 O.co2     1 6PJ        -0.6187
     99 O3          6.3680   -4.7040   42.4030 O.co2     1 6PJ        -0.6187
    100 C19         5.2890   -7.0780   42.6150 C.ar      1 6PJ         0.0317
    101 C20         4.1070   -6.4790   42.9470 C.ar      1 6PJ        -0.0373
    102 C21         2.9160   -7.2080   42.9890 C.ar      1 6PJ        -0.0462
    103 C22         2.9200   -8.5900   42.7270 C.ar      1 6PJ         0.0175
    104 BR1         1.2790   -9.5800   42.8570 Br        1 6PJ        -0.0459
    105 C23         4.1140   -9.2360   42.4120 C.ar      1 6PJ        -0.0462
    106 C24         5.3350   -8.4640   42.3370 C.ar      1 6PJ        -0.0373
    107 N2          8.8440   -5.2270   38.3450 N.am      1 6PJ        -0.2651
    108 C26         9.1040   -5.6280   36.9670 C.3       1 6PJ         0.1324
    109 C30        10.1880   -5.0230   36.2360 C.2       1 6PJ         0.2040
    110 O7         10.4780   -3.8840   36.4000 O.2       1 6PJ        -0.3944
    111 C27         7.8360   -5.3330   36.1230 C.3       1 6PJ        -0.0008
    112 C28         6.5740   -5.7530   36.8570 C.3       1 6PJ         0.0044
    113 C29         5.3310   -5.1470   36.3140 C.2       1 6PJ         0.0350
    114 O5          4.6980   -5.8220   35.4890 O.co2     1 6PJ        -0.5690
    115 O6          4.9440   -3.9370   36.7780 O.co2     1 6PJ        -0.5690
    116 N3         10.7300   -5.8030   35.3110 N.am      1 6PJ        -0.2636
    117 C31        11.7270   -5.3390   34.3870 C.3       1 6PJ         0.1323
    118 C35        10.8270   -4.5730   33.4000 C.2       1 6PJ         0.2018
    119 O10         9.7730   -5.1080   33.0040 O.2       1 6PJ        -0.3945
    120 C32        12.4420   -6.5020   33.7710 C.3       1 6PJ        -0.0008
    121 C33        12.9640   -6.1250   32.3820 C.3       1 6PJ         0.0044
    122 C34        14.0690   -7.0790   31.9610 C.2       1 6PJ         0.0350
    123 O8         14.5190   -6.9940   30.8280 O.co2     1 6PJ        -0.5690
    124 O9         14.5790   -7.9920   32.7760 O.co2     1 6PJ        -0.5690
    125 N4         11.1880   -3.4150   32.8780 N.am      1 6PJ        -0.2850
    126 H1         11.5421    2.3307   22.7995 H         1 6PJ         0.1850
    127 H2         11.9446    0.5972   24.3781 H         1 6PJ         0.0520
    128 H3         12.4217   -0.4903   23.0304 H         1 6PJ         0.0520
    129 H4         10.0824   -0.8714   22.4693 H         1 6PJ         0.0307
    130 H5          9.5647    0.2846   23.7431 H         1 6PJ         0.0307
    131 H6         10.2014   -1.1624   25.4898 H         1 6PJ         0.0560
    132 H7         11.2726   -2.1339   24.4243 H         1 6PJ         0.0560
    133 H8          7.2718   -2.2947   23.5794 H         1 6PJ         0.0583
    134 H9          7.9831   -0.8473   24.3704 H         1 6PJ         0.0583
    135 H10         7.1099   -3.4532   25.7243 H         1 6PJ         0.0583
    136 H11         6.3672   -1.8275   25.9040 H         1 6PJ         0.0583
    137 H12         7.0126   -1.5971   28.3067 H         1 6PJ         0.0583
    138 H13         7.3609   -0.2502   27.1704 H         1 6PJ         0.0583
    139 H14         8.6293    0.1873   29.1606 H         1 6PJ         0.0583
    140 H15         9.7945   -0.4050   27.9285 H         1 6PJ         0.0583
    141 H16        11.2603   -1.4968   28.7126 H         1 6PJ         0.0560
    142 H17        10.7579   -3.1984   28.9932 H         1 6PJ         0.0560
    143 H18        11.4629   -1.0910   31.0745 H         1 6PJ         0.0307
    144 H19        12.3773   -2.5825   30.6673 H         1 6PJ         0.0307
    145 H20        10.1206   -3.7280   31.3175 H         1 6PJ         0.0520
    146 H21         9.8668   -2.1942   32.2173 H         1 6PJ         0.0520
    147 H22        10.6015    0.4921   19.9268 H         1 6PJ         0.0502
    148 H23        11.4222   -0.7288   20.9575 H         1 6PJ         0.0502
    149 H24        13.4976   -0.1106   19.3663 H         1 6PJ         0.0290
    150 H25        12.1668    0.3296   18.2430 H         1 6PJ         0.0290
    151 H26        12.6528   -1.9793   17.8175 H         1 6PJ         0.0279
    152 H27        11.1419   -1.9661   18.7890 H         1 6PJ         0.0279
    153 H28        12.3841   -2.4451   20.8288 H         1 6PJ         0.0440
    154 H29        13.9488   -2.2844   19.9613 H         1 6PJ         0.0440
    155 H30        13.1355   -8.6462   18.2900 H         1 6PJ         0.0669
    156 H31        16.9582   -9.3272   16.4973 H         1 6PJ         0.0691
    157 H32        16.9791   -4.7254   17.6138 H         1 6PJ         0.1098
    158 H33        15.3858   -3.1723   18.6527 H         1 6PJ         0.0918
    159 H34        11.3810   -7.7632   17.8614 H         1 6PJ         0.0091
    160 H35        11.2508   -6.0587   17.3098 H         1 6PJ         0.0091
    161 H36        10.1164   -6.6901   18.5513 H         1 6PJ         0.0091
    162 H37        12.8592   -6.8816   21.2342 H         1 6PJ         0.0091
    163 H38        12.4510   -8.2591   20.1561 H         1 6PJ         0.0091
    164 H39        11.1404   -7.3086   20.9342 H         1 6PJ         0.0091
    165 H40        10.2016   -3.6133   19.7553 H         1 6PJ         0.1089
    166 H41        10.8704   -4.0373   21.3676 H         1 6PJ         0.1089
    167 H42         9.4861   -6.3543   20.5397 H         1 6PJ         0.1912
    168 H43         8.0638   -3.6620   21.0607 H         1 6PJ         0.1216
    169 H44         7.1572   -6.7154   20.9839 H         1 6PJ         0.1432
    170 H45         6.5288   -4.1139   22.4743 H         1 6PJ         0.1510
    171 H46         7.3346   -7.4342   23.9835 H         1 6PJ         0.0115
    172 H47         6.2069   -8.4006   24.9940 H         1 6PJ         0.0115
    173 H48         6.3587   -6.6305   25.2595 H         1 6PJ         0.0115
    174 H49         4.3872   -7.9351   21.6170 H         1 6PJ         0.0115
    175 H50         5.0846   -9.2046   22.6793 H         1 6PJ         0.0115
    176 H51         6.1694   -8.1192   21.7455 H         1 6PJ         0.0115
    177 H52         4.8397   -3.0718   23.1094 H         1 6PJ         0.0614
    178 H53         3.2484   -3.1998   23.9329 H         1 6PJ         0.0614
    179 H54         3.0208   -2.3116   21.6722 H         1 6PJ         0.0256
    180 H55         2.2193   -3.9109   21.8339 H         1 6PJ         0.0256
    181 H56         3.8105   -3.7829   21.0104 H         1 6PJ         0.0256
    182 H57         1.5368   -4.7016   24.5151 H         1 6PJ         0.1030
    183 H58         0.3493   -6.5621   25.6191 H         1 6PJ         0.1058
    184 H59         1.3165  -11.1473   26.5726 H         1 6PJ         0.0848
    185 H60         4.7782   -9.7348   24.4513 H         1 6PJ         0.0800
    186 H61         8.3303   -4.5746   40.7227 H         1 6PJ         0.0580
    187 H62        10.4080   -6.6390   41.5130 H         1 6PJ         0.0513
    188 H63         9.4943   -5.6523   42.7039 H         1 6PJ         0.0513
    189 H64         9.8706   -2.7183   40.9551 H         1 6PJ         0.0289
    190 H65        10.6718   -0.5750   40.5337 H         1 6PJ         0.0616
    191 H66        11.4414    1.7437   40.2932 H         1 6PJ         0.0622
    192 H67        15.4182    0.5667   41.3927 H         1 6PJ         0.0622
    193 H68        14.6266   -1.7687   41.7238 H         1 6PJ         0.0616
    194 H69        16.0121    2.1725   40.5350 H         1 6PJ         0.0628
    195 H70        15.1036    6.3042   40.0415 H         1 NON         0.0622
    196 H71        12.7177    5.8341   40.3257 H         1 NON         0.0617
    197 H72        11.9288    3.5332   40.5958 H         1 6PJ         0.0624
    198 H73         8.2235   -7.5686   41.3585 H         1 6PJ         0.0485
    199 H74         7.0132   -6.7674   40.3002 H         1 6PJ         0.0485
    200 H75         4.0930   -5.4208   43.1817 H         1 6PJ         0.0682
    201 H76         1.9844   -6.7063   43.2246 H         1 6PJ         0.0655
    202 H77         4.1276  -10.3038   42.2255 H         1 6PJ         0.0655
    203 H78         6.2716   -8.9408   42.0716 H         1 6PJ         0.0682
    204 H79         8.3931   -4.3529   38.5257 H         1 6PJ         0.1883
    205 H80         9.2896   -6.7121   36.9857 H         1 6PJ         0.0801
    206 H81         7.9000   -5.8868   35.1747 H         1 6PJ         0.0330
    207 H82         7.7871   -4.2540   35.9150 H         1 6PJ         0.0330
    208 H83         6.6718   -5.4560   37.9116 H         1 6PJ         0.0433
    209 H84         6.4830   -6.8472   36.7911 H         1 6PJ         0.0433
    210 H85        10.4317   -6.7558   35.2541 H         1 6PJ         0.1883
    211 H86        12.4589   -4.6716   34.8654 H         1 6PJ         0.0801
    212 H87        11.7468   -7.3496   33.6803 H         1 6PJ         0.0330
    213 H88        13.2886   -6.7891   34.4119 H         1 6PJ         0.0330
    214 H89        13.3601   -5.0991   32.4086 H         1 6PJ         0.0433
    215 H90        12.1394   -6.1810   31.6562 H         1 6PJ         0.0433
    216 H91        11.9363   -2.9126   33.3111 H         1 6PJ         0.1851
@<TRIPOS>BOND
     1    1    7 am 
     2    8    1 1  
     3    5    2 ar 
     4    2   64 1  
     5    2   67 ar 
     6   64    3 ar 
     7   53    4 2  
     8    4   57 1  
     9    4   59 1  
    10   61    5 ar 
    11    5   63 ar 
    12    7    6 2  
    13    7   21 1  
    14    9    8 1  
    15   10    9 1  
    16   11   10 1  
    17   12   11 1  
    18   13   12 1  
    19   14   13 1  
    20   15   14 1  
    21   16   15 1  
    22   17   16 1  
    23   18   17 1  
    24   19   18 1  
    25   20   19 1  
    26  125   20 1  
    27   21   22 1  
    28   22   23 1  
    29   23   24 1  
    30   24   25 1  
    31   25   26 1  
    32   25   47 2  
    33   26   27 ar 
    34   26   43 ar 
    35   27   28 ar 
    36   44   27 1  
    37   28   29 ar 
    38   28   41 ar 
    39   29   30 ar 
    40   30   31 1  
    41   30   35 ar 
    42   31   32 ar 
    43   31   33 ar 
    44   31   34 ar 
    45   36   35 ar 
    46   36   37 1  
    47   41   36 ar 
    48   37   38 ar 
    49   37   39 ar 
    50   37   40 ar 
    51   42   41 ar 
    52   43   42 ar 
    53   44   45 1  
    54   44   46 1  
    55   47   44 1  
    56   47   48 1  
    57   48   49 1  
    58   49   50 2  
    59   50   51 1  
    60   51   52 2  
    61   52   53 1  
    62   53   54 1  
    63   54   55 1  
    64   54   56 1  
    65   54   60 1  
    66   57   58 1  
    67   60   59 ar 
    68   59   62 ar 
    69   60   61 ar 
    70   61   69 ar 
    71   62   63 ar 
    72   64   65 ar 
    73   64   66 ar 
    74   68   67 ar 
    75   69   68 ar 
    76   68   70 1  
    77   70   71 ar 
    78   70   72 ar 
    79   70   73 ar 
    80   77   74 2  
    81   76   75 1  
    82   81   75 2  
    83   88   76 1  
    84   77   78 1  
    85  107   77 am 
    86   78   79 1  
    87   78   96 1  
    88   79   88 1  
    89   80   81 1  
    90   88   80 2  
    91   81   82 1  
    92   82   83 ar 
    93   82   87 ar 
    94   83   84 ar 
    95   84   85 ar 
    96   86   85 ar 
    97   85   95 1  
    98   87   86 ar 
    99   90   89 1  
   100   91   90 ar 
   101   90   92 ar 
   102   95   91 ar 
   103   93   92 ar 
   104   94   93 ar 
   105   95   94 ar 
   106   96   97 1  
   107   97   98 ar 
   108   97   99 ar 
   109   97  100 1  
   110  100  101 ar 
   111  100  106 ar 
   112  101  102 ar 
   113  102  103 ar 
   114  103  104 1  
   115  105  103 ar 
   116  106  105 ar 
   117  108  107 1  
   118  109  108 1  
   119  108  111 1  
   120  109  110 2  
   121  116  109 am 
   122  111  112 1  
   123  112  113 1  
   124  113  114 ar 
   125  113  115 ar 
   126  117  116 1  
   127  118  117 1  
   128  117  120 1  
   129  118  119 2  
   130  118  125 am 
   131  120  121 1  
   132  121  122 1  
   133  122  123 ar 
   134  122  124 ar 
   135    1  126 1  
   136    8  127 1  
   137    8  128 1  
   138    9  129 1  
   139    9  130 1  
   140   10  131 1  
   141   10  132 1  
   142   12  133 1  
   143   12  134 1  
   144   13  135 1  
   145   13  136 1  
   146   15  137 1  
   147   15  138 1  
   148   16  139 1  
   149   16  140 1  
   150   18  141 1  
   151   18  142 1  
   152   19  143 1  
   153   19  144 1  
   154   20  145 1  
   155   20  146 1  
   156   21  147 1  
   157   21  148 1  
   158   22  149 1  
   159   22  150 1  
   160   23  151 1  
   161   23  152 1  
   162   24  153 1  
   163   24  154 1  
   164   29  155 1  
   165   35  156 1  
   166   42  157 1  
   167   43  158 1  
   168   45  159 1  
   169   45  160 1  
   170   45  161 1  
   171   46  162 1  
   172   46  163 1  
   173   46  164 1  
   174   48  165 1  
   175   48  166 1  
   176   49  167 1  
   177   50  168 1  
   178   51  169 1  
   179   52  170 1  
   180   55  171 1  
   181   55  172 1  
   182   55  173 1  
   183   56  174 1  
   184   56  175 1  
   185   56  176 1  
   186   57  177 1  
   187   57  178 1  
   188   58  179 1  
   189   58  180 1  
   190   58  181 1  
   191   62  182 1  
   192   63  183 1  
   193   67  184 1  
   194   69  185 1  
   195   78  186 1  
   196   79  187 1  
   197   79  188 1  
   198   80  189 1  
   199   83  190 1  
   200   84  191 1  
   201   86  192 1  
   202   87  193 1  
   203   91  194 1  
   204   92  195 1  
   205   93  196 1  
   206   94  197 1  
   207   96  198 1  
   208   96  199 1  
   209  101  200 1  
   210  102  201 1  
   211  105  202 1  
   212  106  203 1  
   213  107  204 1  
   214  108  205 1  
   215  111  206 1  
   216  111  207 1  
   217  112  208 1  
   218  112  209 1  
   219  116  210 1  
   220  117  211 1  
   221  120  212 1  
   222  120  213 1  
   223  121  214 1  
   224  121  215 1  
   225  125  216 1  
@<TRIPOS>SUBSTRUCTURE
     1 6PJ         1

