### 
### Created by X-TOOL on Mon Sep 10 21:13:19 2018
### 

@<TRIPOS>MOLECULE
4ov5_ligand
  225   228     1     0     0
SMALL
GAST_HUCK


@<TRIPOS>ATOM
      1 N          48.2600   -8.3350   38.1640 N.4       1 GLY         0.2357
      2 CA         47.7750   -8.5230   36.8090 C.3       1 GLY         0.0545
      3 C          46.6190   -9.5010   36.7440 C.2       1 GLY         0.2237
      4 O          46.7800  -10.6390   36.2990 O.2       1 GLY        -0.3910
      5 N          45.4470   -9.0550   37.1850 N.am      1 SER        -0.2591
      6 CA         44.2630   -9.9060   37.2140 C.3       1 SER         0.1540
      7 C          43.4380   -9.7810   35.9360 C.2       1 SER         0.2063
      8 O          42.2100   -9.7280   35.9810 O.2       1 SER        -0.3943
      9 CB         43.3980   -9.5750   38.4300 C.3       1 SER         0.0843
     10 OG         42.9410   -8.2350   38.3780 O.3       1 SER        -0.3903
     11 N          44.1210   -9.7340   34.7980 N.am      1 ASP        -0.2621
     12 CA         43.4460   -9.6710   33.5090 C.3       1 ASP         0.1423
     13 C          43.2830  -11.0660   32.9240 C.2       1 ASP         0.2056
     14 O          44.1670  -11.9110   33.0560 O.2       1 ASP        -0.3943
     15 CB         44.2330   -8.7900   32.5350 C.3       1 ASP         0.0406
     16 CG         45.6570   -9.2740   32.3270 C.2       1 ASP         0.0393
     17 OD1        46.2560   -9.8020   33.2890 O.co2     1 ASP        -0.5688
     18 OD2        46.1790   -9.1270   31.2020 O.co2     1 ASP        -0.5688
     19 N          42.1440  -11.3110   32.2850 N.am      1 ALA        -0.2639
     20 CA         41.9560  -12.5480   31.5440 C.3       1 ALA         0.1282
     21 C          42.6480  -12.4040   30.1990 C.2       1 ALA         0.2036
     22 O          42.2500  -11.5850   29.3740 O.2       1 ALA        -0.3944
     23 CB         40.4800  -12.8420   31.3560 C.3       1 ALA        -0.0244
     24 N          43.6960  -13.1900   29.9820 N.am      1 ARG        -0.2637
     25 CA         44.4340  -13.1220   28.7270 C.3       1 ARG         0.1311
     26 C          43.7260  -13.9010   27.6270 C.2       1 ARG         0.2040
     27 O          42.9620  -14.8280   27.8990 O.2       1 ARG        -0.3944
     28 CB         45.8650  -13.6290   28.9120 C.3       1 ARG        -0.0092
     29 CG         46.7060  -12.7520   29.8240 C.3       1 ARG        -0.0156
     30 CD         48.0850  -13.3440   30.0410 C.3       1 ARG         0.0627
     31 NE         48.8300  -12.6260   31.0700 N.pl3     1 ARG        -0.2723
     32 CZ         49.9350  -13.0840   31.6490 C.cat     1 ARG         0.2882
     33 NH1        50.4250  -14.2670   31.3040 N.pl3     1 ARG        -0.2849
     34 NH2        50.5460  -12.3630   32.5780 N.pl3     1 ARG        -0.2849
     35 N          43.9810  -13.5130   26.3840 N.am      1 PHE        -0.2619
     36 CA         43.3530  -14.1550   25.2390 C.3       1 PHE         0.1404
     37 C          44.3760  -14.4010   24.1380 C.2       1 PHE         0.2060
     38 O          45.4320  -13.7690   24.1070 O.2       1 PHE        -0.3942
     39 CB         42.2070  -13.2910   24.7040 C.3       1 PHE         0.0214
     40 CG         42.6570  -11.9900   24.0990 C.ar      1 PHE        -0.0386
     41 CD1        42.9800  -10.9090   24.9040 C.ar      1 PHE        -0.0601
     42 CD2        42.7510  -11.8440   22.7240 C.ar      1 PHE        -0.0601
     43 CE1        43.3950   -9.7120   24.3500 C.ar      1 PHE        -0.0686
     44 CE2        43.1650  -10.6490   22.1640 C.ar      1 PHE        -0.0686
     45 CZ         43.4870   -9.5820   22.9790 C.ar      1 PHE        -0.0687
     46 N          44.0620  -15.3270   23.2410 N.am      1 LEU        -0.2636
     47 CA         44.8910  -15.5580   22.0680 C.3       1 LEU         0.1312
     48 C          44.1920  -15.0060   20.8350 C.2       1 LEU         0.2039
     49 O          42.9670  -14.8760   20.8110 O.2       1 LEU        -0.3944
     50 CB         45.1770  -17.0500   21.8870 C.3       1 LEU        -0.0101
     51 CG         46.0240  -17.7210   22.9710 C.3       1 LEU        -0.0425
     52 CD1        46.2250  -19.1950   22.6570 C.3       1 LEU        -0.0625
     53 CD2        47.3630  -17.0130   23.1210 C.3       1 LEU        -0.0625
     54 N          44.9750  -14.6700   19.8170 N.am      1 ARG        -0.2637
     55 CA         44.4230  -14.2000   18.5560 C.3       1 ARG         0.1311
     56 C          44.6930  -15.2270   17.4680 C.2       1 ARG         0.2037
     57 O          45.7660  -15.8280   17.4240 O.2       1 ARG        -0.3944
     58 CB         45.0230  -12.8460   18.1760 C.3       1 ARG        -0.0092
     59 CG         44.5570  -12.3050   16.8320 C.3       1 ARG        -0.0156
     60 CD         44.8060  -10.8130   16.7430 C.3       1 ARG         0.0627
     61 NE         44.0800  -10.1000   17.7900 N.pl3     1 ARG        -0.2723
     62 CZ         44.5280   -9.0110   18.4050 C.cat     1 ARG         0.2882
     63 NH1        45.7060   -8.4980   18.0790 N.pl3     1 ARG        -0.2849
     64 NH2        43.7950   -8.4350   19.3480 N.pl3     1 ARG        -0.2849
     65 N          43.7110  -15.4360   16.5990 N.am      1 GLY        -0.2664
     66 CA         43.8610  -16.3770   15.5090 C.3       1 GLY         0.1201
     67 C          44.8540  -15.8840   14.4790 C.2       1 GLY         0.2009
     68 O          44.9910  -14.6790   14.2630 O.2       1 GLY        -0.3947
     69 N          45.5580  -16.8200   13.8520 N.am      1 TYR        -0.2624
     70 CA         46.4740  -16.4940   12.7690 C.3       1 TYR         0.1390
     71 C          45.6930  -16.3770   11.4690 C.2       1 TYR         0.2058
     72 O          44.6160  -16.9550   11.3320 O.2       1 TYR        -0.3942
     73 CB         47.5460  -17.5740   12.6290 C.3       1 TYR         0.0163
     74 CG         48.4600  -17.7050   13.8260 C.ar      1 TYR        -0.0493
     75 CD1        48.8100  -16.5950   14.5830 C.ar      1 TYR        -0.0685
     76 CD2        48.9700  -18.9400   14.2000 C.ar      1 TYR        -0.0685
     77 CE1        49.6470  -16.7120   15.6770 C.ar      1 TYR        -0.0398
     78 CE2        49.8060  -19.0680   15.2920 C.ar      1 TYR        -0.0398
     79 CZ         50.1400  -17.9510   16.0260 C.ar      1 TYR         0.0805
     80 OH         50.9730  -18.0770   17.1140 O.3       1 TYR        -0.3376
     81 N          46.2350  -15.6270   10.5160 N.am      1 HIS        -0.2623
     82 CA         45.6050  -15.4950    9.2100 C.3       1 HIS         0.1369
     83 C          45.7150  -16.8050    8.4440 C.2       1 HIS         0.2054
     84 O          46.7570  -17.4590    8.4670 O.2       1 HIS        -0.3942
     85 CB         46.2590  -14.3730    8.4040 C.3       1 HIS         0.0145
     86 CG         46.1670  -13.0270    9.0540 C.2       1 HIS        -0.0027
     87 ND1        45.0360  -12.2450    8.9900 N.2       1 HIS        -0.3252
     88 CD2        47.0730  -12.3250    9.7750 C.2       1 HIS         0.0291
     89 CE1        45.2450  -11.1170    9.6480 C.2       1 HIS         0.0907
     90 NE2        46.4730  -11.1410   10.1330 N.pl3     1 HIS        -0.2752
     91 N          44.6370  -17.1900    7.7690 N.am      1 LEU        -0.2636
     92 CA         44.6660  -18.3790    6.9310 C.3       1 LEU         0.1312
     93 C          45.5460  -18.1140    5.7140 C.2       1 LEU         0.2040
     94 O          45.8710  -16.9620    5.4220 O.2       1 LEU        -0.3944
     95 CB         43.2540  -18.7910    6.5200 C.3       1 LEU        -0.0101
     96 CG         42.3460  -19.1960    7.6850 C.3       1 LEU        -0.0425
     97 CD1        40.9730  -19.5770    7.1810 C.3       1 LEU        -0.0625
     98 CD2        42.9550  -20.3390    8.4810 C.3       1 LEU        -0.0625
     99 N          45.9270  -19.1790    5.0140 N.am      1 TYR        -0.2621
    100 CA         46.9420  -19.1010    3.9620 C.3       1 TYR         0.1390
    101 C          46.7110  -18.0110    2.9130 C.2       1 TYR         0.2052
    102 O          47.4150  -17.0000    2.9000 O.2       1 TYR        -0.3942
    103 CB         47.1300  -20.4630    3.2860 C.3       1 TYR         0.0163
    104 CG         48.0600  -20.4190    2.0950 C.ar      1 TYR        -0.0493
    105 CD1        49.3260  -19.8560    2.1980 C.ar      1 TYR        -0.0685
    106 CD2        47.6750  -20.9460    0.8690 C.ar      1 TYR        -0.0685
    107 CE1        50.1790  -19.8100    1.1130 C.ar      1 TYR        -0.0398
    108 CE2        48.5230  -20.9070   -0.2220 C.ar      1 TYR        -0.0398
    109 CZ         49.7730  -20.3390   -0.0940 C.ar      1 TYR         0.0805
    110 OH         50.6210  -20.2980   -1.1770 O.3       1 TYR        -0.3376
    111 N          45.7350  -18.2160    2.0350 N.am      1 ALA        -0.2672
    112 CA         45.4840  -17.2650    0.9560 C.3       1 ALA         0.1198
    113 C          44.0750  -17.3960    0.3920 C.2       1 ALA         0.2147
    114 O          43.8170  -17.0090   -0.7480 O.co2     1 ALA        -0.4120
    115 CB         46.5180  -17.4360   -0.1510 C.3       1 ALA        -0.0276
    116 H          49.0255   -7.6793   38.1589 H         1 GLY         0.2012
    117 H          48.5764   -9.2180   38.5332 H         1 GLY         0.2012
    118 H          47.5150   -7.9771   38.7410 H         1 GLY         0.2012
    119 H          48.5983   -8.9063   36.1883 H         1 GLY         0.1061
    120 H          47.4399   -7.5522   36.4150 H         1 GLY         0.1061
    121 H          45.3752   -8.1105   37.5055 H         1 SER         0.1885
    122 H          44.5982  -10.9500   37.3019 H         1 SER         0.0823
    123 H          43.9931   -9.7169   39.3442 H         1 SER         0.0606
    124 H          42.5301  -10.2506   38.4488 H         1 SER         0.0606
    125 H          42.4233   -8.1084   37.5915 H         1 SER         0.2097
    126 H          45.1206   -9.7420   34.8268 H         1 ASP         0.1884
    127 H          42.4487   -9.2310   33.6565 H         1 ASP         0.0819
    128 H          44.2643   -7.7654   32.9339 H         1 ASP         0.0478
    129 H          43.7160   -8.7899   31.5641 H         1 ASP         0.0478
    130 H          41.4067  -10.6361   32.3141 H         1 ALA         0.1883
    131 H          42.4142  -13.3782   32.1014 H         1 ALA         0.0797
    132 H          40.3617  -13.7803   30.7942 H         1 ALA         0.0277
    133 H          40.0103  -12.0187   30.7978 H         1 ALA         0.0277
    134 H          39.9975  -12.9404   32.3396 H         1 ALA         0.0277
    135 H          43.9826  -13.8369   30.6887 H         1 ARG         0.1883
    136 H          44.4827  -12.0672   28.4187 H         1 ARG         0.0800
    137 H          46.3497  -13.6709   27.9255 H         1 ARG         0.0313
    138 H          45.8231  -14.6401   29.3432 H         1 ARG         0.0313
    139 H          46.2000  -12.6572   30.7961 H         1 ARG         0.0301
    140 H          46.8113  -11.7571   29.3668 H         1 ARG         0.0301
    141 H          48.6460  -13.2944   29.0961 H         1 ARG         0.0689
    142 H          47.9766  -14.3946   30.3484 H         1 ARG         0.0689
    143 H          48.4767  -11.7051   31.3666 H         1 ARG         0.2642
    144 H          51.2815  -14.6207   31.7536 H         1 ARG         0.2615
    145 H          49.9490  -14.8322   30.5864 H         1 ARG         0.2615
    146 H          50.1678  -11.4438   32.8480 H         1 ARG         0.2615
    147 H          51.3991  -12.7218   33.0300 H         1 ARG         0.2615
    148 H          44.6210  -12.7602   26.2301 H         1 PHE         0.1885
    149 H          42.9431  -15.1235   25.5615 H         1 PHE         0.0823
    150 H          41.5235  -13.0679   25.5364 H         1 PHE         0.0474
    151 H          41.6713  -13.8645   23.9333 H         1 PHE         0.0474
    152 H          42.9064  -11.0031   25.9814 H         1 PHE         0.0557
    153 H          42.4967  -12.6773   22.0790 H         1 PHE         0.0557
    154 H          43.6480   -8.8761   24.9921 H         1 PHE         0.0599
    155 H          43.2366  -10.5503   21.0869 H         1 PHE         0.0599
    156 H          43.8114   -8.6441   22.5430 H         1 PHE         0.0559
    157 H          43.2380  -15.8778   23.3741 H         1 LEU         0.1883
    158 H          45.8471  -15.0308   22.2015 H         1 LEU         0.0800
    159 H          45.7013  -17.1756   20.9282 H         1 LEU         0.0315
    160 H          44.2101  -17.5729   21.8474 H         1 LEU         0.0315
    161 H          45.4850  -17.6432   23.9267 H         1 LEU         0.0298
    162 H          46.8351  -19.6582   23.4465 H         1 LEU         0.0232
    163 H          46.7384  -19.2971   21.6895 H         1 LEU         0.0232
    164 H          45.2470  -19.6961   22.6079 H         1 LEU         0.0232
    165 H          47.1924  -15.9502   23.3474 H         1 LEU         0.0232
    166 H          47.9316  -17.1015   22.1835 H         1 LEU         0.0232
    167 H          47.9326  -17.4756   23.9405 H         1 LEU         0.0232
    168 H          45.9672  -14.7417   19.9194 H         1 ARG         0.1883
    169 H          43.3352  -14.0814   18.6686 H         1 ARG         0.0800
    170 H          46.1174  -12.9520   18.1430 H         1 ARG         0.0313
    171 H          44.7484  -12.1179   18.9535 H         1 ARG         0.0313
    172 H          43.4804  -12.4993   16.7176 H         1 ARG         0.0301
    173 H          45.1088  -12.8123   16.0270 H         1 ARG         0.0301
    174 H          44.4700  -10.4498   15.7606 H         1 ARG         0.0689
    175 H          45.8830  -10.6202   16.8565 H         1 ARG         0.0689
    176 H          43.1589  -10.4658   18.0706 H         1 ARG         0.2642
    177 H          46.0503   -7.6536   18.5579 H         1 ARG         0.2615
    178 H          46.2770   -8.9438   17.3468 H         1 ARG         0.2615
    179 H          42.8794   -8.8319   19.6029 H         1 ARG         0.2615
    180 H          44.1413   -7.5907   19.8256 H         1 ARG         0.2615
    181 H          42.8519  -14.9341   16.6993 H         1 GLY         0.1881
    182 H          42.8843  -16.5193   15.0234 H         1 GLY         0.0763
    183 H          44.2131  -17.3377   15.9128 H         1 GLY         0.0763
    184 H          45.4558  -17.7746   14.1318 H         1 TYR         0.1885
    185 H          46.9611  -15.5322   12.9874 H         1 TYR         0.0821
    186 H          48.1625  -17.3351   11.7499 H         1 TYR         0.0453
    187 H          47.0432  -18.5398   12.4727 H         1 TYR         0.0453
    188 H          48.4205  -15.6205   14.3117 H         1 TYR         0.0530
    189 H          48.7075  -19.8204   13.6247 H         1 TYR         0.0530
    190 H          49.9137  -15.8355   16.2563 H         1 TYR         0.0525
    191 H          50.1965  -20.0404   15.5695 H         1 TYR         0.0525
    192 H          51.8087  -18.4302   16.8323 H         1 TYR         0.2458
    193 H          47.0914  -15.1442   10.6989 H         1 HIS         0.1885
    194 H          44.5415  -15.2540    9.3541 H         1 HIS         0.0817
    195 H          45.7654  -14.3182    7.4225 H         1 HIS         0.0420
    196 H          47.3222  -14.6194    8.2665 H         1 HIS         0.0420
    197 H          48.0856  -12.6390   10.0242 H         1 HIS         0.0729
    198 H          44.5272  -10.3070    9.7691 H         1 HIS         0.1199
    199 H          46.9108  -10.3932   10.6898 H         1 HIS         0.2361
    200 H          43.7947  -16.6554    7.8379 H         1 LEU         0.1883
    201 H          45.1089  -19.2039    7.5083 H         1 LEU         0.0800
    202 H          43.3320  -19.6458    5.8321 H         1 LEU         0.0315
    203 H          42.7865  -17.9425    5.9990 H         1 LEU         0.0315
    204 H          42.2399  -18.3296    8.3544 H         1 LEU         0.0298
    205 H          40.3370  -19.8642    8.0313 H         1 LEU         0.0232
    206 H          41.0599  -20.4247    6.4854 H         1 LEU         0.0232
    207 H          40.5228  -18.7194    6.6596 H         1 LEU         0.0232
    208 H          43.9525  -20.0453    8.8398 H         1 LEU         0.0232
    209 H          43.0434  -21.2272    7.8382 H         1 LEU         0.0232
    210 H          42.3098  -20.5715    9.3410 H         1 LEU         0.0232
    211 H          45.5054  -20.0636    5.2133 H         1 TYR         0.1885
    212 H          47.8887  -18.8526    4.4640 H         1 TYR         0.0821
    213 H          46.1472  -20.8230    2.9477 H         1 TYR         0.0453
    214 H          47.5432  -21.1651    4.0252 H         1 TYR         0.0453
    215 H          49.6501  -19.4453    3.1474 H         1 TYR         0.0530
    216 H          46.6938  -21.3951    0.7660 H         1 TYR         0.0530
    217 H          51.1610  -19.3611    1.2095 H         1 TYR         0.0525
    218 H          48.2071  -21.3206   -1.1729 H         1 TYR         0.0525
    219 H          51.4351  -19.8783   -0.9246 H         1 TYR         0.2458
    220 H          45.1642  -19.0333    2.1144 H         1 ALA         0.1876
    221 H          45.5883  -16.2510    1.3693 H         1 ALA         0.0748
    222 O1         43.1648  -17.9053    1.0989 O.co2     1 ALA        -0.4120
    223 H          46.3163  -16.7138   -0.9558 H         1 ALA         0.0271
    224 H          46.4595  -18.4584   -0.5527 H         1 ALA         0.0271
    225 H          47.5243  -17.2591    0.2566 H         1 ALA         0.0271
@<TRIPOS>BOND
     1    1    2 1  
     2    2    3 1  
     3    3    4 2  
     4    3    5 am 
     5    5    6 1  
     6    6    7 1  
     7    6    9 1  
     8    7    8 2  
     9    7   11 am 
    10    9   10 1  
    11   11   12 1  
    12   12   13 1  
    13   12   15 1  
    14   13   14 2  
    15   13   19 am 
    16   15   16 1  
    17   16   17 ar 
    18   16   18 ar 
    19   19   20 1  
    20   20   21 1  
    21   20   23 1  
    22   21   22 2  
    23   21   24 am 
    24   24   25 1  
    25   25   26 1  
    26   25   28 1  
    27   26   27 2  
    28   26   35 am 
    29   28   29 1  
    30   29   30 1  
    31   30   31 1  
    32   31   32 ar 
    33   32   33 ar 
    34   32   34 ar 
    35   35   36 1  
    36   36   37 1  
    37   36   39 1  
    38   37   38 2  
    39   37   46 am 
    40   39   40 1  
    41   40   41 ar 
    42   40   42 ar 
    43   41   43 ar 
    44   42   44 ar 
    45   43   45 ar 
    46   44   45 ar 
    47   46   47 1  
    48   47   48 1  
    49   47   50 1  
    50   48   49 2  
    51   48   54 am 
    52   50   51 1  
    53   51   52 1  
    54   51   53 1  
    55   54   55 1  
    56   55   56 1  
    57   55   58 1  
    58   56   57 2  
    59   56   65 am 
    60   58   59 1  
    61   59   60 1  
    62   60   61 1  
    63   61   62 ar 
    64   62   63 ar 
    65   62   64 ar 
    66   65   66 1  
    67   66   67 1  
    68   67   68 2  
    69   67   69 am 
    70   69   70 1  
    71   70   71 1  
    72   70   73 1  
    73   71   72 2  
    74   71   81 am 
    75   73   74 1  
    76   74   75 ar 
    77   74   76 ar 
    78   75   77 ar 
    79   76   78 ar 
    80   77   79 ar 
    81   78   79 ar 
    82   79   80 1  
    83   81   82 1  
    84   82   83 1  
    85   82   85 1  
    86   83   84 2  
    87   83   91 am 
    88   85   86 1  
    89   86   87 1  
    90   86   88 2  
    91   87   89 2  
    92   88   90 1  
    93   89   90 1  
    94   91   92 1  
    95   92   93 1  
    96   92   95 1  
    97   93   94 2  
    98   93   99 am 
    99   95   96 1  
   100   96   97 1  
   101   96   98 1  
   102   99  100 1  
   103  100  101 1  
   104  100  103 1  
   105  101  102 2  
   106  101  111 am 
   107  103  104 1  
   108  104  105 ar 
   109  104  106 ar 
   110  105  107 ar 
   111  106  108 ar 
   112  107  109 ar 
   113  108  109 ar 
   114  109  110 1  
   115  111  112 1  
   116  112  113 1  
   117  112  115 1  
   118  113  114 ar 
   119    1  116 1  
   120    1  117 1  
   121    1  118 1  
   122    2  119 1  
   123    2  120 1  
   124    5  121 1  
   125    6  122 1  
   126    9  123 1  
   127    9  124 1  
   128   10  125 1  
   129   11  126 1  
   130   12  127 1  
   131   15  128 1  
   132   15  129 1  
   133   19  130 1  
   134   20  131 1  
   135   23  132 1  
   136   23  133 1  
   137   23  134 1  
   138   24  135 1  
   139   25  136 1  
   140   28  137 1  
   141   28  138 1  
   142   29  139 1  
   143   29  140 1  
   144   30  141 1  
   145   30  142 1  
   146   31  143 1  
   147   33  144 1  
   148   33  145 1  
   149   34  146 1  
   150   34  147 1  
   151   35  148 1  
   152   36  149 1  
   153   39  150 1  
   154   39  151 1  
   155   41  152 1  
   156   42  153 1  
   157   43  154 1  
   158   44  155 1  
   159   45  156 1  
   160   46  157 1  
   161   47  158 1  
   162   50  159 1  
   163   50  160 1  
   164   51  161 1  
   165   52  162 1  
   166   52  163 1  
   167   52  164 1  
   168   53  165 1  
   169   53  166 1  
   170   53  167 1  
   171   54  168 1  
   172   55  169 1  
   173   58  170 1  
   174   58  171 1  
   175   59  172 1  
   176   59  173 1  
   177   60  174 1  
   178   60  175 1  
   179   61  176 1  
   180   63  177 1  
   181   63  178 1  
   182   64  179 1  
   183   64  180 1  
   184   65  181 1  
   185   66  182 1  
   186   66  183 1  
   187   69  184 1  
   188   70  185 1  
   189   73  186 1  
   190   73  187 1  
   191   75  188 1  
   192   76  189 1  
   193   77  190 1  
   194   78  191 1  
   195   80  192 1  
   196   81  193 1  
   197   82  194 1  
   198   85  195 1  
   199   85  196 1  
   200   88  197 1  
   201   89  198 1  
   202   90  199 1  
   203   91  200 1  
   204   92  201 1  
   205   95  202 1  
   206   95  203 1  
   207   96  204 1  
   208   97  205 1  
   209   97  206 1  
   210   97  207 1  
   211   98  208 1  
   212   98  209 1  
   213   98  210 1  
   214   99  211 1  
   215  100  212 1  
   216  103  213 1  
   217  103  214 1  
   218  105  215 1  
   219  106  216 1  
   220  107  217 1  
   221  108  218 1  
   222  110  219 1  
   223  111  220 1  
   224  112  221 1  
   225  113  222 ar 
   226  115  223 1  
   227  115  224 1  
   228  115  225 1  
@<TRIPOS>SUBSTRUCTURE
     1 GLY         1

