5ohi_ligand
  -I-interpret- 

 55 59  0  0  0  0  0  0  0  0999 V2000
   10.5800  -21.5920   54.3820 N   0  0  0  0  0
   10.5570  -21.1430   55.7770 C   0  0  0  0  0
   11.9510  -20.5650   56.0170 C   0  0  0  0  0
   13.2120  -21.3470   55.7440 C   0  0  0  0  0
   14.4680  -20.8960   56.4740 C   0  0  0  0  0
    8.6550  -22.8940   50.4290 C   0  0  0  0  0
    8.4440  -21.9810   47.7930 C   0  0  0  0  0
    8.3390  -23.7750   49.3990 C   0  0  0  0  0
   16.8240  -20.7880   55.8150 C   0  0  0  0  0
   18.0020  -21.4900   55.2010 C   0  0  0  0  0
   17.9750  -22.8580   54.8900 C   0  0  0  0  0
   19.1610  -20.7490   54.9490 C   0  0  0  0  0
   20.2500  -22.7510   54.1200 C   0  0  0  0  0
   12.6350  -20.4410   54.6830 C   0  0  0  0  0
    9.6100  -22.3820   53.8630 C   0  0  0  0  0
    8.7900  -23.3920   51.8430 C   0  0  0  0  0
    8.2330  -23.3250   48.0860 C   0  0  0  0  0
    8.7300  -21.0880   48.8200 C   0  0  0  0  0
    8.8590  -21.5510   50.1270 C   0  0  0  0  0
   11.7390  -21.0950   53.6300 C   0  0  0  0  0
   19.0850  -23.4870   54.3400 C   0  0  0  0  0
   20.2670  -21.3860   54.3870 C   0  0  0  0  0
    7.9210  -24.2890   46.9840 C   0  0  0  0  0
    8.9980  -19.6510   48.5050 C   0  0  0  0  0
    6.8370  -25.0190   47.2390 F   0  0  0  0  0
    8.9180  -25.1490   46.7580 F   0  0  0  0  0
    7.7080  -23.6890   45.8090 F   0  0  0  0  0
    8.7100  -19.3370   47.2470 F   0  0  0  0  0
   10.2740  -19.3230   48.6660 F   0  0  0  0  0
    8.2960  -18.8150   49.2630 F   0  0  0  0  0
   15.6980  -21.4930   55.9680 N   0  0  0  0  0
   21.4680  -23.1000   53.5700 N   0  0  0  0  0
   22.2250  -22.0350   53.5410 N   0  0  0  0  0
   21.5180  -20.9930   54.0280 N   0  0  0  0  0
    8.6610  -22.7880   54.4960 O   0  0  0  0  0
    9.8330  -22.6580   52.5560 O   0  0  0  0  0
   16.8800  -19.5890   56.0870 O   0  0  0  0  0
   10.3290  -21.9577   56.4643 H   0  0  0  0  0
    9.7735  -20.4067   55.9559 H   0  0  0  0  0
   11.6795  -19.9806   56.8961 H   0  0  0  0  0
   13.5031  -22.3969   55.7751 H   0  0  0  0  0
   14.3644  -21.2043   57.5143 H   0  0  0  0  0
   14.5520  -19.8182   56.3351 H   0  0  0  0  0
    8.3853  -21.6297   46.7628 H   0  0  0  0  0
    8.1727  -24.8287   49.6228 H   0  0  0  0  0
   17.0706  -23.4352   55.0826 H   0  0  0  0  0
   19.1994  -19.6864   55.1890 H   0  0  0  0  0
   13.0909  -19.6723   54.0590 H   0  0  0  0  0
    9.0582  -24.4482   51.8189 H   0  0  0  0  0
    7.8414  -23.2440   52.3592 H   0  0  0  0  0
    9.1227  -20.8537   50.9222 H   0  0  0  0  0
   11.4464  -20.3906   52.8514 H   0  0  0  0  0
   12.2535  -21.8965   53.0999 H   0  0  0  0  0
   19.0462  -24.5455   54.0827 H   0  0  0  0  0
   15.6998  -22.4829   55.7221 H   0  0  0  0  0
  1  2  1  0  0  0
 15  1  1  0  0  0
  1 20  1  0  0  0
  2  3  1  0  0  0
  3  4  1  0  0  0
 14  3  1  0  0  0
  4  5  1  0  0  0
 14  4  1  0  0  0
  5 31  1  0  0  0
  6  8  4  0  0  0
 16  6  1  0  0  0
  6 19  4  0  0  0
 17  7  4  0  0  0
  7 18  4  0  0  0
  8 17  4  0  0  0
  9 10  1  0  0  0
 31  9  1  0  0  0
  9 37  2  0  0  0
 10 11  4  0  0  0
 10 12  4  0  0  0
 11 21  4  0  0  0
 12 22  4  0  0  0
 21 13  4  0  0  0
 22 13  4  0  0  0
 13 32  4  0  0  0
 20 14  1  0  0  0
 15 35  2  0  0  0
 36 15  1  0  0  0
 16 36  1  0  0  0
 17 23  1  0  0  0
 18 19  4  0  0  0
 18 24  1  0  0  0
 22 34  4  0  0  0
 23 25  1  0  0  0
 23 26  1  0  0  0
 23 27  1  0  0  0
 24 28  1  0  0  0
 24 29  1  0  0  0
 24 30  1  0  0  0
 32 33  4  0  0  0
 33 34  4  0  0  0
  2 38  1  0  0  0
  2 39  1  0  0  0
  3 40  1  0  0  0
  4 41  1  0  0  0
  5 42  1  0  0  0
  5 43  1  0  0  0
  7 44  1  0  0  0
  8 45  1  0  0  0
 11 46  1  0  0  0
 12 47  1  0  0  0
 14 48  1  0  0  0
 16 49  1  0  0  0
 16 50  1  0  0  0
 19 51  1  0  0  0
 20 52  1  0  0  0
 20 53  1  0  0  0
 21 54  1  0  0  0
 31 55  1  0  0  0
M  END
$$$$
