2b8l_ligand
  -I-interpret- 

 80 83  0  0  0  0  0  0  0  0999 V2000
   26.3510   36.1890    2.5230 C   0  0  0  0  0
   27.6740   35.5740    2.2480 C   0  0  0  0  0
   26.6870   34.8080    3.0100 C   0  0  0  0  0
   28.7390   36.1050    3.1150 N   0  3  0  0  0
   29.4720   37.1040    2.3060 C   0  0  0  0  0
   30.8030   37.5220    2.9770 C   0  0  0  0  0
   31.5650   38.4160    2.0240 C   0  0  0  0  0
   30.8790   39.7120    2.0350 N   0  0  0  0  0
   30.1950   40.1720    0.9560 C   0  0  0  0  0
   29.8870   39.4610    0.0010 O   0  0  0  0  0
   31.4810   36.2790    3.1410 O   0  0  0  0  0
   33.0760   38.5650    2.3680 C   0  0  0  0  0
   29.8320   41.5880    1.0060 C   0  0  0  0  0
   30.7330   42.5670    1.4570 C   0  0  0  0  0
   30.3830   43.9310    1.5110 C   0  0  0  0  0
   29.0920   44.2990    1.0720 C   0  0  0  0  0
   28.1320   43.3290    0.6230 C   0  0  0  0  0
   28.5300   41.9660    0.5900 C   0  0  0  0  0
   31.3360   44.9360    2.0430 C   0  0  0  0  0
   26.7880   43.6240    0.3260 N   0  0  0  0  0
   31.4420   46.0700    1.6050 O   0  0  0  0  0
   26.1150   42.9320   -0.8000 C   0  0  0  0  0
   25.9620   44.8620    1.0060 S   0  0  0  0  0
   26.3100   46.3310    0.0220 C   0  0  0  0  0
   24.5520   44.5630    0.9080 O   0  0  0  0  0
   26.4980   45.1150    2.3010 O   0  0  0  0  0
   33.7200   40.0050    0.3100 C   0  0  0  0  0
   34.4600   41.0710   -0.2550 C   0  0  0  0  0
   35.2490   41.8810    0.5760 C   0  0  0  0  0
   35.3150   41.6660    1.9560 C   0  0  0  0  0
   34.5650   40.5900    2.5280 C   0  0  0  0  0
   33.7790   39.7520    1.7110 C   0  0  0  0  0
   32.1030   44.5090    3.0840 N   0  0  0  0  0
   33.0780   45.2910    3.8410 C   0  0  0  0  0
   34.4390   44.5080    3.8880 C   0  0  0  0  0
   32.5470   45.6460    5.1880 C   0  0  0  0  0
   32.1710   44.6650    6.1520 C   0  0  0  0  0
   31.7740   45.0460    7.4420 C   0  0  0  0  0
   31.6940   46.4230    7.7970 C   0  0  0  0  0
   31.9930   47.3820    6.8210 C   0  0  0  0  0
   32.4230   47.0030    5.5410 C   0  0  0  0  0
   25.5531   36.7092    1.9931 H   0  0  0  0  0
   25.9338   37.1222    2.9014 H   0  0  0  0  0
   28.2606   35.3989    1.3462 H   0  0  0  0  0
   26.2468   33.8108    3.0065 H   0  0  0  0  0
   26.6358   34.2327    3.9344 H   0  0  0  0  0
   29.3607   35.3606    3.4309 H   0  0  0  0  0
   28.3498   36.5286    3.9573 H   0  0  0  0  0
   28.8455   37.9903    2.2060 H   0  0  0  0  0
   29.7013   36.6592    1.3377 H   0  0  0  0  0
   30.6848   38.0664    3.9139 H   0  0  0  0  0
   31.5661   37.9666    1.0309 H   0  0  0  0  0
   30.9168   40.2848    2.8781 H   0  0  0  0  0
   30.9860   35.7234    3.7476 H   0  0  0  0  0
   33.5707   37.6659    2.0006 H   0  0  0  0  0
   33.1378   38.7217    3.4449 H   0  0  0  0  0
   31.7306   42.2631    1.7740 H   0  0  0  0  0
   28.8150   45.3532    1.0739 H   0  0  0  0  0
   27.8303   41.2057    0.2428 H   0  0  0  0  0
   26.6467   43.1471   -1.7269 H   0  0  0  0  0
   26.1187   41.8572   -0.6186 H   0  0  0  0  0
   25.0868   43.2849   -0.8792 H   0  0  0  0  0
   26.0421   46.1423   -1.0176 H   0  0  0  0  0
   25.7257   47.1686    0.4028 H   0  0  0  0  0
   27.3720   46.5675    0.0876 H   0  0  0  0  0
   33.1021   39.3747   -0.3295 H   0  0  0  0  0
   34.4174   41.2613   -1.3274 H   0  0  0  0  0
   35.8233   42.6961    0.1358 H   0  0  0  0  0
   35.9289   42.3088    2.5870 H   0  0  0  0  0
   34.6017   40.4169    3.6035 H   0  0  0  0  0
   31.9838   43.5362    3.3664 H   0  0  0  0  0
   33.2659   46.2427    3.3440 H   0  0  0  0  0
   34.2854   43.5438    4.3725 H   0  0  0  0  0
   34.8021   44.3519    2.8722 H   0  0  0  0  0
   35.1705   45.0870    4.4518 H   0  0  0  0  0
   32.1923   43.6087    5.8837 H   0  0  0  0  0
   31.5247   44.2823    8.1787 H   0  0  0  0  0
   31.4068   46.7235    8.8046 H   0  0  0  0  0
   31.8898   48.4404    7.0602 H   0  0  0  0  0
   32.6652   47.7719    4.8074 H   0  0  0  0  0
  2  1  1  0  0  0
  3  1  1  0  0  0
  2  3  1  0  0  0
  4  2  1  0  0  0
  5  4  1  0  0  0
  6  5  1  0  0  0
  7  6  1  0  0  0
  6 11  1  0  0  0
  7  8  1  0  0  0
 12  7  1  0  0  0
  8  9  1  0  0  0
  9 10  2  0  0  0
  9 13  1  0  0  0
 32 12  1  0  0  0
 13 14  4  0  0  0
 13 18  4  0  0  0
 14 15  4  0  0  0
 15 16  4  0  0  0
 15 19  1  0  0  0
 17 16  4  0  0  0
 18 17  4  0  0  0
 17 20  1  0  0  0
 19 21  2  0  0  0
 19 33  1  0  0  0
 20 22  1  0  0  0
 20 23  1  0  0  0
 23 24  1  0  0  0
 23 25  2  0  0  0
 23 26  2  0  0  0
 27 28  4  0  0  0
 27 32  4  0  0  0
 28 29  4  0  0  0
 29 30  4  0  0  0
 30 31  4  0  0  0
 31 32  4  0  0  0
 33 34  1  0  0  0
 34 35  1  0  0  0
 34 36  1  0  0  0
 36 37  4  0  0  0
 36 41  4  0  0  0
 37 38  4  0  0  0
 38 39  4  0  0  0
 39 40  4  0  0  0
 40 41  4  0  0  0
  1 42  1  0  0  0
  1 43  1  0  0  0
  2 44  1  0  0  0
  3 45  1  0  0  0
  3 46  1  0  0  0
  4 47  1  0  0  0
  4 48  1  0  0  0
  5 49  1  0  0  0
  5 50  1  0  0  0
  6 51  1  0  0  0
  7 52  1  0  0  0
  8 53  1  0  0  0
 11 54  1  0  0  0
 12 55  1  0  0  0
 12 56  1  0  0  0
 14 57  1  0  0  0
 16 58  1  0  0  0
 18 59  1  0  0  0
 22 60  1  0  0  0
 22 61  1  0  0  0
 22 62  1  0  0  0
 24 63  1  0  0  0
 24 64  1  0  0  0
 24 65  1  0  0  0
 27 66  1  0  0  0
 28 67  1  0  0  0
 29 68  1  0  0  0
 30 69  1  0  0  0
 31 70  1  0  0  0
 33 71  1  0  0  0
 34 72  1  0  0  0
 35 73  1  0  0  0
 35 74  1  0  0  0
 35 75  1  0  0  0
 37 76  1  0  0  0
 38 77  1  0  0  0
 39 78  1  0  0  0
 40 79  1  0  0  0
 41 80  1  0  0  0
M  END
$$$$
