6uyy_ligand
  -I-interpret- 

187186  0  0  0  0  0  0  0  0999 V2000
    6.9710   -7.4450  -13.0780 N   0  3  0  0  0
    7.5780   -8.6990  -13.5150 C   0  0  0  0  0
    7.8010   -9.6450  -12.3300 C   0  0  0  0  0
    7.5010  -10.8480  -12.4070 O   0  0  0  0  0
    8.8990   -8.4210  -14.2350 C   0  0  0  0  0
    9.7810   -7.4040  -13.5240 C   0  0  0  0  0
   11.2170   -7.8710  -13.3980 C   0  0  0  0  0
   11.7450   -8.4370  -14.3790 O   0  0  0  0  0
   11.8130   -7.6840  -12.3150 O   0  0  0  0  0
    8.3550   -9.1120  -11.2460 N   0  0  0  0  0
    8.4730   -9.9000  -10.0280 C   0  0  0  0  0
    7.0930  -10.1290   -9.4250 C   0  0  0  0  0
    6.2230   -9.2600   -9.4740 O   0  0  0  0  0
    9.3750   -9.2160   -9.0130 C   0  0  0  0  0
    6.9010  -11.3090   -8.8620 N   0  0  0  0  0
    5.6840  -11.6050   -8.1420 C   0  0  0  0  0
    5.8160  -11.0090   -6.7470 C   0  0  0  0  0
    6.9220  -10.7740   -6.2620 O   0  0  0  0  0
    5.4540  -13.1050   -8.0520 C   0  0  0  0  0
    5.3430  -13.7770   -9.3970 C   0  0  0  0  0
    4.5350  -15.0350   -9.3710 C   0  0  0  0  0
    4.2140  -15.5220   -8.2740 O   0  0  0  0  0
    4.2080  -15.5360  -10.4730 O   0  0  0  0  0
    4.6770  -10.7700   -6.1170 N   0  0  0  0  0
    4.6560  -10.3500   -4.7180 C   0  0  0  0  0
    5.2540  -11.4190   -3.8120 C   0  0  0  0  0
    4.9550  -12.6160   -3.9410 O   0  0  0  0  0
    3.2210  -10.0640   -4.2950 C   0  0  0  0  0
    3.0840   -9.4160   -2.9520 C   0  0  0  0  0
    1.6520   -8.9940   -2.6610 C   0  0  0  0  0
    0.7290   -9.7190   -3.0640 O   0  0  0  0  0
    1.4660   -7.9390   -2.0270 O   0  0  0  0  0
    6.0970  -10.9710   -2.8740 N   0  0  0  0  0
    6.7710  -11.8220   -1.8950 C   0  0  0  0  0
    6.4490  -11.3410   -0.4860 C   0  0  0  0  0
    6.8240  -10.2340   -0.1090 O   0  0  0  0  0
    8.2820  -11.8130   -2.1400 C   0  0  0  0  0
    8.6730  -12.5160   -3.4270 C   0  0  0  0  0
   10.1510  -12.4450   -3.6710 C   0  0  0  0  0
   10.5780  -11.0980   -4.0320 N   0  0  0  0  0
   11.8410  -10.7450   -4.2210 C   0  0  0  0  0
   12.8110  -11.6300   -4.0430 N   0  0  0  0  0
   12.1420   -9.4840   -4.5450 N   0  0  0  0  0
    5.7400  -12.1770    0.2810 N   0  0  0  0  0
    5.3980  -11.9100    1.6810 C   0  0  0  0  0
    5.8600  -13.1110    2.4970 C   0  0  0  0  0
    5.4580  -14.2590    2.2120 O   0  0  0  0  0
    3.8850  -11.6630    1.8590 C   0  0  0  0  0
    3.4210  -10.4560    1.0210 C   0  0  0  0  0
    3.5520  -11.4800    3.3330 C   0  0  0  0  0
    1.8850  -10.2660    0.9830 C   0  0  0  0  0
    6.7260  -12.8650    3.4800 N   0  0  0  0  0
    7.2880  -13.8800    4.3750 C   0  0  0  0  0
    6.7740  -13.6150    5.7890 C   0  0  0  0  0
    6.9580  -12.5080    6.3150 O   0  0  0  0  0
    8.8300  -13.8320    4.3950 C   0  0  0  0  0
    9.4220  -14.2200    3.0380 C   0  0  0  0  0
    9.3800  -14.7250    5.5120 C   0  0  0  0  0
    9.2110  -15.6990    2.6420 C   0  0  0  0  0
    6.1950  -14.6350    6.4200 N   0  0  0  0  0
    5.8410  -14.5590    7.8390 C   0  0  0  0  0
    7.0160  -15.0440    8.6720 C   0  0  0  0  0
    7.5180  -16.1560    8.4620 O   0  0  0  0  0
    4.5890  -15.3920    8.1470 C   0  0  0  0  0
    4.2060  -15.2680    9.6140 C   0  0  0  0  0
    3.4350  -14.9890    7.2590 C   0  0  0  0  0
    7.4550  -14.2130    9.6140 N   0  0  0  0  0
    8.5630  -14.5780   10.4660 C   0  0  0  0  0
    8.0320  -15.1350   11.7750 C   0  0  0  0  0
    7.0960  -14.5870   12.3590 O   0  0  0  0  0
    9.4630  -13.3730   10.7090 C   0  0  0  0  0
   10.1380  -12.7910    9.4690 C   0  0  0  0  0
   10.9390  -11.5410    9.8720 C   0  0  0  0  0
   11.0420  -13.8110    8.7780 C   0  0  0  0  0
    8.6500  -16.2140   12.2390 N   0  0  0  0  0
    8.2570  -16.8500   13.5060 C   0  0  0  0  0
    8.9040  -18.2250   13.6290 C   0  0  0  0  0
   10.3120  -18.0660   13.5750 O   0  0  0  0  0
    8.6930  -15.9720   14.6820 C   0  0  0  0  0
    9.6860  -15.2620   14.5640 O   0  0  0  0  0
   11.0980  -19.4640   13.4990 P   0  0  0  0  0
   10.8470  -20.1470   12.0540 O   0  0  0  0  0
   10.5740  -20.4240   14.6820 O   0  0  0  0  0
   12.6670  -19.1490   13.6900 O   0  0  0  0  0
    7.9840  -16.0210   15.8100 N   0  0  0  0  0
    8.4380  -15.2890   16.9960 C   0  0  0  0  0
    9.0790  -16.2540   18.0020 C   0  0  0  0  0
    8.9190  -17.4740   17.9090 O   0  0  0  0  0
    7.2920  -14.5050   17.6520 C   0  0  0  0  0
    7.7780  -13.5840   18.7790 C   0  0  0  0  0
    8.2300  -14.1200   19.8110 O   0  0  0  0  0
    7.7310  -12.3370   18.6320 O   0  0  0  0  0
    9.7730  -15.8380   18.9340 O   0  0  0  0  0
    6.0920   -7.6426  -12.5999 H   0  0  0  0  0
    7.6061   -6.9654  -12.4400 H   0  0  0  0  0
    6.7924   -6.8540  -13.8899 H   0  0  0  0  0
    6.8939   -9.1872  -14.2091 H   0  0  0  0  0
    8.6560   -8.0125  -15.2159 H   0  0  0  0  0
    9.4517   -9.3596  -14.2761 H   0  0  0  0  0
    9.3847   -7.2587  -12.5191 H   0  0  0  0  0
    9.7758   -6.4853  -14.1105 H   0  0  0  0  0
   11.2266   -7.2350  -11.7017 H   0  0  0  0  0
    8.6973   -8.1514  -11.2676 H   0  0  0  0  0
    8.9220  -10.8590  -10.2864 H   0  0  0  0  0
   10.3691   -9.0870   -9.4410 H   0  0  0  0  0
    8.9588   -8.2416   -8.7574 H   0  0  0  0  0
    9.4415   -9.8308   -8.1154 H   0  0  0  0  0
    7.6250  -12.0236   -8.9371 H   0  0  0  0  0
    4.8297  -11.1762   -8.6659 H   0  0  0  0  0
    4.5109  -13.2614   -7.5283 H   0  0  0  0  0
    6.3124  -13.5383   -7.5387 H   0  0  0  0  0
    6.3514  -14.0421   -9.7148 H   0  0  0  0  0
    4.8433  -13.0808  -10.0706 H   0  0  0  0  0
    4.5617  -14.9983  -11.1853 H   0  0  0  0  0
    3.7958  -10.8813   -6.6185 H   0  0  0  0  0
    5.2590   -9.4471   -4.6219 H   0  0  0  0  0
    2.7087  -11.0245   -4.2384 H   0  0  0  0  0
    2.8061   -9.3706   -5.0265 H   0  0  0  0  0
    3.7095   -8.5234   -2.9408 H   0  0  0  0  0
    3.3850  -10.1393   -2.1942 H   0  0  0  0  0
    2.3134   -7.5402   -1.8159 H   0  0  0  0  0
    6.2816   -9.9684   -2.8399 H   0  0  0  0  0
    6.4144  -12.8463   -2.0029 H   0  0  0  0  0
    8.7575  -12.3410   -1.3134 H   0  0  0  0  0
    8.6017  -10.7738   -2.2168 H   0  0  0  0  0
    8.1641  -12.0235   -4.2556 H   0  0  0  0  0
    8.3884  -13.5650   -3.3454 H   0  0  0  0  0
   10.3937  -13.1136   -4.4970 H   0  0  0  0  0
   10.6634  -12.7315   -2.7526 H   0  0  0  0  0
    9.8595  -10.3831   -4.1461 H   0  0  0  0  0
   12.5856  -12.5838   -3.7603 H   0  0  0  0  0
   13.1168   -9.2044   -4.6548 H   0  0  0  0  0
   11.3970   -8.8010   -4.6825 H   0  0  0  0  0
    5.4184  -13.0520   -0.1330 H   0  0  0  0  0
    5.8953  -11.0020    2.0220 H   0  0  0  0  0
    3.3439  -12.5367    1.4957 H   0  0  0  0  0
    3.7500  -10.6292   -0.0036 H   0  0  0  0  0
    3.8452   -9.5628    1.4796 H   0  0  0  0  0
    3.8345  -12.3781    3.8822 H   0  0  0  0  0
    4.1023  -10.6247    3.7250 H   0  0  0  0  0
    2.4816  -11.3066    3.4435 H   0  0  0  0  0
    1.4209  -11.1535    0.5528 H   0  0  0  0  0
    1.5136  -10.1154    1.9967 H   0  0  0  0  0
    1.6428   -9.3958    0.3729 H   0  0  0  0  0
    7.0193  -11.8981    3.6196 H   0  0  0  0  0
    6.9820  -14.8627    4.0161 H   0  0  0  0  0
    9.1306  -12.8040    4.5972 H   0  0  0  0  0
   10.4981  -14.0589    3.1030 H   0  0  0  0  0
    8.9164  -13.6144    2.2859 H   0  0  0  0  0
    9.0017  -14.3769    6.4732 H   0  0  0  0  0
    9.0592  -15.7532    5.3446 H   0  0  0  0  0
   10.4690  -14.6779    5.5101 H   0  0  0  0  0
    9.6781  -16.3434    3.3868 H   0  0  0  0  0
    8.1431  -15.9121    2.5938 H   0  0  0  0  0
    9.6635  -15.8809    1.6672 H   0  0  0  0  0
    5.9931  -15.4902    5.9021 H   0  0  0  0  0
    5.6150  -13.5224    8.0888 H   0  0  0  0  0
    4.8234  -16.4363    7.9408 H   0  0  0  0  0
    5.0281  -15.6251   10.2343 H   0  0  0  0  0
    4.0003  -14.2234    9.8474 H   0  0  0  0  0
    3.3162  -15.8670    9.8078 H   0  0  0  0  0
    3.2029  -13.9366    7.4222 H   0  0  0  0  0
    3.7096  -15.1443    6.2157 H   0  0  0  0  0
    2.5628  -15.5964    7.5007 H   0  0  0  0  0
    7.0034  -13.3066    9.7361 H   0  0  0  0  0
    9.1603  -15.3466    9.9756 H   0  0  0  0  0
   10.2637  -13.7128   11.3659 H   0  0  0  0  0
    8.8244  -12.5865   11.1111 H   0  0  0  0  0
    9.3643  -12.5185    8.7512 H   0  0  0  0  0
   10.2640  -10.8021   10.3038 H   0  0  0  0  0
   11.6955  -11.8170   10.6066 H   0  0  0  0  0
   11.4231  -11.1213    8.9902 H   0  0  0  0  0
   11.8198  -14.1331    9.4704 H   0  0  0  0  0
   10.4480  -14.6718    8.4708 H   0  0  0  0  0
   11.5008  -13.3531    7.9017 H   0  0  0  0  0
    9.4194  -16.6137   11.7018 H   0  0  0  0  0
    7.1732  -16.9654   13.5198 H   0  0  0  0  0
    8.5705  -18.8674   12.8140 H   0  0  0  0  0
    8.6177  -18.6878   14.5734 H   0  0  0  0  0
   11.1655  -19.5602   11.3643 H   0  0  0  0  0
   12.9662  -18.5769   12.9795 H   0  0  0  0  0
    7.1243  -16.5687   15.8477 H   0  0  0  0  0
    9.1864  -14.5645   16.6750 H   0  0  0  0  0
    6.5963  -15.2249   18.0831 H   0  0  0  0  0
    6.8291  -13.8829   16.8860 H   0  0  0  0  0
    7.3518  -12.1311   17.7744 H   0  0  0  0  0
    9.8188  -14.8799   18.8946 H   0  0  0  0  0
  1  2  1  0  0  0
  2  3  1  0  0  0
  2  5  1  0  0  0
  3  4  2  0  0  0
  3 10  1  0  0  0
  5  6  1  0  0  0
  6  7  1  0  0  0
  7  8  2  0  0  0
  7  9  1  0  0  0
 10 11  1  0  0  0
 11 12  1  0  0  0
 11 14  1  0  0  0
 12 13  2  0  0  0
 12 15  1  0  0  0
 15 16  1  0  0  0
 16 17  1  0  0  0
 16 19  1  0  0  0
 17 18  2  0  0  0
 17 24  1  0  0  0
 19 20  1  0  0  0
 20 21  1  0  0  0
 21 22  2  0  0  0
 21 23  1  0  0  0
 24 25  1  0  0  0
 25 26  1  0  0  0
 25 28  1  0  0  0
 26 27  2  0  0  0
 26 33  1  0  0  0
 28 29  1  0  0  0
 29 30  1  0  0  0
 30 31  2  0  0  0
 30 32  1  0  0  0
 33 34  1  0  0  0
 34 35  1  0  0  0
 34 37  1  0  0  0
 35 36  2  0  0  0
 35 44  1  0  0  0
 37 38  1  0  0  0
 38 39  1  0  0  0
 39 40  1  0  0  0
 40 41  1  0  0  0
 41 42  2  0  0  0
 41 43  1  0  0  0
 44 45  1  0  0  0
 45 46  1  0  0  0
 45 48  1  0  0  0
 46 47  2  0  0  0
 46 52  1  0  0  0
 48 49  1  0  0  0
 48 50  1  0  0  0
 49 51  1  0  0  0
 52 53  1  0  0  0
 53 54  1  0  0  0
 53 56  1  0  0  0
 54 55  2  0  0  0
 54 60  1  0  0  0
 56 57  1  0  0  0
 56 58  1  0  0  0
 57 59  1  0  0  0
 60 61  1  0  0  0
 61 62  1  0  0  0
 61 64  1  0  0  0
 62 63  2  0  0  0
 62 67  1  0  0  0
 64 65  1  0  0  0
 64 66  1  0  0  0
 67 68  1  0  0  0
 68 69  1  0  0  0
 68 71  1  0  0  0
 69 70  2  0  0  0
 69 75  1  0  0  0
 71 72  1  0  0  0
 72 73  1  0  0  0
 72 74  1  0  0  0
 75 76  1  0  0  0
 76 77  1  0  0  0
 76 79  1  0  0  0
 77 78  1  0  0  0
 78 81  1  0  0  0
 79 80  2  0  0  0
 79 85  1  0  0  0
 81 82  1  0  0  0
 81 83  2  0  0  0
 81 84  1  0  0  0
 85 86  1  0  0  0
 86 87  1  0  0  0
 86 89  1  0  0  0
 87 88  2  0  0  0
 87 93  1  0  0  0
 89 90  1  0  0  0
 90 91  2  0  0  0
 90 92  1  0  0  0
  1 94  1  0  0  0
  1 95  1  0  0  0
  1 96  1  0  0  0
  2 97  1  0  0  0
  5 98  1  0  0  0
  5 99  1  0  0  0
  6100  1  0  0  0
  6101  1  0  0  0
  9102  1  0  0  0
 10103  1  0  0  0
 11104  1  0  0  0
 14105  1  0  0  0
 14106  1  0  0  0
 14107  1  0  0  0
 15108  1  0  0  0
 16109  1  0  0  0
 19110  1  0  0  0
 19111  1  0  0  0
 20112  1  0  0  0
 20113  1  0  0  0
 23114  1  0  0  0
 24115  1  0  0  0
 25116  1  0  0  0
 28117  1  0  0  0
 28118  1  0  0  0
 29119  1  0  0  0
 29120  1  0  0  0
 32121  1  0  0  0
 33122  1  0  0  0
 34123  1  0  0  0
 37124  1  0  0  0
 37125  1  0  0  0
 38126  1  0  0  0
 38127  1  0  0  0
 39128  1  0  0  0
 39129  1  0  0  0
 40130  1  0  0  0
 42131  1  0  0  0
 43132  1  0  0  0
 43133  1  0  0  0
 44134  1  0  0  0
 45135  1  0  0  0
 48136  1  0  0  0
 49137  1  0  0  0
 49138  1  0  0  0
 50139  1  0  0  0
 50140  1  0  0  0
 50141  1  0  0  0
 51142  1  0  0  0
 51143  1  0  0  0
 51144  1  0  0  0
 52145  1  0  0  0
 53146  1  0  0  0
 56147  1  0  0  0
 57148  1  0  0  0
 57149  1  0  0  0
 58150  1  0  0  0
 58151  1  0  0  0
 58152  1  0  0  0
 59153  1  0  0  0
 59154  1  0  0  0
 59155  1  0  0  0
 60156  1  0  0  0
 61157  1  0  0  0
 64158  1  0  0  0
 65159  1  0  0  0
 65160  1  0  0  0
 65161  1  0  0  0
 66162  1  0  0  0
 66163  1  0  0  0
 66164  1  0  0  0
 67165  1  0  0  0
 68166  1  0  0  0
 71167  1  0  0  0
 71168  1  0  0  0
 72169  1  0  0  0
 73170  1  0  0  0
 73171  1  0  0  0
 73172  1  0  0  0
 74173  1  0  0  0
 74174  1  0  0  0
 74175  1  0  0  0
 75176  1  0  0  0
 76177  1  0  0  0
 77178  1  0  0  0
 77179  1  0  0  0
 82180  1  0  0  0
 84181  1  0  0  0
 85182  1  0  0  0
 86183  1  0  0  0
 89184  1  0  0  0
 89185  1  0  0  0
 92186  1  0  0  0
 93187  1  0  0  0
M  END
$$$$
