### 
### Created by X-TOOL on Mon Aug  2 16:17:08 2021
### 

@<TRIPOS>MOLECULE
6uyy_ligand
  181   180     1     0     0
SMALL
GAST_HUCK


@<TRIPOS>ATOM
      1 N           6.9710   -7.4450  -13.0780 N.4       1 GLU         0.2380
      2 CA          7.5780   -8.6990  -13.5150 C.3       1 GLU         0.0665
      3 C           7.8010   -9.6450  -12.3300 C.2       1 GLU         0.2268
      4 O           7.5010  -10.8480  -12.4070 O.2       1 GLU        -0.3907
      5 CB          8.8990   -8.4210  -14.2350 C.3       1 GLU         0.0194
      6 CG          9.7810   -7.4040  -13.5240 C.3       1 GLU         0.0075
      7 CD         11.2170   -7.8710  -13.3980 C.2       1 GLU         0.0351
      8 OE1        11.7450   -8.4370  -14.3790 O.co2     1 GLU        -0.5690
      9 OE2        11.8130   -7.6840  -12.3150 O.co2     1 GLU        -0.5690
     10 N           8.3550   -9.1120  -11.2460 N.am      1 GLU        -0.2613
     11 CA          8.4730   -9.9000  -10.0280 C.3       1 GLU         0.1283
     12 C           7.0930  -10.1290   -9.4250 C.2       1 GLU         0.2036
     13 O           6.2230   -9.2600   -9.4740 O.2       1 GLU        -0.3944
     14 CB          9.3750   -9.2160   -9.0130 C.3       1 GLU        -0.0244
     15 N           6.9010  -11.3090   -8.8620 N.am      1 GLU        -0.2636
     16 CA          5.6840  -11.6050   -8.1420 C.3       1 GLU         0.1325
     17 C           5.8160  -11.0090   -6.7470 C.2       1 GLU         0.2040
     18 O           6.9220  -10.7740   -6.2620 O.2       1 GLU        -0.3944
     19 CB          5.4540  -13.1050   -8.0520 C.3       1 GLU        -0.0008
     20 CG          5.3430  -13.7770   -9.3970 C.3       1 GLU         0.0044
     21 CD          4.5350  -15.0350   -9.3710 C.2       1 GLU         0.0350
     22 OE1         4.2140  -15.5220   -8.2740 O.co2     1 GLU        -0.5690
     23 OE2         4.2080  -15.5360  -10.4730 O.co2     1 GLU        -0.5690
     24 N           4.6770  -10.7700   -6.1170 N.am      1 GLU        -0.2636
     25 CA          4.6560  -10.3500   -4.7180 C.3       1 GLU         0.1325
     26 C           5.2540  -11.4190   -3.8120 C.2       1 GLU         0.2040
     27 O           4.9550  -12.6160   -3.9410 O.2       1 GLU        -0.3944
     28 CB          3.2210  -10.0640   -4.2950 C.3       1 GLU        -0.0008
     29 CG          3.0840   -9.4160   -2.9520 C.3       1 GLU         0.0044
     30 CD          1.6520   -8.9940   -2.6610 C.2       1 GLU         0.0350
     31 OE1         0.7290   -9.7190   -3.0640 O.co2     1 GLU        -0.5690
     32 OE2         1.4660   -7.9390   -2.0270 O.co2     1 GLU        -0.5690
     33 N           6.0970  -10.9710   -2.8740 N.am      1 GLU        -0.2637
     34 CA          6.7710  -11.8220   -1.8950 C.3       1 GLU         0.1311
     35 C           6.4490  -11.3410   -0.4860 C.2       1 GLU         0.2039
     36 O           6.8240  -10.2340   -0.1090 O.2       1 GLU        -0.3944
     37 CB          8.2820  -11.8130   -2.1400 C.3       1 GLU        -0.0092
     38 CG          8.6730  -12.5160   -3.4270 C.3       1 GLU        -0.0156
     39 CD         10.1510  -12.4450   -3.6710 C.3       1 GLU         0.0627
     40 NE         10.5780  -11.0980   -4.0320 N.pl3     1 GLU        -0.2723
     41 CZ         11.8410  -10.7450   -4.2210 C.cat     1 GLU         0.2882
     42 NH1        12.8110  -11.6300   -4.0430 N.pl3     1 GLU        -0.2849
     43 NH2        12.1420   -9.4840   -4.5450 N.pl3     1 GLU        -0.2849
     44 N           5.7400  -12.1770    0.2810 N.am      1 GLU        -0.2635
     45 CA          5.3980  -11.9100    1.6810 C.3       1 GLU         0.1335
     46 C           5.8600  -13.1110    2.4970 C.2       1 GLU         0.2042
     47 O           5.4580  -14.2590    2.2120 O.2       1 GLU        -0.3944
     48 CB          3.8850  -11.6630    1.8590 C.3       1 GLU        -0.0037
     49 CG1         3.4210  -10.4560    1.0210 C.3       1 GLU        -0.0491
     50 CG2         3.5520  -11.4800    3.3330 C.3       1 GLU        -0.0582
     51 CD1         1.8850  -10.2660    0.9830 C.3       1 GLU        -0.0648
     52 N           6.7260  -12.8650    3.4800 N.am      1 GLU        -0.2635
     53 CA          7.2880  -13.8800    4.3750 C.3       1 GLU         0.1335
     54 C           6.7740  -13.6150    5.7890 C.2       1 GLU         0.2042
     55 O           6.9580  -12.5080    6.3150 O.2       1 GLU        -0.3944
     56 CB          8.8300  -13.8320    4.3950 C.3       1 GLU        -0.0037
     57 CG1         9.4220  -14.2200    3.0380 C.3       1 GLU        -0.0491
     58 CG2         9.3800  -14.7250    5.5120 C.3       1 GLU        -0.0582
     59 CD1         9.2110  -15.6990    2.6420 C.3       1 GLU        -0.0648
     60 N           6.1950  -14.6350    6.4200 N.am      1 GLU        -0.2635
     61 CA          5.8410  -14.5590    7.8390 C.3       1 GLU         0.1332
     62 C           7.0160  -15.0440    8.6720 C.2       1 GLU         0.2041
     63 O           7.5180  -16.1560    8.4620 O.2       1 GLU        -0.3944
     64 CB          4.5890  -15.3920    8.1470 C.3       1 GLU        -0.0063
     65 CG1         4.2060  -15.2680    9.6140 C.3       1 GLU        -0.0584
     66 CG2         3.4350  -14.9890    7.2590 C.3       1 GLU        -0.0584
     67 N           7.4550  -14.2130    9.6140 N.am      1 GLU        -0.2637
     68 CA          8.5630  -14.5780   10.4660 C.3       1 GLU         0.1312
     69 C           8.0320  -15.1350   11.7750 C.2       1 GLU         0.2040
     70 O           7.0960  -14.5870   12.3590 O.2       1 GLU        -0.3944
     71 CB          9.4630  -13.3730   10.7090 C.3       1 GLU        -0.0101
     72 CG         10.1380  -12.7910    9.4690 C.3       1 GLU        -0.0425
     73 CD1        10.9390  -11.5410    9.8720 C.3       1 GLU        -0.0625
     74 CD2        11.0420  -13.8110    8.7780 C.3       1 GLU        -0.0625
     75 N           8.6500  -16.2140   12.2390 N.am      1 GLU        -0.2613
     76 CA          8.2570  -16.8500   13.5060 C.3       1 GLU         0.1586
     77 CB          8.9040  -18.2250   13.6290 C.3       1 GLU         0.1184
     78 OG         10.3120  -18.0660   13.5750 O.3       1 GLU        -0.2714
     79 C           8.6930  -15.9720   14.6820 C.2       1 GLU         0.2061
     80 O           9.6860  -15.2620   14.5640 O.2       1 GLU        -0.3943
     81 P          11.0980  -19.4640   13.4990 P.3       1 GLU         0.2010
     82 O1P        10.8470  -20.1470   12.0540 O.co2     1 GLU        -0.5537
     83 O2P        10.5740  -20.4240   14.6820 O.co2     1 GLU        -0.5537
     84 O3P        12.6670  -19.1490   13.6900 O.co2     1 GLU        -0.5537
     85 N           7.9840  -16.0210   15.8100 N.am      1 GLU        -0.2679
     86 CA          8.4380  -15.2890   16.9960 C.3       1 GLU         0.1057
     87 C           9.0790  -16.2540   18.0020 C.2       1 GLU         0.0618
     88 O           8.9190  -17.4740   17.9090 O.co2     1 GLU        -0.5665
     89 CB          7.2920  -14.5050   17.6520 C.3       1 GLU         0.0351
     90 CG          7.7780  -13.5840   18.7790 C.2       1 GLU         0.0387
     91 OD1         8.2300  -14.1200   19.8110 O.co2     1 GLU        -0.5688
     92 OD2         7.7310  -12.3370   18.6320 O.co2     1 GLU        -0.5688
     93 OXT         9.7730  -15.8380   18.9340 O.co2     1 GLU        -0.5665
     94 H1          6.8352   -6.8420  -13.8743 H         1 GLU         0.2015
     95 H2          7.5779   -6.9917  -12.4130 H         1 GLU         0.2015
     96 H3          6.0808   -7.6355  -12.6452 H         1 GLU         0.2015
     97 H4          6.8920   -9.1879  -14.2223 H         1 GLU         0.1099
     98 H5          8.6724   -8.0404  -15.2419 H         1 GLU         0.0363
     99 H6          9.4556   -9.3663  -14.3169 H         1 GLU         0.0363
    100 H7          9.3768   -7.2297  -12.5159 H         1 GLU         0.0434
    101 H8          9.7645   -6.4630  -14.0935 H         1 GLU         0.0434
    102 H9          8.6906   -8.1702  -11.2671 H         1 GLU         0.1884
    103 H10         8.9134  -10.8748  -10.2844 H         1 GLU         0.0797
    104 H11         9.4429   -9.8356   -8.1066 H         1 GLU         0.0277
    105 H12         8.9560   -8.2324   -8.7542 H         1 GLU         0.0277
    106 H13        10.3787   -9.0852   -9.4438 H         1 GLU         0.0277
    107 H14         7.6108  -12.0096   -8.9356 H         1 GLU         0.1883
    108 H15         4.8307  -11.1439   -8.6609 H         1 GLU         0.0801
    109 H16         4.5213  -13.2818   -7.4963 H         1 GLU         0.0330
    110 H17         6.2968  -13.5546   -7.5065 H         1 GLU         0.0330
    111 H18         6.3562  -14.0214   -9.7487 H         1 GLU         0.0433
    112 H19         4.8706  -13.0744  -10.0992 H         1 GLU         0.0433
    113 H20         3.8131  -10.8791   -6.6087 H         1 GLU         0.1883
    114 H21         5.2500   -9.4297   -4.6167 H         1 GLU         0.0801
    115 H22         2.6733  -11.0177   -4.2731 H         1 GLU         0.0330
    116 H23         2.7685   -9.3983   -5.0448 H         1 GLU         0.0330
    117 H24         3.7289   -8.5255   -2.9209 H         1 GLU         0.0433
    118 H25         3.4068  -10.1297   -2.1797 H         1 GLU         0.0433
    119 H26         6.2780   -9.9881   -2.8406 H         1 GLU         0.1883
    120 H27         6.4033  -12.8525   -2.0081 H         1 GLU         0.0800
    121 H28         8.7776  -12.3192   -1.2985 H         1 GLU         0.0313
    122 H29         8.6234  -10.7687   -2.1923 H         1 GLU         0.0313
    123 H30         8.1496  -12.0374   -4.2678 H         1 GLU         0.0301
    124 H31         8.3729  -13.5722   -3.3616 H         1 GLU         0.0301
    125 H32        10.4097  -13.1317   -4.4904 H         1 GLU         0.0689
    126 H33        10.6779  -12.7517   -2.7554 H         1 GLU         0.0689
    127 H34         9.8524  -10.3761   -4.1472 H         1 GLU         0.2642
    128 H35        13.7926  -11.3548   -4.1901 H         1 GLU         0.2615
    129 H36        12.5834  -12.5931   -3.7575 H         1 GLU         0.2615
    130 H37        11.3897   -8.7943   -4.6839 H         1 GLU         0.2615
    131 H38        13.1263   -9.2017   -4.6559 H         1 GLU         0.2615
    132 H39         5.4247  -13.0348   -0.1249 H         1 GLU         0.1883
    133 H40         5.9377  -11.0132    2.0193 H         1 GLU         0.0803
    134 H41         3.3480  -12.5520    1.4966 H         1 GLU         0.0345
    135 H42         3.7776  -10.5939   -0.0104 H         1 GLU         0.0267
    136 H43         3.8711   -9.5468    1.4461 H         1 GLU         0.0267
    137 H44         3.8968  -12.3582    3.8986 H         1 GLU         0.0235
    138 H45         2.4639  -11.3712    3.4524 H         1 GLU         0.0235
    139 H46         4.0546  -10.5785    3.7133 H         1 GLU         0.0235
    140 H47         1.6393   -9.3880    0.3675 H         1 GLU         0.0230
    141 H48         1.5089  -10.1139    2.0054 H         1 GLU         0.0230
    142 H49         1.4154  -11.1610    0.5489 H         1 GLU         0.0230
    143 H50         7.0136  -11.9171    3.6169 H         1 GLU         0.1883
    144 H51         6.9626  -14.8762    4.0409 H         1 GLU         0.0803
    145 H52         9.1326  -12.7963    4.6090 H         1 GLU         0.0345
    146 H53        10.5040  -14.0239    3.0672 H         1 GLU         0.0267
    147 H54         8.9556  -13.5888    2.2673 H         1 GLU         0.0267
    148 H55         8.9381  -14.4238    6.4733 H         1 GLU         0.0235
    149 H56        10.4737  -14.6183    5.5618 H         1 GLU         0.0235
    150 H57         9.1230  -15.7739    5.3030 H         1 GLU         0.0235
    151 H58         9.6672  -15.8838    1.6583 H         1 GLU         0.0230
    152 H59         8.1336  -15.9154    2.5929 H         1 GLU         0.0230
    153 H60         9.6820  -16.3504    3.3928 H         1 GLU         0.0230
    154 H61         5.9971  -15.4735    5.9123 H         1 GLU         0.1883
    155 H62         5.6324  -13.5096    8.0946 H         1 GLU         0.0802
    156 H63         4.8236  -16.4471    7.9428 H         1 GLU         0.0343
    157 H64         3.3080  -15.8721    9.8108 H         1 GLU         0.0234
    158 H65         3.9981  -14.2141    9.8509 H         1 GLU         0.0234
    159 H66         5.0349  -15.6282   10.2411 H         1 GLU         0.0234
    160 H67         3.7326  -15.0858    6.2045 H         1 GLU         0.0234
    161 H68         3.1590  -13.9448    7.4676 H         1 GLU         0.0234
    162 H69         2.5732  -15.6429    7.4582 H         1 GLU         0.0234
    163 H70         7.0122  -13.3244    9.7337 H         1 GLU         0.1883
    164 H71         9.1536  -15.3590    9.9648 H         1 GLU         0.0800
    165 H72        10.2522  -13.6768   11.4124 H         1 GLU         0.0315
    166 H73         8.8512  -12.5803   11.1644 H         1 GLU         0.0315
    167 H74         9.3551  -12.4919    8.7566 H         1 GLU         0.0298
    168 H75        11.4281  -11.1165    8.9828 H         1 GLU         0.0232
    169 H76        11.7029  -11.8182   10.6134 H         1 GLU         0.0232
    170 H77        10.2589  -10.7944   10.3079 H         1 GLU         0.0232
    171 H78        10.4504  -14.6953    8.4987 H         1 GLU         0.0232
    172 H79        11.8480  -14.1108    9.4640 H         1 GLU         0.0232
    173 H80        11.4783  -13.3612    7.8739 H         1 GLU         0.0232
    174 H81         9.4043  -16.6059   11.7123 H         1 GLU         0.1884
    175 H82         7.1631  -16.9641   13.5262 H         1 GLU         0.0827
    176 H83         8.5711  -18.8673   12.8004 H         1 GLU         0.0662
    177 H84         8.6190  -18.6849   14.5867 H         1 GLU         0.0662
    178 H85         7.1412  -16.5580   15.8470 H         1 GLU         0.1876
    179 H86         9.2035  -14.5663   16.6772 H         1 GLU         0.0745
    180 H87         6.5686  -15.2210   18.0692 H         1 GLU         0.0471
    181 H88         6.7992  -13.8916   16.8833 H         1 GLU         0.0471
@<TRIPOS>BOND
     1    1    2 1  
     2    2    3 1  
     3    2    5 1  
     4    3    4 2  
     5    3   10 am 
     6    5    6 1  
     7    6    7 1  
     8    7    8 ar 
     9    7    9 ar 
    10   10   11 1  
    11   11   12 1  
    12   11   14 1  
    13   12   13 2  
    14   12   15 am 
    15   15   16 1  
    16   16   17 1  
    17   16   19 1  
    18   17   18 2  
    19   17   24 am 
    20   19   20 1  
    21   20   21 1  
    22   21   22 ar 
    23   21   23 ar 
    24   24   25 1  
    25   25   26 1  
    26   25   28 1  
    27   26   27 2  
    28   26   33 am 
    29   28   29 1  
    30   29   30 1  
    31   30   31 ar 
    32   30   32 ar 
    33   33   34 1  
    34   34   35 1  
    35   34   37 1  
    36   35   36 2  
    37   35   44 am 
    38   37   38 1  
    39   38   39 1  
    40   39   40 1  
    41   40   41 ar 
    42   41   42 ar 
    43   41   43 ar 
    44   44   45 1  
    45   45   46 1  
    46   45   48 1  
    47   46   47 2  
    48   46   52 am 
    49   48   49 1  
    50   48   50 1  
    51   49   51 1  
    52   52   53 1  
    53   53   54 1  
    54   53   56 1  
    55   54   55 2  
    56   54   60 am 
    57   56   57 1  
    58   56   58 1  
    59   57   59 1  
    60   60   61 1  
    61   61   62 1  
    62   61   64 1  
    63   62   63 2  
    64   62   67 am 
    65   64   65 1  
    66   64   66 1  
    67   67   68 1  
    68   68   69 1  
    69   68   71 1  
    70   69   70 2  
    71   69   75 am 
    72   71   72 1  
    73   72   73 1  
    74   72   74 1  
    75   75   76 1  
    76   76   77 1  
    77   76   79 1  
    78   77   78 1  
    79   78   81 1  
    80   79   80 2  
    81   79   85 am 
    82   81   82 ar 
    83   81   83 ar 
    84   81   84 ar 
    85   85   86 1  
    86   86   87 1  
    87   86   89 1  
    88   87   88 ar 
    89   87   93 ar 
    90   89   90 1  
    91   90   91 ar 
    92   90   92 ar 
    93    1   94 1  
    94    1   95 1  
    95    1   96 1  
    96    2   97 1  
    97    5   98 1  
    98    5   99 1  
    99    6  100 1  
   100    6  101 1  
   101   10  102 1  
   102   11  103 1  
   103   14  104 1  
   104   14  105 1  
   105   14  106 1  
   106   15  107 1  
   107   16  108 1  
   108   19  109 1  
   109   19  110 1  
   110   20  111 1  
   111   20  112 1  
   112   24  113 1  
   113   25  114 1  
   114   28  115 1  
   115   28  116 1  
   116   29  117 1  
   117   29  118 1  
   118   33  119 1  
   119   34  120 1  
   120   37  121 1  
   121   37  122 1  
   122   38  123 1  
   123   38  124 1  
   124   39  125 1  
   125   39  126 1  
   126   40  127 1  
   127   42  128 1  
   128   42  129 1  
   129   43  130 1  
   130   43  131 1  
   131   44  132 1  
   132   45  133 1  
   133   48  134 1  
   134   49  135 1  
   135   49  136 1  
   136   50  137 1  
   137   50  138 1  
   138   50  139 1  
   139   51  140 1  
   140   51  141 1  
   141   51  142 1  
   142   52  143 1  
   143   53  144 1  
   144   56  145 1  
   145   57  146 1  
   146   57  147 1  
   147   58  148 1  
   148   58  149 1  
   149   58  150 1  
   150   59  151 1  
   151   59  152 1  
   152   59  153 1  
   153   60  154 1  
   154   61  155 1  
   155   64  156 1  
   156   65  157 1  
   157   65  158 1  
   158   65  159 1  
   159   66  160 1  
   160   66  161 1  
   161   66  162 1  
   162   67  163 1  
   163   68  164 1  
   164   71  165 1  
   165   71  166 1  
   166   72  167 1  
   167   73  168 1  
   168   73  169 1  
   169   73  170 1  
   170   74  171 1  
   171   74  172 1  
   172   74  173 1  
   173   75  174 1  
   174   76  175 1  
   175   77  176 1  
   176   77  177 1  
   177   85  178 1  
   178   86  179 1  
   179   89  180 1  
   180   89  181 1  
@<TRIPOS>SUBSTRUCTURE
     1 GLU         1

