5nne_ligand
  -I-interpret- 

165164  0  0  0  0  0  0  0  0999 V2000
   43.3050   25.3260   20.2420 N   0  3  0  0  0
   42.1200   24.4520   20.0500 C   0  0  0  0  0
   41.8360   23.5950   21.2700 C   0  0  0  0  0
   42.6860   23.4440   22.1500 O   0  0  0  0  0
   40.6230   23.0430   21.3080 N   0  0  0  0  0
   40.1500   22.1570   22.3710 C   0  0  0  0  0
   41.1600   21.0840   22.7900 C   0  0  0  0  0
   41.8470   20.4730   21.9460 O   0  0  0  0  0
   38.7980   21.5270   21.9610 C   0  0  0  0  0
   38.1650   20.6040   23.0060 C   0  0  0  0  0
   36.6430   20.5170   22.9270 C   0  0  0  0  0
   36.1350   19.3970   22.0430 C   0  0  0  0  0
   36.4890   18.0140   22.4790 N   0  3  0  0  0
   41.2470   20.8630   24.0990 N   0  0  0  0  0
   42.0860   19.8090   24.6650 C   0  0  0  0  0
   41.5740   18.4300   24.2700 C   0  0  0  0  0
   40.3680   18.2250   24.1140 O   0  0  0  0  0
   42.1270   19.9360   26.1850 C   0  0  0  0  0
   47.8130   15.5030   19.2490 O   0  0  0  0  0
   47.3710   14.3430   19.0920 C   0  0  0  0  0
   48.2820   13.2390   18.6400 C   0  0  0  0  0
   46.0870   14.0340   19.3060 N   0  0  0  0  0
   45.0450   14.9660   19.7820 C   0  0  0  0  0
   44.7520   14.7190   21.3000 C   0  0  0  0  0
   43.6440   15.5840   21.9240 C   0  0  0  0  0
   43.3060   15.2240   23.3980 C   0  0  0  0  0
   42.1410   16.0720   23.9730 C   0  0  0  0  0
   42.4980   17.4780   24.1260 N   0  0  0  0  0
   41.6660   15.5750   25.3390 C   0  0  0  0  0
   41.8600   16.2290   26.4220 O   0  0  0  0  0
   41.0070   14.4330   25.2980 N   0  0  0  0  0
   40.5420   13.7750   26.4870 C   0  0  0  0  0
   41.6230   13.2290   27.4140 C   0  0  0  0  0
   42.8190   13.4510   27.2890 O   0  0  0  0  0
   41.1740   12.4830   28.3910 N   0  0  0  0  0
   42.0990   11.8850   29.3820 C   0  0  0  0  0
   42.7700   10.7080   28.6960 C   0  0  0  0  0
   42.1200    9.9710   27.9560 O   0  0  0  0  0
   41.3070   11.4960   30.6250 C   0  0  0  0  0
   41.9620   10.5210   31.6140 C   0  0  0  0  0
   40.9790   10.1850   32.7260 C   0  0  0  0  0
   41.4400    9.0900   33.6920 C   0  0  0  0  0
   40.5040    8.8610   34.8320 N   0  3  0  0  0
   44.7710   11.0130   21.6440 O   0  0  0  0  0
   43.7240   10.6990   22.1560 C   0  0  0  0  0
   42.7070    9.9230   21.3790 C   0  0  0  0  0
   43.4500   11.0880   23.4220 N   0  0  0  0  0
   44.4640   11.8100   24.2010 C   0  0  0  0  0
   45.2930   10.7980   24.9770 C   0  0  0  0  0
   45.2430   11.0720   26.4360 C   0  0  0  0  0
   45.8220    9.9440   27.2360 C   0  0  0  0  0
   44.8640    9.4580   28.2760 C   0  0  0  0  0
   44.0770   10.5460   28.9180 N   0  0  0  0  0
   45.6890    8.5550   29.1380 C   0  0  0  0  0
   46.1300    7.4920   28.6800 O   0  0  0  0  0
   46.0300    9.0030   30.3190 N   0  0  0  0  0
   46.6810    8.1120   31.2280 C   0  0  0  0  0
   46.0350    8.1200   32.5510 C   0  0  0  0  0
   45.1910    8.9920   32.8620 O   0  0  0  0  0
   48.1520    8.4590   31.3940 C   0  0  0  0  0
   48.2820    9.8260   31.7510 O   0  0  0  0  0
   48.8970    8.1840   30.1550 C   0  0  0  0  0
   46.4330    7.0750   33.2750 N   0  0  0  0  0
   45.9710    6.7500   34.5630 C   0  0  0  0  0
   46.9970    7.1940   35.5660 C   0  0  0  0  0
   48.1330    6.7330   35.5430 O   0  0  0  0  0
   45.8380    5.2440   34.6340 C   0  0  0  0  0
   45.0320    4.6970   33.4770 C   0  0  0  0  0
   43.7310    5.4310   33.2280 C   0  0  0  0  0
   43.6430    6.2730   32.3230 O   0  0  0  0  0
   42.7160    5.1390   34.0400 N   0  0  0  0  0
   46.5900    8.1330   36.4080 N   0  0  0  0  0
   47.3700    8.5840   37.5470 C   0  0  0  0  0
   46.6340    8.1640   38.8050 C   0  0  0  0  0
   45.6170    8.7610   39.1550 O   0  0  0  0  0
   47.5320   10.1080   37.5020 C   0  0  0  0  0
   47.0510    7.2250   39.4810 O   0  0  0  0  0
   43.4566   25.8811   19.3998 H   0  0  0  0  0
   43.1433   25.9466   21.0352 H   0  0  0  0  0
   44.1262   24.7486   20.4224 H   0  0  0  0  0
   42.3207   23.7885   19.2088 H   0  0  0  0  0
   41.2534   25.0894   19.8741 H   0  0  0  0  0
   39.9812   23.2530   20.5436 H   0  0  0  0  0
   40.0158   22.7764   23.2578 H   0  0  0  0  0
   38.9922   20.9153   21.0800 H   0  0  0  0  0
   38.1017   22.3518   21.8093 H   0  0  0  0  0
   38.4127   21.0115   23.9862 H   0  0  0  0  0
   38.5535   19.6016   22.8261 H   0  0  0  0  0
   36.2874   21.4539   22.4982 H   0  0  0  0  0
   36.2774   20.3240   23.9356 H   0  0  0  0  0
   36.5990   19.5404   21.0672 H   0  0  0  0  0
   35.0469   19.4575   22.0642 H   0  0  0  0  0
   36.1007   17.3407   21.8185 H   0  0  0  0  0
   37.5040   17.9172   22.5078 H   0  0  0  0  0
   36.1034   17.8424   23.4076 H   0  0  0  0  0
   40.7068   21.4524   24.7324 H   0  0  0  0  0
   43.0939   19.9241   24.2663 H   0  0  0  0  0
   42.5389   20.9081   26.4561 H   0  0  0  0  0
   41.1166   19.8442   26.5834 H   0  0  0  0  0
   42.7547   19.1461   26.5975 H   0  0  0  0  0
   48.7020   13.4919   17.6665 H   0  0  0  0  0
   49.0876   13.1153   19.3637 H   0  0  0  0  0
   47.7156   12.3110   18.5628 H   0  0  0  0  0
   45.8032   13.0712   19.1247 H   0  0  0  0  0
   44.1313   14.8019   19.2108 H   0  0  0  0  0
   45.3936   15.9900   19.6477 H   0  0  0  0  0
   45.6700   14.9674   21.8327 H   0  0  0  0  0
   44.4153   13.6855   21.3819 H   0  0  0  0  0
   42.7398   15.4192   21.3380 H   0  0  0  0  0
   43.9999   16.6143   21.9188 H   0  0  0  0  0
   44.1920   15.4221   24.0012 H   0  0  0  0  0
   43.0015   14.1777   23.4243 H   0  0  0  0  0
   41.3412   15.9642   23.2404 H   0  0  0  0  0
   43.4834   17.7414   24.1228 H   0  0  0  0  0
   40.8215   14.0030   24.3919 H   0  0  0  0  0
   39.9609   12.9151   26.1540 H   0  0  0  0  0
   39.9977   14.5258   27.0598 H   0  0  0  0  0
   40.1719   12.3106   28.4715 H   0  0  0  0  0
   42.8725   12.5755   29.7182 H   0  0  0  0  0
   40.4187   10.9834   30.2558 H   0  0  0  0  0
   41.1640   12.4226   31.1810 H   0  0  0  0  0
   42.8507   10.9833   32.0436 H   0  0  0  0  0
   42.2423    9.6073   31.0900 H   0  0  0  0  0
   40.0735    9.8169   32.2436 H   0  0  0  0  0
   40.8522   11.0919   33.3172 H   0  0  0  0  0
   42.3940    9.4077   34.1129 H   0  0  0  0  0
   41.4977    8.1601   33.1263 H   0  0  0  0  0
   40.8734    8.1223   35.4306 H   0  0  0  0  0
   40.4097    9.7218   35.3711 H   0  0  0  0  0
   39.5916    8.5830   34.4706 H   0  0  0  0  0
   42.4075   10.4959   20.5014 H   0  0  0  0  0
   43.1394    8.9732   21.0642 H   0  0  0  0  0
   41.8361    9.7367   22.0075 H   0  0  0  0  0
   42.5407   10.8803   23.8349 H   0  0  0  0  0
   43.9790   12.4996   24.8919 H   0  0  0  0  0
   45.1076   12.3815   23.5323 H   0  0  0  0  0
   46.3287   10.8672   24.6444 H   0  0  0  0  0
   44.8881    9.8025   24.7950 H   0  0  0  0  0
   44.1994   11.1961   26.7252 H   0  0  0  0  0
   45.8289   11.9691   26.6358 H   0  0  0  0  0
   46.7210   10.3031   27.7370 H   0  0  0  0  0
   46.0424    9.1190   26.5585 H   0  0  0  0  0
   44.0247    8.8853   27.8814 H   0  0  0  0  0
   44.5525   11.1905   29.5496 H   0  0  0  0  0
   45.8354    9.9681   30.5857 H   0  0  0  0  0
   46.5957    7.1152   30.7953 H   0  0  0  0  0
   48.5705    7.8380   32.1860 H   0  0  0  0  0
   49.2117   10.0414   31.8549 H   0  0  0  0  0
   48.8107    7.1259   29.9079 H   0  0  0  0  0
   48.4836    8.7828   29.3435 H   0  0  0  0  0
   49.9466    8.4403   30.2992 H   0  0  0  0  0
   47.1318    6.4585   32.8602 H   0  0  0  0  0
   45.0166    7.2339   34.7708 H   0  0  0  0  0
   45.3244    4.9884   35.5608 H   0  0  0  0  0
   46.8367    4.8092   34.5921 H   0  0  0  0  0
   44.7787    3.6650   33.7198 H   0  0  0  0  0
   45.6409    4.8064   32.5796 H   0  0  0  0  0
   41.8212    5.6161   33.9298 H   0  0  0  0  0
   42.8337    4.4384   34.7719 H   0  0  0  0  0
   45.6789    8.5625   36.2473 H   0  0  0  0  0
   48.3663    8.1422   37.5299 H   0  0  0  0  0
   45.4260    9.4611   38.5266 H   0  0  0  0  0
   48.0436   10.3907   36.5820 H   0  0  0  0  0
   46.5488   10.5776   37.5316 H   0  0  0  0  0
   48.1184   10.4353   38.3606 H   0  0  0  0  0
  2  1  1  0  0  0
  3  2  1  0  0  0
  3  4  2  0  0  0
  5  3  1  0  0  0
  6  5  1  0  0  0
  7  6  1  0  0  0
  6  9  1  0  0  0
  7  8  2  0  0  0
 14  7  1  0  0  0
  9 10  1  0  0  0
 10 11  1  0  0  0
 11 12  1  0  0  0
 12 13  1  0  0  0
 15 14  1  0  0  0
 16 15  1  0  0  0
 15 18  1  0  0  0
 16 17  2  0  0  0
 28 16  1  0  0  0
 20 19  2  0  0  0
 20 21  1  0  0  0
 22 20  1  0  0  0
 23 22  1  0  0  0
 24 23  1  0  0  0
 25 24  1  0  0  0
 26 25  1  0  0  0
 27 26  1  0  0  0
 27 28  1  0  0  0
 29 27  1  0  0  0
 29 30  2  0  0  0
 31 29  1  0  0  0
 32 31  1  0  0  0
 33 32  1  0  0  0
 33 34  2  0  0  0
 35 33  1  0  0  0
 36 35  1  0  0  0
 37 36  1  0  0  0
 36 39  1  0  0  0
 37 38  2  0  0  0
 53 37  1  0  0  0
 39 40  1  0  0  0
 40 41  1  0  0  0
 41 42  1  0  0  0
 42 43  1  0  0  0
 45 44  2  0  0  0
 45 46  1  0  0  0
 47 45  1  0  0  0
 48 47  1  0  0  0
 49 48  1  0  0  0
 50 49  1  0  0  0
 51 50  1  0  0  0
 52 51  1  0  0  0
 52 53  1  0  0  0
 52 54  1  0  0  0
 54 55  2  0  0  0
 54 56  1  0  0  0
 56 57  1  0  0  0
 57 58  1  0  0  0
 57 60  1  0  0  0
 58 59  2  0  0  0
 58 63  1  0  0  0
 60 61  1  0  0  0
 60 62  1  0  0  0
 63 64  1  0  0  0
 64 65  1  0  0  0
 64 67  1  0  0  0
 65 66  2  0  0  0
 65 72  1  0  0  0
 67 68  1  0  0  0
 68 69  1  0  0  0
 69 70  2  0  0  0
 69 71  1  0  0  0
 72 73  1  0  0  0
 73 74  1  0  0  0
 73 76  1  0  0  0
 74 75  1  0  0  0
 74 77  2  0  0  0
  1 78  1  0  0  0
  1 79  1  0  0  0
  1 80  1  0  0  0
  2 81  1  0  0  0
  2 82  1  0  0  0
  5 83  1  0  0  0
  6 84  1  0  0  0
  9 85  1  0  0  0
  9 86  1  0  0  0
 10 87  1  0  0  0
 10 88  1  0  0  0
 11 89  1  0  0  0
 11 90  1  0  0  0
 12 91  1  0  0  0
 12 92  1  0  0  0
 13 93  1  0  0  0
 13 94  1  0  0  0
 13 95  1  0  0  0
 14 96  1  0  0  0
 15 97  1  0  0  0
 18 98  1  0  0  0
 18 99  1  0  0  0
 18100  1  0  0  0
 21101  1  0  0  0
 21102  1  0  0  0
 21103  1  0  0  0
 22104  1  0  0  0
 23105  1  0  0  0
 23106  1  0  0  0
 24107  1  0  0  0
 24108  1  0  0  0
 25109  1  0  0  0
 25110  1  0  0  0
 26111  1  0  0  0
 26112  1  0  0  0
 27113  1  0  0  0
 28114  1  0  0  0
 31115  1  0  0  0
 32116  1  0  0  0
 32117  1  0  0  0
 35118  1  0  0  0
 36119  1  0  0  0
 39120  1  0  0  0
 39121  1  0  0  0
 40122  1  0  0  0
 40123  1  0  0  0
 41124  1  0  0  0
 41125  1  0  0  0
 42126  1  0  0  0
 42127  1  0  0  0
 43128  1  0  0  0
 43129  1  0  0  0
 43130  1  0  0  0
 46131  1  0  0  0
 46132  1  0  0  0
 46133  1  0  0  0
 47134  1  0  0  0
 48135  1  0  0  0
 48136  1  0  0  0
 49137  1  0  0  0
 49138  1  0  0  0
 50139  1  0  0  0
 50140  1  0  0  0
 51141  1  0  0  0
 51142  1  0  0  0
 52143  1  0  0  0
 53144  1  0  0  0
 56145  1  0  0  0
 57146  1  0  0  0
 60147  1  0  0  0
 61148  1  0  0  0
 62149  1  0  0  0
 62150  1  0  0  0
 62151  1  0  0  0
 63152  1  0  0  0
 64153  1  0  0  0
 67154  1  0  0  0
 67155  1  0  0  0
 68156  1  0  0  0
 68157  1  0  0  0
 71158  1  0  0  0
 71159  1  0  0  0
 72160  1  0  0  0
 73161  1  0  0  0
 75162  1  0  0  0
 76163  1  0  0  0
 76164  1  0  0  0
 76165  1  0  0  0
M  END
$$$$
