### 
### Created by X-TOOL on Wed Jan  1 15:39:34 2020
### 

@<TRIPOS>MOLECULE
5nne_ligand
  164   163     1     0     0
SMALL
GAST_HUCK


@<TRIPOS>ATOM
      1 N          43.3050   25.3260   20.2420 N.4       1 GLY         0.2357
      2 CA         42.1200   24.4520   20.0500 C.3       1 GLY         0.0545
      3 C          41.8360   23.5950   21.2700 C.2       1 GLY         0.2236
      4 O          42.6860   23.4440   22.1500 O.2       1 GLY        -0.3910
      5 N          40.6230   23.0430   21.3080 N.am      1 LYS        -0.2613
      6 CA         40.1500   22.1570   22.3710 C.3       1 LYS         0.1311
      7 C          41.1600   21.0840   22.7900 C.2       1 LYS         0.2039
      8 O          41.8470   20.4730   21.9460 O.2       1 LYS        -0.3944
      9 CB         38.7980   21.5270   21.9610 C.3       1 LYS        -0.0122
     10 CG         38.1650   20.6040   23.0060 C.3       1 LYS        -0.0440
     11 CD         36.6430   20.5170   22.9270 C.3       1 LYS        -0.0124
     12 CE         36.1350   19.3970   22.0430 C.3       1 LYS        -0.0354
     13 NZ         36.4890   18.0140   22.4790 N.4       1 LYS         0.2185
     14 N          41.2470   20.8630   24.0990 N.am      1 ALA        -0.2640
     15 CA         42.0860   19.8090   24.6650 C.3       1 ALA         0.1282
     16 C          41.5740   18.4300   24.2700 C.2       1 ALA         0.2036
     17 O          40.3680   18.2250   24.1140 O.2       1 ALA        -0.3944
     18 CB         42.1270   19.9360   26.1850 C.3       1 ALA        -0.0244
     19 OH         47.8130   15.5030   19.2490 O.2       1 ALY        -0.3974
     20 CH         47.3710   14.3430   19.0920 C.2       1 ALY         0.1729
     21 CH3        48.2820   13.2390   18.6400 C.3       1 ALY         0.0256
     22 NZ         46.0870   14.0340   19.3060 N.am      1 ALY        -0.2872
     23 CE         45.0450   14.9660   19.7820 C.3       1 ALY         0.0309
     24 CD         44.7520   14.7190   21.3000 C.3       1 ALY        -0.0325
     25 CG         43.6440   15.5840   21.9240 C.3       1 ALY        -0.0470
     26 CB         43.3060   15.2240   23.3980 C.3       1 ALY        -0.0123
     27 CA         42.1410   16.0720   23.9730 C.3       1 ALY         0.1310
     28 N          42.4980   17.4780   24.1260 N.am      1 ALY        -0.2637
     29 C          41.6660   15.5750   25.3390 C.2       1 ALY         0.2037
     30 O          41.8600   16.2290   26.4220 O.2       1 ALY        -0.3944
     31 N          41.0070   14.4330   25.2980 N.am      1 GLY        -0.2664
     32 CA         40.5420   13.7750   26.4870 C.3       1 GLY         0.1201
     33 C          41.6230   13.2290   27.4140 C.2       1 GLY         0.2007
     34 O          42.8190   13.4510   27.2890 O.2       1 GLY        -0.3947
     35 N          41.1740   12.4830   28.3910 N.am      1 LYS        -0.2640
     36 CA         42.0990   11.8850   29.3820 C.3       1 LYS         0.1310
     37 C          42.7700   10.7080   28.6960 C.2       1 LYS         0.2039
     38 O          42.1200    9.9710   27.9560 O.2       1 LYS        -0.3944
     39 CB         41.3070   11.4960   30.6250 C.3       1 LYS        -0.0122
     40 CG         41.9620   10.5210   31.6140 C.3       1 LYS        -0.0440
     41 CD         40.9790   10.1850   32.7260 C.3       1 LYS        -0.0124
     42 CE         41.4400    9.0900   33.6920 C.3       1 LYS        -0.0354
     43 NZ         40.5040    8.8610   34.8320 N.4       1 LYS         0.2185
     44 OH         44.7710   11.0130   21.6440 O.2       1 ALY        -0.3974
     45 CH         43.7240   10.6990   22.1560 C.2       1 ALY         0.1729
     46 CH3        42.7070    9.9230   21.3790 C.3       1 ALY         0.0256
     47 NZ         43.4500   11.0880   23.4220 N.am      1 ALY        -0.2872
     48 CE         44.4640   11.8100   24.2010 C.3       1 ALY         0.0309
     49 CD         45.2930   10.7980   24.9770 C.3       1 ALY        -0.0325
     50 CG         45.2430   11.0720   26.4360 C.3       1 ALY        -0.0470
     51 CB         45.8220    9.9440   27.2360 C.3       1 ALY        -0.0123
     52 CA         44.8640    9.4580   28.2760 C.3       1 ALY         0.1310
     53 N          44.0770   10.5460   28.9180 N.am      1 ALY        -0.2637
     54 C          45.6890    8.5550   29.1380 C.2       1 ALY         0.2040
     55 O          46.1300    7.4920   28.6800 O.2       1 ALY        -0.3944
     56 N          46.0300    9.0030   30.3190 N.am      1 THR        -0.2613
     57 CA         46.6810    8.1120   31.2280 C.3       1 THR         0.1565
     58 C          46.0350    8.1200   32.5510 C.2       1 THR         0.2065
     59 O          45.1910    8.9920   32.8620 O.2       1 THR        -0.3943
     60 CB         48.1520    8.4590   31.3940 C.3       1 THR         0.0924
     61 OG1        48.2820    9.8260   31.7510 O.3       1 THR        -0.3874
     62 CG2        48.8970    8.1840   30.1550 C.3       1 THR        -0.0346
     63 N          46.4330    7.0750   33.2750 N.am      1 GLN        -0.2635
     64 CA         45.9710    6.7500   34.5630 C.3       1 GLN         0.1330
     65 C          46.9970    7.1940   35.5660 C.2       1 GLN         0.2035
     66 O          48.1330    6.7330   35.5430 O.2       1 GLN        -0.3944
     67 CB         45.8380    5.2440   34.6340 C.3       1 GLN         0.0045
     68 CG         45.0320    4.6970   33.4770 C.3       1 GLN         0.0412
     69 CD         43.7310    5.4310   33.2280 C.2       1 GLN         0.1737
     70 OE1        43.6430    6.2730   32.3230 O.2       1 GLN        -0.3973
     71 NE2        42.7160    5.1390   34.0400 N.am      1 GLN        -0.3009
     72 N          46.5900    8.1330   36.4080 N.am      1 MET        -0.2697
     73 CA         47.3700    8.5840   37.5470 C.3       1 MET         0.0916
     74 C          46.6340    8.1640   38.8050 C.2       1 MET         0.0598
     75 O          45.6170    8.7610   39.1550 O.co2     1 MET        -0.5666
     76 CB         47.5320   10.1080   37.5020 C.3       1 MET        -0.0300
     77 OXT        47.0510    7.2250   39.4810 O.co2     1 MET        -0.5666
     78 H1         43.4558   25.8751   19.4102 H         1 GLY         0.2012
     79 H2         44.1173   24.7564   20.4204 H         1 GLY         0.2012
     80 H3         43.1464   25.9398   21.0256 H         1 GLY         0.2012
     81 H4         42.3020   23.7926   19.1886 H         1 GLY         0.1061
     82 H5         41.2424   25.0841   19.8491 H         1 GLY         0.1061
     83 H6         39.9937   23.2488   20.5586 H         1 LYS         0.1884
     84 H7         39.9695   22.7842   23.2564 H         1 LYS         0.0800
     85 H8         38.9595   20.9420   21.0436 H         1 LYS         0.0312
     86 H9         38.0905   22.3437   21.7553 H         1 LYS         0.0312
     87 H10        38.4375   20.9761   24.0046 H         1 LYS         0.0269
     88 H11        38.5756   19.5931   22.8667 H         1 LYS         0.0269
     89 H12        36.2621   21.4700   22.5310 H         1 LYS         0.0317
     90 H13        36.2523   20.3598   23.9432 H         1 LYS         0.0317
     91 H14        36.5478   19.5491   21.0348 H         1 LYS         0.0813
     92 H15        35.0380   19.4684   22.0047 H         1 LYS         0.0813
     93 H16        36.1057   17.3477   21.8269 H         1 LYS         0.1994
     94 H17        36.1084   17.8432   23.3966 H         1 LYS         0.1994
     95 H18        37.4919   17.9171   22.5078 H         1 LYS         0.1994
     96 H19        40.7174   21.4409   24.7200 H         1 ALA         0.1883
     97 H20        43.1071   19.9274   24.2734 H         1 ALA         0.0797
     98 H21        42.7602   19.1393   26.6025 H         1 ALA         0.0277
     99 H22        41.1078   19.8435   26.5883 H         1 ALA         0.0277
    100 H23        42.5426   20.9166   26.4600 H         1 ALA         0.0277
    101 H24        47.7115   12.3018   18.5617 H         1 ALY         0.0467
    102 H25        49.0955   13.1131   19.3696 H         1 ALY         0.0467
    103 H26        48.7065   13.4930   17.6575 H         1 ALY         0.0467
    104 H27        45.8087   13.0901   19.1282 H         1 ALY         0.1850
    105 H28        44.1231   14.8068   19.2034 H         1 ALY         0.0520
    106 H29        45.3915   16.0006   19.6424 H         1 ALY         0.0520
    107 H30        45.6811   14.9096   21.8571 H         1 ALY         0.0285
    108 H31        44.4626   13.6645   21.4193 H         1 ALY         0.0285
    109 H32        42.7316   15.4625   21.3217 H         1 ALY         0.0268
    110 H33        43.9677   16.6348   21.8915 H         1 ALY         0.0268
    111 H34        44.2010   15.3926   24.0149 H         1 ALY         0.0312
    112 H35        43.0235   14.1619   23.4443 H         1 ALY         0.0312
    113 H36        41.3016   16.0002   23.2658 H         1 ALY         0.0800
    114 H37        43.4641   17.7362   24.1229 H         1 ALY         0.1883
    115 H38        40.8252   14.0114   24.4096 H         1 GLY         0.1881
    116 H39        39.9058   12.9323   26.1786 H         1 GLY         0.0763
    117 H40        39.9416   14.4977   27.0589 H         1 GLY         0.0763
    118 H41        40.1915   12.3140   28.4699 H         1 LYS         0.1883
    119 H42        42.8669   12.6180   29.6702 H         1 LYS         0.0800
    120 H43        40.3671   11.0366   30.2850 H         1 LYS         0.0312
    121 H44        41.0845   12.4219   31.1756 H         1 LYS         0.0312
    122 H45        42.8595   10.9867   32.0471 H         1 LYS         0.0269
    123 H46        42.2460    9.5990   31.0855 H         1 LYS         0.0269
    124 H47        40.0383    9.8551   32.2610 H         1 LYS         0.0317
    125 H48        40.7986   11.1000   33.3093 H         1 LYS         0.0317
    126 H49        42.4202    9.3774   34.1002 H         1 LYS         0.0813
    127 H50        41.5383    8.1498   33.1295 H         1 LYS         0.0813
    128 H51        40.8681    8.1311   35.4243 H         1 LYS         0.1994
    129 H52        39.6019    8.5861   34.4761 H         1 LYS         0.1994
    130 H53        40.4100    9.7110   35.3655 H         1 LYS         0.1994
    131 H54        41.8276    9.7344   22.0122 H         1 ALY         0.0467
    132 H55        43.1421    8.9642   21.0608 H         1 ALY         0.0467
    133 H56        42.4038   10.5002   20.4930 H         1 ALY         0.0467
    134 H57        42.5586   10.8843   23.8268 H         1 ALY         0.1850
    135 H58        43.9709   12.4999   24.9016 H         1 ALY         0.0520
    136 H59        45.1156   12.3801   23.5225 H         1 ALY         0.0520
    137 H60        46.3376   10.8529   24.6368 H         1 ALY         0.0285
    138 H61        44.8981    9.7890   24.7873 H         1 ALY         0.0285
    139 H62        44.1946   11.2185   26.7348 H         1 ALY         0.0268
    140 H63        45.8155   11.9875   26.6459 H         1 ALY         0.0268
    141 H64        46.7402   10.2923   27.7315 H         1 ALY         0.0312
    142 H65        46.0642    9.1127   26.5575 H         1 ALY         0.0312
    143 H66        44.1169    8.8239   27.7763 H         1 ALY         0.0800
    144 H67        44.5432   11.1778   29.5373 H         1 ALY         0.1883
    145 H68        45.8392    9.9492   30.5805 H         1 THR         0.1884
    146 H69        46.6093    7.0956   30.8135 H         1 THR         0.0826
    147 H70        48.5718    7.8399   32.2005 H         1 THR         0.0639
    148 H71        47.9047   10.3678   31.0679 H         1 THR         0.2101
    149 H72        49.9565    8.4423   30.2992 H         1 THR         0.0257
    150 H73        48.4807    8.7878   29.3351 H         1 THR         0.0257
    151 H74        48.8108    7.1164   29.9046 H         1 THR         0.0257
    152 H75        47.1181    6.4706   32.8684 H         1 GLN         0.1883
    153 H76        45.0039    7.2345   34.7627 H         1 GLN         0.0801
    154 H77        45.3374    4.9746   35.5757 H         1 GLN         0.0337
    155 H78        46.8425    4.7962   34.6115 H         1 GLN         0.0337
    156 H79        44.7991    3.6425   33.6862 H         1 GLN         0.0504
    157 H80        45.6457    4.7633   32.5665 H         1 GLN         0.0504
    158 H81        41.8335    5.5941   33.9209 H         1 GLN         0.1814
    159 H82        42.8366    4.4647   34.7686 H         1 GLN         0.1814
    160 H83        45.6968    8.5541   36.2504 H         1 MET         0.1875
    161 H84        48.3644    8.1141   37.5260 H         1 MET         0.0723
    162 H85        48.1237   10.4395   38.3680 H         1 MET         0.0270
    163 H86        46.5404   10.5832   37.5318 H         1 MET         0.0270
    164 H87        48.0482   10.3946   36.5739 H         1 MET         0.0270
@<TRIPOS>BOND
     1    2    1 1  
     2    3    2 1  
     3    3    4 2  
     4    5    3 am 
     5    6    5 1  
     6    7    6 1  
     7    6    9 1  
     8    7    8 2  
     9   14    7 am 
    10    9   10 1  
    11   10   11 1  
    12   11   12 1  
    13   12   13 1  
    14   15   14 1  
    15   16   15 1  
    16   15   18 1  
    17   16   17 2  
    18   28   16 am 
    19   20   19 2  
    20   20   21 1  
    21   22   20 am 
    22   23   22 1  
    23   24   23 1  
    24   25   24 1  
    25   26   25 1  
    26   27   26 1  
    27   27   28 1  
    28   29   27 1  
    29   29   30 2  
    30   31   29 am 
    31   32   31 1  
    32   33   32 1  
    33   33   34 2  
    34   35   33 am 
    35   36   35 1  
    36   37   36 1  
    37   36   39 1  
    38   37   38 2  
    39   53   37 am 
    40   39   40 1  
    41   40   41 1  
    42   41   42 1  
    43   42   43 1  
    44   45   44 2  
    45   45   46 1  
    46   47   45 am 
    47   48   47 1  
    48   49   48 1  
    49   50   49 1  
    50   51   50 1  
    51   52   51 1  
    52   52   53 1  
    53   52   54 1  
    54   54   55 2  
    55   54   56 am 
    56   56   57 1  
    57   57   58 1  
    58   57   60 1  
    59   58   59 2  
    60   58   63 am 
    61   60   61 1  
    62   60   62 1  
    63   63   64 1  
    64   64   65 1  
    65   64   67 1  
    66   65   66 2  
    67   65   72 am 
    68   67   68 1  
    69   68   69 1  
    70   69   70 2  
    71   69   71 am 
    72   72   73 1  
    73   73   74 1  
    74   73   76 1  
    75   74   75 ar 
    76   74   77 ar 
    77    1   78 1  
    78    1   79 1  
    79    1   80 1  
    80    2   81 1  
    81    2   82 1  
    82    5   83 1  
    83    6   84 1  
    84    9   85 1  
    85    9   86 1  
    86   10   87 1  
    87   10   88 1  
    88   11   89 1  
    89   11   90 1  
    90   12   91 1  
    91   12   92 1  
    92   13   93 1  
    93   13   94 1  
    94   13   95 1  
    95   14   96 1  
    96   15   97 1  
    97   18   98 1  
    98   18   99 1  
    99   18  100 1  
   100   21  101 1  
   101   21  102 1  
   102   21  103 1  
   103   22  104 1  
   104   23  105 1  
   105   23  106 1  
   106   24  107 1  
   107   24  108 1  
   108   25  109 1  
   109   25  110 1  
   110   26  111 1  
   111   26  112 1  
   112   27  113 1  
   113   28  114 1  
   114   31  115 1  
   115   32  116 1  
   116   32  117 1  
   117   35  118 1  
   118   36  119 1  
   119   39  120 1  
   120   39  121 1  
   121   40  122 1  
   122   40  123 1  
   123   41  124 1  
   124   41  125 1  
   125   42  126 1  
   126   42  127 1  
   127   43  128 1  
   128   43  129 1  
   129   43  130 1  
   130   46  131 1  
   131   46  132 1  
   132   46  133 1  
   133   47  134 1  
   134   48  135 1  
   135   48  136 1  
   136   49  137 1  
   137   49  138 1  
   138   50  139 1  
   139   50  140 1  
   140   51  141 1  
   141   51  142 1  
   142   52  143 1  
   143   53  144 1  
   144   56  145 1  
   145   57  146 1  
   146   60  147 1  
   147   61  148 1  
   148   62  149 1  
   149   62  150 1  
   150   62  151 1  
   151   63  152 1  
   152   64  153 1  
   153   67  154 1  
   154   67  155 1  
   155   68  156 1  
   156   68  157 1  
   157   71  158 1  
   158   71  159 1  
   159   72  160 1  
   160   73  161 1  
   161   76  162 1  
   162   76  163 1  
   163   76  164 1  
@<TRIPOS>SUBSTRUCTURE
     1 GLY         1

