6s5k_ligand
  -I-interpret- 

 60 63  0  0  0  0  0  0  0  0999 V2000
  -16.3800   -9.0630  -13.4810 C   0  0  0  0  0
  -15.2510   -8.4970  -14.0510 C   0  0  0  0  0
  -16.6220  -10.4420  -13.5810 C   0  0  0  0  0
  -14.5950  -10.6470  -14.8480 C   0  0  0  0  0
   -3.6350  -17.7120  -15.0600 C   0  0  0  0  0
   -2.5640  -16.7050  -17.0180 C   0  0  0  0  0
  -13.6030  -11.4970  -15.5880 C   0  0  0  0  0
   -7.2150   -9.7650  -13.4930 C   0  0  0  0  0
   -4.8850  -17.5490  -15.6960 C   0  0  0  0  0
   -3.7970  -16.5370  -17.6340 C   0  0  0  0  0
  -12.4980  -12.0380  -14.6320 C   0  0  0  0  0
   -6.3390  -10.6900  -13.9890 C   0  0  0  0  0
   -8.4730   -9.6960  -14.0260 C   0  0  0  0  0
   -6.7180  -11.5300  -15.0850 C   0  0  0  0  0
   -8.8160  -10.4750  -15.1000 C   0  0  0  0  0
   -6.1990  -16.7760  -17.6710 C   0  0  0  0  0
  -10.6170  -13.5940  -14.5710 C   0  0  0  0  0
   -7.9710  -11.4080  -15.6030 C   0  0  0  0  0
   -7.1430  -15.7840  -17.0810 N   0  0  0  0  0
   -7.0790  -14.4610  -17.2690 C   0  0  0  0  0
   -8.8350  -14.7410  -15.9690 C   0  0  0  0  0
   -8.1460  -13.7910  -16.6170 C   0  0  0  0  0
  -14.3420   -9.2990  -14.7520 C   0  0  0  0  0
  -15.7210  -11.1960  -14.2930 C   0  0  0  0  0
   -2.4970  -17.3180  -15.7820 C   0  0  0  0  0
   -4.9170  -16.9750  -16.9410 C   0  0  0  0  0
  -11.7270  -13.0940  -15.4170 C   0  0  0  0  0
   -8.5870  -17.1770  -15.9880 O   0  0  0  0  0
   -6.1680  -13.9440  -17.9220 O   0  0  0  0  0
   -9.8960  -14.7260  -15.1640 N   0  0  0  0  0
   -8.2290  -16.0360  -16.3090 C   0  0  0  0  0
   -8.4420  -12.3220  -16.7080 C   0  0  0  0  0
  -17.0891   -8.4294  -12.9483 H   0  0  0  0  0
  -15.0703   -7.4265  -13.9537 H   0  0  0  0  0
  -17.4932  -10.8981  -13.1108 H   0  0  0  0  0
   -3.5570  -18.1249  -14.0543 H   0  0  0  0  0
   -1.6546  -16.3553  -17.5067 H   0  0  0  0  0
  -13.1288  -10.8874  -16.3572 H   0  0  0  0  0
  -14.1300  -12.3452  -16.0249 H   0  0  0  0  0
   -6.9164   -9.0944  -12.6872 H   0  0  0  0  0
   -5.8045  -17.8724  -15.2080 H   0  0  0  0  0
   -3.8818  -16.0804  -18.6201 H   0  0  0  0  0
  -12.9365  -12.4645  -13.7298 H   0  0  0  0  0
  -11.8376  -11.2352  -14.3043 H   0  0  0  0  0
   -5.3471  -10.7886  -13.5480 H   0  0  0  0  0
   -9.2076   -9.0167  -13.5935 H   0  0  0  0  0
   -6.0156  -12.2544  -15.4973 H   0  0  0  0  0
   -9.7941  -10.3408  -15.5620 H   0  0  0  0  0
   -5.9328  -16.3949  -18.6569 H   0  0  0  0  0
   -6.7139  -17.7365  -17.6509 H   0  0  0  0  0
  -11.0492  -13.9362  -13.6307 H   0  0  0  0  0
   -9.9042  -12.7784  -14.4487 H   0  0  0  0  0
  -13.4540   -8.8645  -15.2111 H   0  0  0  0  0
  -15.9074  -12.2624  -14.4201 H   0  0  0  0  0
   -1.5152  -17.5045  -15.3469 H   0  0  0  0  0
  -11.3286  -12.6585  -16.3333 H   0  0  0  0  0
  -12.3905  -13.9167  -15.6837 H   0  0  0  0  0
  -10.2652  -15.6455  -14.9218 H   0  0  0  0  0
   -7.9095  -11.9838  -17.5969 H   0  0  0  0  0
   -9.5296  -12.2537  -16.6831 H   0  0  0  0  0
  2  1  4  0  0  0
  3  1  4  0  0  0
 23  2  4  0  0  0
 24  3  4  0  0  0
  7  4  1  0  0  0
  4 23  4  0  0  0
  4 24  4  0  0  0
  9  5  4  0  0  0
  5 25  4  0  0  0
 10  6  4  0  0  0
  6 25  4  0  0  0
 11  7  1  0  0  0
 12  8  4  0  0  0
 13  8  4  0  0  0
 26  9  4  0  0  0
 26 10  4  0  0  0
 27 11  1  0  0  0
 14 12  4  0  0  0
 15 13  4  0  0  0
 18 14  4  0  0  0
 18 15  4  0  0  0
 19 16  1  0  0  0
 16 26  1  0  0  0
 17 27  1  0  0  0
 30 17  1  0  0  0
 32 18  1  0  0  0
 20 19  1  0  0  0
 31 19  1  0  0  0
 22 20  1  0  0  0
 20 29  2  0  0  0
 22 21  2  0  0  0
 21 30  1  0  0  0
 21 31  1  0  0  0
 22 32  1  0  0  0
 31 28  2  0  0  0
  1 33  1  0  0  0
  2 34  1  0  0  0
  3 35  1  0  0  0
  5 36  1  0  0  0
  6 37  1  0  0  0
  7 38  1  0  0  0
  7 39  1  0  0  0
  8 40  1  0  0  0
  9 41  1  0  0  0
 10 42  1  0  0  0
 11 43  1  0  0  0
 11 44  1  0  0  0
 12 45  1  0  0  0
 13 46  1  0  0  0
 14 47  1  0  0  0
 15 48  1  0  0  0
 16 49  1  0  0  0
 16 50  1  0  0  0
 17 51  1  0  0  0
 17 52  1  0  0  0
 23 53  1  0  0  0
 24 54  1  0  0  0
 25 55  1  0  0  0
 27 56  1  0  0  0
 27 57  1  0  0  0
 30 58  1  0  0  0
 32 59  1  0  0  0
 32 60  1  0  0  0
M  END
$$$$
