5u4b_ligand
  -I-interpret- 

 30 31  0  0  0  0  0  0  0  0999 V2000
  -20.4970    0.6320  -30.5720 C   0  0  0  0  0
  -21.5490   -0.0460  -29.9740 C   0  0  0  0  0
  -21.6470   -0.0950  -28.5900 C   0  0  0  0  0
  -20.6890    0.5350  -27.8070 C   0  0  0  0  0
  -19.6400    1.2100  -28.4100 C   0  0  0  0  0
  -19.5410    1.2590  -29.7900 C   0  0  0  0  0
  -20.7540    0.5090  -26.2930 C   0  0  0  0  0
  -21.6390   -0.1390  -25.5220 C   0  0  0  0  0
  -21.6190   -0.1040  -24.0070 C   0  0  0  0  0
  -21.4970    1.1100  -23.3490 C   0  0  0  0  0
  -21.4670    1.1500  -21.9640 C   0  0  0  0  0
  -21.5560   -0.0230  -21.2340 C   0  0  0  0  0
  -21.6730   -1.2380  -21.8900 C   0  0  0  0  0
  -21.7000   -1.2810  -23.2760 C   0  0  0  0  0
  -22.5840   -0.7260  -30.8450 C   0  0  0  0  0
  -21.5270    0.0220  -19.8280 O   0  0  0  0  0
  -22.3230   -0.9620  -32.0540 O   0  0  0  0  0
  -23.7010   -1.0580  -30.3660 O   0  0  0  0  0
  -20.4225    0.6714  -31.6587 H   0  0  0  0  0
  -22.4739   -0.6267  -28.1193 H   0  0  0  0  0
  -18.8888    1.7050  -27.7946 H   0  0  0  0  0
  -18.7129    1.7896  -30.2599 H   0  0  0  0  0
  -19.9912    1.0851  -25.7692 H   0  0  0  0  0
  -22.4169   -0.7241  -26.0126 H   0  0  0  0  0
  -21.4246    2.0345  -23.9218 H   0  0  0  0  0
  -21.3732    2.1060  -21.4489 H   0  0  0  0  0
  -21.7439   -2.1617  -21.3156 H   0  0  0  0  0
  -21.7847   -2.2381  -23.7906 H   0  0  0  0  0
  -21.5983   -0.8694  -19.4789 H   0  0  0  0  0
  -23.7376   -0.8086  -29.4397 H   0  0  0  0  0
  1  2  4  0  0  0
  1  6  4  0  0  0
  2  3  4  0  0  0
  2 15  1  0  0  0
  3  4  4  0  0  0
  4  5  4  0  0  0
  4  7  1  0  0  0
  5  6  4  0  0  0
  7  8  2  0  0  0
  8  9  1  0  0  0
  9 10  4  0  0  0
  9 14  4  0  0  0
 10 11  4  0  0  0
 11 12  4  0  0  0
 12 13  4  0  0  0
 12 16  1  0  0  0
 13 14  4  0  0  0
 15 17  2  0  0  0
 15 18  1  0  0  0
  1 19  1  0  0  0
  3 20  1  0  0  0
  5 21  1  0  0  0
  6 22  1  0  0  0
  7 23  1  0  0  0
  8 24  1  0  0  0
 10 25  1  0  0  0
 11 26  1  0  0  0
 13 27  1  0  0  0
 14 28  1  0  0  0
 16 29  1  0  0  0
 18 30  1  0  0  0
M  END
$$$$
