6qfe_ligand
  -I-interpret- 

 51 54  0  0  0  0  0  0  0  0999 V2000
   -4.7260  -16.7960   68.5720 C   0  0  0  0  0
   -3.5160  -18.1520   69.7130 C   0  0  0  0  0
   -4.4950  -17.6760   72.0470 C   0  0  0  0  0
   -5.6710  -17.2220   74.1140 C   0  0  0  0  0
   -3.6690  -18.5620   72.7390 C   0  0  0  0  0
   -3.1370  -14.9650   65.9240 C   0  0  0  0  0
   -2.1500  -14.3780   65.1410 C   0  0  0  0  0
   -1.4960  -12.7810   66.8680 C   0  0  0  0  0
   -3.3840  -11.9140   68.2980 C   0  0  0  0  0
   -4.9540  -10.3880   67.3790 C   0  0  0  0  0
   -0.4250  -13.0680   63.0220 N   0  0  0  0  0
   -0.8310  -14.3570   62.9500 C   0  0  0  0  0
   -0.3520  -15.1010   62.0000 N   0  0  0  0  0
   -1.8360  -14.8990   63.8680 C   0  0  0  0  0
   -2.5660  -16.0030   63.4120 C   0  0  0  0  0
   -3.5680  -16.5670   64.1760 C   0  0  0  0  0
   -3.8770  -16.0460   65.4240 C   0  0  0  0  0
   -4.9060  -16.6130   66.1480 N   0  0  0  0  0
   -5.3690  -16.0930   67.4240 C   0  0  0  0  0
   -5.1410  -16.6680   69.8510 N   0  0  0  0  0
   -4.3470  -17.4970   70.5900 C   0  0  0  0  0
   -3.7580  -17.6950   68.4400 N   0  0  0  0  0
   -5.5010  -17.0080   72.7510 C   0  0  0  0  0
   -4.8180  -18.0690   74.7960 C   0  0  0  0  0
   -3.8390  -18.7630   74.1040 C   0  0  0  0  0
   -1.4100  -13.2890   65.5320 O   0  0  0  0  0
   -2.7300  -11.9500   67.0700 C   0  0  0  0  0
   -4.5020  -11.1120   68.4620 C   0  0  0  0  0
   -4.3750  -10.4380   66.1670 N   0  0  0  0  0
   -3.2700  -11.1930   66.0440 C   0  0  0  0  0
   -2.7829  -18.9118   69.9837 H   0  0  0  0  0
   -6.4792  -16.7204   74.6463 H   0  0  0  0  0
   -2.8852  -19.1002   72.2059 H   0  0  0  0  0
   -3.3357  -14.5852   66.9262 H   0  0  0  0  0
   -0.6252  -12.1517   67.0520 H   0  0  0  0  0
   -1.5364  -13.6269   67.5543 H   0  0  0  0  0
   -3.0173  -12.5158   69.1295 H   0  0  0  0  0
   -5.8231   -9.7438   67.5122 H   0  0  0  0  0
    0.2408  -12.7042   62.3403 H   0  0  0  0  0
   -0.7848  -12.4603   63.7580 H   0  0  0  0  0
    0.3126  -14.7103   61.3322 H   0  0  0  0  0
   -2.3386  -16.4260   62.4335 H   0  0  0  0  0
   -4.1197  -17.4270   63.7963 H   0  0  0  0  0
   -5.3658  -17.4403   65.7678 H   0  0  0  0  0
   -5.1087  -15.0360   67.4791 H   0  0  0  0  0
   -6.4463  -16.2465   67.4870 H   0  0  0  0  0
   -6.1576  -16.3135   72.2269 H   0  0  0  0  0
   -4.9153  -18.1905   75.8748 H   0  0  0  0  0
   -3.1991  -19.4699   74.6322 H   0  0  0  0  0
   -5.0118  -11.0548   69.4237 H   0  0  0  0  0
   -2.7678  -11.2105   65.0767 H   0  0  0  0  0
 19  1  1  0  0  0
  1 20  4  0  0  0
  1 22  4  0  0  0
  2 21  4  0  0  0
 22  2  4  0  0  0
  3  5  4  0  0  0
 21  3  1  0  0  0
  3 23  4  0  0  0
 23  4  4  0  0  0
  4 24  4  0  0  0
  5 25  4  0  0  0
  6  7  4  0  0  0
 17  6  4  0  0  0
  7 14  4  0  0  0
  7 26  1  0  0  0
 26  8  1  0  0  0
  8 27  1  0  0  0
 27  9  4  0  0  0
  9 28  4  0  0  0
 28 10  4  0  0  0
 10 29  4  0  0  0
 12 11  1  0  0  0
 12 13  2  0  0  0
 14 12  1  0  0  0
 15 14  4  0  0  0
 16 15  4  0  0  0
 17 16  4  0  0  0
 18 17  1  0  0  0
 18 19  1  0  0  0
 20 21  4  0  0  0
 24 25  4  0  0  0
 27 30  4  0  0  0
 29 30  4  0  0  0
  2 31  1  0  0  0
  4 32  1  0  0  0
  5 33  1  0  0  0
  6 34  1  0  0  0
  8 35  1  0  0  0
  8 36  1  0  0  0
  9 37  1  0  0  0
 10 38  1  0  0  0
 11 39  1  0  0  0
 11 40  1  0  0  0
 13 41  1  0  0  0
 15 42  1  0  0  0
 16 43  1  0  0  0
 18 44  1  0  0  0
 19 45  1  0  0  0
 19 46  1  0  0  0
 23 47  1  0  0  0
 24 48  1  0  0  0
 25 49  1  0  0  0
 28 50  1  0  0  0
 30 51  1  0  0  0
M  END
$$$$
