6mvu_ligand
  -I-interpret- 

 20 20  0  0  0  0  0  0  0  0999 V2000
  -25.5600    5.4270    2.9280 C   0  0  0  0  0
  -25.9080    4.9790    4.1920 C   0  0  0  0  0
  -26.9770    5.5530    4.8580 C   0  0  0  0  0
  -27.7050    6.5800    4.2760 C   0  0  0  0  0
  -27.3660    7.0240    3.0000 C   0  0  0  0  0
  -26.2880    6.4500    2.3320 C   0  0  0  0  0
  -29.6280    8.2910    4.7170 C   0  0  0  0  0
  -29.3100    9.4100    3.7740 C   0  0  0  0  0
  -24.4720    4.8300    2.2730 N   0  0  0  0  0
  -23.5220    5.5010    1.9090 O   0  0  0  0  0
  -24.4660    3.4500    2.0470 O   0  0  0  0  0
  -28.7750    7.1270    4.9550 O   0  0  0  0  0
  -30.6550    8.3280    5.3720 O   0  0  0  0  0
  -25.3406    4.1754    4.6614 H   0  0  0  0  0
  -27.2496    5.1941    5.8504 H   0  0  0  0  0
  -27.9429    7.8182    2.5262 H   0  0  0  0  0
  -26.0139    6.8040    1.3382 H   0  0  0  0  0
  -30.1005    9.4904    3.0279 H   0  0  0  0  0
  -29.2384   10.3439    4.3314 H   0  0  0  0  0
  -28.3604    9.2073    3.2787 H   0  0  0  0  0
  2  1  4  0  0  0
  6  1  4  0  0  0
  1  9  1  0  0  0
  3  2  4  0  0  0
  4  3  4  0  0  0
  4  5  4  0  0  0
 12  4  1  0  0  0
  5  6  4  0  0  0
  7  8  1  0  0  0
  7 12  1  0  0  0
  7 13  2  0  0  0
  9 10  2  0  0  0
  9 11  2  0  0  0
  2 14  1  0  0  0
  3 15  1  0  0  0
  5 16  1  0  0  0
  6 17  1  0  0  0
  8 18  1  0  0  0
  8 19  1  0  0  0
  8 20  1  0  0  0
M  END
$$$$
