### 
### Created by X-TOOL on Mon Sep 10 21:13:30 2018
### 

@<TRIPOS>MOLECULE
5wa9_ligand
   49    51     1     0     0
SMALL
GAST_HUCK


@<TRIPOS>ATOM
      1 O3P       -30.4550    3.9010  -22.5460 O.co2     1 9ZD        -0.6076
      2 P         -31.2000    4.0150  -23.8400 P.3       1 9ZD         0.2039
      3 O2P       -32.0460    2.8490  -24.2670 O.co2     1 9ZD        -0.6076
      4 O5'       -30.0930    4.3630  -24.9330 O.3       1 9ZD        -0.2585
      5 C5'       -30.2890    4.0850  -26.3080 C.3       1 9ZD         0.1127
      6 C4'       -29.3090    4.9710  -27.0540 C.3       1 9ZD         0.1191
      7 C3'       -29.7010    6.4580  -27.0870 C.3       1 9ZD         0.1150
      8 O3'       -28.7320    7.2760  -26.4050 O.3       1 9ZD        -0.3864
      9 C2'       -29.7800    6.7660  -28.5820 C.3       1 9ZD         0.1385
     10 O2'       -29.3250    8.0760  -28.9620 O.3       1 9ZD        -0.3836
     11 C1'       -28.9230    5.6640  -29.1840 C.3       1 9ZD         0.2010
     12 O4'       -29.2470    4.5220  -28.4050 O.3       1 9ZD        -0.3364
     13 N9        -29.2290    5.3480  -30.5870 N.pl3     1 9ZD        -0.1919
     14 C4        -28.2950    5.1580  -31.5030 C.ar      1 9ZD         0.1613
     15 C5        -29.0190    4.8470  -32.7300 C.ar      1 9ZD         0.1045
     16 N7        -30.3240    4.8910  -32.4430 N.2       1 9ZD        -0.2958
     17 C8        -30.4450    5.1730  -31.1280 C.2       1 9ZD         0.1123
     18 N3        -26.9480    5.2180  -31.4900 N.ar      1 9ZD        -0.2714
     19 C2        -26.2870    4.9650  -32.6320 C.ar      1 9ZD         0.0533
     20 N1        -26.8840    4.6690  -33.8030 N.ar      1 9ZD        -0.2698
     21 C6        -28.2200    4.6030  -33.9330 C.ar      1 9ZD         0.1298
     22 N6        -28.8160    4.3220  -35.1180 N.pl3     1 9ZD        -0.3152
     23 N2        -32.2400    5.3930  -23.8430 N.am      1 9ZD        -0.2536
     24 C3        -31.5970    6.6910  -23.7160 C.3       1 9ZD         0.1328
     25 C7        -32.2410    7.6870  -24.6070 C.2       1 9ZD         0.2551
     26 C9        -31.6750    7.1990  -22.2810 C.3       1 9ZD        -0.0266
     27 O10       -31.6310    8.6780  -24.9710 O.2       1 9ZD        -0.3683
     28 O11       -33.6150    7.4970  -24.9860 O.3       1 9ZD        -0.2788
     29 C12       -34.6220    8.3370  -24.4240 C.3       1 9ZD         0.0658
     30 H1        -31.3215    4.3230  -26.6033 H         1 9ZD         0.0650
     31 H2        -30.0827    3.0250  -26.5175 H         1 9ZD         0.0650
     32 H3        -28.3207    4.8764  -26.5805 H         1 9ZD         0.0651
     33 H4        -30.6829    6.6079  -26.6145 H         1 9ZD         0.0648
     34 H5        -27.8855    7.1788  -26.8250 H         1 9ZD         0.2100
     35 H6        -30.8209    6.6643  -28.9228 H         1 9ZD         0.0676
     36 H7        -28.4143    8.1786  -28.7119 H         1 9ZD         0.2101
     37 H8        -27.8579    5.9237  -29.0944 H         1 9ZD         0.0996
     38 H9        -31.3875    5.2473  -30.5875 H         1 9ZD         0.1349
     39 H10       -25.2038    5.0014  -32.6098 H         1 9ZD         0.0996
     40 H11       -28.2416    4.1526  -35.9560 H         1 9ZD         0.1820
     41 H12       -29.8432    4.2780  -35.1802 H         1 9ZD         0.1820
     42 H13       -33.2324    5.3033  -23.9276 H         1 9ZD         0.1687
     43 H14       -30.5397    6.5867  -24.0011 H         1 9ZD         0.0767
     44 H15       -31.1825    8.1802  -22.2121 H         1 9ZD         0.0274
     45 H16       -31.1693    6.4872  -21.6120 H         1 9ZD         0.0274
     46 H17       -32.7294    7.2964  -21.9833 H         1 9ZD         0.0274
     47 H18       -35.6051    8.0495  -24.8251 H         1 9ZD         0.0577
     48 H19       -34.4122    9.3851  -24.6838 H         1 9ZD         0.0577
     49 H20       -34.6252    8.2240  -23.3298 H         1 9ZD         0.0577
@<TRIPOS>BOND
     1    1    2 ar 
     2    2    3 ar 
     3    2    4 1  
     4    2   23 am 
     5    4    5 1  
     6    5    6 1  
     7    6    7 1  
     8    6   12 1  
     9    7    8 1  
    10    7    9 1  
    11    9   10 1  
    12    9   11 1  
    13   11   12 1  
    14   11   13 1  
    15   13   14 1  
    16   13   17 1  
    17   14   15 ar 
    18   14   18 ar 
    19   15   16 1  
    20   15   21 ar 
    21   16   17 2  
    22   18   19 ar 
    23   19   20 ar 
    24   20   21 ar 
    25   21   22 1  
    26   23   24 1  
    27   24   25 1  
    28   24   26 1  
    29   25   27 2  
    30   25   28 1  
    31   28   29 1  
    32    5   30 1  
    33    5   31 1  
    34    6   32 1  
    35    7   33 1  
    36    8   34 1  
    37    9   35 1  
    38   10   36 1  
    39   11   37 1  
    40   17   38 1  
    41   19   39 1  
    42   22   40 1  
    43   22   41 1  
    44   23   42 1  
    45   24   43 1  
    46   26   44 1  
    47   26   45 1  
    48   26   46 1  
    49   29   47 1  
    50   29   48 1  
    51   29   49 1  
@<TRIPOS>SUBSTRUCTURE
     1 9ZD         1

