5wa9_ligand
  -I-interpret- 

 50 52  0  0  0  0  0  0  0  0999 V2000
  -30.4550    3.9010  -22.5460 O   0  0  0  0  0
  -31.2000    4.0150  -23.8400 P   0  0  0  0  0
  -32.0460    2.8490  -24.2670 O   0  0  0  0  0
  -30.0930    4.3630  -24.9330 O   0  0  0  0  0
  -30.2890    4.0850  -26.3080 C   0  0  0  0  0
  -29.3090    4.9710  -27.0540 C   0  0  0  0  0
  -29.7010    6.4580  -27.0870 C   0  0  0  0  0
  -28.7320    7.2760  -26.4050 O   0  0  0  0  0
  -29.7800    6.7660  -28.5820 C   0  0  0  0  0
  -29.3250    8.0760  -28.9620 O   0  0  0  0  0
  -28.9230    5.6640  -29.1840 C   0  0  0  0  0
  -29.2470    4.5220  -28.4050 O   0  0  0  0  0
  -29.2290    5.3480  -30.5870 N   0  0  0  0  0
  -28.2950    5.1580  -31.5030 C   0  0  0  0  0
  -29.0190    4.8470  -32.7300 C   0  0  0  0  0
  -30.3240    4.8910  -32.4430 N   0  0  0  0  0
  -30.4450    5.1730  -31.1280 C   0  0  0  0  0
  -26.9480    5.2180  -31.4900 N   0  0  0  0  0
  -26.2870    4.9650  -32.6320 C   0  0  0  0  0
  -26.8840    4.6690  -33.8030 N   0  0  0  0  0
  -28.2200    4.6030  -33.9330 C   0  0  0  0  0
  -28.8160    4.3220  -35.1180 N   0  0  0  0  0
  -32.2400    5.3930  -23.8430 N   0  0  0  0  0
  -31.5970    6.6910  -23.7160 C   0  0  0  0  0
  -32.2410    7.6870  -24.6070 C   0  0  0  0  0
  -31.6750    7.1990  -22.2810 C   0  0  0  0  0
  -31.6310    8.6780  -24.9710 O   0  0  0  0  0
  -33.6150    7.4970  -24.9860 O   0  0  0  0  0
  -34.6220    8.3370  -24.4240 C   0  0  0  0  0
  -32.4659    3.0502  -25.1065 H   0  0  0  0  0
  -31.3162    4.2882  -26.6106 H   0  0  0  0  0
  -30.1166    3.0313  -26.5275 H   0  0  0  0  0
  -28.3592    4.8960  -26.5246 H   0  0  0  0  0
  -30.6375    6.6687  -26.5707 H   0  0  0  0  0
  -28.7198    7.0459  -25.4731 H   0  0  0  0  0
  -30.8115    6.7830  -28.9339 H   0  0  0  0  0
  -29.4106    8.1800  -29.9125 H   0  0  0  0  0
  -27.8774    5.9718  -29.1740 H   0  0  0  0  0
  -31.3884    5.2474  -30.5871 H   0  0  0  0  0
  -25.1978    5.0016  -32.6097 H   0  0  0  0  0
  -29.8332    4.2784  -35.1796 H   0  0  0  0  0
  -28.2472    4.1542  -35.9479 H   0  0  0  0  0
  -33.2522    5.3015  -23.9293 H   0  0  0  0  0
  -30.5526    6.5649  -24.0014 H   0  0  0  0  0
  -32.7203    7.2950  -21.9872 H   0  0  0  0  0
  -31.1736    6.4928  -21.6192 H   0  0  0  0  0
  -31.1867    8.1712  -22.2140 H   0  0  0  0  0
  -34.6241    8.2241  -23.3399 H   0  0  0  0  0
  -34.4130    9.3752  -24.6821 H   0  0  0  0  0
  -35.5956    8.0512  -24.8222 H   0  0  0  0  0
  1  2  2  0  0  0
  2  3  1  0  0  0
  2  4  1  0  0  0
  2 23  1  0  0  0
  4  5  1  0  0  0
  5  6  1  0  0  0
  6  7  1  0  0  0
  6 12  1  0  0  0
  7  8  1  0  0  0
  7  9  1  0  0  0
  9 10  1  0  0  0
  9 11  1  0  0  0
 11 12  1  0  0  0
 11 13  1  0  0  0
 13 14  4  0  0  0
 13 17  4  0  0  0
 14 15  4  0  0  0
 14 18  4  0  0  0
 15 16  4  0  0  0
 15 21  4  0  0  0
 16 17  4  0  0  0
 18 19  4  0  0  0
 19 20  4  0  0  0
 20 21  4  0  0  0
 21 22  1  0  0  0
 23 24  1  0  0  0
 24 25  1  0  0  0
 24 26  1  0  0  0
 25 27  2  0  0  0
 25 28  1  0  0  0
 28 29  1  0  0  0
  3 30  1  0  0  0
  5 31  1  0  0  0
  5 32  1  0  0  0
  6 33  1  0  0  0
  7 34  1  0  0  0
  8 35  1  0  0  0
  9 36  1  0  0  0
 10 37  1  0  0  0
 11 38  1  0  0  0
 17 39  1  0  0  0
 19 40  1  0  0  0
 22 41  1  0  0  0
 22 42  1  0  0  0
 23 43  1  0  0  0
 24 44  1  0  0  0
 26 45  1  0  0  0
 26 46  1  0  0  0
 26 47  1  0  0  0
 29 48  1  0  0  0
 29 49  1  0  0  0
 29 50  1  0  0  0
M  END
$$$$
