### 
### Created by X-TOOL on Fri Nov  2 10:14:00 2018
### 

@<TRIPOS>MOLECULE
5tyl_ligand
   22    23     1     0     0
SMALL
GAST_HUCK


@<TRIPOS>ATOM
      1 C13       -16.0170   -7.5360  -20.2870 C.ar      1 7N7        -0.0540
      2 O01       -17.6260   -8.1730  -24.2340 O.3       1 7N7        -0.4105
      3 B02       -18.3240   -9.1040  -23.0270 B         1 7N7         3.0000
      4 O03       -19.8140   -8.3880  -22.7440 O.3       1 7N7        -0.4105
      5 C05       -17.4300   -8.9600  -21.6180 C.ar      1 7N7        -0.0612
      6 C06       -17.3300  -10.0060  -20.6830 C.ar      1 7N7        -0.0540
      7 C07       -16.5320   -9.7760  -19.5020 C.ar      1 7N7        -0.0179
      8 C08       -16.3800  -10.7820  -18.5330 C.ar      1 7N7        -0.0540
      9 C09       -15.6060  -10.5500  -17.4020 C.ar      1 7N7        -0.0612
     10 C10       -14.9640   -9.3300  -17.2100 C.ar      1 7N7        -0.0612
     11 C11       -15.1020   -8.3520  -18.1670 C.ar      1 7N7        -0.0540
     12 C12       -15.8890   -8.5840  -19.3180 C.ar      1 7N7        -0.0179
     13 C14       -16.7830   -7.7260  -21.4310 C.ar      1 7N7        -0.0612
     14 H1        -15.5134   -6.5895  -20.1268 H         1 7N7         0.0624
     15 H3        -16.7696   -8.5241  -24.4479 H         1 7N7         0.2052
     16 H5        -20.2708   -8.8684  -22.0635 H         1 7N7         0.2052
     17 H7        -17.8345  -10.9519  -20.8435 H         1 7N7         0.0624
     18 H8        -16.8673  -11.7409  -18.6677 H         1 7N7         0.0624
     19 H9        -15.5007  -11.3313  -16.6580 H         1 7N7         0.0618
     20 H10       -14.3665   -9.1541  -16.3228 H         1 7N7         0.0618
     21 H11       -14.6043   -7.3977  -18.0379 H         1 7N7         0.0624
     22 H12       -16.8799   -6.9359  -22.1668 H         1 7N7         0.0618
@<TRIPOS>BOND
     1    1   12 ar 
     2   13    1 ar 
     3    3    2 1  
     4    3    4 1  
     5    5    3 1  
     6    5    6 ar 
     7    5   13 ar 
     8    6    7 ar 
     9    7    8 ar 
    10    7   12 ar 
    11    8    9 ar 
    12    9   10 ar 
    13   10   11 ar 
    14   11   12 ar 
    15    1   14 1  
    16    2   15 1  
    17    4   16 1  
    18    6   17 1  
    19    8   18 1  
    20    9   19 1  
    21   10   20 1  
    22   11   21 1  
    23   13   22 1  
@<TRIPOS>SUBSTRUCTURE
     1 7N7         1

