5tyl_ligand
  -I-interpret- 

 22 23  0  0  0  0  0  0  0  0999 V2000
  -16.0170   -7.5360  -20.2870 C   0  0  0  0  0
  -17.6260   -8.1730  -24.2340 O   0  0  0  0  0
  -18.3240   -9.1040  -23.0270 B   0  0  0  0  0
  -19.8140   -8.3880  -22.7440 O   0  0  0  0  0
  -17.4300   -8.9600  -21.6180 C   0  0  0  0  0
  -17.3300  -10.0060  -20.6830 C   0  0  0  0  0
  -16.5320   -9.7760  -19.5020 C   0  0  0  0  0
  -16.3800  -10.7820  -18.5330 C   0  0  0  0  0
  -15.6060  -10.5500  -17.4020 C   0  0  0  0  0
  -14.9640   -9.3300  -17.2100 C   0  0  0  0  0
  -15.1020   -8.3520  -18.1670 C   0  0  0  0  0
  -15.8890   -8.5840  -19.3180 C   0  0  0  0  0
  -16.7830   -7.7260  -21.4310 C   0  0  0  0  0
  -15.5106   -6.5843  -20.1259 H   0  0  0  0  0
  -18.1407   -8.2578  -25.0399 H   0  0  0  0  0
  -20.3543   -8.4530  -23.5348 H   0  0  0  0  0
  -17.8373  -10.9571  -20.8444 H   0  0  0  0  0
  -16.8700  -11.7462  -18.6684 H   0  0  0  0  0
  -15.5002  -11.3356  -16.6539 H   0  0  0  0  0
  -14.3632   -9.1531  -16.3179 H   0  0  0  0  0
  -14.6016   -7.3924  -18.0372 H   0  0  0  0  0
  -16.8805   -6.9315  -22.1709 H   0  0  0  0  0
  1 12  4  0  0  0
 13  1  4  0  0  0
  3  2  1  0  0  0
  3  4  1  0  0  0
  5  3  1  0  0  0
  5  6  4  0  0  0
  5 13  4  0  0  0
  6  7  4  0  0  0
  7  8  4  0  0  0
  7 12  4  0  0  0
  8  9  4  0  0  0
  9 10  4  0  0  0
 10 11  4  0  0  0
 11 12  4  0  0  0
  1 14  1  0  0  0
  2 15  1  0  0  0
  4 16  1  0  0  0
  6 17  1  0  0  0
  8 18  1  0  0  0
  9 19  1  0  0  0
 10 20  1  0  0  0
 11 21  1  0  0  0
 13 22  1  0  0  0
M  END
$$$$
