3g70_ligand
  -I-interpret- 

 75 80  0  0  0  0  0  0  0  0999 V2000
   -2.3890    5.6060    3.9480 Cl  0  0  0  0  0
   -0.6840    5.6200    4.4970 C   0  0  0  0  0
    0.3190    5.4440    3.5600 C   0  0  0  0  0
   -0.1150    5.1910    1.8440 Cl  0  0  0  0  0
   -0.3540    5.8280    5.8400 C   0  0  0  0  0
    0.9810    5.8310    6.2450 C   0  0  0  0  0
    1.9830    5.6330    5.2910 C   0  0  0  0  0
    1.6550    5.4450    3.9530 C   0  0  0  0  0
    2.6910    5.2330    2.8780 C   0  0  0  0  0
    4.0510    5.6960    3.1270 N   0  0  0  0  0
    4.2690    7.0630    2.5970 C   0  0  0  0  0
    3.4040    8.0690    3.3630 C   0  0  0  0  0
    4.8810    7.9540    3.6740 C   0  0  0  0  0
    4.9680    4.8770    3.6990 C   0  0  0  0  0
    4.6410    3.7320    4.0830 O   0  0  0  0  0
    6.3890    5.2640    3.9070 C   0  0  0  0  0
    6.8960    5.2820    5.3310 C   0  0  0  0  0
    8.0530    6.1670    5.4800 N   0  3  0  0  0
    9.1410    5.7470    4.6250 C   0  0  0  0  0
    8.7220    5.8900    3.1520 C   0  0  0  0  0
    7.2750    3.8680    5.7810 C   0  0  0  0  0
    8.3870    3.3880    4.9600 N   0  3  0  0  0
    9.5380    4.3010    4.9800 C   0  0  0  0  0
    7.2500    5.5370    2.8780 C   0  0  0  0  0
    6.8720    5.5410    1.4050 C   0  0  0  0  0
    6.0470    4.5670    0.8310 C   0  0  0  0  0
    5.7350    4.6150   -0.5280 C   0  0  0  0  0
    7.3920    6.5440    0.5780 C   0  0  0  0  0
    7.1070    6.5900   -0.7810 C   0  0  0  0  0
    6.2780    5.6180   -1.3380 C   0  0  0  0  0
    5.9510    5.6690   -2.7840 C   0  0  0  0  0
    4.7380    6.0670   -3.1990 C   0  0  0  0  0
    3.8590    6.9630   -2.3650 C   0  0  0  0  0
    3.2180    8.0010   -3.1320 O   0  0  0  0  0
    1.8610    8.0410   -2.8180 C   0  0  0  0  0
    1.3300    7.8870   -1.5340 C   0  0  0  0  0
    2.1240    7.6740   -0.4840 F   0  0  0  0  0
    0.9770    8.2530   -3.8470 C   0  0  0  0  0
    1.7120    8.4620   -5.4750 Cl  0  0  0  0  0
   -0.3990    8.3000   -3.6140 C   0  0  0  0  0
   -1.2690    8.5130   -4.6110 F   0  0  0  0  0
   -0.9170    8.1460   -2.3410 C   0  0  0  0  0
   -0.0420    7.9250   -1.2960 C   0  0  0  0  0
   -1.1437    5.9886    6.5739 H   0  0  0  0  0
    1.2394    5.9859    7.2925 H   0  0  0  0  0
    3.0288    5.6259    5.5980 H   0  0  0  0  0
    2.3419    5.8150    2.0250 H   0  0  0  0  0
    2.7722    4.1516    2.7678 H   0  0  0  0  0
    4.4773    6.8495    1.5486 H   0  0  0  0  0
    2.4556    8.0880    3.9000 H   0  0  0  0  0
    2.6734    8.8485    3.1471 H   0  0  0  0  0
    5.7409    8.6134    3.7919 H   0  0  0  0  0
    5.5218    7.8483    4.5494 H   0  0  0  0  0
    6.0897    5.6618    5.9584 H   0  0  0  0  0
    8.3675    6.1336    6.4497 H   0  0  0  0  0
    7.7770    7.1131    5.2171 H   0  0  0  0  0
   10.0152    6.3794    4.7800 H   0  0  0  0  0
    9.3321    5.1950    2.5752 H   0  0  0  0  0
    8.8579    6.9365    2.8791 H   0  0  0  0  0
    6.4188    3.2036    5.6644 H   0  0  0  0  0
    7.5726    3.8836    6.8295 H   0  0  0  0  0
    8.0588    3.3172    3.9968 H   0  0  0  0  0
    8.6913    2.4904    5.3370 H   0  0  0  0  0
    9.9529    4.3012    5.9879 H   0  0  0  0  0
   10.2578    3.9553    4.2380 H   0  0  0  0  0
    5.6453    3.7650    1.4503 H   0  0  0  0  0
    5.0669    3.8696   -0.9594 H   0  0  0  0  0
    8.0370    7.3083    1.0115 H   0  0  0  0  0
    7.5275    7.3784   -1.4053 H   0  0  0  0  0
    6.7038    5.3802   -3.5175 H   0  0  0  0  0
    4.3770    5.7311   -4.1711 H   0  0  0  0  0
    4.4911    7.4452   -1.6193 H   0  0  0  0  0
    3.0760    6.3437   -1.9273 H   0  0  0  0  0
   -1.9917    8.1979   -2.1666 H   0  0  0  0  0
   -0.4245    7.7804   -0.2856 H   0  0  0  0  0
  1  2  1  0  0  0
  2  3  4  0  0  0
  2  5  4  0  0  0
  3  4  1  0  0  0
  3  8  4  0  0  0
  5  6  4  0  0  0
  6  7  4  0  0  0
  7  8  4  0  0  0
  8  9  1  0  0  0
  9 10  1  0  0  0
 10 11  1  0  0  0
 10 14  1  0  0  0
 11 12  1  0  0  0
 11 13  1  0  0  0
 12 13  1  0  0  0
 14 15  2  0  0  0
 14 16  1  0  0  0
 16 17  1  0  0  0
 16 24  2  0  0  0
 17 18  1  0  0  0
 17 21  1  0  0  0
 18 19  1  0  0  0
 19 20  1  0  0  0
 19 23  1  0  0  0
 20 24  1  0  0  0
 21 22  1  0  0  0
 22 23  1  0  0  0
 24 25  1  0  0  0
 25 26  4  0  0  0
 25 28  4  0  0  0
 26 27  4  0  0  0
 27 30  4  0  0  0
 28 29  4  0  0  0
 29 30  4  0  0  0
 30 31  1  0  0  0
 31 32  2  0  0  0
 32 33  1  0  0  0
 33 34  1  0  0  0
 34 35  1  0  0  0
 35 36  4  0  0  0
 35 38  4  0  0  0
 36 37  1  0  0  0
 36 43  4  0  0  0
 38 39  1  0  0  0
 38 40  4  0  0  0
 40 41  1  0  0  0
 40 42  4  0  0  0
 42 43  4  0  0  0
  5 44  1  0  0  0
  6 45  1  0  0  0
  7 46  1  0  0  0
  9 47  1  0  0  0
  9 48  1  0  0  0
 11 49  1  0  0  0
 12 50  1  0  0  0
 12 51  1  0  0  0
 13 52  1  0  0  0
 13 53  1  0  0  0
 17 54  1  0  0  0
 18 55  1  0  0  0
 18 56  1  0  0  0
 19 57  1  0  0  0
 20 58  1  0  0  0
 20 59  1  0  0  0
 21 60  1  0  0  0
 21 61  1  0  0  0
 22 62  1  0  0  0
 22 63  1  0  0  0
 23 64  1  0  0  0
 23 65  1  0  0  0
 26 66  1  0  0  0
 27 67  1  0  0  0
 28 68  1  0  0  0
 29 69  1  0  0  0
 31 70  1  0  0  0
 32 71  1  0  0  0
 33 72  1  0  0  0
 33 73  1  0  0  0
 42 74  1  0  0  0
 43 75  1  0  0  0
M  END
$$$$
