4j5c_ligand
  -I-interpret- 

 64 66  0  0  0  0  0  0  0  0999 V2000
    6.7870   22.6370   12.5220 C   0  0  0  0  0
    6.8800   21.8190   14.0460 S   0  0  0  0  0
    6.7320   23.0650   15.2560 C   0  0  0  0  0
    6.5980   24.3960   14.9170 C   0  0  0  0  0
    6.4460   25.3330   15.9070 C   0  0  0  0  0
    6.4180   24.9610   17.2240 C   0  0  0  0  0
    6.5150   23.6590   17.5460 C   0  0  0  0  0
    6.6740   22.6660   16.6030 C   0  0  0  0  0
    6.8260   21.2760   16.9850 C   0  0  0  0  0
    8.3180   20.8700   17.0660 C   0  0  0  0  0
    8.7640   21.2740   18.4660 C   0  0  0  0  0
    7.5450   20.8040   19.3140 C   0  0  0  0  0
    6.4040   20.9340   18.4030 N   0  0  0  0  0
    5.1730   20.5920   18.8150 C   0  0  0  0  0
    4.9760   20.2270   19.9560 O   0  0  0  0  0
    4.0330   20.7310   17.8100 C   0  0  0  0  0
    3.3920   22.1070   18.0680 C   0  0  0  0  0
    2.0780   22.1070   17.2980 C   0  0  0  0  0
    1.7940   23.6680   16.4880 S   0  0  0  0  0
    1.7010   24.3380   18.0150 C   0  0  0  0  0
    3.0300   19.7860   18.1320 N   0  0  0  0  0
    2.9610   18.6220   17.7910 C   0  0  0  0  0
    3.7410   18.0670   17.0600 O   0  0  0  0  0
    1.8090   18.2030   18.3740 N   0  0  0  0  0
    1.1840   16.9860   18.4010 C   0  0  0  0  0
    1.0760   16.4890   19.7570 C   0  0  0  0  0
    2.0920   16.6710   20.6850 C   0  0  0  0  0
    1.9740   16.1380   21.9300 C   0  0  0  0  0
    0.8610   15.4610   22.3380 C   0  0  0  0  0
    0.7650   14.9630   23.5920 N   0  0  0  0  0
   -0.1650   15.2560   21.4000 C   0  0  0  0  0
   -0.0120   15.7500   20.1300 C   0  0  0  0  0
    5.8302   23.1536   12.4462 H   0  0  0  0  0
    7.5989   23.3606   12.4494 H   0  0  0  0  0
    6.8736   21.9096   11.7148 H   0  0  0  0  0
    6.6128   24.7003   13.8704 H   0  0  0  0  0
    6.3464   26.3856   15.6421 H   0  0  0  0  0
    6.3179   25.7142   18.0055 H   0  0  0  0  0
    6.4658   23.3767   18.5976 H   0  0  0  0  0
    6.2173   20.7819   16.2277 H   0  0  0  0  0
    8.9120   21.3624   16.2960 H   0  0  0  0  0
    8.4553   19.8028   16.8916 H   0  0  0  0  0
    8.9888   22.3357   18.5679 H   0  0  0  0  0
    9.7113   20.8302   18.7721 H   0  0  0  0  0
    7.4192   21.3981   20.2192 H   0  0  0  0  0
    7.6661   19.7843   19.6797 H   0  0  0  0  0
    4.3985   20.6007   16.7914 H   0  0  0  0  0
    4.0442   22.9153   17.7372 H   0  0  0  0  0
    3.2265   22.2728   19.1325 H   0  0  0  0  0
    1.2653   21.9315   18.0029 H   0  0  0  0  0
    2.1240   21.3274   16.5376 H   0  0  0  0  0
    0.8874   23.8681   18.5676 H   0  0  0  0  0
    2.6416   24.1732   18.5406 H   0  0  0  0  0
    1.5135   25.4084   17.9299 H   0  0  0  0  0
    2.2710   20.1240   18.7237 H   0  0  0  0  0
    1.3164   18.9328   18.8890 H   0  0  0  0  0
    1.7701   16.2784   17.8145 H   0  0  0  0  0
    0.1814   17.0982   17.9884 H   0  0  0  0  0
    2.9821   17.2398   20.4162 H   0  0  0  0  0
    2.8009   16.2559   22.6303 H   0  0  0  0  0
    1.5326   15.0905   24.2515 H   0  0  0  0  0
   -0.0750   14.4600   23.8781 H   0  0  0  0  0
   -1.0683   14.7128   21.6776 H   0  0  0  0  0
   -0.7864   15.5459   19.3906 H   0  0  0  0  0
  1  2  1  0  0  0
  2  3  1  0  0  0
  3  4  4  0  0  0
  3  8  4  0  0  0
  4  5  4  0  0  0
  5  6  4  0  0  0
  6  7  4  0  0  0
  7  8  4  0  0  0
  8  9  1  0  0  0
  9 10  1  0  0  0
  9 13  1  0  0  0
 10 11  1  0  0  0
 11 12  1  0  0  0
 12 13  1  0  0  0
 13 14  1  0  0  0
 14 15  2  0  0  0
 14 16  1  0  0  0
 16 17  1  0  0  0
 16 21  1  0  0  0
 17 18  1  0  0  0
 18 19  1  0  0  0
 19 20  1  0  0  0
 21 22  1  0  0  0
 22 23  2  0  0  0
 22 24  1  0  0  0
 24 25  1  0  0  0
 25 26  1  0  0  0
 26 27  4  0  0  0
 26 32  4  0  0  0
 27 28  4  0  0  0
 28 29  4  0  0  0
 29 30  1  0  0  0
 29 31  4  0  0  0
 31 32  4  0  0  0
  1 33  1  0  0  0
  1 34  1  0  0  0
  1 35  1  0  0  0
  4 36  1  0  0  0
  5 37  1  0  0  0
  6 38  1  0  0  0
  7 39  1  0  0  0
  9 40  1  0  0  0
 10 41  1  0  0  0
 10 42  1  0  0  0
 11 43  1  0  0  0
 11 44  1  0  0  0
 12 45  1  0  0  0
 12 46  1  0  0  0
 16 47  1  0  0  0
 17 48  1  0  0  0
 17 49  1  0  0  0
 18 50  1  0  0  0
 18 51  1  0  0  0
 20 52  1  0  0  0
 20 53  1  0  0  0
 20 54  1  0  0  0
 21 55  1  0  0  0
 24 56  1  0  0  0
 25 57  1  0  0  0
 25 58  1  0  0  0
 27 59  1  0  0  0
 28 60  1  0  0  0
 30 61  1  0  0  0
 30 62  1  0  0  0
 31 63  1  0  0  0
 32 64  1  0  0  0
M  END
$$$$
