### 
### Created by X-TOOL on Mon Aug  2 16:15:03 2021
### 

@<TRIPOS>MOLECULE
6mt4_ligand
  151   152     1     0     0
SMALL
GAST_HUCK


@<TRIPOS>ATOM
      1 N          13.0290   96.7290  147.0610 N.4       1 PHE         0.2394
      2 CA         12.0240   96.2120  147.9910 C.3       1 PHE         0.0744
      3 C          10.6320   96.5640  147.4870 C.2       1 PHE         0.2288
      4 O          10.3750   97.7160  147.1360 O.2       1 PHE        -0.3905
      5 CB         12.2230   96.7670  149.4230 C.3       1 PHE         0.0416
      6 CG         11.4320   96.0650  150.5020 C.ar      1 PHE        -0.0353
      7 CD1        12.0130   95.0570  151.2640 C.ar      1 PHE        -0.0600
      8 CD2        10.1010   96.4050  150.7520 C.ar      1 PHE        -0.0600
      9 CE1        11.2730   94.3900  152.2490 C.ar      1 PHE        -0.0686
     10 CE2         9.3590   95.7280  151.7360 C.ar      1 PHE        -0.0686
     11 CZ          9.9450   94.7170  152.4620 C.ar      1 PHE        -0.0687
     12 N           9.7680   95.5570  147.4030 N.am      1 PHE        -0.2608
     13 CA          8.3520   95.7040  147.0380 C.3       1 PHE         0.1326
     14 C           7.4490   95.4730  148.2630 C.2       1 PHE         0.2041
     15 O           7.7290   94.6060  149.0970 O.2       1 PHE        -0.3944
     16 CB          7.9470   94.7660  145.9010 C.3       1 PHE        -0.0008
     17 CG          8.1320   93.2890  146.1890 C.3       1 PHE         0.0044
     18 CD          7.6230   92.3830  145.0850 C.2       1 PHE         0.0350
     19 OE1         6.6090   92.7240  144.4320 O.co2     1 PHE        -0.5690
     20 OE2         8.2170   91.3010  144.9160 O.co2     1 PHE        -0.5690
     21 N           6.3060   96.1690  148.2870 N.am      1 PHE        -0.2622
     22 CA          5.3270   96.0700  149.3600 C.3       1 PHE         0.1423
     23 C           4.1120   95.2330  148.9440 C.2       1 PHE         0.2056
     24 O           3.9610   94.8350  147.7850 O.2       1 PHE        -0.3943
     25 CB          4.7950   97.4740  149.6990 C.3       1 PHE         0.0406
     26 CG          5.7220   98.3590  150.4970 C.2       1 PHE         0.0393
     27 OD1         5.3690   99.5070  150.7140 O.co2     1 PHE        -0.5688
     28 OD2         6.8600   97.9140  150.8070 O.co2     1 PHE        -0.5688
     29 N           3.1860   95.0800  149.8750 N.am      1 PHE        -0.2636
     30 CA          1.9120   94.4780  149.5710 C.3       1 PHE         0.1312
     31 C           1.1840   95.3600  148.5610 C.2       1 PHE         0.2039
     32 O           1.3630   96.5860  148.5520 O.2       1 PHE        -0.3944
     33 CB          1.0540   94.4670  150.8350 C.3       1 PHE        -0.0101
     34 CG          1.3740   93.4220  151.8450 C.3       1 PHE        -0.0425
     35 CD1         0.6100   93.7000  153.1690 C.3       1 PHE        -0.0625
     36 CD2         1.1000   92.0010  151.2900 C.3       1 PHE        -0.0625
     37 N           0.3150   94.7390  147.7620 N.am      1 PHE        -0.2637
     38 CA         -0.6330   95.4280  146.8960 C.3       1 PHE         0.1311
     39 C          -1.4680   96.2640  147.8450 C.2       1 PHE         0.2039
     40 O          -1.8080   95.7670  148.9360 O.2       1 PHE        -0.3944
     41 CB         -1.5380   94.3990  146.2300 C.3       1 PHE        -0.0092
     42 CG         -0.9520   93.7790  144.9500 C.3       1 PHE        -0.0156
     43 CD         -1.1300   94.6930  143.7220 C.3       1 PHE         0.0627
     44 NE         -2.5300   95.0730  143.5690 N.pl3     1 PHE        -0.2723
     45 CZ         -3.4580   94.2870  143.0490 C.cat     1 PHE         0.2882
     46 NH1        -3.1310   93.0880  142.5750 N.pl3     1 PHE        -0.2849
     47 NH2        -4.7230   94.6710  143.0140 N.pl3     1 PHE        -0.2849
     48 N          -1.7520   97.5370  147.4880 N.am      1 PHE        -0.2635
     49 CA         -2.5210   98.4030  148.3830 C.3       1 PHE         0.1333
     50 C          -4.0000   97.9880  148.4030 C.2       1 PHE         0.2042
     51 O          -4.6180   97.9610  149.4660 O.2       1 PHE        -0.3944
     52 CB         -2.3530   99.9120  148.0100 C.3       1 PHE        -0.0063
     53 CG1        -3.3180  100.7850  148.8100 C.3       1 PHE        -0.0584
     54 CG2        -0.9100  100.3700  148.2270 C.3       1 PHE        -0.0584
     55 N          -4.5530   97.6500  147.2310 N.am      1 PHE        -0.2616
     56 CA         -5.9580   97.3150  147.1970 C.3       1 PHE         0.1539
     57 C          -6.2760   96.4200  146.0280 C.2       1 PHE         0.2062
     58 O          -5.6760   96.5690  144.9520 O.2       1 PHE        -0.3943
     59 CB         -6.7590   98.6080  147.0890 C.3       1 PHE         0.0843
     60 OG         -8.1570   98.3910  147.0160 O.3       1 PHE        -0.3903
     61 N          -7.2980   95.5850  146.1870 N.am      1 PHE        -0.2615
     62 CA         -7.7160   94.7150  145.0810 C.3       1 PHE         0.1539
     63 C          -8.5690   95.4990  144.0720 C.2       1 PHE         0.2058
     64 O          -9.0540   96.6010  144.3820 O.2       1 PHE        -0.3943
     65 CB         -8.5060   93.5160  145.6050 C.3       1 PHE         0.0843
     66 OG         -9.6810   93.9880  146.2450 O.3       1 PHE        -0.3903
     67 N          -8.7130   94.9540  142.8490 N.am      1 PHE        -0.2676
     68 CA         -9.5010   95.5160  141.7480 C.3       1 PHE         0.1039
     69 C         -10.9920   95.6550  142.1040 C.2       1 PHE         0.0621
     70 O         -11.4680   94.8840  142.9580 O.co2     1 PHE        -0.5664
     71 CB         -9.3530   94.5910  140.5240 C.3       1 PHE         0.0159
     72 CG         -8.0490   94.6550  139.7480 C.ar      1 PHE        -0.0392
     73 CD1        -7.0550   95.5620  140.0950 C.ar      1 PHE        -0.0602
     74 CD2        -7.8130   93.7980  138.6740 C.ar      1 PHE        -0.0602
     75 CE1        -5.8880   95.6500  139.3530 C.ar      1 PHE        -0.0686
     76 CE2        -6.6260   93.8620  137.9510 C.ar      1 PHE        -0.0686
     77 CZ         -5.6570   94.7810  138.3050 C.ar      1 PHE        -0.0687
     78 OXT       -11.6960   96.5400  141.5290 O.co2     1 PHE        -0.5664
     79 H1         13.9499   96.4945  147.3971 H         1 PHE         0.2017
     80 H2         12.9409   97.7309  146.9939 H         1 PHE         0.2017
     81 H3         12.8884   96.3176  146.1516 H         1 PHE         0.2017
     82 H4         12.1191   95.1168  148.0294 H         1 PHE         0.1122
     83 H5         11.9288   97.8269  149.4209 H         1 PHE         0.0507
     84 H6         13.2905   96.6832  149.6749 H         1 PHE         0.0507
     85 H7         13.0484   94.7848  151.0941 H         1 PHE         0.0557
     86 H8          9.6345   97.1997  150.1811 H         1 PHE         0.0557
     87 H9         11.7416   93.6159  152.8458 H         1 PHE         0.0599
     88 H10         8.3269   96.0023  151.9222 H         1 PHE         0.0599
     89 H11         9.3661   94.1759  153.2017 H         1 PHE         0.0559
     90 H12        10.1047   94.6366  147.6018 H         1 PHE         0.1885
     91 H13         8.2012   96.7371  146.6916 H         1 PHE         0.0801
     92 H14         8.5523   95.0194  145.0182 H         1 PHE         0.0330
     93 H15         6.8837   94.9392  145.6787 H         1 PHE         0.0330
     94 H16         7.5905   93.0455  147.1150 H         1 PHE         0.0433
     95 H17         9.2055   93.0947  146.3300 H         1 PHE         0.0433
     96 H18         6.1142   96.7903  147.5272 H         1 PHE         0.1884
     97 H19         5.8034   95.6203  150.2436 H         1 PHE         0.0819
     98 H20         3.8668   97.3517  150.2765 H         1 PHE         0.0478
     99 H21         4.5726   97.9872  148.7518 H         1 PHE         0.0478
    100 H22         3.3729   95.3878  150.8079 H         1 PHE         0.1883
    101 H23         2.0497   93.4594  149.1793 H         1 PHE         0.0800
    102 H24         0.0074   94.3253  150.5274 H         1 PHE         0.0315
    103 H25         1.1636   95.4472  151.3220 H         1 PHE         0.0315
    104 H26         2.4500   93.4859  152.0642 H         1 PHE         0.0298
    105 H27         0.8562   92.9204  153.9050 H         1 PHE         0.0232
    106 H28        -0.4729   93.6931  152.9759 H         1 PHE         0.0232
    107 H29         0.9058   94.6832  153.5636 H         1 PHE         0.0232
    108 H30         1.6629   91.8574  150.3559 H         1 PHE         0.0232
    109 H31         0.0243   91.8861  151.0911 H         1 PHE         0.0232
    110 H32         1.4184   91.2510  152.0290 H         1 PHE         0.0232
    111 H33         0.3140   93.7390  147.7570 H         1 PHE         0.1883
    112 H34        -0.1230   96.0479  146.1439 H         1 PHE         0.0800
    113 H35        -2.4877   94.8904  145.9718 H         1 PHE         0.0313
    114 H36        -1.7280   93.5892  146.9498 H         1 PHE         0.0313
    115 H37        -1.4599   92.8228  144.7556 H         1 PHE         0.0301
    116 H38         0.1222   93.5990  145.1040 H         1 PHE         0.0301
    117 H39        -0.7995   94.1568  142.8202 H         1 PHE         0.0689
    118 H40        -0.5209   95.5994  143.8536 H         1 PHE         0.0689
    119 H41        -2.8134   96.0113  143.8854 H         1 PHE         0.2642
    120 H42        -3.8564   92.4787  142.1708 H         1 PHE         0.2615
    121 H43        -2.1524   92.7689  142.6122 H         1 PHE         0.2615
    122 H44        -4.9904   95.5968  143.3776 H         1 PHE         0.2615
    123 H45        -5.4408   94.0442  142.6231 H         1 PHE         0.2615
    124 H46        -1.4348   97.8888  146.6073 H         1 PHE         0.1883
    125 H47        -2.1233   98.2682  149.3997 H         1 PHE         0.0802
    126 H48        -2.5920  100.0277  146.9425 H         1 PHE         0.0343
    127 H49        -3.1784  101.8391  148.5282 H         1 PHE         0.0234
    128 H50        -3.1177  100.6632  149.8847 H         1 PHE         0.0234
    129 H51        -4.3528  100.4815  148.5932 H         1 PHE         0.0234
    130 H52        -0.2308   99.7306  147.6440 H         1 PHE         0.0234
    131 H53        -0.6580  100.2945  149.2951 H         1 PHE         0.0234
    132 H54        -0.8033  101.4142  147.8980 H         1 PHE         0.0234
    133 H55        -4.0040   97.6299  146.3954 H         1 PHE         0.1884
    134 H56        -6.2274   96.7942  148.1277 H         1 PHE         0.0823
    135 H57        -6.4399   99.1428  146.1823 H         1 PHE         0.0606
    136 H58        -6.5465   99.2265  147.9735 H         1 PHE         0.0606
    137 H59        -8.4470   97.9366  147.7982 H         1 PHE         0.2097
    138 H60        -7.7826   95.5495  147.0610 H         1 PHE         0.1884
    139 H61        -6.8155   94.3455  144.5686 H         1 PHE         0.0823
    140 H62        -7.8925   92.9550  146.3253 H         1 PHE         0.0606
    141 H63        -8.7801   92.8587  144.7667 H         1 PHE         0.0606
    142 H64       -10.1793   93.2493  146.5744 H         1 PHE         0.2097
    143 H65        -8.2407   94.0896  142.6767 H         1 PHE         0.1877
    144 H66        -9.1052   96.5125  141.5024 H         1 PHE         0.0749
    145 H67       -10.1648   94.8386  139.8243 H         1 PHE         0.0467
    146 H68        -9.4756   93.5563  140.8766 H         1 PHE         0.0467
    147 H69        -7.1939   96.2073  140.9549 H         1 PHE         0.0557
    148 H70        -8.5668   93.0697  138.3976 H         1 PHE         0.0557
    149 H71        -5.1510   96.4066  139.5970 H         1 PHE         0.0599
    150 H72        -6.4622   93.1936  137.1135 H         1 PHE         0.0599
    151 H73        -4.7194   94.8197  137.7624 H         1 PHE         0.0559
@<TRIPOS>BOND
     1    1    2 1  
     2    2    3 1  
     3    2    5 1  
     4    3    4 2  
     5    3   12 am 
     6    5    6 1  
     7    6    7 ar 
     8    6    8 ar 
     9    7    9 ar 
    10    8   10 ar 
    11    9   11 ar 
    12   10   11 ar 
    13   12   13 1  
    14   13   14 1  
    15   13   16 1  
    16   14   15 2  
    17   14   21 am 
    18   16   17 1  
    19   17   18 1  
    20   18   19 ar 
    21   18   20 ar 
    22   21   22 1  
    23   22   23 1  
    24   22   25 1  
    25   23   24 2  
    26   23   29 am 
    27   25   26 1  
    28   26   27 ar 
    29   26   28 ar 
    30   29   30 1  
    31   30   31 1  
    32   30   33 1  
    33   31   32 2  
    34   31   37 am 
    35   33   34 1  
    36   34   35 1  
    37   34   36 1  
    38   37   38 1  
    39   38   39 1  
    40   38   41 1  
    41   39   40 2  
    42   39   48 am 
    43   41   42 1  
    44   42   43 1  
    45   43   44 1  
    46   44   45 ar 
    47   45   46 ar 
    48   45   47 ar 
    49   48   49 1  
    50   49   50 1  
    51   49   52 1  
    52   50   51 2  
    53   50   55 am 
    54   52   53 1  
    55   52   54 1  
    56   55   56 1  
    57   56   57 1  
    58   56   59 1  
    59   57   58 2  
    60   57   61 am 
    61   59   60 1  
    62   61   62 1  
    63   62   63 1  
    64   62   65 1  
    65   63   64 2  
    66   63   67 am 
    67   65   66 1  
    68   67   68 1  
    69   68   69 1  
    70   68   71 1  
    71   69   70 ar 
    72   69   78 ar 
    73   71   72 1  
    74   72   73 ar 
    75   72   74 ar 
    76   73   75 ar 
    77   74   76 ar 
    78   75   77 ar 
    79   76   77 ar 
    80    1   79 1  
    81    1   80 1  
    82    1   81 1  
    83    2   82 1  
    84    5   83 1  
    85    5   84 1  
    86    7   85 1  
    87    8   86 1  
    88    9   87 1  
    89   10   88 1  
    90   11   89 1  
    91   12   90 1  
    92   13   91 1  
    93   16   92 1  
    94   16   93 1  
    95   17   94 1  
    96   17   95 1  
    97   21   96 1  
    98   22   97 1  
    99   25   98 1  
   100   25   99 1  
   101   29  100 1  
   102   30  101 1  
   103   33  102 1  
   104   33  103 1  
   105   34  104 1  
   106   35  105 1  
   107   35  106 1  
   108   35  107 1  
   109   36  108 1  
   110   36  109 1  
   111   36  110 1  
   112   37  111 1  
   113   38  112 1  
   114   41  113 1  
   115   41  114 1  
   116   42  115 1  
   117   42  116 1  
   118   43  117 1  
   119   43  118 1  
   120   44  119 1  
   121   46  120 1  
   122   46  121 1  
   123   47  122 1  
   124   47  123 1  
   125   48  124 1  
   126   49  125 1  
   127   52  126 1  
   128   53  127 1  
   129   53  128 1  
   130   53  129 1  
   131   54  130 1  
   132   54  131 1  
   133   54  132 1  
   134   55  133 1  
   135   56  134 1  
   136   59  135 1  
   137   59  136 1  
   138   60  137 1  
   139   61  138 1  
   140   62  139 1  
   141   65  140 1  
   142   65  141 1  
   143   66  142 1  
   144   67  143 1  
   145   68  144 1  
   146   71  145 1  
   147   71  146 1  
   148   73  147 1  
   149   74  148 1  
   150   75  149 1  
   151   76  150 1  
   152   77  151 1  
@<TRIPOS>SUBSTRUCTURE
     1 PHE         1

