6mt4_ligand
  -I-interpret- 

153154  0  0  0  0  0  0  0  0999 V2000
   13.0290   96.7290  147.0610 N   0  3  0  0  0
   12.0240   96.2120  147.9910 C   0  0  0  0  0
   10.6320   96.5640  147.4870 C   0  0  0  0  0
   10.3750   97.7160  147.1360 O   0  0  0  0  0
   12.2230   96.7670  149.4230 C   0  0  0  0  0
   11.4320   96.0650  150.5020 C   0  0  0  0  0
   12.0130   95.0570  151.2640 C   0  0  0  0  0
   10.1010   96.4050  150.7520 C   0  0  0  0  0
   11.2730   94.3900  152.2490 C   0  0  0  0  0
    9.3590   95.7280  151.7360 C   0  0  0  0  0
    9.9450   94.7170  152.4620 C   0  0  0  0  0
    9.7680   95.5570  147.4030 N   0  0  0  0  0
    8.3520   95.7040  147.0380 C   0  0  0  0  0
    7.4490   95.4730  148.2630 C   0  0  0  0  0
    7.7290   94.6060  149.0970 O   0  0  0  0  0
    7.9470   94.7660  145.9010 C   0  0  0  0  0
    8.1320   93.2890  146.1890 C   0  0  0  0  0
    7.6230   92.3830  145.0850 C   0  0  0  0  0
    6.6090   92.7240  144.4320 O   0  0  0  0  0
    8.2170   91.3010  144.9160 O   0  0  0  0  0
    6.3060   96.1690  148.2870 N   0  0  0  0  0
    5.3270   96.0700  149.3600 C   0  0  0  0  0
    4.1120   95.2330  148.9440 C   0  0  0  0  0
    3.9610   94.8350  147.7850 O   0  0  0  0  0
    4.7950   97.4740  149.6990 C   0  0  0  0  0
    5.7220   98.3590  150.4970 C   0  0  0  0  0
    5.3690   99.5070  150.7140 O   0  0  0  0  0
    6.8600   97.9140  150.8070 O   0  0  0  0  0
    3.1860   95.0800  149.8750 N   0  0  0  0  0
    1.9120   94.4780  149.5710 C   0  0  0  0  0
    1.1840   95.3600  148.5610 C   0  0  0  0  0
    1.3630   96.5860  148.5520 O   0  0  0  0  0
    1.0540   94.4670  150.8350 C   0  0  0  0  0
    1.3740   93.4220  151.8450 C   0  0  0  0  0
    0.6100   93.7000  153.1690 C   0  0  0  0  0
    1.1000   92.0010  151.2900 C   0  0  0  0  0
    0.3150   94.7390  147.7620 N   0  0  0  0  0
   -0.6330   95.4280  146.8960 C   0  0  0  0  0
   -1.4680   96.2640  147.8450 C   0  0  0  0  0
   -1.8080   95.7670  148.9360 O   0  0  0  0  0
   -1.5380   94.3990  146.2300 C   0  0  0  0  0
   -0.9520   93.7790  144.9500 C   0  0  0  0  0
   -1.1300   94.6930  143.7220 C   0  0  0  0  0
   -2.5300   95.0730  143.5690 N   0  0  0  0  0
   -3.4580   94.2870  143.0490 C   0  0  0  0  0
   -3.1310   93.0880  142.5750 N   0  0  0  0  0
   -4.7230   94.6710  143.0140 N   0  0  0  0  0
   -1.7520   97.5370  147.4880 N   0  0  0  0  0
   -2.5210   98.4030  148.3830 C   0  0  0  0  0
   -4.0000   97.9880  148.4030 C   0  0  0  0  0
   -4.6180   97.9610  149.4660 O   0  0  0  0  0
   -2.3530   99.9120  148.0100 C   0  0  0  0  0
   -3.3180  100.7850  148.8100 C   0  0  0  0  0
   -0.9100  100.3700  148.2270 C   0  0  0  0  0
   -4.5530   97.6500  147.2310 N   0  0  0  0  0
   -5.9580   97.3150  147.1970 C   0  0  0  0  0
   -6.2760   96.4200  146.0280 C   0  0  0  0  0
   -5.6760   96.5690  144.9520 O   0  0  0  0  0
   -6.7590   98.6080  147.0890 C   0  0  0  0  0
   -8.1570   98.3910  147.0160 O   0  0  0  0  0
   -7.2980   95.5850  146.1870 N   0  0  0  0  0
   -7.7160   94.7150  145.0810 C   0  0  0  0  0
   -8.5690   95.4990  144.0720 C   0  0  0  0  0
   -9.0540   96.6010  144.3820 O   0  0  0  0  0
   -8.5060   93.5160  145.6050 C   0  0  0  0  0
   -9.6810   93.9880  146.2450 O   0  0  0  0  0
   -8.7130   94.9540  142.8490 N   0  0  0  0  0
   -9.5010   95.5160  141.7480 C   0  0  0  0  0
  -10.9920   95.6550  142.1040 C   0  0  0  0  0
  -11.4680   94.8840  142.9580 O   0  0  0  0  0
   -9.3530   94.5910  140.5240 C   0  0  0  0  0
   -8.0490   94.6550  139.7480 C   0  0  0  0  0
   -7.0550   95.5620  140.0950 C   0  0  0  0  0
   -7.8130   93.7980  138.6740 C   0  0  0  0  0
   -5.8880   95.6500  139.3530 C   0  0  0  0  0
   -6.6260   93.8620  137.9510 C   0  0  0  0  0
   -5.6570   94.7810  138.3050 C   0  0  0  0  0
  -11.6960   96.5400  141.5290 O   0  0  0  0  0
   12.8631   96.3406  146.1326 H   0  0  0  0  0
   12.9632   97.7461  147.0221 H   0  0  0  0  0
   13.9587   96.4593  147.3825 H   0  0  0  0  0
   12.1384   95.1291  148.0391 H   0  0  0  0  0
   11.8806   97.8017  149.4075 H   0  0  0  0  0
   13.2762   96.6294  149.6679 H   0  0  0  0  0
   13.0542   94.7833  151.0932 H   0  0  0  0  0
    9.6319   97.2041  150.1780 H   0  0  0  0  0
   11.7442   93.6116  152.8491 H   0  0  0  0  0
    8.3212   96.0038  151.9233 H   0  0  0  0  0
    9.3629   94.1729  153.2058 H   0  0  0  0  0
   10.1114   94.6182  147.6057 H   0  0  0  0  0
    8.2196   96.7259  146.6826 H   0  0  0  0  0
    8.5905   95.0036  145.0539 H   0  0  0  0  0
    6.8817   94.9214  145.7303 H   0  0  0  0  0
    7.5607   93.0587  147.0883 H   0  0  0  0  0
    9.2022   93.1088  146.2904 H   0  0  0  0  0
    6.3177   93.5906  144.7249 H   0  0  0  0  0
    6.1104   96.8027  147.5120 H   0  0  0  0  0
    5.8281   95.6030  150.2079 H   0  0  0  0  0
    3.9088   97.3245  150.3157 H   0  0  0  0  0
    4.6352   97.9788  148.7462 H   0  0  0  0  0
    6.9238   96.9923  150.5463 H   0  0  0  0  0
    3.3766   95.3939  150.8266 H   0  0  0  0  0
    2.0700   93.4701  149.1873 H   0  0  0  0  0
    0.0342   94.2669  150.5061 H   0  0  0  0  0
    1.2272   95.4246  151.3259 H   0  0  0  0  0
    2.4401   93.4650  152.0678 H   0  0  0  0  0
    0.9040   94.6745  153.5589 H   0  0  0  0  0
   -0.4628   93.6929  152.9763 H   0  0  0  0  0
    0.8547   92.9269  153.8974 H   0  0  0  0  0
    0.0472   91.9140  151.0213 H   0  0  0  0  0
    1.7168   91.8319  150.4073 H   0  0  0  0  0
    1.3440   91.2613  152.0525 H   0  0  0  0  0
    0.3140   93.7190  147.7569 H   0  0  0  0  0
   -0.1439   96.0182  146.1210 H   0  0  0  0  0
   -2.4564   94.9134  145.9470 H   0  0  0  0  0
   -1.6823   93.5877  146.9435 H   0  0  0  0  0
   -1.4789   92.8449  144.7552 H   0  0  0  0  0
    0.1160   93.6273  145.1064 H   0  0  0  0  0
   -0.8087   94.1553  142.8299 H   0  0  0  0  0
   -0.5310   95.5932  143.8599 H   0  0  0  0  0
   -2.8106   96.0022  143.8824 H   0  0  0  0  0
   -3.8521   92.4775  142.1907 H   0  0  0  0  0
   -2.1591   92.7791  142.5958 H   0  0  0  0  0
   -4.9905   95.5806  143.3901 H   0  0  0  0  0
   -1.4284   97.8958  146.5897 H   0  0  0  0  0
   -2.1239   98.2786  149.3905 H   0  0  0  0  0
   -2.5920  100.0222  146.9523 H   0  0  0  0  0
   -4.3429  100.4832  148.5943 H   0  0  0  0  0
   -3.1185  100.6634  149.8747 H   0  0  0  0  0
   -3.1787  101.8291  148.5299 H   0  0  0  0  0
   -0.6410  100.2352  149.2746 H   0  0  0  0  0
   -0.2438   99.7771  147.6003 H   0  0  0  0  0
   -0.8204  101.4230  147.9602 H   0  0  0  0  0
   -3.9930   97.6295  146.3787 H   0  0  0  0  0
   -6.2193   96.7774  148.1085 H   0  0  0  0  0
   -6.4535   99.1113  146.1717 H   0  0  0  0  0
   -6.5614   99.1960  147.9853 H   0  0  0  0  0
   -8.6078   99.2360  146.9497 H   0  0  0  0  0
   -7.7923   95.5488  147.0785 H   0  0  0  0  0
   -6.8186   94.3519  144.5800 H   0  0  0  0  0
   -7.8985   92.9547  146.3149 H   0  0  0  0  0
   -8.7742   92.8597  144.7771 H   0  0  0  0  0
  -10.1846   93.2415  146.5779 H   0  0  0  0  0
   -8.2312   94.0723  142.6732 H   0  0  0  0  0
   -9.1253   96.5172  141.5370 H   0  0  0  0  0
  -10.1263   94.9064  139.8235 H   0  0  0  0  0
   -9.4109   93.5755  140.9158 H   0  0  0  0  0
   -7.1947   96.2108  140.9596 H   0  0  0  0  0
   -8.5710   93.0657  138.3961 H   0  0  0  0  0
   -5.1469   96.4107  139.5984 H   0  0  0  0  0
   -6.4612   93.1899  137.1088 H   0  0  0  0  0
   -4.7142   94.8199  137.7594 H   0  0  0  0  0
  -11.1499   97.0285  140.9087 H   0  0  0  0  0
  1  2  1  0  0  0
  2  3  1  0  0  0
  2  5  1  0  0  0
  3  4  2  0  0  0
  3 12  1  0  0  0
  5  6  1  0  0  0
  6  7  4  0  0  0
  6  8  4  0  0  0
  7  9  4  0  0  0
  8 10  4  0  0  0
  9 11  4  0  0  0
 10 11  4  0  0  0
 12 13  1  0  0  0
 13 14  1  0  0  0
 13 16  1  0  0  0
 14 15  2  0  0  0
 14 21  1  0  0  0
 16 17  1  0  0  0
 17 18  1  0  0  0
 18 19  1  0  0  0
 18 20  2  0  0  0
 21 22  1  0  0  0
 22 23  1  0  0  0
 22 25  1  0  0  0
 23 24  2  0  0  0
 23 29  1  0  0  0
 25 26  1  0  0  0
 26 27  2  0  0  0
 26 28  1  0  0  0
 29 30  1  0  0  0
 30 31  1  0  0  0
 30 33  1  0  0  0
 31 32  2  0  0  0
 31 37  1  0  0  0
 33 34  1  0  0  0
 34 35  1  0  0  0
 34 36  1  0  0  0
 37 38  1  0  0  0
 38 39  1  0  0  0
 38 41  1  0  0  0
 39 40  2  0  0  0
 39 48  1  0  0  0
 41 42  1  0  0  0
 42 43  1  0  0  0
 43 44  1  0  0  0
 44 45  1  0  0  0
 45 46  1  0  0  0
 45 47  2  0  0  0
 48 49  1  0  0  0
 49 50  1  0  0  0
 49 52  1  0  0  0
 50 51  2  0  0  0
 50 55  1  0  0  0
 52 53  1  0  0  0
 52 54  1  0  0  0
 55 56  1  0  0  0
 56 57  1  0  0  0
 56 59  1  0  0  0
 57 58  2  0  0  0
 57 61  1  0  0  0
 59 60  1  0  0  0
 61 62  1  0  0  0
 62 63  1  0  0  0
 62 65  1  0  0  0
 63 64  2  0  0  0
 63 67  1  0  0  0
 65 66  1  0  0  0
 67 68  1  0  0  0
 68 69  1  0  0  0
 68 71  1  0  0  0
 69 70  2  0  0  0
 69 78  1  0  0  0
 71 72  1  0  0  0
 72 73  4  0  0  0
 72 74  4  0  0  0
 73 75  4  0  0  0
 74 76  4  0  0  0
 75 77  4  0  0  0
 76 77  4  0  0  0
  1 79  1  0  0  0
  1 80  1  0  0  0
  1 81  1  0  0  0
  2 82  1  0  0  0
  5 83  1  0  0  0
  5 84  1  0  0  0
  7 85  1  0  0  0
  8 86  1  0  0  0
  9 87  1  0  0  0
 10 88  1  0  0  0
 11 89  1  0  0  0
 12 90  1  0  0  0
 13 91  1  0  0  0
 16 92  1  0  0  0
 16 93  1  0  0  0
 17 94  1  0  0  0
 17 95  1  0  0  0
 19 96  1  0  0  0
 21 97  1  0  0  0
 22 98  1  0  0  0
 25 99  1  0  0  0
 25100  1  0  0  0
 28101  1  0  0  0
 29102  1  0  0  0
 30103  1  0  0  0
 33104  1  0  0  0
 33105  1  0  0  0
 34106  1  0  0  0
 35107  1  0  0  0
 35108  1  0  0  0
 35109  1  0  0  0
 36110  1  0  0  0
 36111  1  0  0  0
 36112  1  0  0  0
 37113  1  0  0  0
 38114  1  0  0  0
 41115  1  0  0  0
 41116  1  0  0  0
 42117  1  0  0  0
 42118  1  0  0  0
 43119  1  0  0  0
 43120  1  0  0  0
 44121  1  0  0  0
 46122  1  0  0  0
 46123  1  0  0  0
 47124  1  0  0  0
 48125  1  0  0  0
 49126  1  0  0  0
 52127  1  0  0  0
 53128  1  0  0  0
 53129  1  0  0  0
 53130  1  0  0  0
 54131  1  0  0  0
 54132  1  0  0  0
 54133  1  0  0  0
 55134  1  0  0  0
 56135  1  0  0  0
 59136  1  0  0  0
 59137  1  0  0  0
 60138  1  0  0  0
 61139  1  0  0  0
 62140  1  0  0  0
 65141  1  0  0  0
 65142  1  0  0  0
 66143  1  0  0  0
 67144  1  0  0  0
 68145  1  0  0  0
 71146  1  0  0  0
 71147  1  0  0  0
 73148  1  0  0  0
 74149  1  0  0  0
 75150  1  0  0  0
 76151  1  0  0  0
 77152  1  0  0  0
 78153  1  0  0  0
M  END
$$$$
