2bvx_ligand
  -I-interpret- 

 51 54  0  0  0  0  0  0  0  0999 V2000
   12.2110  -13.5610   12.5930 O   0  0  0  0  0
   16.3500   -8.0570   10.9510 Cl  0  0  0  0  0
    8.4960  -13.0970   16.0310 Cl  0  0  0  0  0
   17.7380  -10.4050   10.9660 C   0  0  0  0  0
   18.0880  -11.6720   11.5010 C   0  0  0  0  0
   16.7620   -9.5930   11.6210 C   0  0  0  0  0
   17.4450  -12.0950   12.6870 C   0  0  0  0  0
   16.1300  -10.0390   12.8150 C   0  0  0  0  0
   16.4810  -11.3070   13.3460 C   0  0  0  0  0
   17.6390  -13.4550   13.4980 S   0  0  0  0  0
   16.5870  -13.1790   14.6790 C   0  0  0  0  0
   15.9890  -11.9370   14.5010 C   0  0  0  0  0
   14.9450  -11.3580   15.4510 C   0  0  0  0  0
   13.5620  -11.3830   14.9280 N   0  0  0  0  0
   12.5080  -12.1950   15.3660 C   0  0  0  0  0
   11.1410  -12.0670   14.6980 C   0  0  0  0  0
    9.3190  -13.8690   14.7160 C   0  0  0  0  0
   10.5300  -13.3270   14.1710 N   0  0  0  0  0
    8.7900  -15.0170   14.2080 C   0  0  0  0  0
   11.1770  -13.9970   13.0820 C   0  0  0  0  0
    9.4640  -15.7290   13.0640 N   0  0  0  0  0
   10.5850  -15.2600   12.5330 C   0  0  0  0  0
   11.2080  -15.9200   11.4710 N   0  0  0  0  0
   10.5940  -16.7930   10.4460 C   0  0  0  0  0
    9.9540  -15.9430    9.3260 C   0  0  0  0  0
    7.4590  -16.1360    9.9780 C   0  0  0  0  0
    8.5650  -15.3530    9.5920 C   0  0  0  0  0
    6.2140  -15.5110   10.2000 C   0  0  0  0  0
    8.3880  -13.9620    9.4390 N   0  0  0  0  0
    6.0480  -14.1170   10.0430 C   0  0  0  0  0
    7.1440  -13.3350    9.6590 C   0  0  0  0  0
   12.6670  -12.9970   16.2660 O   0  0  0  0  0
   18.2153  -10.0503   10.0525 H   0  0  0  0  0
   18.8314  -12.3011   11.0115 H   0  0  0  0  0
   15.3876   -9.4162   13.3141 H   0  0  0  0  0
   16.3733  -13.8644   15.4992 H   0  0  0  0  0
   15.2062  -10.3124   15.6143 H   0  0  0  0  0
   14.9573  -11.9715   16.3519 H   0  0  0  0  0
   13.3528  -10.7388   14.1653 H   0  0  0  0  0
   11.2889  -11.4204   13.8330 H   0  0  0  0  0
   10.4624  -11.7043   15.4700 H   0  0  0  0  0
    7.8720  -15.4236   14.6324 H   0  0  0  0  0
   12.2156  -15.7825   11.3920 H   0  0  0  0  0
    9.8207  -17.4012   10.9153 H   0  0  0  0  0
   11.3666  -17.4276   10.0119 H   0  0  0  0  0
    9.8287  -16.6187    8.4800 H   0  0  0  0  0
   10.6157  -15.0872    9.1926 H   0  0  0  0  0
    7.5643  -17.2136   10.1038 H   0  0  0  0  0
    5.3598  -16.1181   10.4998 H   0  0  0  0  0
    5.0766  -13.6549   10.2190 H   0  0  0  0  0
    7.0374  -12.2577    9.5320 H   0  0  0  0  0
 20  1  2  0  0  0
  6  2  1  0  0  0
 17  3  1  0  0  0
  5  4  4  0  0  0
  6  4  4  0  0  0
  7  5  4  0  0  0
  8  6  4  0  0  0
  9  7  4  0  0  0
 10  7  4  0  0  0
  9  8  4  0  0  0
 12  9  4  0  0  0
 11 10  4  0  0  0
 12 11  4  0  0  0
 13 12  1  0  0  0
 14 13  1  0  0  0
 15 14  1  0  0  0
 16 15  1  0  0  0
 15 32  2  0  0  0
 18 16  1  0  0  0
 18 17  1  0  0  0
 17 19  2  0  0  0
 18 20  1  0  0  0
 19 21  1  0  0  0
 20 22  1  0  0  0
 21 22  2  0  0  0
 22 23  1  0  0  0
 23 24  1  0  0  0
 24 25  1  0  0  0
 25 27  1  0  0  0
 27 26  4  0  0  0
 26 28  4  0  0  0
 27 29  4  0  0  0
 28 30  4  0  0  0
 29 31  4  0  0  0
 30 31  4  0  0  0
  4 33  1  0  0  0
  5 34  1  0  0  0
  8 35  1  0  0  0
 11 36  1  0  0  0
 13 37  1  0  0  0
 13 38  1  0  0  0
 14 39  1  0  0  0
 16 40  1  0  0  0
 16 41  1  0  0  0
 19 42  1  0  0  0
 23 43  1  0  0  0
 24 44  1  0  0  0
 24 45  1  0  0  0
 25 46  1  0  0  0
 25 47  1  0  0  0
 26 48  1  0  0  0
 28 49  1  0  0  0
 30 50  1  0  0  0
 31 51  1  0  0  0
M  END
$$$$
