6nao_ligand
  -I-interpret- 

 48 51  0  0  0  0  0  0  0  0999 V2000
  -28.8360   20.6900  -20.0660 C   0  0  0  0  0
  -29.4730   15.5510  -23.5720 C   0  0  0  0  0
  -32.1210   18.5980  -26.3500 C   0  0  0  0  0
  -29.4520   19.9650  -26.2760 C   0  0  0  0  0
  -29.7170   18.7370  -27.1590 C   0  0  0  0  0
  -28.4140   17.9710  -27.4690 C   0  0  0  0  0
  -29.3160   14.2750  -23.0930 C   0  0  0  0  0
  -28.5380   15.4460  -19.0620 O   0  0  0  0  0
  -28.8110   16.2450  -20.1870 C   0  0  0  0  0
  -28.8680   17.6170  -20.0800 C   0  0  0  0  0
  -29.1210   18.4040  -21.2040 C   0  0  0  0  0
  -29.2350   19.9390  -21.1720 C   0  0  0  0  0
  -29.7810   20.6080  -22.2790 C   0  0  0  0  0
  -29.9250   21.9950  -22.2800 C   0  0  0  0  0
  -29.5460   22.7290  -21.1630 C   0  0  0  0  0
  -29.0090   22.0770  -20.0600 C   0  0  0  0  0
  -29.3540   17.7840  -22.3700 N   0  0  0  0  0
  -29.3080   16.4060  -22.4700 C   0  0  0  0  0
  -29.8690   15.9700  -24.9890 C   0  0  0  0  0
  -30.3630   17.3230  -25.2220 N   0  0  0  0  0
  -30.7920   17.8280  -26.5390 C   0  0  0  0  0
  -32.0520   20.1430  -26.4730 C   0  0  0  0  0
  -30.7260   20.8020  -26.0340 C   0  0  0  0  0
  -27.4110   18.1090  -26.7220 O   0  0  0  0  0
  -28.3360   17.2380  -28.5020 O   0  0  0  0  0
  -29.8100   15.1790  -25.8700 O   0  0  0  0  0
  -29.0250   15.6660  -21.3910 N   0  0  0  0  0
  -29.0220   14.3470  -21.7360 N   0  0  0  0  0
  -28.3884   20.1941  -19.2047 H   0  0  0  0  0
  -32.4462   18.3914  -25.3304 H   0  0  0  0  0
  -32.7803   18.2615  -27.1501 H   0  0  0  0  0
  -28.7254   20.5969  -26.7866 H   0  0  0  0  0
  -29.0908   19.6136  -25.3095 H   0  0  0  0  0
  -30.1078   19.0902  -28.1133 H   0  0  0  0  0
  -29.4065   13.3595  -23.6775 H   0  0  0  0  0
  -28.5372   14.5214  -19.3202 H   0  0  0  0  0
  -28.7144   18.0912  -19.1106 H   0  0  0  0  0
  -30.0970   20.0347  -23.1506 H   0  0  0  0  0
  -30.3336   22.5017  -23.1543 H   0  0  0  0  0
  -29.6695   23.8119  -21.1521 H   0  0  0  0  0
  -28.7196   22.6529  -19.1810 H   0  0  0  0  0
  -30.4147   17.9580  -24.4254 H   0  0  0  0  0
  -30.9386   16.9932  -27.2243 H   0  0  0  0  0
  -32.8222   20.5364  -25.8096 H   0  0  0  0  0
  -32.1691   20.3700  -27.5326 H   0  0  0  0  0
  -30.6187   21.7080  -26.6305 H   0  0  0  0  0
  -30.7972   20.9522  -24.9568 H   0  0  0  0  0
  -29.1805   17.2394  -28.9585 H   0  0  0  0  0
 12  1  4  0  0  0
  1 16  4  0  0  0
  2  7  4  0  0  0
  2 18  4  0  0  0
 19  2  1  0  0  0
 21  3  1  0  0  0
  3 22  1  0  0  0
  5  4  1  0  0  0
  4 23  1  0  0  0
  5  6  1  0  0  0
 21  5  1  0  0  0
  6 24  2  0  0  0
  6 25  1  0  0  0
  7 28  4  0  0  0
  9  8  1  0  0  0
  9 10  4  0  0  0
 27  9  4  0  0  0
 11 10  4  0  0  0
 11 12  1  0  0  0
 17 11  4  0  0  0
 12 13  4  0  0  0
 13 14  4  0  0  0
 14 15  4  0  0  0
 16 15  4  0  0  0
 18 17  4  0  0  0
 18 27  4  0  0  0
 20 19  1  0  0  0
 19 26  2  0  0  0
 20 21  1  0  0  0
 22 23  1  0  0  0
 27 28  4  0  0  0
  1 29  1  0  0  0
  3 30  1  0  0  0
  3 31  1  0  0  0
  4 32  1  0  0  0
  4 33  1  0  0  0
  5 34  1  0  0  0
  7 35  1  0  0  0
  8 36  1  0  0  0
 10 37  1  0  0  0
 13 38  1  0  0  0
 14 39  1  0  0  0
 15 40  1  0  0  0
 16 41  1  0  0  0
 20 42  1  0  0  0
 21 43  1  0  0  0
 22 44  1  0  0  0
 22 45  1  0  0  0
 23 46  1  0  0  0
 23 47  1  0  0  0
 25 48  1  0  0  0
M  END
$$$$
