5llc_ligand
  -I-interpret- 

 41 42  0  0  0  0  0  0  0  0999 V2000
   -3.3580    6.4880   12.8080 O   0  0  0  0  0
   -2.5100    5.6090   13.6470 S   0  0  0  0  0
   -1.7430    6.3010   14.6720 O   0  0  0  0  0
   -3.5210    4.3840   14.4390 C   0  0  0  0  0
   -2.8460    3.4430   15.2340 C   0  0  0  0  0
   -1.5340    3.5140   15.4000 F   0  0  0  0  0
   -3.5500    2.3900   15.8300 C   0  0  0  0  0
   -2.8390    1.4740   16.5060 F   0  0  0  0  0
   -4.9180    4.2640   14.2720 C   0  0  0  0  0
   -5.6480    5.1460   13.5040 N   0  0  0  0  0
   -6.7750    4.7220   12.6630 C   0  0  0  0  0
   -5.5650    3.2280   14.9960 C   0  0  0  0  0
   -6.8900    3.2540   14.9420 F   0  0  0  0  0
   -4.9490    2.2680   15.7770 C   0  0  0  0  0
   -5.7320    0.9550   16.7090 S   0  0  0  0  0
   -5.1870    1.1800   18.0420 O   0  0  0  0  0
   -5.2810   -0.4340   16.1090 N   0  0  0  0  0
   -7.1420    1.1230   16.5090 O   0  0  0  0  0
   -1.3850    4.7120   12.6080 C   0  0  0  0  0
   -2.0140    4.1800   11.3240 C   0  0  0  0  0
   -2.9170    3.0220   11.4620 C   0  0  0  0  0
   -2.7740    1.9620   12.4000 C   0  0  0  0  0
   -3.6560    0.9350   12.5190 C   0  0  0  0  0
   -4.7380    0.9100   11.6170 C   0  0  0  0  0
   -4.9310    2.0070   10.7630 C   0  0  0  0  0
   -4.0690    3.0750   10.7300 C   0  0  0  0  0
   -5.3949    6.1340   13.5205 H   0  0  0  0  0
   -6.4248    3.9997   11.9256 H   0  0  0  0  0
   -7.5406    4.2627   13.2883 H   0  0  0  0  0
   -7.1930    5.5900   12.1532 H   0  0  0  0  0
   -4.6762   -1.0514   16.6508 H   0  0  0  0  0
   -5.5944   -0.7140   15.1796 H   0  0  0  0  0
   -1.0364    3.8506   13.1777 H   0  0  0  0  0
   -0.5933    5.4026   12.3176 H   0  0  0  0  0
   -1.1860    3.8435   10.7000 H   0  0  0  0  0
   -2.6241    4.9921   10.9286 H   0  0  0  0  0
   -1.9074    1.9743   13.0611 H   0  0  0  0  0
   -3.5317    0.1640   13.2794 H   0  0  0  0  0
   -5.4127    0.0546   11.5830 H   0  0  0  0  0
   -5.7973    2.0111   10.1015 H   0  0  0  0  0
   -4.3008    3.9534   10.1278 H   0  0  0  0  0
  1  2  2  0  0  0
  2  3  2  0  0  0
  2  4  1  0  0  0
  2 19  1  0  0  0
  4  5  4  0  0  0
  4  9  4  0  0  0
  5  6  1  0  0  0
  5  7  4  0  0  0
  7  8  1  0  0  0
  7 14  4  0  0  0
  9 10  1  0  0  0
  9 12  4  0  0  0
 10 11  1  0  0  0
 12 13  1  0  0  0
 12 14  4  0  0  0
 14 15  1  0  0  0
 15 16  2  0  0  0
 15 17  1  0  0  0
 15 18  2  0  0  0
 19 20  1  0  0  0
 20 21  1  0  0  0
 21 22  4  0  0  0
 21 26  4  0  0  0
 22 23  4  0  0  0
 23 24  4  0  0  0
 24 25  4  0  0  0
 25 26  4  0  0  0
 10 27  1  0  0  0
 11 28  1  0  0  0
 11 29  1  0  0  0
 11 30  1  0  0  0
 17 31  1  0  0  0
 17 32  1  0  0  0
 19 33  1  0  0  0
 19 34  1  0  0  0
 20 35  1  0  0  0
 20 36  1  0  0  0
 22 37  1  0  0  0
 23 38  1  0  0  0
 24 39  1  0  0  0
 25 40  1  0  0  0
 26 41  1  0  0  0
M  END
$$$$
