5odx_ligand
  -I-interpret- 

 66 70  0  0  0  0  0  0  0  0999 V2000
   -0.2270   33.9600   21.9980 C   0  0  0  0  0
   -1.3550   32.8410   23.9000 C   0  0  0  0  0
   -0.1240   32.1240   25.8260 C   0  0  0  0  0
    1.0550   32.6110   25.2340 C   0  0  0  0  0
    2.0950   32.3290   26.2130 C   0  0  0  0  0
    3.4920   32.7630   26.0670 C   0  0  0  0  0
    5.7560   32.8790   25.1280 C   0  0  0  0  0
    5.2250   30.2480   24.1980 C   0  0  0  0  0
    6.3950   31.0610   23.6740 C   0  0  0  0  0
    6.8480   31.8730   24.8360 C   0  0  0  0  0
    1.0430   35.8470   22.8250 C   0  0  0  0  0
    3.0640   36.7740   23.6770 C   0  0  0  0  0
    0.3020   35.7960   20.5210 C   0  0  0  0  0
    2.5270   38.0430   27.1410 C   0  0  0  0  0
    3.1930   39.1240   27.9840 C   0  0  0  0  0
    5.1220   39.1180   26.6700 C   0  0  0  0  0
    0.3630   35.1560   21.8160 N   0  0  0  0  0
   -0.7940   33.3910   21.1090 O   0  0  0  0  0
   -0.1730   33.3170   23.3160 C   0  0  0  0  0
    1.0200   33.2020   23.9850 C   0  0  0  0  0
   -1.3220   32.2370   25.1350 C   0  0  0  0  0
   -2.5010   32.9900   23.2370 O   0  0  0  0  0
    1.4930   31.7890   27.2260 N   0  0  0  0  0
    0.2570   31.6270   27.0240 N   0  0  0  0  0
    3.7920   33.6770   26.7670 O   0  0  0  0  0
    4.3910   32.2830   25.2130 N   0  0  0  0  0
    4.0350   31.1770   24.3510 C   0  0  0  0  0
    4.8700   29.2940   23.2820 O   0  0  0  0  0
    5.8760   28.3330   23.0450 C   0  0  0  0  0
    0.4060   36.3380   23.9450 C   0  0  0  0  0
    2.4310   37.2480   24.8100 C   0  0  0  0  0
    1.0760   37.0260   24.9170 C   0  0  0  0  0
    2.3860   36.0860   22.7080 C   0  0  0  0  0
    3.1160   37.9610   25.7990 N   0  0  0  0  0
    4.5780   38.9250   27.9570 O   0  0  0  0  0
    4.5710   38.0240   25.7430 C   0  0  0  0  0
    5.7464   33.5945   24.3057 H   0  0  0  0  0
    5.9763   33.3236   26.0985 H   0  0  0  0  0
    5.5069   29.7817   25.1420 H   0  0  0  0  0
    6.1067   31.6877   22.8300 H   0  0  0  0  0
    7.1916   30.4233   23.2906 H   0  0  0  0  0
    7.0277   31.2374   25.7031 H   0  0  0  0  0
    7.7867   32.3787   24.6097 H   0  0  0  0  0
    4.1319   36.9529   23.5518 H   0  0  0  0  0
   -0.2031   36.7573   20.6156 H   0  0  0  0  0
    1.3136   35.9510   20.1457 H   0  0  0  0  0
   -0.2503   35.1605   19.8287 H   0  0  0  0  0
    1.4705   38.2904   27.0377 H   0  0  0  0  0
    2.6698   37.0834   27.6379 H   0  0  0  0  0
    2.8310   39.0682   29.0106 H   0  0  0  0  0
    2.9526   40.1079   27.5813 H   0  0  0  0  0
    6.2096   39.0593   26.7117 H   0  0  0  0  0
    4.8457   40.1022   26.2916 H   0  0  0  0  0
    1.9382   33.5761   23.5321 H   0  0  0  0  0
   -2.2403   31.8456   25.5727 H   0  0  0  0  0
   -3.2195   32.6197   23.7549 H   0  0  0  0  0
    3.2015   30.6289   24.7903 H   0  0  0  0  0
    3.7454   31.5592   23.3721 H   0  0  0  0  0
    6.7696   28.8299   22.6673 H   0  0  0  0  0
    6.1113   27.8179   23.9764 H   0  0  0  0  0
    5.5213   27.6115   22.3089 H   0  0  0  0  0
   -0.6653   36.1722   24.0585 H   0  0  0  0  0
    0.5335   37.4023   25.7843 H   0  0  0  0  0
    2.9223   35.7233   21.8311 H   0  0  0  0  0
    4.9713   37.0631   26.0662 H   0  0  0  0  0
    4.8679   38.2558   24.7201 H   0  0  0  0  0
 17  1  1  0  0  0
  1 18  2  0  0  0
  1 19  1  0  0  0
 19  2  4  0  0  0
  2 21  4  0  0  0
  2 22  1  0  0  0
  4  3  4  0  0  0
 21  3  4  0  0  0
  3 24  4  0  0  0
  4  5  4  0  0  0
 20  4  4  0  0  0
  5  6  1  0  0  0
  5 23  4  0  0  0
  6 25  2  0  0  0
  6 26  1  0  0  0
  7 10  1  0  0  0
 26  7  1  0  0  0
  8  9  1  0  0  0
 27  8  1  0  0  0
  8 28  1  0  0  0
 10  9  1  0  0  0
 11 17  1  0  0  0
 30 11  4  0  0  0
 33 11  4  0  0  0
 31 12  4  0  0  0
 12 33  4  0  0  0
 17 13  1  0  0  0
 14 15  1  0  0  0
 34 14  1  0  0  0
 15 35  1  0  0  0
 35 16  1  0  0  0
 16 36  1  0  0  0
 19 20  4  0  0  0
 23 24  4  0  0  0
 26 27  1  0  0  0
 28 29  1  0  0  0
 32 30  4  0  0  0
 31 32  4  0  0  0
 31 34  1  0  0  0
 34 36  1  0  0  0
  7 37  1  0  0  0
  7 38  1  0  0  0
  8 39  1  0  0  0
  9 40  1  0  0  0
  9 41  1  0  0  0
 10 42  1  0  0  0
 10 43  1  0  0  0
 12 44  1  0  0  0
 13 45  1  0  0  0
 13 46  1  0  0  0
 13 47  1  0  0  0
 14 48  1  0  0  0
 14 49  1  0  0  0
 15 50  1  0  0  0
 15 51  1  0  0  0
 16 52  1  0  0  0
 16 53  1  0  0  0
 20 54  1  0  0  0
 21 55  1  0  0  0
 22 56  1  0  0  0
 27 57  1  0  0  0
 27 58  1  0  0  0
 29 59  1  0  0  0
 29 60  1  0  0  0
 29 61  1  0  0  0
 30 62  1  0  0  0
 32 63  1  0  0  0
 33 64  1  0  0  0
 36 65  1  0  0  0
 36 66  1  0  0  0
M  END
$$$$
