1erq_ligand
  -I-interpret- 

 33 33  0  0  0  0  0  0  0  0999 V2000
   40.7560   38.4160   31.5970 C   0  0  0  0  0
   39.6690   37.8600   32.5410 C   0  0  0  0  0
   40.2880   37.1840   33.6800 N   0  0  0  0  0
   40.7800   37.9460   34.6630 C   0  0  0  0  0
   41.3700   37.2190   35.8960 C   0  0  0  0  0
   40.7870   39.1810   34.5970 O   0  0  0  0  0
   42.3520   33.7590   29.4730 C   0  0  0  0  0
   41.5740   33.8730   28.5000 O   0  0  0  0  0
   43.0410   32.7160   29.6600 O   0  0  0  0  0
   38.6610   36.8700   31.7770 B   0  0  0  0  0
   38.8690   35.4150   32.1530 O   0  0  0  0  0
   43.1790   37.7940   31.5490 C   0  0  0  0  0
   41.7580   37.3140   31.1930 C   0  0  0  0  0
   44.4100   36.9040   31.2200 C   0  0  0  0  0
   41.5970   35.9600   30.4950 C   0  0  0  0  0
   44.2120   35.5280   30.5100 C   0  0  0  0  0
   42.7840   35.0650   30.1720 C   0  0  0  0  0
   37.4150   37.4190   32.3100 O   0  0  0  0  0
   40.4230   35.6180   30.2410 O   0  0  0  0  0
   41.2977   39.2065   32.1163 H   0  0  0  0  0
   40.2743   38.7965   30.6963 H   0  0  0  0  0
   39.0816   38.7038   32.9030 H   0  0  0  0  0
   40.3428   36.1664   33.7235 H   0  0  0  0  0
   42.4241   37.4769   35.9983 H   0  0  0  0  0
   40.8304   37.5283   36.7912 H   0  0  0  0  0
   41.2694   36.1418   35.7636 H   0  0  0  0  0
   43.5706   32.8217   30.4537 H   0  0  0  0  0
   39.6973   35.1046   31.7801 H   0  0  0  0  0
   43.3209   38.7604   32.0329 H   0  0  0  0  0
   45.4121   37.2409   31.4852 H   0  0  0  0  0
   45.0707   34.9057   30.2579 H   0  0  0  0  0
   37.3321   38.3378   32.0445 H   0  0  0  0  0
   40.4271   34.7618   29.8069 H   0  0  0  0  0
  1  2  1  0  0  0
 13  1  1  0  0  0
  2  3  1  0  0  0
  2 10  1  0  0  0
  3  4  1  0  0  0
  4  5  1  0  0  0
  4  6  2  0  0  0
  7  8  2  0  0  0
  7  9  1  0  0  0
 17  7  1  0  0  0
 10 11  1  0  0  0
 10 18  1  0  0  0
 13 12  4  0  0  0
 12 14  4  0  0  0
 15 13  4  0  0  0
 14 16  4  0  0  0
 15 17  4  0  0  0
 15 19  1  0  0  0
 16 17  4  0  0  0
  1 20  1  0  0  0
  1 21  1  0  0  0
  2 22  1  0  0  0
  3 23  1  0  0  0
  5 24  1  0  0  0
  5 25  1  0  0  0
  5 26  1  0  0  0
  9 27  1  0  0  0
 11 28  1  0  0  0
 12 29  1  0  0  0
 14 30  1  0  0  0
 16 31  1  0  0  0
 18 32  1  0  0  0
 19 33  1  0  0  0
M  END
$$$$
