### 
### Created by X-TOOL on Mon Sep 10 21:12:47 2018
### 

@<TRIPOS>MOLECULE
1erq_ligand
   32    32     1     0     0
SMALL
GAST_HUCK


@<TRIPOS>ATOM
      1 C2         40.7560   38.4160   31.5970 C.3       1 BJH        -0.0061
      2 C1         39.6690   37.8600   32.5410 C.3       1 BJH         0.0612
      3 N1         40.2880   37.1840   33.6800 N.am      1 BJH        -0.2922
      4 C3         40.7800   37.9460   34.6630 C.2       1 BJH         0.1722
      5 C4         41.3700   37.2190   35.8960 C.3       1 BJH         0.0256
      6 O2         40.7870   39.1810   34.5970 O.2       1 BJH        -0.3974
      7 C11        42.3520   33.7590   29.4730 C.2       1 BJH         0.0564
      8 O3         41.5740   33.8730   28.5000 O.co2     1 BJH        -0.5645
      9 O4         43.0410   32.7160   29.6600 O.co2     1 BJH        -0.5645
     10 B          38.6610   36.8700   31.7770 B         1 BJH         0.7183
     11 OB1        38.8690   35.4150   32.1530 O.3       1 BJH        -0.4966
     12 C6         43.1790   37.7940   31.5490 C.ar      1 BJH        -0.0661
     13 C5         41.7580   37.3140   31.1930 C.ar      1 BJH        -0.0089
     14 C7         44.4100   36.9040   31.2200 C.ar      1 BJH        -0.0761
     15 C10        41.5970   35.9600   30.4950 C.ar      1 BJH         0.1046
     16 C8         44.2120   35.5280   30.5100 C.ar      1 BJH        -0.0632
     17 C9         42.7840   35.0650   30.1720 C.ar      1 BJH         0.0322
     18 OB2        37.4150   37.4190   32.3100 O.3       1 BJH        -0.4966
     19 O5         40.4230   35.6180   30.2410 O.3       1 BJH        -0.3332
     20 H1         41.2983   39.2240   32.1100 H         1 BJH         0.0413
     21 H2         40.2756   38.8143   30.6911 H         1 BJH         0.0413
     22 H3         39.0836   38.7098   32.9220 H         1 BJH         0.0451
     23 H4         40.3417   36.1864   33.7227 H         1 BJH         0.1841
     24 H5         41.7352   37.9624   36.6199 H         1 BJH         0.0467
     25 H6         42.2041   36.5761   35.5783 H         1 BJH         0.0467
     26 H7         40.5899   36.6021   36.3660 H         1 BJH         0.0467
     27 H8         39.6887   35.1078   31.7840 H         1 BJH         0.1667
     28 H9         43.3201   38.7550   32.0302 H         1 BJH         0.0547
     29 H10        45.4066   37.2390   31.4837 H         1 BJH         0.0513
     30 H11        45.0660   34.9091   30.2593 H         1 BJH         0.0564
     31 H12        37.4251   37.3618   33.2583 H         1 BJH         0.1667
     32 H13        39.8277   36.3059   30.5147 H         1 BJH         0.2474
@<TRIPOS>BOND
     1    1    2 1  
     2   13    1 1  
     3    2    3 1  
     4    2   10 1  
     5    3    4 am 
     6    4    5 1  
     7    4    6 2  
     8    7    8 ar 
     9    7    9 ar 
    10   17    7 1  
    11   10   11 1  
    12   10   18 1  
    13   13   12 ar 
    14   12   14 ar 
    15   15   13 ar 
    16   14   16 ar 
    17   15   17 ar 
    18   15   19 1  
    19   16   17 ar 
    20    1   20 1  
    21    1   21 1  
    22    2   22 1  
    23    3   23 1  
    24    5   24 1  
    25    5   25 1  
    26    5   26 1  
    27   11   27 1  
    28   12   28 1  
    29   14   29 1  
    30   16   30 1  
    31   18   31 1  
    32   19   32 1  
@<TRIPOS>SUBSTRUCTURE
     1 BJH         1

