1stc_ligand
  -I-interpret- 

 62 69  0  0  0  0  0  0  0  0999 V2000
    9.9880   20.9530   30.6910 C   0  0  0  0  0
    9.2370   19.8050   30.5020 C   0  0  0  0  0
    7.8530   19.8760   30.2900 C   0  0  0  0  0
    7.1890   21.1000   30.2700 C   0  0  0  0  0
    7.9380   22.3000   30.4410 C   0  0  0  0  0
    7.5830   23.6680   30.3550 N   0  0  0  0  0
    8.7390   24.4230   30.5150 C   0  0  0  0  0
    8.9580   25.8320   30.4240 C   0  0  0  0  0
    8.0480   26.8590   30.2210 N   0  0  0  0  0
    8.7700   28.0600   30.1430 C   0  0  0  0  0
    8.3210   29.3610   29.8440 C   0  0  0  0  0
    9.2830   30.3890   29.7100 C   0  0  0  0  0
   10.6470   30.1260   29.8750 C   0  0  0  0  0
   11.0950   28.8440   30.1660 C   0  0  0  0  0
   10.1550   27.7780   30.2970 C   0  0  0  0  0
   10.2790   26.3560   30.4880 C   0  0  0  0  0
   11.3820   25.4440   30.6180 C   0  0  0  0  0
   12.8320   25.6660   30.8380 C   0  0  0  0  0
   13.3760   24.4780   31.1080 N   0  0  0  0  0
   12.4490   23.3720   31.0800 C   0  0  0  0  0
   11.1610   24.0810   30.7360 C   0  0  0  0  0
    9.8490   23.5510   30.6820 C   0  0  0  0  0
    9.3380   22.2140   30.6640 C   0  0  0  0  0
    6.2610   24.2550   29.9760 C   0  0  0  0  0
    5.9480   24.2960   28.4550 C   0  0  0  0  0
    5.3780   25.6340   27.9950 C   0  0  0  0  0
    6.2200   26.8090   28.4760 C   0  0  0  0  0
    6.6030   26.7220   29.9550 C   0  0  0  0  0
    6.0710   25.5490   30.5820 O   0  0  0  0  0
   13.4450   26.7050   30.8610 O   0  0  0  0  0
    5.0230   25.6030   26.5800 N   0  3  0  0  0
    3.6090   25.3390   26.3510 C   0  0  0  0  0
    7.2630   24.1670   27.8660 O   0  0  0  0  0
    7.4290   23.4860   26.6220 C   0  0  0  0  0
    5.0950   23.5360   30.6640 C   0  0  0  0  0
   11.0632   20.8888   30.8581 H   0  0  0  0  0
    9.7289   18.8324   30.5183 H   0  0  0  0  0
    7.2867   18.9571   30.1382 H   0  0  0  0  0
    6.1094   21.1395   30.1253 H   0  0  0  0  0
    7.2586   29.5704   29.7190 H   0  0  0  0  0
    8.9565   31.4019   29.4745 H   0  0  0  0  0
   11.3675   30.9377   29.7739 H   0  0  0  0  0
   12.1604   28.6527   30.2939 H   0  0  0  0  0
   14.3674   24.3608   31.3174 H   0  0  0  0  0
   12.4063   22.8098   32.0128 H   0  0  0  0  0
   12.7214   22.5872   30.3743 H   0  0  0  0  0
    5.2136   23.5369   28.1855 H   0  0  0  0  0
    4.4223   25.8119   28.4881 H   0  0  0  0  0
    7.1442   26.8076   27.8981 H   0  0  0  0  0
    5.6255   27.7131   28.3446 H   0  0  0  0  0
    6.1362   27.5956   30.4100 H   0  0  0  0  0
    5.5536   24.8489   26.1439 H   0  0  0  0  0
    5.2345   26.5203   26.1873 H   0  0  0  0  0
    3.3475   24.3712   26.7788 H   0  0  0  0  0
    3.0136   26.1198   26.8243 H   0  0  0  0  0
    3.4115   25.3291   25.2791 H   0  0  0  0  0
    7.0852   22.4567   26.7240 H   0  0  0  0  0
    6.8452   23.9907   25.8522 H   0  0  0  0  0
    8.4828   23.4926   26.3435 H   0  0  0  0  0
    4.1714   24.0841   30.4782 H   0  0  0  0  0
    5.0062   22.5258   30.2644 H   0  0  0  0  0
    5.2813   23.4886   31.7369 H   0  0  0  0  0
 23  1  4  0  0  0
  1  2  4  0  0  0
  2  3  4  0  0  0
  3  4  4  0  0  0
  4  5  4  0  0  0
  5 23  4  0  0  0
  5  6  4  0  0  0
  6 24  1  0  0  0
  6  7  4  0  0  0
  7 22  4  0  0  0
  7  8  4  0  0  0
  8 16  4  0  0  0
  8  9  4  0  0  0
  9 28  1  0  0  0
  9 10  4  0  0  0
 10 15  4  0  0  0
 10 11  4  0  0  0
 11 12  4  0  0  0
 12 13  4  0  0  0
 13 14  4  0  0  0
 15 14  4  0  0  0
 15 16  4  0  0  0
 16 17  4  0  0  0
 17 21  4  0  0  0
 17 18  1  0  0  0
 18 30  2  0  0  0
 18 19  1  0  0  0
 19 20  1  0  0  0
 21 20  1  0  0  0
 22 21  4  0  0  0
 22 23  4  0  0  0
 28 29  1  0  0  0
 28 27  1  0  0  0
 27 26  1  0  0  0
 26 31  1  0  0  0
 26 25  1  0  0  0
 25 33  1  0  0  0
 25 24  1  0  0  0
 24 35  1  0  0  0
 24 29  1  0  0  0
 33 34  1  0  0  0
 31 32  1  0  0  0
  1 36  1  0  0  0
  2 37  1  0  0  0
  3 38  1  0  0  0
  4 39  1  0  0  0
 11 40  1  0  0  0
 12 41  1  0  0  0
 13 42  1  0  0  0
 14 43  1  0  0  0
 19 44  1  0  0  0
 20 45  1  0  0  0
 20 46  1  0  0  0
 25 47  1  0  0  0
 26 48  1  0  0  0
 27 49  1  0  0  0
 27 50  1  0  0  0
 28 51  1  0  0  0
 31 52  1  0  0  0
 31 53  1  0  0  0
 32 54  1  0  0  0
 32 55  1  0  0  0
 32 56  1  0  0  0
 34 57  1  0  0  0
 34 58  1  0  0  0
 34 59  1  0  0  0
 35 60  1  0  0  0
 35 61  1  0  0  0
 35 62  1  0  0  0
M  END
$$$$
