5tzz_ligand
  -I-interpret- 

 43 46  0  0  0  0  0  0  0  0999 V2000
    2.8800    2.4380    6.4720 N   0  0  0  0  0
    4.1060    3.0030    6.5350 C   0  0  0  0  0
    4.4800    2.7130    4.1830 C   0  0  0  0  0
    5.9180    3.9250    7.0380 C   0  0  0  0  0
    1.1240    1.4040    5.2170 C   0  0  0  0  0
    6.3110    2.2770    0.8450 C   0  0  0  0  0
    7.4480    5.5520    1.5730 C   0  0  0  0  0
    8.1070    5.8460    3.9940 C   0  0  0  0  0
    8.3750    6.7320    5.0180 C   0  0  0  0  0
    7.9420    8.5870    3.5980 C   0  0  0  0  0
    7.6740    7.7260    2.5650 C   0  0  0  0  0
    7.7460    6.3710    2.7680 C   0  0  0  0  0
    8.2900    8.0900    4.8280 C   0  0  0  0  0
    3.2740    2.1500    4.0640 C   0  0  0  0  0
    2.4860    2.0330    5.3060 C   0  0  0  0  0
    5.3110    1.9750    1.9250 C   0  0  0  0  0
    5.5680    4.4020    2.7140 C   0  0  0  0  0
    6.3200    3.7350    0.4600 C   0  0  0  0  0
    5.4540    2.9350    3.0870 C   0  0  0  0  0
    4.7420    3.4870    7.5730 N   0  0  0  0  0
    6.0380    3.7300    5.7240 N   0  0  0  0  0
    4.8820    3.1340    5.4240 N   0  0  0  0  0
    6.4460    4.6150    1.5970 N   0  0  0  0  0
    8.1250    5.7640    0.5830 O   0  0  0  0  0
    8.5680    8.9200    5.8640 F   0  0  0  0  0
    7.5550    1.8890    1.2740 F   0  0  0  0  0
    6.0130    1.5440   -0.2560 F   0  0  0  0  0
    8.8760    6.1510    6.7430 Br  0  0  0  0  0
    6.6973    4.3967    7.6366 H   0  0  0  0  0
    1.0898    0.5224    5.8571 H   0  0  0  0  0
    0.3717    2.1216    5.5443 H   0  0  0  0  0
    0.9261    1.1133    4.1853 H   0  0  0  0  0
    8.1777    4.7692    4.1473 H   0  0  0  0  0
    7.8786    9.6639    3.4420 H   0  0  0  0  0
    7.4042    8.1174    1.5841 H   0  0  0  0  0
    2.8943    1.7976    3.1050 H   0  0  0  0  0
    5.4851    0.9618    2.2871 H   0  0  0  0  0
    4.3085    2.0780    1.5098 H   0  0  0  0  0
    5.9758    4.9378    3.5712 H   0  0  0  0  0
    4.5759    4.7580    2.4365 H   0  0  0  0  0
    5.3712    3.9562   -0.0289 H   0  0  0  0  0
    7.1801    3.9030   -0.1881 H   0  0  0  0  0
    6.4339    2.6703    3.4843 H   0  0  0  0  0
  2  1  4  0  0  0
 15  1  4  0  0  0
  2 20  4  0  0  0
 22  2  4  0  0  0
  3 14  4  0  0  0
 19  3  1  0  0  0
  3 22  4  0  0  0
 20  4  4  0  0  0
  4 21  4  0  0  0
 15  5  1  0  0  0
 16  6  1  0  0  0
  6 18  1  0  0  0
  6 26  1  0  0  0
  6 27  1  0  0  0
  7 12  1  0  0  0
 23  7  1  0  0  0
  7 24  2  0  0  0
  8  9  4  0  0  0
 12  8  4  0  0  0
  9 13  4  0  0  0
  9 28  1  0  0  0
 11 10  4  0  0  0
 10 13  4  0  0  0
 12 11  4  0  0  0
 13 25  1  0  0  0
 14 15  4  0  0  0
 19 16  1  0  0  0
 17 19  1  0  0  0
 17 23  1  0  0  0
 18 23  1  0  0  0
 21 22  4  0  0  0
  4 29  1  0  0  0
  5 30  1  0  0  0
  5 31  1  0  0  0
  5 32  1  0  0  0
  8 33  1  0  0  0
 10 34  1  0  0  0
 11 35  1  0  0  0
 14 36  1  0  0  0
 16 37  1  0  0  0
 16 38  1  0  0  0
 17 39  1  0  0  0
 17 40  1  0  0  0
 18 41  1  0  0  0
 18 42  1  0  0  0
 19 43  1  0  0  0
M  END
$$$$
