5lpj_ligand
  -I-interpret- 

 40 41  0  0  0  0  0  0  0  0999 V2000
  -33.4060   50.7990   -2.7230 N   0  0  0  0  0
  -28.9400   50.8870   -3.1380 C   0  0  0  0  0
  -27.7650   50.9160   -4.0180 C   0  0  0  0  0
  -27.7900   50.2640   -5.3650 C   0  0  0  0  0
  -30.3390   50.7960   -3.4820 C   0  0  0  0  0
  -30.9120   50.6850   -4.8680 C   0  0  0  0  0
  -32.4400   50.7220   -1.8080 C   0  0  0  0  0
  -31.0370   50.8000   -2.2630 C   0  0  0  0  0
  -34.8100   50.8820   -2.3500 C   0  0  0  0  0
  -35.1460   52.1420   -1.5880 C   0  0  0  0  0
  -36.0510   52.1070   -0.5390 C   0  0  0  0  0
  -36.3500   53.2520    0.1790 C   0  0  0  0  0
  -35.7540   54.4570   -0.1450 C   0  0  0  0  0
  -34.8630   54.4900   -1.1940 C   0  0  0  0  0
  -32.6860   50.4960   -0.6230 O   0  0  0  0  0
  -31.1680   52.0300   -5.5050 C   0  0  0  0  0
  -26.7300   51.4680   -3.6450 O   0  0  0  0  0
  -28.8480   50.9370   -1.7530 C   0  0  0  0  0
  -27.6680   51.1160   -0.8510 C   0  0  0  0  0
  -30.1150   50.8520   -1.2470 N   0  0  0  0  0
  -34.5480   53.3550   -1.9140 C   0  0  0  0  0
  -34.1260   56.0060   -1.6370 Cl  0  0  0  0  0
  -33.1543   50.7998   -3.7115 H   0  0  0  0  0
  -27.5834   51.0101   -6.1323 H   0  0  0  0  0
  -27.0314   49.4822   -5.4030 H   0  0  0  0  0
  -28.7734   49.8265   -5.5373 H   0  0  0  0  0
  -31.8664   50.1638   -4.7938 H   0  0  0  0  0
  -30.1881   50.1549   -5.4870 H   0  0  0  0  0
  -35.0318   50.0337   -1.7024 H   0  0  0  0  0
  -35.3975   50.8831   -3.2681 H   0  0  0  0  0
  -36.5336   51.1657   -0.2760 H   0  0  0  0  0
  -37.0597   53.2035    1.0049 H   0  0  0  0  0
  -35.9847   55.3613    0.4181 H   0  0  0  0  0
  -31.8765   52.5905   -4.8951 H   0  0  0  0  0
  -30.2306   52.5818   -5.5748 H   0  0  0  0  0
  -31.5810   51.8851   -6.5033 H   0  0  0  0  0
  -26.9582   50.3059   -1.0184 H   0  0  0  0  0
  -27.1889   52.0710   -1.0668 H   0  0  0  0  0
  -28.0002   51.1010    0.1870 H   0  0  0  0  0
  -33.8332   53.4091   -2.7351 H   0  0  0  0  0
  7  1  1  0  0  0
  1  9  1  0  0  0
  2  3  1  0  0  0
  5  2  4  0  0  0
  2 18  4  0  0  0
  3  4  1  0  0  0
  3 17  2  0  0  0
  5  6  1  0  0  0
  8  5  4  0  0  0
  6 16  1  0  0  0
  7  8  1  0  0  0
  7 15  2  0  0  0
  8 20  4  0  0  0
  9 10  1  0  0  0
 10 11  4  0  0  0
 10 21  4  0  0  0
 11 12  4  0  0  0
 12 13  4  0  0  0
 13 14  4  0  0  0
 14 21  4  0  0  0
 14 22  1  0  0  0
 18 19  1  0  0  0
 18 20  4  0  0  0
  1 23  1  0  0  0
  4 24  1  0  0  0
  4 25  1  0  0  0
  4 26  1  0  0  0
  6 27  1  0  0  0
  6 28  1  0  0  0
  9 29  1  0  0  0
  9 30  1  0  0  0
 11 31  1  0  0  0
 12 32  1  0  0  0
 13 33  1  0  0  0
 16 34  1  0  0  0
 16 35  1  0  0  0
 16 36  1  0  0  0
 19 37  1  0  0  0
 19 38  1  0  0  0
 19 39  1  0  0  0
 21 40  1  0  0  0
M  END
$$$$
