2v0c_ligand
  -I-interpret- 

 51 55  0  0  0  0  0  0  0  0999 V2000
   56.9160  -26.1230   28.0670 C   0  0  0  0  0
   56.3700  -26.3920   26.6800 C   0  0  0  0  0
   57.0360  -27.0880   25.6720 C   0  0  0  0  0
   55.0770  -25.9270   26.5340 C   0  0  0  0  0
   56.3820  -27.2610   24.4340 C   0  0  0  0  0
   54.4220  -26.0840   25.2980 C   0  0  0  0  0
   55.0780  -26.7690   24.2590 C   0  0  0  0  0
   48.0320  -23.4780   29.3650 P   0  0  0  0  0
   47.7690  -22.8660   27.9910 O   0  0  0  0  0
   47.3710  -24.8530   29.4870 O   0  0  0  0  0
   47.9150  -22.4740   30.5030 O   0  0  0  0  0
   51.9410  -21.3750   29.1410 N   0  0  0  0  0
   51.7110  -21.6990   30.4430 C   0  0  0  0  0
   51.3330  -20.5900   31.1170 N   0  0  0  0  0
   51.3330  -19.5840   30.2190 C   0  0  0  0  0
   51.0420  -18.2390   30.3340 C   0  0  0  0  0
   50.6810  -17.7860   31.5600 N   0  0  0  0  0
   51.1340  -17.4220   29.2390 N   0  0  0  0  0
   51.5180  -17.9340   28.0330 C   0  0  0  0  0
   51.8020  -19.2460   27.8940 N   0  0  0  0  0
   51.7090  -20.0800   28.9740 C   0  0  0  0  0
   49.6140  -23.8590   29.2730 O   0  0  0  0  0
   50.0520  -24.7480   28.2440 C   0  0  0  0  0
   51.4300  -24.3530   27.7450 C   0  0  0  0  0
   51.3950  -22.9610   27.3790 O   0  0  0  0  0
   52.5070  -24.5650   28.8080 C   0  0  0  0  0
   53.3480  -25.6600   28.5160 O   0  0  0  0  0
   53.3370  -23.3140   28.6410 C   0  0  0  0  0
   54.3650  -23.6850   27.7310 O   0  0  0  0  0
   52.4180  -22.2580   28.0520 C   0  0  0  0  0
   57.0300  -27.9450   23.4670 F   0  0  0  0  0
   55.7980  -25.4200   28.6640 O   0  0  0  0  0
   54.5500  -25.1840   27.7390 B   0  0  0  0  0
   57.8497  -25.5606   28.0753 H   0  0  0  0  0
   57.2161  -27.0205   28.6078 H   0  0  0  0  0
   58.0365  -27.4882   25.8363 H   0  0  0  0  0
   53.4206  -25.6805   25.1480 H   0  0  0  0  0
   54.5685  -26.9197   23.3072 H   0  0  0  0  0
   47.8569  -23.5445   27.3176 H   0  0  0  0  0
   47.5393  -25.3596   28.6891 H   0  0  0  0  0
   51.8151  -22.6949   30.8737 H   0  0  0  0  0
   50.6337  -18.4313   32.3486 H   0  0  0  0  0
   50.4567  -16.8000   31.6937 H   0  0  0  0  0
   51.5964  -17.2733   27.1696 H   0  0  0  0  0
   49.3486  -24.6989   27.4128 H   0  0  0  0  0
   50.1000  -25.7590   28.6485 H   0  0  0  0  0
   51.6819  -24.9823   26.8914 H   0  0  0  0  0
   52.0787  -24.7507   29.7930 H   0  0  0  0  0
   53.7697  -22.9193   29.5603 H   0  0  0  0  0
   52.9068  -21.5971   27.3362 H   0  0  0  0  0
   56.0159  -25.1845   29.5688 H   0  0  0  0  0
  2  1  1  0  0  0
  1 32  1  0  0  0
  2  3  4  0  0  0
  4  2  4  0  0  0
  3  5  4  0  0  0
  4  6  4  0  0  0
 33  4  1  0  0  0
  7  5  4  0  0  0
  5 31  1  0  0  0
  6  7  4  0  0  0
  8  9  1  0  0  0
  8 10  1  0  0  0
  8 11  2  0  0  0
 22  8  1  0  0  0
 12 13  4  0  0  0
 12 21  4  0  0  0
 30 12  1  0  0  0
 13 14  4  0  0  0
 15 14  4  0  0  0
 15 16  4  0  0  0
 21 15  4  0  0  0
 16 17  1  0  0  0
 16 18  4  0  0  0
 19 18  4  0  0  0
 20 19  4  0  0  0
 21 20  4  0  0  0
 23 22  1  0  0  0
 24 23  1  0  0  0
 24 25  1  0  0  0
 26 24  1  0  0  0
 25 30  1  0  0  0
 27 26  1  0  0  0
 26 28  1  0  0  0
 27 33  1  0  0  0
 28 29  1  0  0  0
 28 30  1  0  0  0
 29 33  1  0  0  0
  1 34  1  0  0  0
  1 35  1  0  0  0
  3 36  1  0  0  0
  6 37  1  0  0  0
  7 38  1  0  0  0
  9 39  1  0  0  0
 10 40  1  0  0  0
 13 41  1  0  0  0
 17 42  1  0  0  0
 17 43  1  0  0  0
 19 44  1  0  0  0
 23 45  1  0  0  0
 23 46  1  0  0  0
 24 47  1  0  0  0
 26 48  1  0  0  0
 28 49  1  0  0  0
 30 50  1  0  0  0
 32 51  1  0  0  0
M  END
$$$$
