### 
### Created by X-TOOL on Mon Sep 10 21:12:55 2018
### 

@<TRIPOS>MOLECULE
2v0c_ligand
   49    53     1     0     0
SMALL
GAST_HUCK


@<TRIPOS>ATOM
      1 CB         56.9160  -26.1230   28.0670 C.3       1 ANZ         0.0763
      2 CG         56.3700  -26.3920   26.6800 C.ar      1 ANZ        -0.0282
      3 CD1        57.0360  -27.0880   25.6720 C.ar      1 ANZ        -0.0259
      4 CD2        55.0770  -25.9270   26.5340 C.ar      1 ANZ        -0.0503
      5 CE1        56.3820  -27.2610   24.4340 C.ar      1 ANZ         0.1258
      6 CE2        54.4220  -26.0840   25.2980 C.ar      1 ANZ        -0.0788
      7 CZ         55.0780  -26.7690   24.2590 C.ar      1 ANZ        -0.0362
      8 P          48.0320  -23.4780   29.3650 P.3       1 ANZ         0.2008
      9 O1P        47.7690  -22.8660   27.9910 O.co2     1 ANZ        -0.5537
     10 O2P        47.3710  -24.8530   29.4870 O.co2     1 ANZ        -0.5537
     11 O3P        47.9150  -22.4740   30.5030 O.co2     1 ANZ        -0.5537
     12 N9         51.9410  -21.3750   29.1410 N.pl3     1 ANZ        -0.1920
     13 C8         51.7110  -21.6990   30.4430 C.2       1 ANZ         0.1123
     14 N7         51.3330  -20.5900   31.1170 N.2       1 ANZ        -0.2958
     15 C5         51.3330  -19.5840   30.2190 C.ar      1 ANZ         0.1045
     16 C6         51.0420  -18.2390   30.3340 C.ar      1 ANZ         0.1298
     17 N6         50.6810  -17.7860   31.5600 N.pl3     1 ANZ        -0.3152
     18 N1         51.1340  -17.4220   29.2390 N.ar      1 ANZ        -0.2698
     19 C2         51.5180  -17.9340   28.0330 C.ar      1 ANZ         0.0533
     20 N3         51.8020  -19.2460   27.8940 N.ar      1 ANZ        -0.2714
     21 C4         51.7090  -20.0800   28.9740 C.ar      1 ANZ         0.1613
     22 O5'        49.6140  -23.8590   29.2730 O.3       1 ANZ        -0.2734
     23 C5'        50.0520  -24.7480   28.2440 C.3       1 ANZ         0.1071
     24 C4'        51.4300  -24.3530   27.7450 C.3       1 ANZ         0.1156
     25 O4'        51.3950  -22.9610   27.3790 O.3       1 ANZ        -0.3366
     26 C3'        52.5070  -24.5650   28.8080 C.3       1 ANZ         0.0866
     27 O3'        53.3480  -25.6600   28.5160 O.3       1 ANZ        -0.4742
     28 C2'        53.3370  -23.3140   28.6410 C.3       1 ANZ         0.1112
     29 O2'        54.3650  -23.6850   27.7310 O.3       1 ANZ        -0.4723
     30 C1'        52.4180  -22.2580   28.0520 C.3       1 ANZ         0.1984
     31 F          57.0300  -27.9450   23.4670 F         1 ANZ        -0.1853
     32 O1         55.7980  -25.4200   28.6640 O.3       1 ANZ        -0.3826
     33 B          54.5500  -25.1840   27.7390 B         1 ANZ         0.7253
     34 H1         57.8182  -25.4946   28.0327 H         1 ANZ         0.0720
     35 H2         57.1400  -27.0573   28.6027 H         1 ANZ         0.0720
     36 H3         58.0310  -27.4860   25.8354 H         1 ANZ         0.0542
     37 H5         53.4261  -25.6827   25.1488 H         1 ANZ         0.0579
     38 H6         54.5713  -26.9189   23.3125 H         1 ANZ         0.0546
     39 H7         51.8150  -22.6939   30.8733 H         1 ANZ         0.1349
     40 H8         50.4545  -16.7903   31.6950 H         1 ANZ         0.1820
     41 H9         50.6332  -18.4376   32.3563 H         1 ANZ         0.1820
     42 H10        51.5959  -17.2769   27.1744 H         1 ANZ         0.0996
     43 H11        49.3400  -24.7098   27.4064 H         1 ANZ         0.0639
     44 H12        50.0926  -25.7718   28.6443 H         1 ANZ         0.0639
     45 H13        51.6787  -24.9601   26.8621 H         1 ANZ         0.0649
     46 H14        52.0748  -24.6635   29.8147 H         1 ANZ         0.0620
     47 H16        53.7611  -22.9690   29.5955 H         1 ANZ         0.0649
     48 H18        52.9675  -21.6439   27.3234 H         1 ANZ         0.0995
     49 H19        55.0321  -25.9820   28.6575 H         1 ANZ         0.2126
@<TRIPOS>BOND
     1    2    1 1  
     2    1   32 1  
     3    2    3 ar 
     4    4    2 ar 
     5    3    5 ar 
     6    4    6 ar 
     7   33    4 1  
     8    7    5 ar 
     9    5   31 1  
    10    6    7 ar 
    11    8    9 ar 
    12    8   10 ar 
    13    8   11 ar 
    14   22    8 1  
    15   12   13 1  
    16   12   21 1  
    17   30   12 1  
    18   13   14 2  
    19   15   14 1  
    20   15   16 ar 
    21   21   15 ar 
    22   16   17 1  
    23   16   18 ar 
    24   19   18 ar 
    25   20   19 ar 
    26   21   20 ar 
    27   23   22 1  
    28   24   23 1  
    29   24   25 1  
    30   26   24 1  
    31   25   30 1  
    32   27   26 1  
    33   26   28 1  
    34   27   33 1  
    35   28   29 1  
    36   28   30 1  
    37   29   33 1  
    38    1   34 1  
    39    1   35 1  
    40    3   36 1  
    41    6   37 1  
    42    7   38 1  
    43   13   39 1  
    44   17   40 1  
    45   17   41 1  
    46   19   42 1  
    47   23   43 1  
    48   23   44 1  
    49   24   45 1  
    50   26   46 1  
    51   28   47 1  
    52   30   48 1  
    53   32   49 1  
@<TRIPOS>SUBSTRUCTURE
     1 ANZ         1

