6ezh_ligand
  -I-interpret- 

 62 65  0  0  0  0  0  0  0  0999 V2000
   -8.3390    1.2470   55.1230 C   0  0  0  0  0
   -8.9670    0.8050   54.0020 O   0  0  0  0  0
   -9.0740    1.7640   52.9960 C   0  0  0  0  0
   -8.2420    1.7300   51.8590 C   0  0  0  0  0
   -7.1350    0.6080   51.6220 C   0  0  0  0  0
   -6.1060    0.8100   50.9810 O   0  0  0  0  0
   -7.3480   -0.7970   52.1870 C   0  0  0  0  0
   -6.2250   -1.7310   51.6770 C   0  0  0  0  0
   -5.1680   -1.9430   52.9040 C   0  0  0  0  0
   -5.9250   -2.3740   54.0620 C   0  0  0  0  0
   -5.1960   -3.2060   55.1000 C   0  0  0  0  0
   -4.0230   -3.9460   54.6470 N   0  3  0  0  0
   -3.0110   -3.4510   55.1150 C   0  0  0  0  0
   -1.6250   -4.0370   54.7770 C   0  0  0  0  0
   -0.6440   -3.5270   55.8240 C   0  0  0  0  0
    0.7950   -3.9020   55.4770 C   0  0  0  0  0
    0.9440   -5.4000   55.2080 C   0  0  0  0  0
   -0.1190   -5.9480   54.2530 C   0  0  0  0  0
   -1.5090   -5.5760   54.7490 C   0  0  0  0  0
   -4.0350   -4.1160   53.2140 C   0  0  0  0  0
   -4.1150   -2.8380   52.4330 C   0  0  0  0  0
   -8.4260    2.7260   50.8920 C   0  0  0  0  0
   -9.4130    3.7530   50.9940 C   0  0  0  0  0
   -9.5770    4.9600   49.7260 Cl  0  0  0  0  0
  -10.2300    3.7800   52.1550 C   0  0  0  0  0
  -11.2240    4.6340   52.5350 N   0  0  0  0  0
  -11.7140    4.2760   53.7110 C   0  0  0  0  0
  -11.0400    3.1130   54.1820 C   0  0  0  0  0
  -10.0640    2.8010   53.1370 C   0  0  0  0  0
   -7.3269    1.5631   54.8703 H   0  0  0  0  0
   -8.8911    2.0899   55.5388 H   0  0  0  0  0
   -8.2970    0.4414   55.8560 H   0  0  0  0  0
   -8.3154   -1.1783   51.8600 H   0  0  0  0  0
   -7.3237   -0.7591   53.2761 H   0  0  0  0  0
   -5.7247   -1.2902   50.8147 H   0  0  0  0  0
   -6.6395   -2.6884   51.3611 H   0  0  0  0  0
   -4.6488   -1.0389   53.2221 H   0  0  0  0  0
   -6.7176   -3.0141   53.6746 H   0  0  0  0  0
   -6.2256   -1.4602   54.5746 H   0  0  0  0  0
   -5.9109   -3.9567   55.4368 H   0  0  0  0  0
   -4.8336   -2.5003   55.8475 H   0  0  0  0  0
   -4.0438   -4.9006   55.0058 H   0  0  0  0  0
   -3.1111   -3.6009   56.1900 H   0  0  0  0  0
   -2.9863   -2.4446   54.6971 H   0  0  0  0  0
   -1.4192   -3.7131   53.7568 H   0  0  0  0  0
   -0.8964   -3.9811   56.7822 H   0  0  0  0  0
   -0.7165   -2.4401   55.8630 H   0  0  0  0  0
    1.4300   -3.6417   56.3238 H   0  0  0  0  0
    1.0810   -3.3622   54.5742 H   0  0  0  0  0
    0.8333   -5.9197   56.1597 H   0  0  0  0  0
    1.9180   -5.5577   54.7447 H   0  0  0  0  0
   -0.0339   -7.0337   54.2078 H   0  0  0  0  0
    0.0343   -5.5190   53.2628 H   0  0  0  0  0
   -2.2649   -5.9936   54.0839 H   0  0  0  0  0
   -1.6666   -5.9788   55.7495 H   0  0  0  0  0
   -4.9266   -4.6937   52.9701 H   0  0  0  0  0
   -3.0944   -4.5955   52.9431 H   0  0  0  0  0
   -3.1634   -2.3192   52.5489 H   0  0  0  0  0
   -4.3386   -3.0962   51.3979 H   0  0  0  0  0
   -7.7807    2.7169   50.0136 H   0  0  0  0  0
  -12.5140    4.7938   54.2402 H   0  0  0  0  0
  -11.2128    2.5748   55.1140 H   0  0  0  0  0
  1  2  1  0  0  0
  2  3  1  0  0  0
  3  4  4  0  0  0
  3 29  4  0  0  0
  4  5  1  0  0  0
  4 22  4  0  0  0
  5  6  2  0  0  0
  5  7  1  0  0  0
  7  8  1  0  0  0
  8  9  1  0  0  0
  9 10  1  0  0  0
  9 21  1  0  0  0
 10 11  1  0  0  0
 11 12  1  0  0  0
 12 13  1  0  0  0
 12 20  1  0  0  0
 13 14  1  0  0  0
 14 15  1  0  0  0
 14 19  1  0  0  0
 15 16  1  0  0  0
 16 17  1  0  0  0
 17 18  1  0  0  0
 18 19  1  0  0  0
 20 21  1  0  0  0
 22 23  4  0  0  0
 23 24  1  0  0  0
 23 25  4  0  0  0
 25 26  4  0  0  0
 25 29  4  0  0  0
 26 27  4  0  0  0
 27 28  4  0  0  0
 28 29  4  0  0  0
  1 30  1  0  0  0
  1 31  1  0  0  0
  1 32  1  0  0  0
  7 33  1  0  0  0
  7 34  1  0  0  0
  8 35  1  0  0  0
  8 36  1  0  0  0
  9 37  1  0  0  0
 10 38  1  0  0  0
 10 39  1  0  0  0
 11 40  1  0  0  0
 11 41  1  0  0  0
 12 42  1  0  0  0
 13 43  1  0  0  0
 13 44  1  0  0  0
 14 45  1  0  0  0
 15 46  1  0  0  0
 15 47  1  0  0  0
 16 48  1  0  0  0
 16 49  1  0  0  0
 17 50  1  0  0  0
 17 51  1  0  0  0
 18 52  1  0  0  0
 18 53  1  0  0  0
 19 54  1  0  0  0
 19 55  1  0  0  0
 20 56  1  0  0  0
 20 57  1  0  0  0
 21 58  1  0  0  0
 21 59  1  0  0  0
 22 60  1  0  0  0
 27 61  1  0  0  0
 28 62  1  0  0  0
M  END
$$$$
