### 
### Created by X-TOOL on Wed Jan  1 15:39:36 2020
### 

@<TRIPOS>MOLECULE
6czd_ligand
   39    41     1     0     0
SMALL
GAST_HUCK


@<TRIPOS>ATOM
      1 PB         -6.0370  -33.8010   21.4370 P.3       1 ADP         0.2069
      2 O1B        -6.2300  -33.9380   19.9420 O.co2     1 ADP        -0.5891
      3 O2B        -6.2410  -32.3960   21.9650 O.co2     1 ADP        -0.5891
      4 O3B        -6.8200  -34.8320   22.2160 O.co2     1 ADP        -0.5891
      5 PA         -3.1770  -33.7670   20.7900 P.3       1 ADP         0.3276
      6 O1A        -3.4540  -34.2470   19.3970 O.co2     1 ADP        -0.5556
      7 O2A        -2.7000  -32.3620   21.0650 O.co2     1 ADP        -0.5556
      8 O3A        -4.4700  -34.1070   21.7300 O.3       1 ADP        -0.1548
      9 O5'        -2.0030  -34.7120   21.3510 O.3       1 ADP        -0.2436
     10 C5'        -2.1290  -36.1220   21.1900 C.3       1 ADP         0.1132
     11 C4'        -0.7830  -36.7780   21.4630 C.3       1 ADP         0.1189
     12 O4'         0.2650  -36.0230   20.8370 O.3       1 ADP        -0.3364
     13 C3'        -0.4680  -36.8160   22.9580 C.3       1 ADP         0.1149
     14 O3'        -0.7860  -38.0990   23.5430 O.3       1 ADP        -0.3864
     15 C2'         1.0100  -36.4430   23.0540 C.3       1 ADP         0.1385
     16 O2'         1.7960  -37.6190   23.2630 O.3       1 ADP        -0.3836
     17 C1'         1.4030  -35.8480   21.7050 C.3       1 ADP         0.2010
     18 N9          1.7540  -34.3950   21.8320 N.pl3     1 ADP        -0.1919
     19 C8          1.2720  -33.3940   21.0510 C.2       1 ADP         0.1123
     20 N7          1.7840  -32.1790   21.4220 N.2       1 ADP        -0.2958
     21 C5          2.6340  -32.3870   22.4530 C.ar      1 ADP         0.1045
     22 C6          3.5130  -31.5380   23.3200 C.ar      1 ADP         0.1298
     23 N6          3.6020  -30.1950   23.1760 N.pl3     1 ADP        -0.3152
     24 N1          4.2330  -32.1600   24.2880 N.ar      1 ADP        -0.2698
     25 C2          4.1630  -33.5030   24.4610 C.ar      1 ADP         0.0533
     26 N3          3.3870  -34.3360   23.7240 N.ar      1 ADP        -0.2714
     27 C4          2.6090  -33.8510   22.7160 C.ar      1 ADP         0.1613
     28 H1         -2.4468  -36.3481   20.1615 H         1 ADP         0.0648
     29 H2         -2.8770  -36.5080   21.8982 H         1 ADP         0.0648
     30 H3         -0.7970  -37.8027   21.0632 H         1 ADP         0.0651
     31 H4         -1.0659  -36.0535   23.4786 H         1 ADP         0.0648
     32 H5         -0.2768  -38.7765   23.1137 H         1 ADP         0.2100
     33 H6          1.1758  -35.7212   23.8673 H         1 ADP         0.0676
     34 H7          1.5254  -38.0400   24.0705 H         1 ADP         0.2101
     35 H8          2.2699  -36.3894   21.2985 H         1 ADP         0.0996
     36 H9          0.5676  -33.5390   20.2333 H         1 ADP         0.1349
     37 H10         4.2196  -29.6505   23.7948 H         1 ADP         0.1820
     38 H11         3.0521  -29.7176   22.4476 H         1 ADP         0.1820
     39 H12         4.7705  -33.9421   25.2441 H         1 ADP         0.0996
@<TRIPOS>BOND
     1    1    2 ar 
     2    1    3 ar 
     3    1    4 ar 
     4    8    1 1  
     5    5    6 ar 
     6    5    7 ar 
     7    5    8 1  
     8    5    9 1  
     9    9   10 1  
    10   10   11 1  
    11   11   12 1  
    12   11   13 1  
    13   12   17 1  
    14   13   14 1  
    15   13   15 1  
    16   15   16 1  
    17   15   17 1  
    18   17   18 1  
    19   18   19 1  
    20   18   27 1  
    21   19   20 2  
    22   20   21 1  
    23   21   22 ar 
    24   21   27 ar 
    25   22   23 1  
    26   22   24 ar 
    27   24   25 ar 
    28   25   26 ar 
    29   26   27 ar 
    30   10   28 1  
    31   10   29 1  
    32   11   30 1  
    33   13   31 1  
    34   14   32 1  
    35   15   33 1  
    36   16   34 1  
    37   17   35 1  
    38   19   36 1  
    39   23   37 1  
    40   23   38 1  
    41   25   39 1  
@<TRIPOS>SUBSTRUCTURE
     1 ADP         1

