6czd_ligand
  -I-interpret- 

 42 44  0  0  0  0  0  0  0  0999 V2000
   -6.0370  -33.8010   21.4370 P   0  0  0  0  0
   -6.2300  -33.9380   19.9420 O   0  0  0  0  0
   -6.2410  -32.3960   21.9650 O   0  0  0  0  0
   -6.8200  -34.8320   22.2160 O   0  0  0  0  0
   -3.1770  -33.7670   20.7900 P   0  0  0  0  0
   -3.4540  -34.2470   19.3970 O   0  0  0  0  0
   -2.7000  -32.3620   21.0650 O   0  0  0  0  0
   -4.4700  -34.1070   21.7300 O   0  0  0  0  0
   -2.0030  -34.7120   21.3510 O   0  0  0  0  0
   -2.1290  -36.1220   21.1900 C   0  0  0  0  0
   -0.7830  -36.7780   21.4630 C   0  0  0  0  0
    0.2650  -36.0230   20.8370 O   0  0  0  0  0
   -0.4680  -36.8160   22.9580 C   0  0  0  0  0
   -0.7860  -38.0990   23.5430 O   0  0  0  0  0
    1.0100  -36.4430   23.0540 C   0  0  0  0  0
    1.7960  -37.6190   23.2630 O   0  0  0  0  0
    1.4030  -35.8480   21.7050 C   0  0  0  0  0
    1.7540  -34.3950   21.8320 N   0  0  0  0  0
    1.2720  -33.3940   21.0510 C   0  0  0  0  0
    1.7840  -32.1790   21.4220 N   0  0  0  0  0
    2.6340  -32.3870   22.4530 C   0  0  0  0  0
    3.5130  -31.5380   23.3200 C   0  0  0  0  0
    3.6020  -30.1950   23.1760 N   0  0  0  0  0
    4.2330  -32.1600   24.2880 N   0  0  0  0  0
    4.1630  -33.5030   24.4610 C   0  0  0  0  0
    3.3870  -34.3360   23.7240 N   0  0  0  0  0
    2.6090  -33.8510   22.7160 C   0  0  0  0  0
   -5.7154  -33.2646   19.4910 H   0  0  0  0  0
   -5.7252  -31.7799   21.4396 H   0  0  0  0  0
   -2.5795  -32.2455   22.0102 H   0  0  0  0  0
   -2.4465  -36.3474   20.1719 H   0  0  0  0  0
   -2.8719  -36.5055   21.8894 H   0  0  0  0  0
   -0.8395  -37.7924   21.0683 H   0  0  0  0  0
   -1.0780  -36.1194   23.5331 H   0  0  0  0  0
   -0.5750  -38.0836   24.4794 H   0  0  0  0  0
    1.1749  -35.7475   23.8769 H   0  0  0  0  0
    2.7230  -37.3766   23.3222 H   0  0  0  0  0
    2.2871  -36.3453   21.3061 H   0  0  0  0  0
    0.5669  -33.5391   20.2325 H   0  0  0  0  0
    3.0574  -29.7222   22.4547 H   0  0  0  0  0
    4.2137  -29.6558   23.7888 H   0  0  0  0  0
    4.7739  -33.9445   25.2484 H   0  0  0  0  0
  1  2  1  0  0  0
  1  3  1  0  0  0
  1  4  2  0  0  0
  8  1  1  0  0  0
  5  6  2  0  0  0
  5  7  1  0  0  0
  5  8  1  0  0  0
  5  9  1  0  0  0
  9 10  1  0  0  0
 10 11  1  0  0  0
 11 12  1  0  0  0
 11 13  1  0  0  0
 12 17  1  0  0  0
 13 14  1  0  0  0
 13 15  1  0  0  0
 15 16  1  0  0  0
 15 17  1  0  0  0
 17 18  1  0  0  0
 18 19  4  0  0  0
 18 27  4  0  0  0
 19 20  4  0  0  0
 20 21  4  0  0  0
 21 22  4  0  0  0
 21 27  4  0  0  0
 22 23  1  0  0  0
 22 24  4  0  0  0
 24 25  4  0  0  0
 25 26  4  0  0  0
 26 27  4  0  0  0
  2 28  1  0  0  0
  3 29  1  0  0  0
  7 30  1  0  0  0
 10 31  1  0  0  0
 10 32  1  0  0  0
 11 33  1  0  0  0
 13 34  1  0  0  0
 14 35  1  0  0  0
 15 36  1  0  0  0
 16 37  1  0  0  0
 17 38  1  0  0  0
 19 39  1  0  0  0
 23 40  1  0  0  0
 23 41  1  0  0  0
 25 42  1  0  0  0
M  END
$$$$
