3hng_ligand
  -I-interpret- 

 40 42  0  0  0  0  0  0  0  0999 V2000
    5.5950   23.5560   28.5450 Cl  0  0  0  0  0
    5.8570   22.5350   29.9480 C   0  0  0  0  0
    7.1320   22.4270   30.4910 C   0  0  0  0  0
    7.2760   21.5260   31.6030 C   0  0  0  0  0
    4.6440   21.8010   30.4440 C   0  0  0  0  0
    4.8000   20.9790   31.5490 C   0  0  0  0  0
    6.1240   20.7310   31.9900 C   0  0  0  0  0
    6.1910   19.9470   33.1760 N   0  0  0  0  0
    5.6500   18.6140   33.1600 C   0  0  0  0  0
    5.1610   18.1740   32.1770 O   0  0  0  0  0
    5.7740   17.9040   34.5140 C   0  0  0  0  0
    5.4180   16.5660   34.7250 C   0  0  0  0  0
    5.3230   15.9940   36.0290 C   0  0  0  0  0
    5.6340   16.8190   37.1680 C   0  0  0  0  0
    5.9390   18.2230   36.9840 C   0  0  0  0  0
    5.9890   18.7690   35.6840 C   0  0  0  0  0
    5.0380   15.6590   33.7080 N   0  0  0  0  0
    4.6180   14.3170   33.3600 C   0  0  0  0  0
    3.2400   13.9760   33.9390 C   0  0  0  0  0
    2.8250   12.6960   33.9880 C   0  0  0  0  0
    1.4910   12.4340   34.4180 C   0  0  0  0  0
    0.5460   13.4920   34.4960 N   0  0  0  0  0
    0.9730   14.8240   34.3800 C   0  0  0  0  0
    2.2690   15.0700   33.9830 C   0  0  0  0  0
    7.9755   22.9934   30.0962 H   0  0  0  0  0
    8.2214   21.4425   32.1391 H   0  0  0  0  0
    3.6770   21.9107   29.9532 H   0  0  0  0  0
    3.9407   20.5417   32.0574 H   0  0  0  0  0
    6.6156   20.3240   34.0233 H   0  0  0  0  0
    5.0215   14.9548   36.1603 H   0  0  0  0  0
    5.6398   16.3867   38.1686 H   0  0  0  0  0
    6.1298   18.8575   37.8495 H   0  0  0  0  0
    6.1870   19.8320   35.5467 H   0  0  0  0  0
    5.0770   16.1808   32.8325 H   0  0  0  0  0
    5.3433   13.6158   33.7727 H   0  0  0  0  0
    4.5564   14.2508   32.2738 H   0  0  0  0  0
    3.4917   11.8810   33.7062 H   0  0  0  0  0
    1.1956   11.4200   34.6874 H   0  0  0  0  0
    0.2930   15.6471   34.5996 H   0  0  0  0  0
    2.5710   16.0789   33.7018 H   0  0  0  0  0
  1  2  1  0  0  0
  2  3  4  0  0  0
  2  5  4  0  0  0
  3  4  4  0  0  0
  4  7  4  0  0  0
  5  6  4  0  0  0
  6  7  4  0  0  0
  7  8  1  0  0  0
  8  9  1  0  0  0
  9 10  2  0  0  0
  9 11  1  0  0  0
 11 12  4  0  0  0
 11 16  4  0  0  0
 12 13  4  0  0  0
 12 17  1  0  0  0
 13 14  4  0  0  0
 14 15  4  0  0  0
 15 16  4  0  0  0
 17 18  1  0  0  0
 18 19  1  0  0  0
 19 20  4  0  0  0
 19 24  4  0  0  0
 20 21  4  0  0  0
 21 22  4  0  0  0
 22 23  4  0  0  0
 23 24  4  0  0  0
  3 25  1  0  0  0
  4 26  1  0  0  0
  5 27  1  0  0  0
  6 28  1  0  0  0
  8 29  1  0  0  0
 13 30  1  0  0  0
 14 31  1  0  0  0
 15 32  1  0  0  0
 16 33  1  0  0  0
 17 34  1  0  0  0
 18 35  1  0  0  0
 18 36  1  0  0  0
 20 37  1  0  0  0
 21 38  1  0  0  0
 23 39  1  0  0  0
 24 40  1  0  0  0
M  END
$$$$
