4gk3_ligand
  -I-interpret- 

 47 50  0  0  0  0  0  0  0  0999 V2000
   18.7420  -16.5270   24.5080 O   0  0  0  0  0
   19.0740  -15.3150   24.4500 C   0  0  0  0  0
   19.2540  -14.6030   25.6000 N   0  0  0  0  0
   19.2490  -14.7430   23.2490 N   0  0  0  0  0
   19.0580  -15.5040   22.0050 C   0  0  0  0  0
   19.6030  -13.4580   23.1880 C   0  0  0  0  0
   19.7960  -12.6890   24.3390 C   0  0  0  0  0
   19.6110  -13.2910   25.5860 C   0  0  0  0  0
   19.7550  -12.6890   26.6630 O   0  0  0  0  0
   19.8270  -12.7150   22.0430 N   0  0  0  0  0
   20.1660  -11.4750   22.5910 C   0  0  0  0  0
   20.1630  -11.4260   23.9250 N   0  3  0  0  0
   20.4890  -10.2360   22.0960 N   0  0  0  0  0
   20.5730  -10.0790   20.6410 C   0  0  0  0  0
   19.1900  -10.2260   20.0040 C   0  0  0  0  0
   18.1610   -9.2710   20.6060 C   0  0  0  0  0
   16.7920   -9.5260   20.0090 C   0  0  0  0  0
   20.7130   -9.4300   23.1730 C   0  0  0  0  0
   20.4880  -10.1510   24.3910 C   0  0  0  0  0
   21.1180   -8.0070   22.9460 C   0  0  0  0  0
   22.3610   -7.5320   23.3670 C   0  0  0  0  0
   23.3280   -8.4150   24.1240 C   0  0  0  0  0
   22.7280   -6.2110   23.1080 C   0  0  0  0  0
   21.8570   -5.3690   22.4210 C   0  0  0  0  0
   20.6230   -5.8510   21.9860 C   0  0  0  0  0
   20.2560   -7.1670   22.2450 C   0  0  0  0  0
   19.1167  -15.0688   26.4970 H   0  0  0  0  0
   18.2715  -15.0372   21.4121 H   0  0  0  0  0
   19.9884  -15.5090   21.4371 H   0  0  0  0  0
   18.7731  -16.5279   22.2470 H   0  0  0  0  0
   21.2309  -10.8498   20.2396 H   0  0  0  0  0
   20.9630   -9.0867   20.4144 H   0  0  0  0  0
   18.8458  -11.2449   20.1813 H   0  0  0  0  0
   19.2830   -9.9933   18.9432 H   0  0  0  0  0
   18.4582   -8.2452   20.3880 H   0  0  0  0  0
   18.1144   -9.4319   21.6831 H   0  0  0  0  0
   16.8327   -9.3716   18.9308 H   0  0  0  0  0
   16.4908  -10.5522   20.2192 H   0  0  0  0  0
   16.0711   -8.8370   20.4490 H   0  0  0  0  0
   20.5539   -9.7946   25.4190 H   0  0  0  0  0
   22.8623   -8.7510   25.0504 H   0  0  0  0  0
   23.5853   -9.2788   23.5111 H   0  0  0  0  0
   24.2308   -7.8492   24.3541 H   0  0  0  0  0
   23.6959   -5.8382   23.4432 H   0  0  0  0  0
   22.1395   -4.3349   22.2237 H   0  0  0  0  0
   19.9443   -5.1945   21.4415 H   0  0  0  0  0
   19.2926   -7.5416   21.8990 H   0  0  0  0  0
  1  2  2  0  0  0
  2  3  1  0  0  0
  2  4  1  0  0  0
  3  8  1  0  0  0
  4  5  1  0  0  0
  4  6  1  0  0  0
  6  7  4  0  0  0
  6 10  4  0  0  0
  7  8  1  0  0  0
  7 12  4  0  0  0
  8  9  2  0  0  0
 10 11  4  0  0  0
 11 12  4  0  0  0
 11 13  4  0  0  0
 12 19  4  0  0  0
 13 14  1  0  0  0
 13 18  4  0  0  0
 14 15  1  0  0  0
 15 16  1  0  0  0
 16 17  1  0  0  0
 18 19  4  0  0  0
 18 20  1  0  0  0
 20 21  4  0  0  0
 20 26  4  0  0  0
 21 22  1  0  0  0
 21 23  4  0  0  0
 23 24  4  0  0  0
 24 25  4  0  0  0
 25 26  4  0  0  0
  3 27  1  0  0  0
  5 28  1  0  0  0
  5 29  1  0  0  0
  5 30  1  0  0  0
 14 31  1  0  0  0
 14 32  1  0  0  0
 15 33  1  0  0  0
 15 34  1  0  0  0
 16 35  1  0  0  0
 16 36  1  0  0  0
 17 37  1  0  0  0
 17 38  1  0  0  0
 17 39  1  0  0  0
 19 40  1  0  0  0
 22 41  1  0  0  0
 22 42  1  0  0  0
 22 43  1  0  0  0
 23 44  1  0  0  0
 24 45  1  0  0  0
 25 46  1  0  0  0
 26 47  1  0  0  0
M  END
$$$$
