2auc_ligand
  -I-interpret- 

242242  0  0  0  0  0  0  0  0999 V2000
   63.7390   18.3230   -5.2190 C   0  0  0  0  0
   64.1500   17.9240   -6.6040 C   0  0  0  0  0
   62.6170   18.0750   -4.8070 O   0  0  0  0  0
   64.6470   18.9500   -4.4680 N   0  0  0  0  0
   65.9960   19.2680   -4.9260 C   0  0  0  0  0
   67.0760   18.6660   -4.0530 C   0  0  0  0  0
   66.7910   18.0780   -3.0200 O   0  0  0  0  0
   66.0510   20.7920   -4.8660 C   0  0  0  0  0
   65.8640   21.2550   -3.5200 O   0  0  0  0  0
   68.3270   18.8180   -4.4770 N   0  0  0  0  0
   69.4730   18.3470   -3.6980 C   0  0  0  0  0
   69.6460   19.1480   -2.4060 C   0  0  0  0  0
   70.1020   18.6060   -1.3960 O   0  0  0  0  0
   70.7550   18.3990   -4.5360 C   0  0  0  0  0
   72.0640   17.9330   -3.8890 C   0  0  0  0  0
   72.0120   16.4510   -3.5220 C   0  0  0  0  0
   73.2370   18.2210   -4.8060 C   0  0  0  0  0
   69.2810   20.4310   -2.4610 N   0  0  0  0  0
   69.2700   21.3330   -1.3050 C   0  0  0  0  0
   68.4370   20.7640   -0.1480 C   0  0  0  0  0
   68.8230   20.8720    1.0170 O   0  0  0  0  0
   68.7290   22.7010   -1.7300 C   0  0  0  0  0
   69.0880   23.8580   -0.8080 C   0  0  0  0  0
   69.0380   25.4810   -1.6220 S   0  0  0  0  0
   67.2800   25.6830   -1.9380 C   0  0  0  0  0
   67.3000   20.1590   -0.4850 N   0  0  0  0  0
   66.4360   19.4910    0.4840 C   0  0  0  0  0
   67.1460   18.2980    1.1290 C   0  0  0  0  0
   67.1420   18.1630    2.3530 O   0  0  0  0  0
   65.1450   19.0280   -0.2000 C   0  0  0  0  0
   64.0470   18.5710    0.7420 C   0  0  0  0  0
   62.8570   18.0220   -0.0300 C   0  0  0  0  0
   62.0140   19.0690   -0.6090 N   0  0  0  0  0
   60.9610   19.6120   -0.0020 C   0  0  0  0  0
   60.6140   19.2220    1.2160 N   0  0  0  0  0
   60.2530   20.5530   -0.6130 N   0  0  0  0  0
   67.7550   17.4500    0.2960 N   0  0  0  0  0
   68.4590   16.2440    0.7490 C   0  0  0  0  0
   69.5690   16.5800    1.7500 C   0  0  0  0  0
   69.6890   15.9260    2.7920 O   0  0  0  0  0
   69.0330   15.4280   -0.4480 C   0  0  0  0  0
   69.9170   14.2780    0.0300 C   0  0  0  0  0
   67.9150   14.8980   -1.3210 C   0  0  0  0  0
   70.3570   17.6050    1.4260 N   0  0  0  0  0
   71.4540   18.0750    2.2770 C   0  0  0  0  0
   70.9740   18.6150    3.6260 C   0  0  0  0  0
   71.6000   18.3570    4.6590 O   0  0  0  0  0
   72.2790   19.1410    1.5440 C   0  0  0  0  0
   73.0880   18.5880    0.3740 C   0  0  0  0  0
   73.5960   19.6630   -0.5670 C   0  0  0  0  0
   72.9670   20.7100   -0.7370 O   0  0  0  0  0
   74.7370   19.4020   -1.1950 N   0  0  0  0  0
   69.8650   19.3540    3.6100 N   0  0  0  0  0
   69.2960   19.9470    4.8220 C   0  0  0  0  0
   68.7240   18.8890    5.7650 C   0  0  0  0  0
   68.7750   19.0450    6.9880 O   0  0  0  0  0
   68.2350   20.9780    4.4670 C   0  0  0  0  0
   68.1850   17.8180    5.1880 N   0  0  0  0  0
   67.6460   16.7050    5.9620 C   0  0  0  0  0
   68.7590   15.8540    6.5640 C   0  0  0  0  0
   68.6560   15.4220    7.7120 O   0  0  0  0  0
   66.7120   15.8550    5.1010 C   0  0  0  0  0
   65.3830   16.4970    4.8370 C   0  0  0  0  0
   64.1870   15.8760    5.1280 N   0  0  0  0  0
   65.0610   17.7090    4.3250 C   0  0  0  0  0
   63.1870   16.6720    4.7950 C   0  0  0  0  0
   63.6900   17.7910    4.3060 N   0  0  0  0  0
   69.8170   15.6250    5.7870 N   0  0  0  0  0
   71.0040   14.9140    6.2600 C   0  0  0  0  0
   71.6060   15.6170    7.4800 C   0  0  0  0  0
   71.9480   14.9730    8.4730 O   0  0  0  0  0
   72.0640   14.7740    5.1370 C   0  0  0  0  0
   71.6560   13.6710    4.1560 C   0  0  0  0  0
   73.4500   14.4780    5.7190 C   0  0  0  0  0
   72.4410   13.6750    2.8480 C   0  0  0  0  0
   71.7140   16.9400    7.3950 N   0  0  0  0  0
   72.2480   17.7580    8.4780 C   0  0  0  0  0
   71.3560   17.7470    9.7210 C   0  0  0  0  0
   71.8560   17.8250   10.8440 O   0  0  0  0  0
   72.4540   19.1960    8.0000 C   0  0  0  0  0
   73.6820   19.4150    7.1410 C   0  0  0  0  0
   73.9230   20.8960    6.9020 C   0  0  0  0  0
   75.1880   21.1310    6.2100 N   0  0  0  0  0
   75.3040   21.4060    4.9140 C   0  0  0  0  0
   74.2280   21.4940    4.1400 N   0  0  0  0  0
   76.5050   21.5980    4.3880 N   0  0  0  0  0
   70.0420   17.6450    9.5150 N   0  0  0  0  0
   69.0810   17.6080   10.6230 C   0  0  0  0  0
   69.2070   16.3300   11.4580 C   0  0  0  0  0
   68.8090   16.3040   12.6220 O   0  0  0  0  0
   67.6450   17.7790   10.1170 C   0  0  0  0  0
   66.6990   18.3440   11.1700 C   0  0  0  0  0
   65.2380   18.0840   10.8430 C   0  0  0  0  0
   64.3530   18.4590   12.0270 C   0  0  0  0  0
   62.9100   18.1950   11.7730 N   0  3  0  0  0
   69.7600   15.2780   10.8570 N   0  0  0  0  0
   70.0880   14.0460   11.5750 C   0  0  0  0  0
   71.4070   14.1750   12.3450 C   0  0  0  0  0
   72.0630   13.1700   12.6340 O   0  0  0  0  0
   70.1540   12.8580   10.6060 C   0  0  0  0  0
   68.8720   12.0430   10.5030 C   0  0  0  0  0
   67.8810   12.6440    9.5180 C   0  0  0  0  0
   66.7130   11.7840    9.3310 N   0  0  0  0  0
   66.6410   10.7800    8.4590 C   0  0  0  0  0
   67.6730   10.4880    7.6760 N   0  0  0  0  0
   65.5300   10.0620    8.3690 N   0  0  0  0  0
   71.7720   15.4150   12.6790 N   0  0  0  0  0
   73.0280   15.7510   13.3670 C   0  0  0  0  0
   74.2580   15.1590   12.6670 C   0  0  0  0  0
   75.0700   14.4640   13.2840 O   0  0  0  0  0
   72.9840   15.3460   14.8500 C   0  0  0  0  0
   72.0670   16.1990   15.7270 C   0  0  0  0  0
   70.3110   15.8250   15.5300 S   0  0  0  0  0
   69.6150   16.6850   16.9410 C   0  0  0  0  0
   74.3820   15.4400   11.3740 N   0  0  0  0  0
   64.0709   16.8418   -6.7075 H   0  0  0  0  0
   63.4963   18.4084   -7.3293 H   0  0  0  0  0
   65.1807   18.2326   -6.7789 H   0  0  0  0  0
   64.3834   19.2222   -3.5210 H   0  0  0  0  0
   66.1825   18.8590   -5.9190 H   0  0  0  0  0
   65.2558   21.1978   -5.4914 H   0  0  0  0  0
   67.0274   21.1231   -5.2196 H   0  0  0  0  0
   65.9020   22.2141   -3.5045 H   0  0  0  0  0
   68.4931   19.2769   -5.3726 H   0  0  0  0  0
   69.2767   17.3111   -3.4216 H   0  0  0  0  0
   70.9068   19.4542   -4.7632 H   0  0  0  0  0
   70.5841   17.7122   -5.3650 H   0  0  0  0  0
   72.1988   18.4932   -2.9637 H   0  0  0  0  0
   71.1987   16.2810   -2.8165 H   0  0  0  0  0
   71.8428   15.8607   -4.4226 H   0  0  0  0  0
   72.9575   16.1576   -3.0660 H   0  0  0  0  0
   73.0978   17.6922   -5.7489 H   0  0  0  0  0
   73.2947   19.2931   -4.9943 H   0  0  0  0  0
   74.1587   17.8840   -4.3316 H   0  0  0  0  0
   68.9916   20.8074   -3.3638 H   0  0  0  0  0
   70.2934   21.4395   -0.9454 H   0  0  0  0  0
   67.6419   22.6224   -1.7232 H   0  0  0  0  0
   69.1740   22.9250   -2.6995 H   0  0  0  0  0
   70.1098   23.6966   -0.4644 H   0  0  0  0  0
   68.3533   23.8739   -0.0030 H   0  0  0  0  0
   66.9316   24.8721   -2.5776 H   0  0  0  0  0
   66.7374   25.6608   -0.9929 H   0  0  0  0  0
   67.1088   26.6382   -2.4344 H   0  0  0  0  0
   67.0195   20.1623   -1.4657 H   0  0  0  0  0
   66.1922   20.2043    1.2713 H   0  0  0  0  0
   65.4072   18.1687   -0.8172 H   0  0  0  0  0
   64.7535   19.8863   -0.7460 H   0  0  0  0  0
   63.7158   19.4253    1.3324 H   0  0  0  0  0
   64.4421   17.7818    1.3816 H   0  0  0  0  0
   62.2440   17.4524    0.6685 H   0  0  0  0  0
   63.2451   17.4184   -0.8505 H   0  0  0  0  0
   62.2497   19.4060   -1.5424 H   0  0  0  0  0
   61.1549   18.5015    1.6943 H   0  0  0  0  0
   59.4485   20.9704   -0.1452 H   0  0  0  0  0
   60.5132   20.8590   -1.5506 H   0  0  0  0  0
   67.7297   17.6501   -0.7039 H   0  0  0  0  0
   67.7220   15.6226    1.2577 H   0  0  0  0  0
   69.6502   16.1054   -1.0381 H   0  0  0  0  0
   70.7510   14.6780    0.6067 H   0  0  0  0  0
   69.3299   13.6060    0.6560 H   0  0  0  0  0
   70.2988   13.7321   -0.8327 H   0  0  0  0  0
   67.2700   14.2488   -0.7289 H   0  0  0  0  0
   67.3329   15.7332   -1.7106 H   0  0  0  0  0
   68.3401   14.3319   -2.1498 H   0  0  0  0  0
   70.1884   18.0860    0.5425 H   0  0  0  0  0
   72.0796   17.2077    2.4879 H   0  0  0  0  0
   72.9851   19.5590    2.2615 H   0  0  0  0  0
   71.5812   19.8752    1.1414 H   0  0  0  0  0
   72.4320   17.9326   -0.1989 H   0  0  0  0  0
   73.9566   18.0757    0.7877 H   0  0  0  0  0
   75.1264   20.0814   -1.8486 H   0  0  0  0  0
   75.2238   18.5222   -1.0237 H   0  0  0  0  0
   69.3944   19.5127    2.7191 H   0  0  0  0  0
   70.1085   20.4460    5.3501 H   0  0  0  0  0
   68.6845   21.7674    3.8646 H   0  0  0  0  0
   67.4375   20.4967    3.9009 H   0  0  0  0  0
   67.8255   21.4060    5.3820 H   0  0  0  0  0
   68.1474   17.7736    4.1697 H   0  0  0  0  0
   67.0689   17.1202    6.7883 H   0  0  0  0  0
   66.5238   14.9279    5.6425 H   0  0  0  0  0
   67.2002   15.7092    4.1374 H   0  0  0  0  0
   65.7595   18.4761    3.9905 H   0  0  0  0  0
   62.1268   16.4441    4.9051 H   0  0  0  0  0
   69.7981   15.9591    4.8235 H   0  0  0  0  0
   70.6933   13.9115    6.5543 H   0  0  0  0  0
   72.1163   15.7227    4.6028 H   0  0  0  0  0
   70.6089   13.8371    3.9029 H   0  0  0  0  0
   71.8518   12.7170    4.6455 H   0  0  0  0  0
   73.7469   15.2928    6.3794 H   0  0  0  0  0
   73.4143   13.5460    6.2831 H   0  0  0  0  0
   74.1714   14.3854    4.9071 H   0  0  0  0  0
   72.2919   14.6274    2.3392 H   0  0  0  0  0
   73.5010   13.5377    3.0615 H   0  0  0  0  0
   72.0890   12.8628    2.2120 H   0  0  0  0  0
   71.4109   17.4014    6.5373 H   0  0  0  0  0
   73.2048   17.3207    8.7631 H   0  0  0  0  0
   72.5806   19.8092    8.8922 H   0  0  0  0  0
   71.5905   19.4501    7.3853 H   0  0  0  0  0
   73.5272   18.9264    6.1790 H   0  0  0  0  0
   74.5477   18.9987    7.6562 H   0  0  0  0  0
   73.9608   21.3988    7.8684 H   0  0  0  0  0
   73.1142   21.2803    6.2805 H   0  0  0  0  0
   76.0448   21.0805    6.7611 H   0  0  0  0  0
   74.3295   21.7081    3.1479 H   0  0  0  0  0
   73.3003   21.3475    4.5378 H   0  0  0  0  0
   77.3356   21.5346    4.9766 H   0  0  0  0  0
   69.6946   17.5911    8.5575 H   0  0  0  0  0
   69.3220   18.4484   11.2740 H   0  0  0  0  0
   67.2747   16.7930    9.8361 H   0  0  0  0  0
   67.6702   18.4825    9.2848 H   0  0  0  0  0
   66.8470   19.4232   11.2093 H   0  0  0  0  0
   66.9225   17.8554   12.1184 H   0  0  0  0  0
   65.1066   17.0245   10.6232 H   0  0  0  0  0
   64.9539   18.6890    9.9819 H   0  0  0  0  0
   64.4708   19.5275   12.2073 H   0  0  0  0  0
   64.6592   17.8518   12.8789 H   0  0  0  0  0
   62.3670   18.4629   12.5938 H   0  0  0  0  0
   62.6025   18.7402   10.9676 H   0  0  0  0  0
   62.7754   17.2017   11.5842 H   0  0  0  0  0
   69.9625   15.3332    9.8588 H   0  0  0  0  0
   69.2935   13.8683   12.2998 H   0  0  0  0  0
   70.9256   12.1863   10.9822 H   0  0  0  0  0
   70.3470   13.2692    9.6152 H   0  0  0  0  0
   68.4025   12.0269   11.4866 H   0  0  0  0  0
   69.1339   11.0450   10.1516 H   0  0  0  0  0
   68.3803   12.7582    8.5558 H   0  0  0  0  0
   67.5421   13.6014    9.9137 H   0  0  0  0  0
   65.8938   11.9665    9.9107 H   0  0  0  0  0
   67.6071    9.7166    7.0120 H   0  0  0  0  0
   68.5315   11.0352    7.7386 H   0  0  0  0  0
   64.7326   10.2791    8.9669 H   0  0  0  0  0
   71.1390   16.1788   12.4418 H   0  0  0  0  0
   73.1277   16.8353   13.3173 H   0  0  0  0  0
   73.9946   15.4688   15.2394 H   0  0  0  0  0
   72.5959   14.3281   14.8864 H   0  0  0  0  0
   72.2121   17.2385   15.4330 H   0  0  0  0  0
   72.3279   15.9933   16.7651 H   0  0  0  0  0
   70.0450   16.2829   17.8583 H   0  0  0  0  0
   69.8443   17.7480   16.8663 H   0  0  0  0  0
   68.5341   16.5451   16.9532 H   0  0  0  0  0
   75.1758   15.0761   10.8468 H   0  0  0  0  0
   73.6834   16.0196   10.9088 H   0  0  0  0  0
  1  2  1  0  0  0
  1  3  2  0  0  0
  1  4  1  0  0  0
  4  5  1  0  0  0
  5  6  1  0  0  0
  5  8  1  0  0  0
  6  7  2  0  0  0
  6 10  1  0  0  0
  8  9  1  0  0  0
 10 11  1  0  0  0
 11 12  1  0  0  0
 11 14  1  0  0  0
 12 13  2  0  0  0
 12 18  1  0  0  0
 14 15  1  0  0  0
 15 16  1  0  0  0
 15 17  1  0  0  0
 18 19  1  0  0  0
 19 20  1  0  0  0
 19 22  1  0  0  0
 20 21  2  0  0  0
 20 26  1  0  0  0
 22 23  1  0  0  0
 23 24  1  0  0  0
 24 25  1  0  0  0
 26 27  1  0  0  0
 27 28  1  0  0  0
 27 30  1  0  0  0
 28 29  2  0  0  0
 28 37  1  0  0  0
 30 31  1  0  0  0
 31 32  1  0  0  0
 32 33  1  0  0  0
 33 34  1  0  0  0
 34 35  2  0  0  0
 34 36  1  0  0  0
 37 38  1  0  0  0
 38 39  1  0  0  0
 38 41  1  0  0  0
 39 40  2  0  0  0
 39 44  1  0  0  0
 41 42  1  0  0  0
 41 43  1  0  0  0
 44 45  1  0  0  0
 45 46  1  0  0  0
 45 48  1  0  0  0
 46 47  2  0  0  0
 46 53  1  0  0  0
 48 49  1  0  0  0
 49 50  1  0  0  0
 50 51  2  0  0  0
 50 52  1  0  0  0
 53 54  1  0  0  0
 54 55  1  0  0  0
 54 57  1  0  0  0
 55 56  2  0  0  0
 55 58  1  0  0  0
 58 59  1  0  0  0
 59 60  1  0  0  0
 59 62  1  0  0  0
 60 61  2  0  0  0
 60 68  1  0  0  0
 62 63  1  0  0  0
 63 64  4  0  0  0
 63 65  4  0  0  0
 64 66  4  0  0  0
 65 67  4  0  0  0
 66 67  4  0  0  0
 68 69  1  0  0  0
 69 70  1  0  0  0
 69 72  1  0  0  0
 70 71  2  0  0  0
 70 76  1  0  0  0
 72 73  1  0  0  0
 72 74  1  0  0  0
 73 75  1  0  0  0
 76 77  1  0  0  0
 77 78  1  0  0  0
 77 80  1  0  0  0
 78 79  2  0  0  0
 78 87  1  0  0  0
 80 81  1  0  0  0
 81 82  1  0  0  0
 82 83  1  0  0  0
 83 84  1  0  0  0
 84 85  1  0  0  0
 84 86  2  0  0  0
 87 88  1  0  0  0
 88 89  1  0  0  0
 88 91  1  0  0  0
 89 90  2  0  0  0
 89 96  1  0  0  0
 91 92  1  0  0  0
 92 93  1  0  0  0
 93 94  1  0  0  0
 94 95  1  0  0  0
 96 97  1  0  0  0
 97 98  1  0  0  0
 97100  1  0  0  0
 98 99  2  0  0  0
 98107  1  0  0  0
100101  1  0  0  0
101102  1  0  0  0
102103  1  0  0  0
103104  1  0  0  0
104105  1  0  0  0
104106  2  0  0  0
107108  1  0  0  0
108109  1  0  0  0
108111  1  0  0  0
109110  2  0  0  0
109115  1  0  0  0
111112  1  0  0  0
112113  1  0  0  0
113114  1  0  0  0
  2116  1  0  0  0
  2117  1  0  0  0
  2118  1  0  0  0
  4119  1  0  0  0
  5120  1  0  0  0
  8121  1  0  0  0
  8122  1  0  0  0
  9123  1  0  0  0
 10124  1  0  0  0
 11125  1  0  0  0
 14126  1  0  0  0
 14127  1  0  0  0
 15128  1  0  0  0
 16129  1  0  0  0
 16130  1  0  0  0
 16131  1  0  0  0
 17132  1  0  0  0
 17133  1  0  0  0
 17134  1  0  0  0
 18135  1  0  0  0
 19136  1  0  0  0
 22137  1  0  0  0
 22138  1  0  0  0
 23139  1  0  0  0
 23140  1  0  0  0
 25141  1  0  0  0
 25142  1  0  0  0
 25143  1  0  0  0
 26144  1  0  0  0
 27145  1  0  0  0
 30146  1  0  0  0
 30147  1  0  0  0
 31148  1  0  0  0
 31149  1  0  0  0
 32150  1  0  0  0
 32151  1  0  0  0
 33152  1  0  0  0
 35153  1  0  0  0
 36154  1  0  0  0
 36155  1  0  0  0
 37156  1  0  0  0
 38157  1  0  0  0
 41158  1  0  0  0
 42159  1  0  0  0
 42160  1  0  0  0
 42161  1  0  0  0
 43162  1  0  0  0
 43163  1  0  0  0
 43164  1  0  0  0
 44165  1  0  0  0
 45166  1  0  0  0
 48167  1  0  0  0
 48168  1  0  0  0
 49169  1  0  0  0
 49170  1  0  0  0
 52171  1  0  0  0
 52172  1  0  0  0
 53173  1  0  0  0
 54174  1  0  0  0
 57175  1  0  0  0
 57176  1  0  0  0
 57177  1  0  0  0
 58178  1  0  0  0
 59179  1  0  0  0
 62180  1  0  0  0
 62181  1  0  0  0
 65182  1  0  0  0
 66183  1  0  0  0
 68184  1  0  0  0
 69185  1  0  0  0
 72186  1  0  0  0
 73187  1  0  0  0
 73188  1  0  0  0
 74189  1  0  0  0
 74190  1  0  0  0
 74191  1  0  0  0
 75192  1  0  0  0
 75193  1  0  0  0
 75194  1  0  0  0
 76195  1  0  0  0
 77196  1  0  0  0
 80197  1  0  0  0
 80198  1  0  0  0
 81199  1  0  0  0
 81200  1  0  0  0
 82201  1  0  0  0
 82202  1  0  0  0
 83203  1  0  0  0
 85204  1  0  0  0
 85205  1  0  0  0
 86206  1  0  0  0
 87207  1  0  0  0
 88208  1  0  0  0
 91209  1  0  0  0
 91210  1  0  0  0
 92211  1  0  0  0
 92212  1  0  0  0
 93213  1  0  0  0
 93214  1  0  0  0
 94215  1  0  0  0
 94216  1  0  0  0
 95217  1  0  0  0
 95218  1  0  0  0
 95219  1  0  0  0
 96220  1  0  0  0
 97221  1  0  0  0
100222  1  0  0  0
100223  1  0  0  0
101224  1  0  0  0
101225  1  0  0  0
102226  1  0  0  0
102227  1  0  0  0
103228  1  0  0  0
105229  1  0  0  0
105230  1  0  0  0
106231  1  0  0  0
107232  1  0  0  0
108233  1  0  0  0
111234  1  0  0  0
111235  1  0  0  0
112236  1  0  0  0
112237  1  0  0  0
114238  1  0  0  0
114239  1  0  0  0
114240  1  0  0  0
115241  1  0  0  0
115242  1  0  0  0
M  END
$$$$
