### 
### Created by X-TOOL on Mon Sep 10 21:12:55 2018
### 

@<TRIPOS>MOLECULE
2auc_ligand
  246   246     1     0     0
SMALL
GAST_HUCK


@<TRIPOS>ATOM
      1 C1A        63.7390   18.3230   -5.2190 C.2       1 SAC         0.1752
      2 C2A        64.1500   17.9240   -6.6040 C.3       1 SAC         0.0258
      3 OAC        62.6170   18.0750   -4.8070 O.2       1 SAC        -0.3972
      4 N          64.6470   18.9500   -4.4680 N.am      1 SAC        -0.2637
      5 CA         65.9960   19.2680   -4.9260 C.3       1 SAC         0.1538
      6 C          67.0760   18.6660   -4.0530 C.2       1 SAC         0.2062
      7 O          66.7910   18.0780   -3.0200 O.2       1 SAC        -0.3943
      8 CB         66.0510   20.7920   -4.8660 C.3       1 SAC         0.0843
      9 OG         65.8640   21.2550   -3.5200 O.3       1 SAC        -0.3903
     10 N          68.3270   18.8180   -4.4770 N.am      1 LEU        -0.2636
     11 CA         69.4730   18.3470   -3.6980 C.3       1 LEU         0.1312
     12 C          69.6460   19.1480   -2.4060 C.2       1 LEU         0.2039
     13 O          70.1020   18.6060   -1.3960 O.2       1 LEU        -0.3944
     14 CB         70.7550   18.3990   -4.5360 C.3       1 LEU        -0.0101
     15 CG         72.0640   17.9330   -3.8890 C.3       1 LEU        -0.0425
     16 CD1        72.0120   16.4510   -3.5220 C.3       1 LEU        -0.0625
     17 CD2        73.2370   18.2210   -4.8060 C.3       1 LEU        -0.0625
     18 N          69.2810   20.4310   -2.4610 N.am      1 MET        -0.2637
     19 CA         69.2700   21.3330   -1.3050 C.3       1 MET         0.1317
     20 C          68.4370   20.7640   -0.1480 C.2       1 MET         0.2039
     21 O          68.8230   20.8720    1.0170 O.2       1 MET        -0.3944
     22 CB         68.7290   22.7010   -1.7300 C.3       1 MET        -0.0034
     23 CG         69.0880   23.8580   -0.8080 C.3       1 MET        -0.0024
     24 SD         69.0380   25.4810   -1.6220 S.3       1 MET        -0.1639
     25 CE         67.2800   25.6830   -1.9380 C.3       1 MET        -0.0181
     26 N          67.3000   20.1590   -0.4850 N.am      1 ARG        -0.2637
     27 CA         66.4360   19.4910    0.4840 C.3       1 ARG         0.1311
     28 C          67.1460   18.2980    1.1290 C.2       1 ARG         0.2039
     29 O          67.1420   18.1630    2.3530 O.2       1 ARG        -0.3944
     30 CB         65.1450   19.0280   -0.2000 C.3       1 ARG        -0.0092
     31 CG         64.0470   18.5710    0.7420 C.3       1 ARG        -0.0156
     32 CD         62.8570   18.0220   -0.0300 C.3       1 ARG         0.0627
     33 NE         62.0140   19.0690   -0.6090 N.pl3     1 ARG        -0.2723
     34 CZ         60.9610   19.6120   -0.0020 C.cat     1 ARG         0.2882
     35 NH1        60.6140   19.2220    1.2160 N.pl3     1 ARG        -0.2849
     36 NH2        60.2530   20.5530   -0.6130 N.pl3     1 ARG        -0.2849
     37 N          67.7550   17.4500    0.2960 N.am      1 VAL        -0.2635
     38 CA         68.4590   16.2440    0.7490 C.3       1 VAL         0.1332
     39 C          69.5690   16.5800    1.7500 C.2       1 VAL         0.2042
     40 O          69.6890   15.9260    2.7920 O.2       1 VAL        -0.3944
     41 CB         69.0330   15.4280   -0.4480 C.3       1 VAL        -0.0063
     42 CG1        69.9170   14.2780    0.0300 C.3       1 VAL        -0.0584
     43 CG2        67.9150   14.8980   -1.3210 C.3       1 VAL        -0.0584
     44 N          70.3570   17.6050    1.4260 N.am      1 GLN        -0.2636
     45 CA         71.4540   18.0750    2.2770 C.3       1 GLN         0.1330
     46 C          70.9740   18.6150    3.6260 C.2       1 GLN         0.2040
     47 O          71.6000   18.3570    4.6590 O.2       1 GLN        -0.3944
     48 CB         72.2790   19.1410    1.5440 C.3       1 GLN         0.0045
     49 CG         73.0880   18.5880    0.3740 C.3       1 GLN         0.0412
     50 CD         73.5960   19.6630   -0.5670 C.2       1 GLN         0.1737
     51 OE1        72.9670   20.7100   -0.7370 O.2       1 GLN        -0.3973
     52 NE2        74.7370   19.4020   -1.1950 N.am      1 GLN        -0.3009
     53 N          69.8650   19.3540    3.6100 N.am      1 ALA        -0.2640
     54 CA         69.2960   19.9470    4.8220 C.3       1 ALA         0.1282
     55 C          68.7240   18.8890    5.7650 C.2       1 ALA         0.2037
     56 O          68.7750   19.0450    6.9880 O.2       1 ALA        -0.3944
     57 CB         68.2350   20.9780    4.4670 C.3       1 ALA        -0.0244
     58 N          68.1850   17.8180    5.1880 N.am      1 HIS        -0.2625
     59 CA         67.6460   16.7050    5.9620 C.3       1 HIS         0.1369
     60 C          68.7590   15.8540    6.5640 C.2       1 HIS         0.2054
     61 O          68.6560   15.4220    7.7120 O.2       1 HIS        -0.3942
     62 CB         66.7120   15.8550    5.1010 C.3       1 HIS         0.0145
     63 CG         65.3830   16.4970    4.8370 C.2       1 HIS        -0.0027
     64 ND1        64.1870   15.8760    5.1280 N.2       1 HIS        -0.3252
     65 CD2        65.0610   17.7090    4.3250 C.2       1 HIS         0.0291
     66 CE1        63.1870   16.6720    4.7950 C.2       1 HIS         0.0907
     67 NE2        63.6900   17.7910    4.3060 N.pl3     1 HIS        -0.2752
     68 N          69.8170   15.6250    5.7870 N.am      1 ILE        -0.2634
     69 CA         71.0040   14.9140    6.2600 C.3       1 ILE         0.1335
     70 C          71.6060   15.6170    7.4800 C.2       1 ILE         0.2042
     71 O          71.9480   14.9730    8.4730 O.2       1 ILE        -0.3944
     72 CB         72.0640   14.7740    5.1370 C.3       1 ILE        -0.0037
     73 CG1        71.6560   13.6710    4.1560 C.3       1 ILE        -0.0491
     74 CG2        73.4500   14.4780    5.7190 C.3       1 ILE        -0.0582
     75 CD1        72.4410   13.6750    2.8480 C.3       1 ILE        -0.0648
     76 N          71.7140   16.9400    7.3950 N.am      1 ARG        -0.2637
     77 CA         72.2480   17.7580    8.4780 C.3       1 ARG         0.1311
     78 C          71.3560   17.7470    9.7210 C.2       1 ARG         0.2039
     79 O          71.8560   17.8250   10.8440 O.2       1 ARG        -0.3944
     80 CB         72.4540   19.1960    8.0000 C.3       1 ARG        -0.0092
     81 CG         73.6820   19.4150    7.1410 C.3       1 ARG        -0.0156
     82 CD         73.9230   20.8960    6.9020 C.3       1 ARG         0.0627
     83 NE         75.1880   21.1310    6.2100 N.pl3     1 ARG        -0.2723
     84 CZ         75.3040   21.4060    4.9140 C.cat     1 ARG         0.2882
     85 NH1        74.2280   21.4940    4.1400 N.pl3     1 ARG        -0.2849
     86 NH2        76.5050   21.5980    4.3880 N.pl3     1 ARG        -0.2849
     87 N          70.0420   17.6450    9.5150 N.am      1 LYS        -0.2637
     88 CA         69.0810   17.6080   10.6230 C.3       1 LYS         0.1310
     89 C          69.2070   16.3300   11.4580 C.2       1 LYS         0.2039
     90 O          68.8090   16.3040   12.6220 O.2       1 LYS        -0.3944
     91 CB         67.6450   17.7790   10.1170 C.3       1 LYS        -0.0122
     92 CG         66.6990   18.3440   11.1700 C.3       1 LYS        -0.0440
     93 CD         65.2380   18.0840   10.8430 C.3       1 LYS        -0.0124
     94 CE         64.3530   18.4590   12.0270 C.3       1 LYS        -0.0354
     95 NZ         62.9100   18.1950   11.7730 N.4       1 LYS         0.2185
     96 N          69.7600   15.2780   10.8570 N.am      1 ARG        -0.2637
     97 CA         70.0880   14.0460   11.5750 C.3       1 ARG         0.1311
     98 C          71.4070   14.1750   12.3450 C.2       1 ARG         0.2039
     99 O          72.0630   13.1700   12.6340 O.2       1 ARG        -0.3944
    100 CB         70.1540   12.8580   10.6060 C.3       1 ARG        -0.0092
    101 CG         68.8720   12.0430   10.5030 C.3       1 ARG        -0.0156
    102 CD         67.8810   12.6440    9.5180 C.3       1 ARG         0.0627
    103 NE         66.7130   11.7840    9.3310 N.pl3     1 ARG        -0.2723
    104 CZ         66.6410   10.7800    8.4590 C.cat     1 ARG         0.2882
    105 NH1        67.6730   10.4880    7.6760 N.pl3     1 ARG        -0.2849
    106 NH2        65.5300   10.0620    8.3690 N.pl3     1 ARG        -0.2849
    107 N          71.7720   15.4150   12.6790 N.am      1 MET        -0.2637
    108 CA         73.0280   15.7510   13.3670 C.3       1 MET         0.1314
    109 C          74.2580   15.1590   12.6670 C.2       1 MET         0.1992
    110 O          75.0700   14.4640   13.2840 O.2       1 MET        -0.3947
    111 CB         72.9840   15.3460   14.8500 C.3       1 MET        -0.0034
    112 CG         72.0670   16.1990   15.7270 C.3       1 MET        -0.0024
    113 SD         70.3110   15.8250   15.5300 S.3       1 MET        -0.1639
    114 CE         69.6150   16.6850   16.9410 C.3       1 MET        -0.0181
    115 N          74.3820   15.4400   11.3740 N.am      1 VAL        -0.2990
    116 H1         65.1901   18.2350   -6.7817 H         1 SAC         0.0467
    117 H2         63.4910   18.4123   -7.3370 H         1 SAC         0.0467
    118 H3         64.0707   16.8320   -6.7098 H         1 SAC         0.0467
    119 H4         64.3886   19.2169   -3.5395 H         1 SAC         0.1883
    120 H5         66.1373   18.9154   -5.9583 H         1 SAC         0.0823
    121 H6         65.2569   21.2072   -5.5040 H         1 SAC         0.0606
    122 H7         67.0309   21.1325   -5.2318 H         1 SAC         0.0606
    123 H8         65.9016   22.2041   -3.5047 H         1 SAC         0.2097
    124 H9         68.4898   19.2679   -5.3551 H         1 LEU         0.1883
    125 H10        69.2864   17.2983   -3.4234 H         1 LEU         0.0800
    126 H11        70.8991   19.4443   -4.8467 H         1 LEU         0.0315
    127 H12        70.5893   17.7719   -5.4244 H         1 LEU         0.0315
    128 H13        72.2068   18.5059   -2.9609 H         1 LEU         0.0298
    129 H14        72.9657   16.1536   -3.0616 H         1 LEU         0.0232
    130 H15        71.8414   15.8541   -4.4301 H         1 LEU         0.0232
    131 H16        71.1916   16.2781   -2.8100 H         1 LEU         0.0232
    132 H17        73.2529   19.2922   -5.0555 H         1 LEU         0.0232
    133 H18        73.1345   17.6311   -5.7288 H         1 LEU         0.0232
    134 H19        74.1744   17.9487   -4.2989 H         1 LEU         0.0232
    135 H20        68.9973   20.8000   -3.3461 H         1 MET         0.1883
    136 H21        70.3048   21.4583   -0.9535 H         1 MET         0.0800
    137 H22        67.6322   22.6326   -1.7781 H         1 MET         0.0320
    138 H23        69.1265   22.9278   -2.7303 H         1 MET         0.0320
    139 H24        70.1054   23.6933   -0.4236 H         1 MET         0.0378
    140 H25        68.3763   23.8678    0.0306 H         1 MET         0.0378
    141 H26        67.1059   26.6467   -2.4390 H         1 MET         0.0340
    142 H27        66.7312   25.6609   -0.9850 H         1 MET         0.0340
    143 H28        66.9271   24.8652   -2.5835 H         1 MET         0.0340
    144 H29        67.0250   20.1622   -1.4464 H         1 ARG         0.1883
    145 H30        66.1774   20.2108    1.2746 H         1 ARG         0.0800
    146 H31        65.3940   18.1887   -0.8660 H         1 ARG         0.0313
    147 H32        64.7555   19.8662   -0.7964 H         1 ARG         0.0313
    148 H33        63.7170   19.4257    1.3507 H         1 ARG         0.0301
    149 H34        64.4428   17.7833    1.3999 H         1 ARG         0.0301
    150 H35        62.2438   17.4183    0.6552 H         1 ARG         0.0689
    151 H36        63.2321   17.3848   -0.8444 H         1 ARG         0.0689
    152 H37        62.2520   19.4093   -1.5516 H         1 ARG         0.2642
    153 H38        59.7981   19.6464    1.6798 H         1 ARG         0.2615
    154 H39        61.1602   18.4945    1.6990 H         1 ARG         0.2615
    155 H40        60.5158   20.8620   -1.5598 H         1 ARG         0.2615
    156 H41        59.4406   20.9745   -0.1406 H         1 ARG         0.2615
    157 H42        67.7302   17.6462   -0.6843 H         1 VAL         0.1883
    158 H43        67.7249   15.6079    1.2652 H         1 VAL         0.0802
    159 H44        69.6521   16.1053   -1.0547 H         1 VAL         0.0343
    160 H45        70.3030   13.7263   -0.8398 H         1 VAL         0.0234
    161 H46        69.3256   13.5990    0.6619 H         1 VAL         0.0234
    162 H47        70.7591   14.6803    0.6122 H         1 VAL         0.0234
    163 H48        67.2857   15.7345   -1.6589 H         1 VAL         0.0234
    164 H49        67.3035   14.1891   -0.7435 H         1 VAL         0.0234
    165 H50        68.3436   14.3854   -2.1948 H         1 VAL         0.0234
    166 H51        70.1917   18.0765    0.5598 H         1 GLN         0.1883
    167 H52        72.1093   17.2147    2.4780 H         1 GLN         0.0801
    168 H53        72.9748   19.5978    2.2631 H         1 GLN         0.0337
    169 H54        71.5920   19.9093    1.1597 H         1 GLN         0.0337
    170 H55        72.4491   17.8982   -0.1969 H         1 GLN         0.0504
    171 H56        73.9525   18.0393    0.7760 H         1 GLN         0.0504
    172 H57        75.1235   20.0720   -1.8288 H         1 GLN         0.1814
    173 H58        75.2095   18.5355   -1.0340 H         1 GLN         0.1814
    174 H59        69.4036   19.5095    2.7365 H         1 ALA         0.1883
    175 H60        70.1079   20.4648    5.3537 H         1 ALA         0.0797
    176 H61        67.8210   21.4107    5.3897 H         1 ALA         0.0277
    177 H62        67.4295   20.4935    3.8957 H         1 ALA         0.0277
    178 H63        68.6874   21.7753    3.8590 H         1 ALA         0.0277
    179 H64        68.1481   17.7745    4.1896 H         1 HIS         0.1885
    180 H65        67.0566   17.1237    6.7910 H         1 HIS         0.0817
    181 H66        66.5392   14.8987    5.6164 H         1 HIS         0.0420
    182 H67        67.2047   15.6674    4.1356 H         1 HIS         0.0420
    183 H68        65.7588   18.4753    3.9908 H         1 HIS         0.0729
    184 H69        62.1278   16.4443    4.9050 H         1 HIS         0.1199
    185 H70        63.1430   18.5947    3.9657 H         1 HIS         0.2361
    186 H71        69.7985   15.9526    4.8424 H         1 ILE         0.1883
    187 H72        70.6954   13.9031    6.5645 H         1 ILE         0.0803
    188 H73        72.1151   15.7266    4.5894 H         1 ILE         0.0345
    189 H74        70.5895   13.7979    3.9185 H         1 ILE         0.0267
    190 H75        71.8092   12.6987    4.6471 H         1 ILE         0.0267
    191 H76        73.7310   15.2767    6.4212 H         1 ILE         0.0235
    192 H77        74.1873   14.4301    4.9041 H         1 ILE         0.0235
    193 H78        73.4268   13.5147    6.2496 H         1 ILE         0.0235
    194 H79        72.0866   12.8557    2.2052 H         1 ILE         0.0230
    195 H80        73.5110   13.5365    3.0621 H         1 ILE         0.0230
    196 H81        72.2914   14.6356    2.3335 H         1 ILE         0.0230
    197 H82        71.4169   17.3923    6.5541 H         1 ARG         0.1883
    198 H83        73.2267   17.3434    8.7614 H         1 ARG         0.0800
    199 H84        72.5382   19.8416    8.8866 H         1 ARG         0.0313
    200 H85        71.5708   19.4908    7.4142 H         1 ARG         0.0313
    201 H86        73.5377   18.9134    6.1728 H         1 ARG         0.0301
    202 H87        74.5578   18.9857    7.6495 H         1 ARG         0.0301
    203 H88        73.9450   21.4150    7.8716 H         1 ARG         0.0689
    204 H89        73.1017   21.2970    6.2900 H         1 ARG         0.0689
    205 H90        76.0532   21.0800    6.7665 H         1 ARG         0.2642
    206 H91        74.3307   21.7076    3.1376 H         1 ARG         0.2615
    207 H92        73.2910   21.3487    4.5422 H         1 ARG         0.2615
    208 H93        77.3439   21.5314    4.9818 H         1 ARG         0.2615
    209 H94        76.5996   21.8138    3.3853 H         1 ARG         0.2615
    210 H95        69.7014   17.5921    8.5763 H         1 LYS         0.1883
    211 H96        69.3072   18.4585   11.2829 H         1 LYS         0.0800
    212 H97        67.2671   16.7960    9.7994 H         1 LYS         0.0312
    213 H98        67.6573   18.4629    9.2555 H         1 LYS         0.0312
    214 H99        66.8566   19.4305   11.2386 H         1 LYS         0.0269
    215 H100       66.9314   17.8779   12.1388 H         1 LYS         0.0269
    216 H101       65.1025   17.0169   10.6130 H         1 LYS         0.0317
    217 H102       64.9493   18.6870    9.9695 H         1 LYS         0.0317
    218 H103       64.4827   19.5308   12.2376 H         1 LYS         0.0813
    219 H104       64.6691   17.8724   12.9022 H         1 LYS         0.0813
    220 H105       62.3723   18.4594   12.5836 H         1 LYS         0.1994
    221 H106       62.7757   17.2136   11.5863 H         1 LYS         0.1994
    222 H107       62.6049   18.7333   10.9773 H         1 LYS         0.1994
    223 H108       69.9585   15.3321    9.8784 H         1 ARG         0.1883
    224 H109       69.2859   13.8532   12.3026 H         1 ARG         0.0800
    225 H110       70.9590   12.1876   10.9415 H         1 ARG         0.0313
    226 H111       70.3934   13.2463    9.6051 H         1 ARG         0.0313
    227 H112       68.4006   11.9988   11.4959 H         1 ARG         0.0301
    228 H113       69.1259   11.0252   10.1720 H         1 ARG         0.0301
    229 H114       68.3814   12.7810    8.5480 H         1 ARG         0.0689
    230 H115       67.5471   13.6202    9.8995 H         1 ARG         0.0689
    231 H116       65.8858   11.9682    9.9164 H         1 ARG         0.2642
    232 H117       67.6063    9.7093    7.0051 H         1 ARG         0.2615
    233 H118       68.5401   11.0402    7.7395 H         1 ARG         0.2615
    234 H119       64.7247   10.2815    8.9725 H         1 ARG         0.2615
    235 H120       65.4723    9.2847    7.6956 H         1 ARG         0.2615
    236 H121       71.1514   16.1638   12.4464 H         1 MET         0.1883
    237 H122       73.1317   16.8455   13.3306 H         1 MET         0.0800
    238 H123       74.0048   15.4174   15.2535 H         1 MET         0.0320
    239 H124       72.6386   14.3033   14.9087 H         1 MET         0.0320
    240 H125       72.2269   17.2564   15.4696 H         1 MET         0.0378
    241 H126       72.3407   16.0323   16.7793 H         1 MET         0.0378
    242 H127       68.5241   16.5446   16.9544 H         1 MET         0.0340
    243 H128       69.8456   17.7580   16.8668 H         1 MET         0.0340
    244 H129       70.0482   16.2800   17.8675 H         1 MET         0.0340
    245 H130       75.1614   15.0851   10.8577 H         1 VAL         0.1815
    246 H131       73.6959   16.0063   10.9174 H         1 VAL         0.1815
@<TRIPOS>BOND
     1    1    2 1  
     2    1    3 2  
     3    1    4 am 
     4    4    5 1  
     5    5    6 1  
     6    5    8 1  
     7    6    7 2  
     8    6   10 am 
     9    8    9 1  
    10   10   11 1  
    11   11   12 1  
    12   11   14 1  
    13   12   13 2  
    14   12   18 am 
    15   14   15 1  
    16   15   16 1  
    17   15   17 1  
    18   18   19 1  
    19   19   20 1  
    20   19   22 1  
    21   20   21 2  
    22   20   26 am 
    23   22   23 1  
    24   23   24 1  
    25   24   25 1  
    26   26   27 1  
    27   27   28 1  
    28   27   30 1  
    29   28   29 2  
    30   28   37 am 
    31   30   31 1  
    32   31   32 1  
    33   32   33 1  
    34   33   34 ar 
    35   34   35 ar 
    36   34   36 ar 
    37   37   38 1  
    38   38   39 1  
    39   38   41 1  
    40   39   40 2  
    41   39   44 am 
    42   41   42 1  
    43   41   43 1  
    44   44   45 1  
    45   45   46 1  
    46   45   48 1  
    47   46   47 2  
    48   46   53 am 
    49   48   49 1  
    50   49   50 1  
    51   50   51 2  
    52   50   52 am 
    53   53   54 1  
    54   54   55 1  
    55   54   57 1  
    56   55   56 2  
    57   55   58 am 
    58   58   59 1  
    59   59   60 1  
    60   59   62 1  
    61   60   61 2  
    62   60   68 am 
    63   62   63 1  
    64   63   64 1  
    65   63   65 2  
    66   64   66 2  
    67   65   67 1  
    68   66   67 1  
    69   68   69 1  
    70   69   70 1  
    71   69   72 1  
    72   70   71 2  
    73   70   76 am 
    74   72   73 1  
    75   72   74 1  
    76   73   75 1  
    77   76   77 1  
    78   77   78 1  
    79   77   80 1  
    80   78   79 2  
    81   78   87 am 
    82   80   81 1  
    83   81   82 1  
    84   82   83 1  
    85   83   84 ar 
    86   84   85 ar 
    87   84   86 ar 
    88   87   88 1  
    89   88   89 1  
    90   88   91 1  
    91   89   90 2  
    92   89   96 am 
    93   91   92 1  
    94   92   93 1  
    95   93   94 1  
    96   94   95 1  
    97   96   97 1  
    98   97   98 1  
    99   97  100 1  
   100   98   99 2  
   101   98  107 am 
   102  100  101 1  
   103  101  102 1  
   104  102  103 1  
   105  103  104 ar 
   106  104  105 ar 
   107  104  106 ar 
   108  107  108 1  
   109  108  109 1  
   110  108  111 1  
   111  109  110 2  
   112  109  115 am 
   113  111  112 1  
   114  112  113 1  
   115  113  114 1  
   116    2  116 1  
   117    2  117 1  
   118    2  118 1  
   119    4  119 1  
   120    5  120 1  
   121    8  121 1  
   122    8  122 1  
   123    9  123 1  
   124   10  124 1  
   125   11  125 1  
   126   14  126 1  
   127   14  127 1  
   128   15  128 1  
   129   16  129 1  
   130   16  130 1  
   131   16  131 1  
   132   17  132 1  
   133   17  133 1  
   134   17  134 1  
   135   18  135 1  
   136   19  136 1  
   137   22  137 1  
   138   22  138 1  
   139   23  139 1  
   140   23  140 1  
   141   25  141 1  
   142   25  142 1  
   143   25  143 1  
   144   26  144 1  
   145   27  145 1  
   146   30  146 1  
   147   30  147 1  
   148   31  148 1  
   149   31  149 1  
   150   32  150 1  
   151   32  151 1  
   152   33  152 1  
   153   35  153 1  
   154   35  154 1  
   155   36  155 1  
   156   36  156 1  
   157   37  157 1  
   158   38  158 1  
   159   41  159 1  
   160   42  160 1  
   161   42  161 1  
   162   42  162 1  
   163   43  163 1  
   164   43  164 1  
   165   43  165 1  
   166   44  166 1  
   167   45  167 1  
   168   48  168 1  
   169   48  169 1  
   170   49  170 1  
   171   49  171 1  
   172   52  172 1  
   173   52  173 1  
   174   53  174 1  
   175   54  175 1  
   176   57  176 1  
   177   57  177 1  
   178   57  178 1  
   179   58  179 1  
   180   59  180 1  
   181   62  181 1  
   182   62  182 1  
   183   65  183 1  
   184   66  184 1  
   185   67  185 1  
   186   68  186 1  
   187   69  187 1  
   188   72  188 1  
   189   73  189 1  
   190   73  190 1  
   191   74  191 1  
   192   74  192 1  
   193   74  193 1  
   194   75  194 1  
   195   75  195 1  
   196   75  196 1  
   197   76  197 1  
   198   77  198 1  
   199   80  199 1  
   200   80  200 1  
   201   81  201 1  
   202   81  202 1  
   203   82  203 1  
   204   82  204 1  
   205   83  205 1  
   206   85  206 1  
   207   85  207 1  
   208   86  208 1  
   209   86  209 1  
   210   87  210 1  
   211   88  211 1  
   212   91  212 1  
   213   91  213 1  
   214   92  214 1  
   215   92  215 1  
   216   93  216 1  
   217   93  217 1  
   218   94  218 1  
   219   94  219 1  
   220   95  220 1  
   221   95  221 1  
   222   95  222 1  
   223   96  223 1  
   224   97  224 1  
   225  100  225 1  
   226  100  226 1  
   227  101  227 1  
   228  101  228 1  
   229  102  229 1  
   230  102  230 1  
   231  103  231 1  
   232  105  232 1  
   233  105  233 1  
   234  106  234 1  
   235  106  235 1  
   236  107  236 1  
   237  108  237 1  
   238  111  238 1  
   239  111  239 1  
   240  112  240 1  
   241  112  241 1  
   242  114  242 1  
   243  114  243 1  
   244  114  244 1  
   245  115  245 1  
   246  115  246 1  
@<TRIPOS>SUBSTRUCTURE
     1 SAC         1

