6sze_ligand
  -I-interpret- 

 25 26  0  0  0  0  0  0  0  0999 V2000
  -40.4910   37.8770   -4.5070 N   0  0  0  0  0
  -40.3880   36.7070   -3.8800 C   0  0  0  0  0
  -40.6510   35.6080   -4.3610 O   0  0  0  0  0
  -39.8980   36.7900   -2.4830 C   0  0  0  0  0
  -39.4530   37.8880   -1.7060 C   0  0  0  0  0
  -39.0910   37.5090   -0.4720 N   0  0  0  0  0
  -39.3010   36.1410   -0.4470 N   0  0  0  0  0
  -39.7900   35.6870   -1.6390 C   0  0  0  0  0
  -40.0920   34.3820   -1.8810 N   0  0  0  0  0
  -38.9230   35.3760    0.7080 C   0  0  0  0  0
  -38.1980   34.2090    0.5560 C   0  0  0  0  0
  -37.8630   33.4500    1.6600 C   0  0  0  0  0
  -38.2530   33.8710    2.9140 C   0  0  0  0  0
  -38.9710   35.0460    3.0580 C   0  0  0  0  0
  -39.3160   35.8040    1.9550 C   0  0  0  0  0
  -40.8131   37.9107   -5.4742 H   0  0  0  0  0
  -40.2478   38.7397   -4.0201 H   0  0  0  0  0
  -39.4102   38.9155   -2.0674 H   0  0  0  0  0
  -40.4545   34.1030   -2.7927 H   0  0  0  0  0
  -39.9558   33.6831   -1.1507 H   0  0  0  0  0
  -37.8897   33.8867   -0.4386 H   0  0  0  0  0
  -37.2957   32.5269    1.5414 H   0  0  0  0  0
  -37.9959   33.2785    3.7920 H   0  0  0  0  0
  -39.2677   35.3772    4.0532 H   0  0  0  0  0
  -39.8889   36.7240    2.0710 H   0  0  0  0  0
  1  2  1  0  0  0
  2  3  2  0  0  0
  2  4  1  0  0  0
  4  5  4  0  0  0
  4  8  4  0  0  0
  5  6  4  0  0  0
  6  7  4  0  0  0
  7  8  4  0  0  0
  7 10  1  0  0  0
  8  9  1  0  0  0
 10 11  4  0  0  0
 10 15  4  0  0  0
 11 12  4  0  0  0
 12 13  4  0  0  0
 13 14  4  0  0  0
 14 15  4  0  0  0
  1 16  1  0  0  0
  1 17  1  0  0  0
  5 18  1  0  0  0
  9 19  1  0  0  0
  9 20  1  0  0  0
 11 21  1  0  0  0
 12 22  1  0  0  0
 13 23  1  0  0  0
 14 24  1  0  0  0
 15 25  1  0  0  0
M  END
$$$$
