3f6e_ligand
  -I-interpret- 

 62 64  0  0  0  0  0  0  0  0999 V2000
   64.4320   57.7560  157.5260 C   0  0  0  0  0
   63.9260   59.0520  157.4030 C   0  0  0  0  0
   64.2370   60.0260  158.3710 C   0  0  0  0  0
   65.0040   59.7110  159.4230 N   0  0  0  0  0
   65.5210   58.4760  159.5680 C   0  0  0  0  0
   65.2530   57.4720  158.6260 C   0  0  0  0  0
   65.8230   56.2120  158.7890 C   0  0  0  0  0
   65.1030   55.0590  158.9690 C   0  0  0  0  0
   65.7620   53.8200  159.1380 C   0  0  0  0  0
   65.5950   52.8290  158.1540 O   0  0  0  0  0
   66.4820   53.4590  160.4850 C   0  0  0  0  0
   65.9630   54.2980  162.0240 S   0  0  0  0  0
   66.4580   52.8900  163.0010 C   0  0  0  0  0
   66.2640   52.9320  164.4500 C   0  0  0  0  0
   67.2580   53.8180  165.2560 C   0  0  0  0  0
   66.8430   53.6320  166.6480 O   0  0  0  0  0
   67.4140   54.6360  167.7020 P   0  0  0  0  0
   67.2470   53.9400  168.9950 O   0  0  0  0  0
   68.7840   55.1650  167.4130 O   0  0  0  0  0
   66.5800   55.8650  167.6330 O   0  0  0  0  0
   64.8450   56.0590  167.7980 P   0  0  0  0  0
   64.2240   55.7100  166.4380 O   0  0  0  0  0
   64.4580   55.0980  168.9060 O   0  0  0  0  0
   64.6480   57.4570  168.1550 O   0  0  0  0  0
   66.8630   51.8840  162.1600 C   0  0  0  0  0
   67.3700   50.5200  162.7110 C   0  0  0  0  0
   66.8900   52.1940  160.8490 N   0  3  0  0  0
   67.4540   51.2040  159.8520 C   0  0  0  0  0
   69.0080   51.2820  159.6610 C   0  0  0  0  0
   69.7020   50.1070  159.8180 C   0  0  0  0  0
   71.0470   50.0890  159.6520 N   0  0  0  0  0
   71.5800   51.2490  159.2670 C   0  0  0  0  0
   73.1190   51.1910  159.0170 C   0  0  0  0  0
   70.9520   52.4060  159.0330 N   0  0  0  0  0
   69.6030   52.4590  159.1820 C   0  0  0  0  0
   69.0630   53.5930  158.9120 N   0  0  0  0  0
   64.1956   56.9886  156.7889 H   0  0  0  0  0
   63.2895   59.3097  156.5565 H   0  0  0  0  0
   63.8522   61.0402  158.2639 H   0  0  0  0  0
   66.1546   58.2542  160.4268 H   0  0  0  0  0
   66.9103   56.1376  158.7725 H   0  0  0  0  0
   64.0138   55.0982  158.9819 H   0  0  0  0  0
   66.7152   54.2585  158.8427 H   0  0  0  0  0
   66.0965   52.0481  158.3995 H   0  0  0  0  0
   66.4116   51.9120  164.8048 H   0  0  0  0  0
   65.2757   53.3629  164.6107 H   0  0  0  0  0
   67.2243   54.8634  164.9493 H   0  0  0  0  0
   68.2966   53.5315  165.0910 H   0  0  0  0  0
   68.7850   55.5960  166.5552 H   0  0  0  0  0
   64.3783   54.7822  166.2457 H   0  0  0  0  0
   64.6092   54.1963  168.6133 H   0  0  0  0  0
   68.2442   50.6862  163.3405 H   0  0  0  0  0
   66.5810   50.0513  163.2991 H   0  0  0  0  0
   67.6387   49.8704  161.8780 H   0  0  0  0  0
   67.0033   51.4336  158.8865 H   0  0  0  0  0
   67.2303   50.2074  160.2325 H   0  0  0  0  0
   69.1717   49.1903  160.0758 H   0  0  0  0  0
   73.6242   50.8944  159.9362 H   0  0  0  0  0
   73.3313   50.4638  158.2333 H   0  0  0  0  0
   73.4728   52.1744  158.7075 H   0  0  0  0  0
   68.0599   53.7242  159.0426 H   0  0  0  0  0
   69.6373   54.3621  158.5671 H   0  0  0  0  0
  1  2  4  0  0  0
  1  6  4  0  0  0
  2  3  4  0  0  0
  3  4  4  0  0  0
  4  5  4  0  0  0
  5  6  4  0  0  0
  6  7  1  0  0  0
  7  8  2  0  0  0
  8  9  1  0  0  0
  9 10  1  0  0  0
  9 11  1  0  0  0
 11 12  4  0  0  0
 11 27  4  0  0  0
 12 13  4  0  0  0
 13 14  1  0  0  0
 13 25  4  0  0  0
 14 15  1  0  0  0
 15 16  1  0  0  0
 16 17  1  0  0  0
 17 18  2  0  0  0
 17 19  1  0  0  0
 17 20  1  0  0  0
 20 21  1  0  0  0
 21 22  1  0  0  0
 21 23  1  0  0  0
 21 24  2  0  0  0
 25 26  1  0  0  0
 25 27  4  0  0  0
 27 28  1  0  0  0
 28 29  1  0  0  0
 29 30  4  0  0  0
 29 35  4  0  0  0
 30 31  4  0  0  0
 31 32  4  0  0  0
 32 33  1  0  0  0
 32 34  4  0  0  0
 34 35  4  0  0  0
 35 36  1  0  0  0
  1 37  1  0  0  0
  2 38  1  0  0  0
  3 39  1  0  0  0
  5 40  1  0  0  0
  7 41  1  0  0  0
  8 42  1  0  0  0
  9 43  1  0  0  0
 10 44  1  0  0  0
 14 45  1  0  0  0
 14 46  1  0  0  0
 15 47  1  0  0  0
 15 48  1  0  0  0
 19 49  1  0  0  0
 22 50  1  0  0  0
 23 51  1  0  0  0
 26 52  1  0  0  0
 26 53  1  0  0  0
 26 54  1  0  0  0
 28 55  1  0  0  0
 28 56  1  0  0  0
 30 57  1  0  0  0
 33 58  1  0  0  0
 33 59  1  0  0  0
 33 60  1  0  0  0
 36 61  1  0  0  0
 36 62  1  0  0  0
M  END
$$$$
