3sug_ligand
  -I-interpret- 

104110  0  0  0  0  0  0  0  0999 V2000
   15.9210   -8.6300  -14.6730 C   0  0  0  0  0
   18.2600   -8.6740  -15.0540 N   0  0  0  0  0
   15.6600   -7.8240  -15.5690 O   0  0  0  0  0
   17.1780   -8.5580  -14.0380 C   0  0  0  0  0
   17.3230   -7.2340  -13.2460 C   0  0  0  0  0
   18.6490   -9.9170  -15.5810 C   0  0  0  0  0
   12.5980  -14.0620  -13.9810 N   0  0  0  0  0
   11.5160  -17.1310  -15.6570 C   0  0  0  0  0
   10.9690  -15.6610  -13.3430 C   0  0  0  0  0
   20.5540  -11.4150  -18.3670 C   0  0  0  0  0
   19.3490  -12.1500  -17.7880 C   0  0  0  0  0
   20.1740  -11.2100  -16.8930 C   0  0  0  0  0
    6.5420   -7.2390  -13.2840 C   0  0  0  0  0
    7.1300   -8.3130  -14.0340 C   0  0  0  0  0
    7.9780   -5.5640  -15.5020 O   0  0  0  0  0
    8.9300   -6.0650  -14.4250 S   0  0  0  0  0
   12.1740   -6.4320  -16.4570 C   0  0  0  0  0
   13.1860   -7.5420  -14.0400 O   0  0  0  0  0
   13.0750   -8.2740  -15.0230 C   0  0  0  0  0
   18.5690   -7.3250  -12.3550 C   0  0  0  0  0
   13.2890   -4.0230  -16.3130 C   0  0  0  0  0
   12.2070  -15.9470  -15.3890 C   0  0  0  0  0
   19.4800  -13.6650  -17.4650 C   0  0  0  0  0
   10.2130   -6.6520  -15.0170 N   0  0  0  0  0
   13.3560   -5.4920  -16.7180 C   0  0  0  0  0
   17.0810  -13.6550  -17.0520 C   0  0  0  0  0
   10.5480  -17.5720  -14.7590 C   0  0  0  0  0
   14.2470  -12.4700  -14.6710 O   0  0  0  0  0
    8.8400  -16.3750  -11.7840 C   0  0  0  0  0
    9.3230  -17.3130  -12.7470 O   0  0  0  0  0
   18.4180  -14.0390  -16.4550 C   0  0  0  0  0
   16.0600  -14.5620  -16.4420 C   0  0  0  0  0
   13.5300  -13.6230  -14.8500 C   0  0  0  0  0
   13.8060  -14.3650  -16.0060 C   0  0  0  0  0
   11.9390  -15.2100  -14.2320 C   0  0  0  0  0
   13.1330  -15.5020  -16.2480 N   0  0  0  0  0
   14.7530  -13.9690  -16.9250 C   0  0  0  0  0
   10.2670  -16.8410  -13.6070 C   0  0  0  0  0
    9.3790   -4.9220  -13.4960 O   0  0  0  0  0
    7.9750   -7.3420  -13.3240 C   0  0  0  0  0
   10.3740   -4.8070  -16.2880 O   0  0  0  0  0
   12.4720   -5.9500  -17.8280 C   0  0  0  0  0
   10.8520   -5.8710  -15.8840 C   0  0  0  0  0
   12.5580   -7.8490  -16.2050 N   0  0  0  0  0
   14.4530   -3.3850  -15.5380 C   0  0  0  0  0
   18.0850  -10.9390  -15.1840 O   0  0  0  0  0
   19.6400   -9.9090  -16.5260 O   0  0  0  0  0
   12.7510  -10.5300  -14.1140 C   0  0  0  0  0
   13.5850   -9.5930  -14.9700 C   0  0  0  0  0
   14.9670   -9.5200  -14.3360 N   0  0  0  0  0
   15.0340  -10.5940  -13.3110 C   0  0  0  0  0
   13.8460  -11.4990  -13.6370 C   0  0  0  0  0
   16.0820   -7.0180  -12.3660 C   0  0  0  0  0
   17.4730   -6.0100  -14.1630 C   0  0  0  0  0
   18.7314   -7.8287  -15.3760 H   0  0  0  0  0
   17.2589   -9.3834  -13.3307 H   0  0  0  0  0
   11.7323  -17.7032  -16.5592 H   0  0  0  0  0
   10.7555  -15.0927  -12.4377 H   0  0  0  0  0
   20.7960  -10.8066  -19.2384 H   0  0  0  0  0
   21.4426  -11.6438  -18.9553 H   0  0  0  0  0
   18.3057  -12.2376  -18.0914 H   0  0  0  0  0
   20.6660  -11.3228  -15.9269 H   0  0  0  0  0
    5.6498   -6.7191  -12.9350 H   0  0  0  0  0
    7.0263   -9.1962  -14.6644 H   0  0  0  0  0
   18.6787   -6.3991  -11.7903 H   0  0  0  0  0
   18.4605   -8.1620  -11.6653 H   0  0  0  0  0
   19.4497   -7.4782  -12.9787 H   0  0  0  0  0
   12.4430   -3.9677  -15.6279 H   0  0  0  0  0
   13.2617   -3.4809  -17.2583 H   0  0  0  0  0
   20.4690  -13.8723  -17.0564 H   0  0  0  0  0
   19.3481  -14.2504  -18.3750 H   0  0  0  0  0
   10.5551   -7.5790  -14.7641 H   0  0  0  0  0
   14.4203   -5.5242  -16.4847 H   0  0  0  0  0
   17.0956  -13.7613  -18.1367 H   0  0  0  0  0
   16.8477  -12.6112  -16.8417 H   0  0  0  0  0
   10.0059  -18.4963  -14.9588 H   0  0  0  0  0
    9.6700  -16.0283  -11.1684 H   0  0  0  0  0
    8.3891  -15.5269  -12.2992 H   0  0  0  0  0
    8.0937  -16.8566  -11.1522 H   0  0  0  0  0
   18.5826  -13.5170  -15.5124 H   0  0  0  0  0
   18.4508  -15.1071  -16.2399 H   0  0  0  0  0
   16.1289  -14.6082  -15.3552 H   0  0  0  0  0
   16.1878  -15.6036  -16.7366 H   0  0  0  0  0
   14.5045  -14.3150  -17.9283 H   0  0  0  0  0
   14.8099  -12.8828  -16.9964 H   0  0  0  0  0
    8.7650   -7.3933  -12.5748 H   0  0  0  0  0
   11.9241   -5.4968  -18.6541 H   0  0  0  0  0
   12.5927   -6.3838  -18.8206 H   0  0  0  0  0
   12.4270   -8.5301  -16.9529 H   0  0  0  0  0
   14.5922   -3.9128  -14.5945 H   0  0  0  0  0
   15.3643   -3.4537  -16.1321 H   0  0  0  0  0
   14.2251   -2.3377  -15.3397 H   0  0  0  0  0
   11.9249  -11.0072  -14.6412 H   0  0  0  0  0
   12.2024  -10.0386  -13.3105 H   0  0  0  0  0
   13.5868   -9.9847  -15.9872 H   0  0  0  0  0
   14.9830  -10.1980  -12.2967 H   0  0  0  0  0
   15.9813  -11.1324  -13.3410 H   0  0  0  0  0
   13.4904  -12.0930  -12.7951 H   0  0  0  0  0
   15.9770   -7.8555  -11.6763 H   0  0  0  0  0
   16.1952   -6.0926  -11.8013 H   0  0  0  0  0
   15.1966   -6.9533  -12.9984 H   0  0  0  0  0
   17.5641   -5.1105  -13.5542 H   0  0  0  0  0
   18.3653   -6.1257  -14.7783 H   0  0  0  0  0
   16.5957   -5.9287  -14.8047 H   0  0  0  0  0
  1  3  2  0  0  0
  4  1  1  0  0  0
  1 50  1  0  0  0
  2  4  1  0  0  0
  6  2  1  0  0  0
  4  5  1  0  0  0
  5 20  1  0  0  0
  5 53  1  0  0  0
  5 54  1  0  0  0
  6 46  2  0  0  0
 47  6  1  0  0  0
 33  7  4  0  0  0
  7 35  4  0  0  0
 22  8  4  0  0  0
  8 27  4  0  0  0
 35  9  4  0  0  0
  9 38  4  0  0  0
 11 10  1  0  0  0
 12 10  1  0  0  0
 11 12  1  0  0  0
 23 11  1  0  0  0
 12 47  1  0  0  0
 14 13  2  0  0  0
 40 13  1  0  0  0
 40 14  1  0  0  0
 16 15  2  0  0  0
 24 16  1  0  0  0
 16 39  2  0  0  0
 16 40  1  0  0  0
 17 25  1  0  0  0
 17 42  1  0  0  0
 17 43  1  0  0  0
 44 17  1  0  0  0
 19 18  2  0  0  0
 19 44  1  0  0  0
 49 19  1  0  0  0
 25 21  1  0  0  0
 21 45  1  0  0  0
 35 22  4  0  0  0
 36 22  4  0  0  0
 31 23  1  0  0  0
 43 24  1  0  0  0
 42 25  1  0  0  0
 26 31  1  0  0  0
 32 26  1  0  0  0
 38 27  4  0  0  0
 28 33  1  0  0  0
 52 28  1  0  0  0
 30 29  1  0  0  0
 38 30  1  0  0  0
 37 32  1  0  0  0
 33 34  4  0  0  0
 34 36  4  0  0  0
 34 37  1  0  0  0
 43 41  2  0  0  0
 48 49  1  0  0  0
 48 52  1  0  0  0
 49 50  1  0  0  0
 50 51  1  0  0  0
 51 52  1  0  0  0
  2 55  1  0  0  0
  4 56  1  0  0  0
  8 57  1  0  0  0
  9 58  1  0  0  0
 10 59  1  0  0  0
 10 60  1  0  0  0
 11 61  1  0  0  0
 12 62  1  0  0  0
 13 63  1  0  0  0
 14 64  1  0  0  0
 20 65  1  0  0  0
 20 66  1  0  0  0
 20 67  1  0  0  0
 21 68  1  0  0  0
 21 69  1  0  0  0
 23 70  1  0  0  0
 23 71  1  0  0  0
 24 72  1  0  0  0
 25 73  1  0  0  0
 26 74  1  0  0  0
 26 75  1  0  0  0
 27 76  1  0  0  0
 29 77  1  0  0  0
 29 78  1  0  0  0
 29 79  1  0  0  0
 31 80  1  0  0  0
 31 81  1  0  0  0
 32 82  1  0  0  0
 32 83  1  0  0  0
 37 84  1  0  0  0
 37 85  1  0  0  0
 40 86  1  0  0  0
 42 87  1  0  0  0
 42 88  1  0  0  0
 44 89  1  0  0  0
 45 90  1  0  0  0
 45 91  1  0  0  0
 45 92  1  0  0  0
 48 93  1  0  0  0
 48 94  1  0  0  0
 49 95  1  0  0  0
 51 96  1  0  0  0
 51 97  1  0  0  0
 52 98  1  0  0  0
 53 99  1  0  0  0
 53100  1  0  0  0
 53101  1  0  0  0
 54102  1  0  0  0
 54103  1  0  0  0
 54104  1  0  0  0
M  END
$$$$
