3u7n_ligand
  -I-interpret- 

 57 57  0  0  0  0  0  0  0  0999 V2000
  -16.9580  144.7670   44.8290 C   0  0  0  0  0
  -16.7670  146.6210   46.4120 N   0  0  0  0  0
  -15.8150  144.9660   44.4470 O   0  0  0  0  0
  -17.5340  145.4220   46.0940 C   0  0  0  0  0
  -18.9640  145.8550   45.8320 C   0  0  0  0  0
  -16.8230  140.2560   47.1780 C   0  0  0  0  0
   -9.9100  147.7240   49.2510 C   0  0  0  0  0
  -18.5890  141.3520   40.6660 O   0  0  0  0  0
  -15.0590  145.5100   47.2730 O   0  0  0  0  0
  -19.9250  143.6130   41.6290 O   0  0  0  0  0
  -18.0630  142.2380   41.3220 C   0  0  0  0  0
  -12.1690  146.8860   49.3110 C   0  0  0  0  0
  -13.4530  146.8840   48.7930 C   0  0  0  0  0
  -11.5300  148.5080   47.6820 C   0  0  0  0  0
  -17.1300  140.5570   45.7300 C   0  0  0  0  0
  -17.0460  142.0550   45.5380 C   0  0  0  0  0
  -17.4700  142.4080   44.1170 C   0  0  0  0  0
  -17.9000  144.3320   42.5900 C   0  0  0  0  0
  -12.8250  148.4830   47.1840 N   0  0  0  0  0
  -14.9550  147.7290   47.1960 N   0  0  0  0  0
  -15.5680  146.5740   46.9730 C   0  0  0  0  0
  -11.2010  147.7040   48.7520 C   0  0  0  0  0
  -13.7550  147.7010   47.7230 C   0  0  0  0  0
  -17.9030  143.8780   44.0420 C   0  0  0  0  0
  -18.6380  143.3550   41.8130 N   0  0  0  0  0
  -18.9330  147.1560   45.0410 C   0  0  0  0  0
  -19.6490  146.1090   47.1630 C   0  0  0  0  0
  -17.1700  147.5322   46.1937 H   0  0  0  0  0
  -17.4898  144.7045   46.9133 H   0  0  0  0  0
  -19.4997  145.0846   45.2774 H   0  0  0  0  0
  -15.8209  140.6118   47.4172 H   0  0  0  0  0
  -17.5504  140.7597   47.8146 H   0  0  0  0  0
  -16.8770  139.1800   47.3435 H   0  0  0  0  0
   -9.9306  148.0321   50.2963 H   0  0  0  0  0
   -9.4763  146.7270   49.1732 H   0  0  0  0  0
   -9.3101  148.4285   48.6750 H   0  0  0  0  0
  -20.1463  144.4472   42.0493 H   0  0  0  0  0
  -17.0019  142.1107   41.5363 H   0  0  0  0  0
  -11.9204  146.2452   50.1570 H   0  0  0  0  0
  -14.2194  146.2419   49.2272 H   0  0  0  0  0
  -10.7798  149.1576   47.2310 H   0  0  0  0  0
  -18.1271  140.1991   45.4734 H   0  0  0  0  0
  -16.4150  140.0526   45.0800 H   0  0  0  0  0
  -16.0211  142.3864   45.7049 H   0  0  0  0  0
  -17.7072  142.5507   46.2488 H   0  0  0  0  0
  -18.3082  141.7743   43.8273 H   0  0  0  0  0
  -16.6274  142.2498   43.4439 H   0  0  0  0  0
  -16.8769  144.4104   42.2222 H   0  0  0  0  0
  -18.3662  145.3133   42.5015 H   0  0  0  0  0
  -15.4049  148.6145   46.9638 H   0  0  0  0  0
  -18.9028  143.9594   44.4685 H   0  0  0  0  0
  -19.9529  147.5017   44.8726 H   0  0  0  0  0
  -18.3811  147.9088   45.6038 H   0  0  0  0  0
  -18.4429  146.9854   44.0825 H   0  0  0  0  0
  -19.0942  146.8661   47.7171 H   0  0  0  0  0
  -20.6660  146.4590   46.9858 H   0  0  0  0  0
  -19.6769  145.1836   47.7382 H   0  0  0  0  0
  1  3  2  0  0  0
  4  1  1  0  0  0
  1 24  1  0  0  0
  2  4  1  0  0  0
 21  2  1  0  0  0
  4  5  1  0  0  0
  5 26  1  0  0  0
  5 27  1  0  0  0
 15  6  1  0  0  0
 22  7  1  0  0  0
 11  8  2  0  0  0
 21  9  2  0  0  0
 25 10  1  0  0  0
 25 11  1  0  0  0
 13 12  4  0  0  0
 12 22  4  0  0  0
 23 13  4  0  0  0
 19 14  4  0  0  0
 14 22  4  0  0  0
 16 15  1  0  0  0
 17 16  1  0  0  0
 24 17  1  0  0  0
 24 18  1  0  0  0
 18 25  1  0  0  0
 23 19  4  0  0  0
 20 21  1  0  0  0
 20 23  1  0  0  0
  2 28  1  0  0  0
  4 29  1  0  0  0
  5 30  1  0  0  0
  6 31  1  0  0  0
  6 32  1  0  0  0
  6 33  1  0  0  0
  7 34  1  0  0  0
  7 35  1  0  0  0
  7 36  1  0  0  0
 10 37  1  0  0  0
 11 38  1  0  0  0
 12 39  1  0  0  0
 13 40  1  0  0  0
 14 41  1  0  0  0
 15 42  1  0  0  0
 15 43  1  0  0  0
 16 44  1  0  0  0
 16 45  1  0  0  0
 17 46  1  0  0  0
 17 47  1  0  0  0
 18 48  1  0  0  0
 18 49  1  0  0  0
 20 50  1  0  0  0
 24 51  1  0  0  0
 26 52  1  0  0  0
 26 53  1  0  0  0
 26 54  1  0  0  0
 27 55  1  0  0  0
 27 56  1  0  0  0
 27 57  1  0  0  0
M  END
$$$$
