### 
### Created by X-TOOL on Mon Sep 10 21:13:07 2018
### 

@<TRIPOS>MOLECULE
3mxy_ligand
  113   115     1     0     0
SMALL
GAST_HUCK


@<TRIPOS>ATOM
      1 N          41.9100   10.3920   13.5870 N.4       1 GLY         0.2357
      2 CA         40.7540   11.0680   13.0180 C.3       1 GLY         0.0545
      3 C          39.5020   10.2270   13.1520 C.2       1 GLY         0.2238
      4 O          39.5730    9.0540   13.5170 O.2       1 GLY        -0.3910
      5 N          38.3490   10.8170   12.8580 N.am      1 PTR        -0.2582
      6 CA         37.0840   10.0990   12.9580 C.3       1 PTR         0.1469
      7 C          36.2850   10.2460   11.6560 C.2       1 PTR         0.2074
      8 O          36.4100   11.2510   10.9580 O.2       1 PTR        -0.3941
      9 CB         36.2890   10.6180   14.1740 C.3       1 PTR         0.0400
     10 CG         36.9480   10.3250   15.5210 C.ar      1 PTR        -0.0004
     11 CD1        37.8650   11.2160   16.0990 C.ar      1 PTR        -0.0239
     12 CD2        36.6990    9.1220   16.1890 C.ar      1 PTR        -0.0239
     13 CE1        38.5260   10.9030   17.3120 C.ar      1 PTR         0.0115
     14 CE2        37.3490    8.8000   17.3900 C.ar      1 PTR         0.0115
     15 CZ         38.2710    9.6840   17.9510 C.ar      1 PTR         0.1728
     16 OH         38.9920    9.2880   19.0870 O.3       1 PTR        -0.2040
     17 P          40.2810    8.4220   19.3400 P.3       1 PTR         0.1348
     18 O1P        41.4990    9.2390   19.3230 O.co2     1 PTR        -0.6653
     19 O2P        40.2320    7.3890   18.2330 O.co2     1 PTR        -0.6653
     20 O3P        39.9850    7.8120   20.6780 O.co2     1 PTR        -0.6653
     21 N          35.4760    9.2440   11.3220 N.am      1 VAL        -0.2632
     22 CA         34.6910    9.2810   10.0880 C.3       1 VAL         0.1333
     23 C          33.7140   10.4460   10.0140 C.2       1 VAL         0.2043
     24 O          33.5550   11.0600    8.9630 O.2       1 VAL        -0.3944
     25 CB         33.9090    7.9660    9.8750 C.3       1 VAL        -0.0063
     26 CG1        32.9250    8.1170    8.7160 C.3       1 VAL        -0.0584
     27 CG2        34.8830    6.8320    9.5740 C.3       1 VAL        -0.0584
     28 N          33.0650   10.7510   11.1300 N.am      1 ASN        -0.2616
     29 CA         32.1030   11.8380   11.1800 C.3       1 ASN         0.1478
     30 C          32.7390   13.1590   11.6230 C.2       1 ASN         0.2088
     31 O          33.6400   13.1760   12.4600 O.2       1 ASN        -0.3940
     32 CB         30.9510   11.4570   12.1170 C.3       1 ASN         0.0773
     33 CG         31.4140   11.1560   13.5380 C.2       1 ASN         0.1780
     34 OD1        32.4460   10.5250   13.7540 O.2       1 ASN        -0.3970
     35 ND2        30.6320   11.5910   14.5140 N.am      1 ASN        -0.3007
     36 N          32.2970   14.2850   11.0350 N.am      1 PRO        -0.2497
     37 CA         32.8500   15.5880   11.4120 C.3       1 PRO         0.1338
     38 C          32.5700   15.8560   12.8950 C.2       1 PRO         0.2042
     39 O          31.4590   15.6270   13.3700 O.2       1 PRO        -0.3944
     40 CB         32.1300   16.5580   10.4710 C.3       1 PRO        -0.0104
     41 CG         30.8540   15.8450   10.1330 C.3       1 PRO        -0.0281
     42 CD         31.3000   14.4260    9.9590 C.3       1 PRO         0.0369
     43 N          33.5820   16.3370   13.6150 N.am      1 THR        -0.2613
     44 CA         33.4610   16.5830   15.0490 C.3       1 THR         0.1564
     45 C          33.0100   17.9850   15.4650 C.2       1 THR         0.2060
     46 O          32.8360   18.2530   16.6570 O.2       1 THR        -0.3943
     47 CB         34.7830   16.2270   15.7690 C.3       1 THR         0.0924
     48 OG1        35.8100   17.1480   15.3800 O.3       1 THR        -0.3874
     49 CG2        35.2230   14.8080   15.3930 C.3       1 THR        -0.0346
     50 N          32.8480   18.8770   14.4900 N.am      1 TYR        -0.2678
     51 CA         32.3530   20.2370   14.7300 C.3       1 TYR         0.1025
     52 C          31.8400   20.8090   13.4170 C.2       1 TYR         0.0619
     53 O          32.5780   21.4810   12.6970 O.co2     1 TYR        -0.5665
     54 CB         33.4210   21.1920   15.2900 C.3       1 TYR         0.0108
     55 CG         32.8150   22.5150   15.7610 C.ar      1 TYR        -0.0499
     56 CD1        31.9660   22.5530   16.8710 C.ar      1 TYR        -0.0686
     57 CD2        33.0360   23.7110   15.0660 C.ar      1 TYR        -0.0686
     58 CE1        31.3470   23.7410   17.2760 C.ar      1 TYR        -0.0398
     59 CE2        32.4180   24.9090   15.4670 C.ar      1 TYR        -0.0398
     60 CZ         31.5730   24.9110   16.5710 C.ar      1 TYR         0.0805
     61 OH         30.9400   26.0730   16.9670 O.3       1 TYR        -0.3376
     62 OXT        30.6630   20.5320   13.1040 O.co2     1 TYR        -0.5665
     63 H          42.7344   10.9832   13.4809 H         1 GLY         0.2012
     64 H          41.7440   10.2125   14.5773 H         1 GLY         0.2012
     65 H          42.0591    9.5081   13.1003 H         1 GLY         0.2012
     66 H          40.9419   11.2434   11.9587 H         1 GLY         0.1061
     67 H          40.6014   12.0044   13.5546 H         1 GLY         0.1061
     68 H          38.3485   11.7914   12.5564 H         1 PTR         0.1887
     69 H          37.2774    9.0365   13.1060 H         1 PTR         0.0840
     70 H          35.3245   10.1102   14.1695 H         1 PTR         0.0584
     71 H          36.2216   11.7016   14.0767 H         1 PTR         0.0584
     72 H          38.0723   12.1657   15.6059 H         1 PTR         0.0703
     73 H          35.9827    8.4174   15.7665 H         1 PTR         0.0703
     74 H          39.2321   11.6102   17.7472 H         1 PTR         0.0736
     75 H          37.1325    7.8545   17.8872 H         1 PTR         0.0736
     76 H          35.4016    8.4345   11.9381 H         1 VAL         0.1883
     77 H          35.4280    9.4151    9.2962 H         1 VAL         0.0802
     78 H          33.3525    7.7367   10.7838 H         1 VAL         0.0343
     79 H          32.2211    8.9183    8.9408 H         1 VAL         0.0234
     80 H          33.4728    8.3578    7.8050 H         1 VAL         0.0234
     81 H          32.3816    7.1822    8.5783 H         1 VAL         0.0234
     82 H          35.4462    7.0685    8.6713 H         1 VAL         0.0234
     83 H          35.5701    6.7129   10.4117 H         1 VAL         0.0234
     84 H          34.3264    5.9068    9.4246 H         1 VAL         0.0234
     85 H          33.2462   10.2084   11.9745 H         1 ASN         0.1885
     86 H          31.7228   11.9947   10.1705 H         1 ASN         0.0826
     87 H          30.4855   10.5544   11.7211 H         1 ASN         0.0551
     88 H          30.2664   12.3039   12.1631 H         1 ASN         0.0551
     89 H          30.8786   11.4054   15.4862 H         1 ASN         0.1814
     90 H          29.7830   12.1117   14.2936 H         1 ASN         0.1814
     91 H          33.9320   15.6733   11.3116 H         1 PRO         0.0802
     92 H          32.7210   16.7945    9.5862 H         1 PRO         0.0313
     93 H          31.9536   17.5300   10.9316 H         1 PRO         0.0313
     94 H          30.3666   16.2475    9.2450 H         1 PRO         0.0287
     95 H          30.0898   15.9573   10.9021 H         1 PRO         0.0287
     96 H          30.4850   13.7055   10.0280 H         1 PRO         0.0524
     97 H          31.7021   14.2180    8.9675 H         1 PRO         0.0524
     98 H          34.4675   16.5394   13.1510 H         1 THR         0.1884
     99 H          32.6470   15.9277   15.3591 H         1 THR         0.0826
    100 H          34.6197   16.2853   16.8451 H         1 THR         0.0639
    101 H          35.5467   18.0393   15.6204 H         1 THR         0.2101
    102 H          34.4509   14.0986   15.6909 H         1 THR         0.0257
    103 H          35.3754   14.7498   14.3153 H         1 THR         0.0257
    104 H          36.1546   14.5698   15.9064 H         1 THR         0.0257
    105 H          33.0780   18.6030   13.5348 H         1 TYR         0.1877
    106 H          31.5665   20.1580   15.4805 H         1 TYR         0.0747
    107 H          34.1358   21.4077   14.4959 H         1 TYR         0.0446
    108 H          33.8948   20.7101   16.1452 H         1 TYR         0.0446
    109 H          31.7822   21.6375   17.4332 H         1 TYR         0.0530
    110 H          33.6979   23.7132   14.2000 H         1 TYR         0.0530
    111 H          30.6884   23.7452   18.1445 H         1 TYR         0.0525
    112 H          32.6006   25.8311   14.9151 H         1 TYR         0.0525
    113 H          30.3995   25.8942   17.7400 H         1 TYR         0.2458
@<TRIPOS>BOND
     1    1    2 1  
     2    2    3 1  
     3    3    4 2  
     4    3    5 am 
     5    5    6 1  
     6    6    7 1  
     7    6    9 1  
     8    7    8 2  
     9    7   21 am 
    10    9   10 1  
    11   10   11 ar 
    12   10   12 ar 
    13   11   13 ar 
    14   12   14 ar 
    15   13   15 ar 
    16   14   15 ar 
    17   15   16 1  
    18   16   17 1  
    19   17   18 ar 
    20   17   19 ar 
    21   17   20 ar 
    22   21   22 1  
    23   22   23 1  
    24   22   25 1  
    25   23   24 2  
    26   23   28 am 
    27   25   26 1  
    28   25   27 1  
    29   28   29 1  
    30   29   30 1  
    31   29   32 1  
    32   30   31 2  
    33   30   36 am 
    34   32   33 1  
    35   33   34 2  
    36   33   35 am 
    37   36   37 1  
    38   36   42 1  
    39   37   38 1  
    40   37   40 1  
    41   38   39 2  
    42   38   43 am 
    43   40   41 1  
    44   41   42 1  
    45   43   44 1  
    46   44   45 1  
    47   44   47 1  
    48   45   46 2  
    49   45   50 am 
    50   47   48 1  
    51   47   49 1  
    52   50   51 1  
    53   51   52 1  
    54   51   54 1  
    55   52   53 ar 
    56   52   62 ar 
    57   54   55 1  
    58   55   56 ar 
    59   55   57 ar 
    60   56   58 ar 
    61   57   59 ar 
    62   58   60 ar 
    63   59   60 ar 
    64   60   61 1  
    65    1   63 1  
    66    1   64 1  
    67    1   65 1  
    68    2   66 1  
    69    2   67 1  
    70    5   68 1  
    71    6   69 1  
    72    9   70 1  
    73    9   71 1  
    74   11   72 1  
    75   12   73 1  
    76   13   74 1  
    77   14   75 1  
    78   21   76 1  
    79   22   77 1  
    80   25   78 1  
    81   26   79 1  
    82   26   80 1  
    83   26   81 1  
    84   27   82 1  
    85   27   83 1  
    86   27   84 1  
    87   28   85 1  
    88   29   86 1  
    89   32   87 1  
    90   32   88 1  
    91   35   89 1  
    92   35   90 1  
    93   37   91 1  
    94   40   92 1  
    95   40   93 1  
    96   41   94 1  
    97   41   95 1  
    98   42   96 1  
    99   42   97 1  
   100   43   98 1  
   101   44   99 1  
   102   47  100 1  
   103   48  101 1  
   104   49  102 1  
   105   49  103 1  
   106   49  104 1  
   107   50  105 1  
   108   51  106 1  
   109   54  107 1  
   110   54  108 1  
   111   56  109 1  
   112   57  110 1  
   113   58  111 1  
   114   59  112 1  
   115   61  113 1  
@<TRIPOS>SUBSTRUCTURE
     1 GLY         1

