3mxy_ligand
  -I-interpret- 

116118  0  0  0  0  0  0  0  0999 V2000
   41.9100   10.3920   13.5870 N   0  3  0  0  0
   40.7540   11.0680   13.0180 C   0  0  0  0  0
   39.5020   10.2270   13.1520 C   0  0  0  0  0
   39.5730    9.0540   13.5170 O   0  0  0  0  0
   38.3490   10.8170   12.8580 N   0  0  0  0  0
   37.0840   10.0990   12.9580 C   0  0  0  0  0
   36.2850   10.2460   11.6560 C   0  0  0  0  0
   36.4100   11.2510   10.9580 O   0  0  0  0  0
   36.2890   10.6180   14.1740 C   0  0  0  0  0
   36.9480   10.3250   15.5210 C   0  0  0  0  0
   37.8650   11.2160   16.0990 C   0  0  0  0  0
   36.6990    9.1220   16.1890 C   0  0  0  0  0
   38.5260   10.9030   17.3120 C   0  0  0  0  0
   37.3490    8.8000   17.3900 C   0  0  0  0  0
   38.2710    9.6840   17.9510 C   0  0  0  0  0
   38.9920    9.2880   19.0870 O   0  0  0  0  0
   40.2810    8.4220   19.3400 P   0  0  0  0  0
   41.4990    9.2390   19.3230 O   0  0  0  0  0
   40.2320    7.3890   18.2330 O   0  0  0  0  0
   39.9850    7.8120   20.6780 O   0  0  0  0  0
   35.4760    9.2440   11.3220 N   0  0  0  0  0
   34.6910    9.2810   10.0880 C   0  0  0  0  0
   33.7140   10.4460   10.0140 C   0  0  0  0  0
   33.5550   11.0600    8.9630 O   0  0  0  0  0
   33.9090    7.9660    9.8750 C   0  0  0  0  0
   32.9250    8.1170    8.7160 C   0  0  0  0  0
   34.8830    6.8320    9.5740 C   0  0  0  0  0
   33.0650   10.7510   11.1300 N   0  0  0  0  0
   32.1030   11.8380   11.1800 C   0  0  0  0  0
   32.7390   13.1590   11.6230 C   0  0  0  0  0
   33.6400   13.1760   12.4600 O   0  0  0  0  0
   30.9510   11.4570   12.1170 C   0  0  0  0  0
   31.4140   11.1560   13.5380 C   0  0  0  0  0
   32.4460   10.5250   13.7540 O   0  0  0  0  0
   30.6320   11.5910   14.5140 N   0  0  0  0  0
   32.2970   14.2850   11.0350 N   0  0  0  0  0
   32.8500   15.5880   11.4120 C   0  0  0  0  0
   32.5700   15.8560   12.8950 C   0  0  0  0  0
   31.4590   15.6270   13.3700 O   0  0  0  0  0
   32.1300   16.5580   10.4710 C   0  0  0  0  0
   30.8540   15.8450   10.1330 C   0  0  0  0  0
   31.3000   14.4260    9.9590 C   0  0  0  0  0
   33.5820   16.3370   13.6150 N   0  0  0  0  0
   33.4610   16.5830   15.0490 C   0  0  0  0  0
   33.0100   17.9850   15.4650 C   0  0  0  0  0
   32.8360   18.2530   16.6570 O   0  0  0  0  0
   34.7830   16.2270   15.7690 C   0  0  0  0  0
   35.8100   17.1480   15.3800 O   0  0  0  0  0
   35.2230   14.8080   15.3930 C   0  0  0  0  0
   32.8480   18.8770   14.4900 N   0  0  0  0  0
   32.3530   20.2370   14.7300 C   0  0  0  0  0
   31.8400   20.8090   13.4170 C   0  0  0  0  0
   32.5780   21.4810   12.6970 O   0  0  0  0  0
   33.4210   21.1920   15.2900 C   0  0  0  0  0
   32.8150   22.5150   15.7610 C   0  0  0  0  0
   31.9660   22.5530   16.8710 C   0  0  0  0  0
   33.0360   23.7110   15.0660 C   0  0  0  0  0
   31.3470   23.7410   17.2760 C   0  0  0  0  0
   32.4180   24.9090   15.4670 C   0  0  0  0  0
   31.5730   24.9110   16.5710 C   0  0  0  0  0
   30.9400   26.0730   16.9670 O   0  0  0  0  0
   30.6630   20.5320   13.1040 O   0  0  0  0  0
   42.7344   10.9832   13.4809 H   0  0  0  0  0
   41.7440   10.2125   14.5773 H   0  0  0  0  0
   42.0591    9.5081   13.1003 H   0  0  0  0  0
   40.9419   11.2434   11.9587 H   0  0  0  0  0
   40.6014   12.0044   13.5546 H   0  0  0  0  0
   38.3485   11.7914   12.5564 H   0  0  0  0  0
   37.2774    9.0365   13.1060 H   0  0  0  0  0
   35.3245   10.1102   14.1695 H   0  0  0  0  0
   36.2216   11.7016   14.0767 H   0  0  0  0  0
   38.0723   12.1657   15.6059 H   0  0  0  0  0
   35.9827    8.4174   15.7665 H   0  0  0  0  0
   39.2321   11.6102   17.7472 H   0  0  0  0  0
   37.1325    7.8545   17.8872 H   0  0  0  0  0
   39.4147    6.8898   18.2987 H   0  0  0  0  0
   39.1795    7.2929   20.6206 H   0  0  0  0  0
   35.4016    8.4345   11.9381 H   0  0  0  0  0
   35.4280    9.4151    9.2962 H   0  0  0  0  0
   33.3525    7.7367   10.7838 H   0  0  0  0  0
   32.2211    8.9183    8.9408 H   0  0  0  0  0
   33.4728    8.3578    7.8050 H   0  0  0  0  0
   32.3816    7.1822    8.5783 H   0  0  0  0  0
   35.4462    7.0685    8.6713 H   0  0  0  0  0
   35.5701    6.7129   10.4117 H   0  0  0  0  0
   34.3264    5.9068    9.4246 H   0  0  0  0  0
   33.2462   10.2084   11.9745 H   0  0  0  0  0
   31.7228   11.9947   10.1705 H   0  0  0  0  0
   30.4855   10.5544   11.7211 H   0  0  0  0  0
   30.2664   12.3039   12.1631 H   0  0  0  0  0
   30.8786   11.4054   15.4862 H   0  0  0  0  0
   29.7830   12.1117   14.2936 H   0  0  0  0  0
   33.9320   15.6733   11.3116 H   0  0  0  0  0
   32.7210   16.7945    9.5862 H   0  0  0  0  0
   31.9536   17.5300   10.9316 H   0  0  0  0  0
   30.3666   16.2475    9.2450 H   0  0  0  0  0
   30.0898   15.9573   10.9021 H   0  0  0  0  0
   30.4850   13.7055   10.0280 H   0  0  0  0  0
   31.7021   14.2180    8.9675 H   0  0  0  0  0
   34.4675   16.5394   13.1510 H   0  0  0  0  0
   32.6470   15.9277   15.3591 H   0  0  0  0  0
   34.6197   16.2853   16.8451 H   0  0  0  0  0
   36.6276   16.9224   15.8296 H   0  0  0  0  0
   34.4509   14.0986   15.6909 H   0  0  0  0  0
   35.3754   14.7498   14.3153 H   0  0  0  0  0
   36.1546   14.5698   15.9064 H   0  0  0  0  0
   33.0780   18.6030   13.5348 H   0  0  0  0  0
   31.5665   20.1580   15.4805 H   0  0  0  0  0
   34.1358   21.4077   14.4959 H   0  0  0  0  0
   33.8948   20.7101   16.1452 H   0  0  0  0  0
   31.7822   21.6375   17.4332 H   0  0  0  0  0
   33.6979   23.7132   14.2000 H   0  0  0  0  0
   30.6884   23.7452   18.1445 H   0  0  0  0  0
   32.6006   25.8311   14.9151 H   0  0  0  0  0
   31.1968   26.7908   16.3835 H   0  0  0  0  0
   30.2644   20.0027   13.7987 H   0  0  0  0  0
  1  2  1  0  0  0
  2  3  1  0  0  0
  3  4  2  0  0  0
  3  5  1  0  0  0
  5  6  1  0  0  0
  6  7  1  0  0  0
  6  9  1  0  0  0
  7  8  2  0  0  0
  7 21  1  0  0  0
  9 10  1  0  0  0
 10 11  4  0  0  0
 10 12  4  0  0  0
 11 13  4  0  0  0
 12 14  4  0  0  0
 13 15  4  0  0  0
 14 15  4  0  0  0
 15 16  1  0  0  0
 16 17  1  0  0  0
 17 18  2  0  0  0
 17 19  1  0  0  0
 17 20  1  0  0  0
 21 22  1  0  0  0
 22 23  1  0  0  0
 22 25  1  0  0  0
 23 24  2  0  0  0
 23 28  1  0  0  0
 25 26  1  0  0  0
 25 27  1  0  0  0
 28 29  1  0  0  0
 29 30  1  0  0  0
 29 32  1  0  0  0
 30 31  2  0  0  0
 30 36  1  0  0  0
 32 33  1  0  0  0
 33 34  2  0  0  0
 33 35  1  0  0  0
 36 37  1  0  0  0
 36 42  1  0  0  0
 37 38  1  0  0  0
 37 40  1  0  0  0
 38 39  2  0  0  0
 38 43  1  0  0  0
 40 41  1  0  0  0
 41 42  1  0  0  0
 43 44  1  0  0  0
 44 45  1  0  0  0
 44 47  1  0  0  0
 45 46  2  0  0  0
 45 50  1  0  0  0
 47 48  1  0  0  0
 47 49  1  0  0  0
 50 51  1  0  0  0
 51 52  1  0  0  0
 51 54  1  0  0  0
 52 53  2  0  0  0
 52 62  1  0  0  0
 54 55  1  0  0  0
 55 56  4  0  0  0
 55 57  4  0  0  0
 56 58  4  0  0  0
 57 59  4  0  0  0
 58 60  4  0  0  0
 59 60  4  0  0  0
 60 61  1  0  0  0
  1 63  1  0  0  0
  1 64  1  0  0  0
  1 65  1  0  0  0
  2 66  1  0  0  0
  2 67  1  0  0  0
  5 68  1  0  0  0
  6 69  1  0  0  0
  9 70  1  0  0  0
  9 71  1  0  0  0
 11 72  1  0  0  0
 12 73  1  0  0  0
 13 74  1  0  0  0
 14 75  1  0  0  0
 19 76  1  0  0  0
 20 77  1  0  0  0
 21 78  1  0  0  0
 22 79  1  0  0  0
 25 80  1  0  0  0
 26 81  1  0  0  0
 26 82  1  0  0  0
 26 83  1  0  0  0
 27 84  1  0  0  0
 27 85  1  0  0  0
 27 86  1  0  0  0
 28 87  1  0  0  0
 29 88  1  0  0  0
 32 89  1  0  0  0
 32 90  1  0  0  0
 35 91  1  0  0  0
 35 92  1  0  0  0
 37 93  1  0  0  0
 40 94  1  0  0  0
 40 95  1  0  0  0
 41 96  1  0  0  0
 41 97  1  0  0  0
 42 98  1  0  0  0
 42 99  1  0  0  0
 43100  1  0  0  0
 44101  1  0  0  0
 47102  1  0  0  0
 48103  1  0  0  0
 49104  1  0  0  0
 49105  1  0  0  0
 49106  1  0  0  0
 50107  1  0  0  0
 51108  1  0  0  0
 54109  1  0  0  0
 54110  1  0  0  0
 56111  1  0  0  0
 57112  1  0  0  0
 58113  1  0  0  0
 59114  1  0  0  0
 61115  1  0  0  0
 62116  1  0  0  0
M  END
$$$$
