3ik3_ligand
  -I-interpret- 

 68 72  0  0  0  0  0  0  0  0999 V2000
    4.0990   -7.3350   13.8870 N   0  0  0  0  0
    7.3470    7.8260   19.1290 N   0  3  0  0  0
    3.1070   -2.6590   13.9120 C   0  0  0  0  0
    3.1220   -1.2140   13.7470 C   0  0  0  0  0
    2.5160   -0.5430   12.6120 C   0  0  0  0  0
    2.5780    0.8730   12.5170 C   0  0  0  0  0
    3.2500    1.6510   13.5530 C   0  0  0  0  0
    3.7740   -0.4660   14.7530 C   0  0  0  0  0
    5.5010    3.8910   16.4100 C   0  0  0  0  0
    6.1520    6.1920   16.9990 C   0  0  0  0  0
    7.4800    4.2940   17.8870 C   0  0  0  0  0
    8.1170    6.7780   18.4880 C   0  0  0  0  0
    6.4910    7.3580   20.2460 C   0  0  0  0  0
    5.6030    8.5190   20.7640 C   0  0  0  0  0
    8.2400    8.9150   19.6120 C   0  0  0  0  0
    2.3430   -8.4240   15.3410 C   0  0  0  0  0
    1.2250   -8.1130   16.1130 C   0  0  0  0  0
    0.8010   -6.7460   16.2100 C   0  0  0  0  0
    1.3940   -5.7030   15.6090 N   0  0  0  0  0
    2.4850   -6.0670   14.8640 N   0  0  0  0  0
    3.0300   -7.3760   14.6720 C   0  0  0  0  0
    4.2680   -5.9990   13.5590 C   0  0  0  0  0
    3.2990   -5.2430   14.1420 C   0  0  0  0  0
    3.1670   -3.8530   14.0240 C   0  0  0  0  0
    3.8520    0.9650   14.6820 C   0  0  0  0  0
    1.8100   -1.3310   11.4990 C   0  0  0  0  0
    4.5590    1.6720   15.7800 C   0  0  0  0  0
    5.0710    1.0120   16.6910 O   0  0  0  0  0
    4.5940    3.0340   15.7100 N   0  0  0  0  0
    5.2890    5.2840   16.3210 C   0  0  0  0  0
    7.2440    5.7280   17.7840 C   0  0  0  0  0
    6.5970    3.4030   17.1950 C   0  0  0  0  0
    8.6180    3.7040   18.7050 C   0  0  0  0  0
    8.4180    3.9600   19.9890 F   0  0  0  0  0
    8.6970    2.3840   18.5830 F   0  0  0  0  0
    9.7910    4.2330   18.2900 F   0  0  0  0  0
    7.3860   10.1020   20.1030 C   0  0  0  0  0
    5.5690   10.8130   21.5730 C   0  0  0  0  0
    6.4250    9.6910   21.1710 N   0  3  0  0  0
    6.7174    8.1750   18.4064 H   0  0  0  0  0
    2.1219    1.3805   11.6670 H   0  0  0  0  0
    3.2994    2.7374   13.4797 H   0  0  0  0  0
    4.2258   -0.9854   15.5981 H   0  0  0  0  0
    5.9721    7.2638   16.9147 H   0  0  0  0  0
    8.6873    6.2665   19.2634 H   0  0  0  0  0
    8.7449    7.2466   17.7302 H   0  0  0  0  0
    7.1263    7.0053   21.0584 H   0  0  0  0  0
    5.8507    6.5507   19.8904 H   0  0  0  0  0
    5.0463    8.1680   21.6329 H   0  0  0  0  0
    4.9335    8.8277   19.9611 H   0  0  0  0  0
    8.8845    9.2442   18.7969 H   0  0  0  0  0
    8.8527    8.5443   20.4337 H   0  0  0  0  0
    2.6848   -9.4552   15.2520 H   0  0  0  0  0
    0.6798   -8.8985   16.6364 H   0  0  0  0  0
   -0.0758   -6.5371   16.8229 H   0  0  0  0  0
    5.0640   -5.6096   12.9243 H   0  0  0  0  0
    2.5193   -2.0161   11.0346 H   0  0  0  0  0
    0.9821   -1.8973   11.9256 H   0  0  0  0  0
    1.4293   -0.6370   10.7496 H   0  0  0  0  0
    3.9096    3.4834   15.1017 H   0  0  0  0  0
    4.4583    5.6677   15.7287 H   0  0  0  0  0
    6.7624    2.3280   17.2670 H   0  0  0  0  0
    6.8148   10.4856   19.2576 H   0  0  0  0  0
    8.0547   10.8570   20.5163 H   0  0  0  0  0
    4.9340   11.1021   20.7356 H   0  0  0  0  0
    4.9466   10.5100   22.4150 H   0  0  0  0  0
    6.1928   11.6574   21.8660 H   0  0  0  0  0
    6.9811    9.4063   21.9773 H   0  0  0  0  0
  1 21  4  0  0  0
 22  1  4  0  0  0
 12  2  1  0  0  0
  2 13  1  0  0  0
  2 15  1  0  0  0
  4  3  1  0  0  0
  3 24  3  0  0  0
  4  5  4  0  0  0
  8  4  4  0  0  0
  6  5  4  0  0  0
  5 26  1  0  0  0
  7  6  4  0  0  0
 25  7  4  0  0  0
 25  8  4  0  0  0
 29  9  1  0  0  0
  9 30  4  0  0  0
  9 32  4  0  0  0
 30 10  4  0  0  0
 10 31  4  0  0  0
 11 31  4  0  0  0
 32 11  4  0  0  0
 11 33  1  0  0  0
 31 12  1  0  0  0
 13 14  1  0  0  0
 14 39  1  0  0  0
 15 37  1  0  0  0
 16 17  4  0  0  0
 21 16  4  0  0  0
 18 17  4  0  0  0
 19 18  4  0  0  0
 20 19  4  0  0  0
 20 21  4  0  0  0
 23 20  4  0  0  0
 23 22  4  0  0  0
 24 23  1  0  0  0
 27 25  1  0  0  0
 27 28  2  0  0  0
 27 29  1  0  0  0
 33 34  1  0  0  0
 33 35  1  0  0  0
 33 36  1  0  0  0
 37 39  1  0  0  0
 39 38  1  0  0  0
  2 40  1  0  0  0
  6 41  1  0  0  0
  7 42  1  0  0  0
  8 43  1  0  0  0
 10 44  1  0  0  0
 12 45  1  0  0  0
 12 46  1  0  0  0
 13 47  1  0  0  0
 13 48  1  0  0  0
 14 49  1  0  0  0
 14 50  1  0  0  0
 15 51  1  0  0  0
 15 52  1  0  0  0
 16 53  1  0  0  0
 17 54  1  0  0  0
 18 55  1  0  0  0
 22 56  1  0  0  0
 26 57  1  0  0  0
 26 58  1  0  0  0
 26 59  1  0  0  0
 29 60  1  0  0  0
 30 61  1  0  0  0
 32 62  1  0  0  0
 37 63  1  0  0  0
 37 64  1  0  0  0
 38 65  1  0  0  0
 38 66  1  0  0  0
 38 67  1  0  0  0
 39 68  1  0  0  0
M  END
$$$$
