3cd7_ligand
  -I-interpret- 

 76 79  0  0  0  0  0  0  0  0999 V2000
   -4.3760  -16.1490    5.9810 N   0  0  0  0  0
   -4.3140  -16.1660    7.3370 C   0  0  0  0  0
   -5.5920  -15.9230    7.7830 C   0  0  0  0  0
   -3.2050  -16.4030    5.0930 C   0  0  0  0  0
   -3.1160  -16.4370    8.2070 C   0  0  0  0  0
   -2.1360  -15.2810    8.1590 C   0  0  0  0  0
   -0.6060  -14.0780    9.6930 C   0  0  0  0  0
   -2.8120  -15.1510    4.3140 C   0  0  0  0  0
   -7.1230  -16.4340   11.2280 C   0  0  0  0  0
   -7.8560  -15.3700    1.7450 C   0  0  0  0  0
   -8.2580  -15.3070    0.4130 C   0  0  0  0  0
   -5.4220  -14.6960    9.8940 C   0  0  0  0  0
   -9.6900  -14.1710    7.7540 C   0  0  0  0  0
   -5.7090  -14.4730   11.2350 C   0  0  0  0  0
   -7.4350  -17.7250    1.5040 C   0  0  0  0  0
  -10.5800  -15.1290    7.2720 C   0  0  0  0  0
   -1.9920  -10.9220   12.8300 O   0  0  0  0  0
   -2.1480  -11.1360   11.6070 C   0  0  0  0  0
   -3.1260  -10.6980   10.9630 O   0  0  0  0  0
   -1.1020  -11.9480   10.8740 C   0  0  0  0  0
   -1.5500  -13.3910   10.6700 C   0  0  0  0  0
   -1.5070  -14.1440   11.8700 O   0  0  0  0  0
   -1.1460  -15.4480    9.3040 C   0  0  0  0  0
   -0.0930  -16.2950    8.8810 O   0  0  0  0  0
   -5.9720  -15.7880    9.2190 C   0  0  0  0  0
   -6.5650  -15.3430   11.9010 C   0  0  0  0  0
   -6.8450  -15.1280   13.1980 F   0  0  0  0  0
   -6.8300  -16.6620    9.8810 C   0  0  0  0  0
   -3.5440  -17.5670    4.1810 C   0  0  0  0  0
   -5.6510  -15.8990    5.5750 C   0  0  0  0  0
   -6.4000  -15.6960    6.7190 C   0  0  0  0  0
   -7.8510  -15.4500    6.8870 C   0  0  0  0  0
   -8.3230  -14.3390    7.5750 C   0  0  0  0  0
  -11.8950  -14.9480    7.4520 F   0  0  0  0  0
  -10.1090  -16.2560    6.6060 C   0  0  0  0  0
   -8.7380  -16.4220    6.4260 C   0  0  0  0  0
   -6.2030  -15.7470    4.2020 C   0  0  0  0  0
   -5.8090  -14.7540    3.6000 O   0  0  0  0  0
   -7.0030  -16.6740    3.6510 N   0  0  0  0  0
   -7.4340  -16.5800    2.3050 C   0  0  0  0  0
   -7.8480  -17.6630    0.1750 C   0  0  0  0  0
   -8.2600  -16.4530   -0.3770 C   0  0  0  0  0
   -2.3326  -16.6626    5.6926 H   0  0  0  0  0
   -2.6158  -17.3345    7.8431 H   0  0  0  0  0
   -3.4532  -16.5668    9.2354 H   0  0  0  0  0
   -2.6678  -14.3348    8.2587 H   0  0  0  0  0
   -1.6083  -15.2767    7.2053 H   0  0  0  0  0
    0.3668  -14.2026   10.1686 H   0  0  0  0  0
   -0.5165  -13.4648    8.7963 H   0  0  0  0  0
   -1.9367  -15.3659    3.7009 H   0  0  0  0  0
   -3.6403  -14.8482    3.6735 H   0  0  0  0  0
   -2.5792  -14.3478    5.0131 H   0  0  0  0  0
   -7.7918  -17.1120   11.7582 H   0  0  0  0  0
   -7.8704  -14.4679    2.3566 H   0  0  0  0  0
   -8.5729  -14.3546   -0.0134 H   0  0  0  0  0
   -4.7605  -14.0114    9.3631 H   0  0  0  0  0
  -10.0671  -13.2891    8.2719 H   0  0  0  0  0
   -5.2679  -13.6252   11.7592 H   0  0  0  0  0
   -7.1092  -18.6768    1.9235 H   0  0  0  0  0
   -1.1826  -11.3443   13.1269 H   0  0  0  0  0
   -0.1900  -11.9525   11.4709 H   0  0  0  0  0
   -0.9404  -11.4967    9.8951 H   0  0  0  0  0
   -2.5753  -13.3518   10.3022 H   0  0  0  0  0
   -2.0912  -13.7442   12.5184 H   0  0  0  0  0
   -1.6339  -15.8955   10.1699 H   0  0  0  0  0
   -0.4508  -17.1526    8.6401 H   0  0  0  0  0
   -7.2668  -17.5117    9.3562 H   0  0  0  0  0
   -4.3808  -17.2921    3.5389 H   0  0  0  0  0
   -2.6772  -17.8098    3.5664 H   0  0  0  0  0
   -3.8167  -18.4325    4.7848 H   0  0  0  0  0
   -7.6240  -13.6030    7.9722 H   0  0  0  0  0
  -10.8072  -17.0029    6.2282 H   0  0  0  0  0
   -8.3582  -17.3122    5.9245 H   0  0  0  0  0
   -7.3082  -17.4663    4.2163 H   0  0  0  0  0
   -7.8486  -18.5660   -0.4356 H   0  0  0  0  0
   -8.5809  -16.4036   -1.4175 H   0  0  0  0  0
  1  2  4  0  0  0
  1  4  1  0  0  0
 30  1  4  0  0  0
  3  2  4  0  0  0
  2  5  1  0  0  0
  3 25  1  0  0  0
 31  3  4  0  0  0
  4  8  1  0  0  0
  4 29  1  0  0  0
  5  6  1  0  0  0
  6 23  1  0  0  0
  7 21  1  0  0  0
 23  7  1  0  0  0
  9 26  4  0  0  0
 28  9  4  0  0  0
 10 11  4  0  0  0
 40 10  4  0  0  0
 11 42  4  0  0  0
 12 14  4  0  0  0
 25 12  4  0  0  0
 13 16  4  0  0  0
 33 13  4  0  0  0
 14 26  4  0  0  0
 40 15  4  0  0  0
 15 41  4  0  0  0
 16 34  1  0  0  0
 35 16  4  0  0  0
 18 17  1  0  0  0
 18 19  2  0  0  0
 20 18  1  0  0  0
 21 20  1  0  0  0
 21 22  1  0  0  0
 23 24  1  0  0  0
 25 28  4  0  0  0
 26 27  1  0  0  0
 30 31  4  0  0  0
 37 30  1  0  0  0
 31 32  1  0  0  0
 32 33  4  0  0  0
 32 36  4  0  0  0
 36 35  4  0  0  0
 37 38  2  0  0  0
 39 37  1  0  0  0
 39 40  1  0  0  0
 41 42  4  0  0  0
  4 43  1  0  0  0
  5 44  1  0  0  0
  5 45  1  0  0  0
  6 46  1  0  0  0
  6 47  1  0  0  0
  7 48  1  0  0  0
  7 49  1  0  0  0
  8 50  1  0  0  0
  8 51  1  0  0  0
  8 52  1  0  0  0
  9 53  1  0  0  0
 10 54  1  0  0  0
 11 55  1  0  0  0
 12 56  1  0  0  0
 13 57  1  0  0  0
 14 58  1  0  0  0
 15 59  1  0  0  0
 17 60  1  0  0  0
 20 61  1  0  0  0
 20 62  1  0  0  0
 21 63  1  0  0  0
 22 64  1  0  0  0
 23 65  1  0  0  0
 24 66  1  0  0  0
 28 67  1  0  0  0
 29 68  1  0  0  0
 29 69  1  0  0  0
 29 70  1  0  0  0
 33 71  1  0  0  0
 35 72  1  0  0  0
 36 73  1  0  0  0
 39 74  1  0  0  0
 41 75  1  0  0  0
 42 76  1  0  0  0
M  END
$$$$
