### 
### Created by X-TOOL on Mon Sep 10 21:13:17 2018
### 

@<TRIPOS>MOLECULE
4lv3_ligand
   40    40     1     0     0
SMALL
GAST_HUCK


@<TRIPOS>ATOM
      1 B03        26.6400    4.9980   16.8170 B         1 25N         3.0000
      2 O04        26.7640    5.6880   18.1120 O.3       1 25N        -0.8710
      3 O05        25.6760    3.8880   17.0360 O.3       1 25N        -0.8710
      4 C06        26.0840    5.9910   15.7160 C.ar      1 25N         0.0128
      5 C07        25.2520    5.5620   14.6770 C.ar      1 25N        -0.0438
      6 C08        24.6720    6.4590   13.7390 C.ar      1 25N        -0.0958
      7 C09        23.7320    5.9540   12.6100 C.3       1 25N        -0.1078
      8 C10        22.3580    6.5160   12.9250 C.3       1 25N        -0.1222
      9 C11        23.5640    4.4330   12.5830 C.3       1 25N        -0.1222
     10 C12        24.1710    6.4520   11.2470 C.3       1 25N        -0.1222
     11 C13        24.9840    7.8310   13.8740 C.ar      1 25N        -0.0653
     12 C14        25.8220    8.2740   14.9050 C.ar      1 25N        -0.0958
     13 C15        26.1480    9.7800   15.0760 C.3       1 25N        -0.1078
     14 C16        25.8150   10.2730   16.4630 C.3       1 25N        -0.1222
     15 C17        25.3700   10.6290   14.0800 C.3       1 25N        -0.1222
     16 C18        27.6330    9.9790   14.9060 C.3       1 25N        -0.1222
     17 C19        26.3850    7.3480   15.8310 C.ar      1 25N        -0.0438
     18 H1         25.9134    6.0182   18.3763 H         1 25N        -0.1290
     19 H3         24.8417    4.2454   17.3166 H         1 25N        -0.1290
     20 H6         25.0409    4.5029   14.5831 H         1 25N         0.0828
     21 H7         21.6433    6.1904   12.1548 H         1 25N         0.0017
     22 H8         22.4058    7.6149   12.9397 H         1 25N         0.0017
     23 H9         22.0289    6.1501   13.9087 H         1 25N         0.0017
     24 H10        24.5319    3.9612   12.3580 H         1 25N         0.0017
     25 H11        22.8333    4.1585   11.8080 H         1 25N         0.0017
     26 H12        23.2062    4.0861   13.5636 H         1 25N         0.0017
     27 H13        24.2889    7.5453   11.2766 H         1 25N         0.0017
     28 H14        23.4117    6.1853   10.4971 H         1 25N         0.0017
     29 H15        25.1309    5.9869   10.9784 H         1 25N         0.0017
     30 H16        24.5708    8.5471   13.1729 H         1 25N         0.0848
     31 H17        26.0609   11.3423   16.5409 H         1 25N         0.0017
     32 H18        26.3998    9.7075   17.2034 H         1 25N         0.0017
     33 H19        24.7417   10.1286   16.6556 H         1 25N         0.0017
     34 H20        25.5936   10.2915   13.0572 H         1 25N         0.0017
     35 H21        25.6623   11.6837   14.1901 H         1 25N         0.0017
     36 H22        24.2921   10.5252   14.2730 H         1 25N         0.0017
     37 H23        28.1722    9.3564   15.6352 H         1 25N         0.0017
     38 H24        27.8825   11.0374   15.0720 H         1 25N         0.0017
     39 H25        27.9276    9.6883   13.8869 H         1 25N         0.0017
     40 H26        27.0427    7.6961   16.6193 H         1 25N         0.0828
@<TRIPOS>BOND
     1    1    2 1  
     2    1    3 1  
     3    1    4 1  
     4    4    5 ar 
     5    4   17 ar 
     6    5    6 ar 
     7    6    7 1  
     8    6   11 ar 
     9    7    8 1  
    10    7    9 1  
    11    7   10 1  
    12   11   12 ar 
    13   12   13 1  
    14   12   17 ar 
    15   13   14 1  
    16   13   15 1  
    17   13   16 1  
    18    2   18 1  
    19    3   19 1  
    20    5   20 1  
    21    8   21 1  
    22    8   22 1  
    23    8   23 1  
    24    9   24 1  
    25    9   25 1  
    26    9   26 1  
    27   10   27 1  
    28   10   28 1  
    29   10   29 1  
    30   11   30 1  
    31   14   31 1  
    32   14   32 1  
    33   14   33 1  
    34   15   34 1  
    35   15   35 1  
    36   15   36 1  
    37   16   37 1  
    38   16   38 1  
    39   16   39 1  
    40   17   40 1  
@<TRIPOS>SUBSTRUCTURE
     1 25N         1

