4lv3_ligand
  -I-interpret- 

 40 40  0  0  0  0  0  0  0  0999 V2000
   26.6400    4.9980   16.8170 B   0  0  0  0  0
   26.7640    5.6880   18.1120 O   0  0  0  0  0
   25.6760    3.8880   17.0360 O   0  0  0  0  0
   26.0840    5.9910   15.7160 C   0  0  0  0  0
   25.2520    5.5620   14.6770 C   0  0  0  0  0
   24.6720    6.4590   13.7390 C   0  0  0  0  0
   23.7320    5.9540   12.6100 C   0  0  0  0  0
   22.3580    6.5160   12.9250 C   0  0  0  0  0
   23.5640    4.4330   12.5830 C   0  0  0  0  0
   24.1710    6.4520   11.2470 C   0  0  0  0  0
   24.9840    7.8310   13.8740 C   0  0  0  0  0
   25.8220    8.2740   14.9050 C   0  0  0  0  0
   26.1480    9.7800   15.0760 C   0  0  0  0  0
   25.8150   10.2730   16.4630 C   0  0  0  0  0
   25.3700   10.6290   14.0800 C   0  0  0  0  0
   27.6330    9.9790   14.9060 C   0  0  0  0  0
   26.3850    7.3480   15.8310 C   0  0  0  0  0
   27.1017    5.0748   18.7690 H   0  0  0  0  0
   26.0221    3.2923   17.7045 H   0  0  0  0  0
   25.0397    4.4970   14.5826 H   0  0  0  0  0
   21.6550    6.2089   12.1507 H   0  0  0  0  0
   22.0247    6.1372   13.8912 H   0  0  0  0  0
   22.4109    7.6042   12.9586 H   0  0  0  0  0
   23.2094    4.0906   13.5552 H   0  0  0  0  0
   22.8397    4.1623   11.8147 H   0  0  0  0  0
   24.5236    3.9667   12.3600 H   0  0  0  0  0
   23.4569    6.1205   10.4932 H   0  0  0  0  0
   24.2128    7.5412   11.2557 H   0  0  0  0  0
   25.1578    6.0511   11.0157 H   0  0  0  0  0
   24.5685    8.5510   13.1690 H   0  0  0  0  0
   24.7513   10.1293   16.6526 H   0  0  0  0  0
   26.3950    9.7119   17.1957 H   0  0  0  0  0
   26.0590   11.3326   16.5389 H   0  0  0  0  0
   25.6327   10.3290   13.0656 H   0  0  0  0  0
   24.3013   10.4841   14.2378 H   0  0  0  0  0
   25.6210   11.6796   14.2260 H   0  0  0  0  0
   28.1648    9.3978   15.6594 H   0  0  0  0  0
   27.9313    9.6468   13.9116 H   0  0  0  0  0
   27.8726   11.0357   15.0245 H   0  0  0  0  0
   27.0463    7.6981   16.6236 H   0  0  0  0  0
  1  2  1  0  0  0
  1  3  1  0  0  0
  1  4  1  0  0  0
  4  5  4  0  0  0
  4 17  4  0  0  0
  5  6  4  0  0  0
  6  7  1  0  0  0
  6 11  4  0  0  0
  7  8  1  0  0  0
  7  9  1  0  0  0
  7 10  1  0  0  0
 11 12  4  0  0  0
 12 13  1  0  0  0
 12 17  4  0  0  0
 13 14  1  0  0  0
 13 15  1  0  0  0
 13 16  1  0  0  0
  2 18  1  0  0  0
  3 19  1  0  0  0
  5 20  1  0  0  0
  8 21  1  0  0  0
  8 22  1  0  0  0
  8 23  1  0  0  0
  9 24  1  0  0  0
  9 25  1  0  0  0
  9 26  1  0  0  0
 10 27  1  0  0  0
 10 28  1  0  0  0
 10 29  1  0  0  0
 11 30  1  0  0  0
 14 31  1  0  0  0
 14 32  1  0  0  0
 14 33  1  0  0  0
 15 34  1  0  0  0
 15 35  1  0  0  0
 15 36  1  0  0  0
 16 37  1  0  0  0
 16 38  1  0  0  0
 16 39  1  0  0  0
 17 40  1  0  0  0
M  END
$$$$
