4ew2_ligand
  -I-interpret- 

 60 61  0  0  0  0  0  0  0  0999 V2000
    0.1580   72.7980   89.6760 O   0  0  0  0  0
    1.1370   72.2070   89.1180 C   0  0  0  0  0
    1.4810   72.3630   87.9170 O   0  0  0  0  0
    2.0140   71.2030   89.9560 C   0  0  0  0  0
    3.0640   71.9400   90.8220 C   0  0  0  0  0
    3.6760   71.1160   91.9850 C   0  0  0  0  0
    3.8210   72.0660   93.1760 C   0  0  0  0  0
    2.9630   72.0440   94.0700 O   0  0  0  0  0
    4.7900   72.8460   93.1420 O   0  0  0  0  0
    2.9240   69.8830   92.3040 N   0  0  0  0  0
    3.5490   68.7090   92.4290 C   0  0  0  0  0
    4.7540   68.5770   92.2380 O   0  0  0  0  0
    2.6400   67.5460   92.7120 C   0  0  0  0  0
    3.0090   66.2100   92.8700 C   0  0  0  0  0
    2.0640   65.2150   93.1210 C   0  0  0  0  0
    1.3280   67.8730   92.8370 C   0  0  0  0  0
    0.3890   66.8970   93.0840 C   0  0  0  0  0
    0.7210   65.5590   93.2340 C   0  0  0  0  0
   -0.5080   64.6310   93.4820 C   0  0  0  0  0
   -0.7540   63.4380   92.0950 S   0  0  0  0  0
    0.8030   63.2830   91.2150 C   0  0  0  0  0
   -0.6460   63.9850   94.8880 C   0  0  0  0  0
   -0.3510   64.9320   96.0420 C   0  0  0  0  0
   -1.2520   64.8750   97.3240 C   0  0  0  0  0
   -0.4360   65.5820   98.3770 C   0  0  0  0  0
    0.3410   64.8820   99.2910 C   0  0  0  0  0
    0.3580   63.6560   99.3360 O   0  0  0  0  0
    1.0970   65.5360  100.1940 N   0  0  0  0  0
    1.1440   66.9140  100.2110 C   0  0  0  0  0
    1.9200   67.4790  101.1010 N   0  0  0  0  0
    0.4090   67.6130   99.3270 N   0  0  0  0  0
   -0.3740   66.9950   98.4400 C   0  0  0  0  0
   -1.0740   67.7340   97.5670 N   0  0  0  0  0
    0.0959   72.5169   90.5918 H   0  0  0  0  0
    2.5413   70.5479   89.2625 H   0  0  0  0  0
    1.3544   70.6440   90.6198 H   0  0  0  0  0
    2.5483   72.7840   91.2801 H   0  0  0  0  0
    3.8891   72.1940   90.1565 H   0  0  0  0  0
    4.6523   70.7315   91.6901 H   0  0  0  0  0
    5.3122   72.6718   92.3555 H   0  0  0  0  0
    1.9130   69.9298   92.4305 H   0  0  0  0  0
    4.0616   65.9368   92.7955 H   0  0  0  0  0
    2.3756   64.1760   93.2277 H   0  0  0  0  0
    1.0168   68.9132   92.7413 H   0  0  0  0  0
   -0.6583   67.1879   93.1650 H   0  0  0  0  0
   -1.3485   65.3250   93.4898 H   0  0  0  0  0
    1.0978   64.2578   90.8264 H   0  0  0  0  0
    1.5695   62.9155   91.8973 H   0  0  0  0  0
    0.6837   62.5820   90.3889 H   0  0  0  0  0
    0.0818   63.1755   94.9425 H   0  0  0  0  0
   -1.6820   63.6629   94.9934 H   0  0  0  0  0
   -0.5088   65.9299   95.6328 H   0  0  0  0  0
    0.6445   64.6521   96.3866 H   0  0  0  0  0
   -1.4980   63.8524   97.6103 H   0  0  0  0  0
   -2.2220   65.3470   97.1679 H   0  0  0  0  0
   -1.4436   65.1722   98.3064 H   0  0  0  0  0
    1.6416   65.0052  100.8738 H   0  0  0  0  0
    2.4597   66.9025  101.7466 H   0  0  0  0  0
    0.4508   68.6321   99.3348 H   0  0  0  0  0
   -1.6498   67.2780   96.8592 H   0  0  0  0  0
  1  2  1  0  0  0
  2  3  2  0  0  0
  2  4  1  0  0  0
  4  5  1  0  0  0
  5  6  1  0  0  0
  6  7  1  0  0  0
  6 10  1  0  0  0
  7  8  2  0  0  0
  7  9  1  0  0  0
 10 11  1  0  0  0
 11 12  2  0  0  0
 11 13  1  0  0  0
 13 14  4  0  0  0
 13 16  4  0  0  0
 14 15  4  0  0  0
 15 18  4  0  0  0
 16 17  4  0  0  0
 17 18  4  0  0  0
 18 19  1  0  0  0
 19 20  1  0  0  0
 19 22  1  0  0  0
 20 21  1  0  0  0
 22 23  1  0  0  0
 23 24  1  0  0  0
 24 25  1  0  0  0
 25 26  1  0  0  0
 25 32  1  0  0  0
 26 27  2  0  0  0
 26 28  1  0  0  0
 28 29  1  0  0  0
 29 30  2  0  0  0
 29 31  1  0  0  0
 31 32  1  0  0  0
 32 33  2  0  0  0
  1 34  1  0  0  0
  4 35  1  0  0  0
  4 36  1  0  0  0
  5 37  1  0  0  0
  5 38  1  0  0  0
  6 39  1  0  0  0
  9 40  1  0  0  0
 10 41  1  0  0  0
 14 42  1  0  0  0
 15 43  1  0  0  0
 16 44  1  0  0  0
 17 45  1  0  0  0
 19 46  1  0  0  0
 21 47  1  0  0  0
 21 48  1  0  0  0
 21 49  1  0  0  0
 22 50  1  0  0  0
 22 51  1  0  0  0
 23 52  1  0  0  0
 23 53  1  0  0  0
 24 54  1  0  0  0
 24 55  1  0  0  0
 25 56  1  0  0  0
 28 57  1  0  0  0
 30 58  1  0  0  0
 31 59  1  0  0  0
 33 60  1  0  0  0
M  END
$$$$
