4ijq_ligand
  -I-interpret- 

 46 47  0  0  0  0  0  0  0  0999 V2000
   -9.4630  -19.0590  -13.3980 O   0  0  0  0  0
   -8.7290  -17.9380  -14.2130 P   0  0  0  0  0
   -7.8170  -17.0990  -13.2560 O   0  0  0  0  0
   -9.7160  -17.0480  -14.9380 O   0  0  0  0  0
   -7.6520  -18.7800  -15.4340 C   0  0  0  0  0
   -8.2730  -19.2430  -16.5820 O   0  0  0  0  0
   -7.3940  -19.5100  -17.5970 C   0  0  0  0  0
   -7.6200  -18.8140  -18.9060 C   0  0  0  0  0
   -6.3150  -18.6410  -19.6330 C   0  0  0  0  0
   -6.1460  -17.5020  -20.4020 O   0  0  0  0  0
   -5.2230  -16.6150  -19.8410 C   0  0  0  0  0
   -4.2660  -15.5760  -20.9990 P   0  0  0  0  0
   -5.2920  -14.5840  -21.6530 O   0  0  0  0  0
   -3.2370  -14.8250  -20.0890 O   0  0  0  0  0
   -3.5340  -16.3550  -22.0620 O   0  0  0  0  0
   -8.7030  -17.7040  -19.0590 C   0  0  0  0  0
   -9.5100  -18.2620  -20.1380 N   0  0  0  0  0
   -9.5060  -17.9110  -21.4410 C   0  0  0  0  0
  -10.3470  -18.7480  -22.0930 N   0  0  0  0  0
  -10.8460  -19.6550  -21.1610 C   0  0  0  0  0
  -10.3070  -19.3740  -19.9340 C   0  0  0  0  0
  -10.6660  -20.1240  -18.8380 N   0  0  0  0  0
  -11.5270  -21.1490  -18.9850 C   0  0  0  0  0
  -11.9180  -21.9470  -17.8750 N   0  0  0  0  0
  -12.0480  -21.4480  -20.1880 N   0  0  0  0  0
  -11.7460  -20.7400  -21.2780 C   0  0  0  0  0
  -12.2920  -21.0370  -22.5150 O   0  0  0  0  0
   -8.8128  -19.6055  -12.9506 H   0  0  0  0  0
   -7.2010  -17.6838  -12.8086 H   0  0  0  0  0
   -7.2505  -19.6591  -14.9299 H   0  0  0  0  0
   -6.9242  -18.0372  -15.7606 H   0  0  0  0  0
   -7.5013  -20.5742  -17.8071 H   0  0  0  0  0
   -6.4225  -19.1643  -17.2437 H   0  0  0  0  0
   -8.2420  -19.5123  -19.4660 H   0  0  0  0  0
   -6.2616  -19.4740  -20.3340 H   0  0  0  0  0
   -5.5555  -18.5793  -18.8536 H   0  0  0  0  0
   -4.4917  -17.2343  -19.3217 H   0  0  0  0  0
   -5.8056  -15.9239  -19.2318 H   0  0  0  0  0
   -5.7486  -14.0969  -20.9632 H   0  0  0  0  0
   -3.7089  -14.3311  -19.4145 H   0  0  0  0  0
   -8.2983  -16.7147  -19.2727 H   0  0  0  0  0
   -9.2621  -17.4998  -18.1459 H   0  0  0  0  0
   -8.9301  -17.1005  -21.8876 H   0  0  0  0  0
  -11.5451  -21.7474  -16.9468 H   0  0  0  0  0
  -12.5714  -22.7191  -18.0069 H   0  0  0  0  0
  -12.6904  -22.2361  -20.2694 H   0  0  0  0  0
  1  2  1  0  0  0
  2  3  1  0  0  0
  2  4  2  0  0  0
  2  5  1  0  0  0
  5  6  1  0  0  0
  6  7  1  0  0  0
  7  8  1  0  0  0
  8  9  1  0  0  0
  8 16  1  0  0  0
  9 10  1  0  0  0
 10 11  1  0  0  0
 11 12  1  0  0  0
 12 13  1  0  0  0
 12 14  1  0  0  0
 12 15  2  0  0  0
 16 17  1  0  0  0
 17 18  4  0  0  0
 17 21  4  0  0  0
 18 19  4  0  0  0
 19 20  4  0  0  0
 20 21  4  0  0  0
 20 26  1  0  0  0
 21 22  1  0  0  0
 22 23  2  0  0  0
 23 24  1  0  0  0
 23 25  1  0  0  0
 25 26  1  0  0  0
 26 27  2  0  0  0
  1 28  1  0  0  0
  3 29  1  0  0  0
  5 30  1  0  0  0
  5 31  1  0  0  0
  7 32  1  0  0  0
  7 33  1  0  0  0
  8 34  1  0  0  0
  9 35  1  0  0  0
  9 36  1  0  0  0
 11 37  1  0  0  0
 11 38  1  0  0  0
 13 39  1  0  0  0
 14 40  1  0  0  0
 16 41  1  0  0  0
 16 42  1  0  0  0
 18 43  1  0  0  0
 24 44  1  0  0  0
 24 45  1  0  0  0
 25 46  1  0  0  0
M  END
$$$$
