### 
### Created by X-TOOL on Mon Sep 10 21:13:13 2018
### 

@<TRIPOS>MOLECULE
4ijq_ligand
   42    43     1     0     0
SMALL
GAST_HUCK


@<TRIPOS>ATOM
      1 OAE        -9.4630  -19.0590  -13.3980 O.co2     1 SV2        -0.5607
      2 PAZ        -8.7290  -17.9380  -14.2130 P.3       1 SV2         0.0846
      3 OAF        -7.8170  -17.0990  -13.2560 O.co2     1 SV2        -0.5607
      4 OAC        -9.7160  -17.0480  -14.9380 O.co2     1 SV2        -0.5607
      5 CAL        -7.6520  -18.7800  -15.4340 C.3       1 SV2         0.1176
      6 OAR        -8.2730  -19.2430  -16.5820 O.3       1 SV2        -0.3621
      7 CAJ        -7.3940  -19.5100  -17.5970 C.3       1 SV2         0.0570
      8 CAX        -7.6200  -18.8140  -18.9060 C.3       1 SV2         0.0335
      9 CAK        -6.3150  -18.6410  -19.6330 C.3       1 SV2         0.0570
     10 OAS        -6.1460  -17.5020  -20.4020 O.3       1 SV2        -0.3621
     11 CAM        -5.2230  -16.6150  -19.8410 C.3       1 SV2         0.1176
     12 PBA        -4.2660  -15.5760  -20.9990 P.3       1 SV2         0.0846
     13 OAG        -5.2920  -14.5840  -21.6530 O.co2     1 SV2        -0.5607
     14 OAH        -3.2370  -14.8250  -20.0890 O.co2     1 SV2        -0.5607
     15 OAD        -3.5340  -16.3550  -22.0620 O.co2     1 SV2        -0.5607
     16 CAN        -8.7030  -17.7040  -19.0590 C.3       1 SV2         0.0654
     17 N9         -9.5100  -18.2620  -20.1380 N.pl3     1 SV2        -0.2387
     18 C8         -9.5060  -17.9110  -21.4410 C.2       1 SV2         0.0932
     19 N7        -10.3470  -18.7480  -22.0930 N.2       1 SV2        -0.3236
     20 C5        -10.8460  -19.6550  -21.1610 C.2       1 SV2         0.0925
     21 C4        -10.3070  -19.3740  -19.9340 C.2       1 SV2         0.1135
     22 N3        -10.6660  -20.1240  -18.8380 N.2       1 SV2        -0.2765
     23 C2        -11.5270  -21.1490  -18.9850 C.2       1 SV2         0.2340
     24 N2        -11.9180  -21.9470  -17.8750 N.pl3     1 SV2        -0.2807
     25 N1        -12.0480  -21.4480  -20.1880 N.am      1 SV2        -0.1839
     26 C6        -11.7460  -20.7400  -21.2780 C.2       1 SV2         0.2135
     27 O6        -12.2920  -21.0370  -22.5150 O.2       1 SV2        -0.4091
     28 H1         -7.1874  -19.6421  -14.9331 H         1 SV2         0.0752
     29 H2         -6.8707  -18.0683  -15.7391 H         1 SV2         0.0752
     30 H3         -7.4298  -20.5926  -17.7884 H         1 SV2         0.0565
     31 H4         -6.3894  -19.2329  -17.2450 H         1 SV2         0.0565
     32 H5         -8.0961  -19.6146  -19.4910 H         1 SV2         0.0373
     33 H6         -6.1948  -19.5071  -20.3003 H         1 SV2         0.0565
     34 H7         -5.5160  -18.6469  -18.8770 H         1 SV2         0.0565
     35 H8         -4.5050  -17.2085  -19.2561 H         1 SV2         0.0752
     36 H9         -5.7753  -15.9415  -19.1692 H         1 SV2         0.0752
     37 H10        -8.2575  -16.7392  -19.3431 H         1 SV2         0.0620
     38 H11        -9.2894  -17.5797  -18.1367 H         1 SV2         0.0620
     39 H12        -8.9306  -17.1012  -21.8872 H         1 SV2         0.1178
     40 H13       -11.5392  -21.7473  -16.9383 H         1 SV2         0.1897
     41 H14       -12.5801  -22.7248  -18.0077 H         1 SV2         0.1897
     42 H15       -12.6778  -22.2206  -20.2678 H         1 SV2         0.2515
@<TRIPOS>BOND
     1    1    2 ar 
     2    2    3 ar 
     3    2    4 ar 
     4    2    5 1  
     5    5    6 1  
     6    6    7 1  
     7    7    8 1  
     8    8    9 1  
     9    8   16 1  
    10    9   10 1  
    11   10   11 1  
    12   11   12 1  
    13   12   13 ar 
    14   12   14 ar 
    15   12   15 ar 
    16   16   17 1  
    17   17   18 1  
    18   17   21 1  
    19   18   19 2  
    20   19   20 1  
    21   20   21 2  
    22   20   26 1  
    23   21   22 1  
    24   22   23 2  
    25   23   24 1  
    26   23   25 am 
    27   25   26 am 
    28   26   27 2  
    29    5   28 1  
    30    5   29 1  
    31    7   30 1  
    32    7   31 1  
    33    8   32 1  
    34    9   33 1  
    35    9   34 1  
    36   11   35 1  
    37   11   36 1  
    38   16   37 1  
    39   16   38 1  
    40   18   39 1  
    41   24   40 1  
    42   24   41 1  
    43   25   42 1  
@<TRIPOS>SUBSTRUCTURE
     1 SV2         1

