5lh8_ligand
  -I-interpret- 

 79 84  0  0  0  0  0  0  0  0999 V2000
   31.9260   11.5250   24.6870 C   0  0  0  0  0
   28.3580   10.1490   25.6600 C   0  0  0  0  0
   28.0530    8.9510   24.9840 C   0  0  0  0  0
   26.7070    8.5860   24.8330 C   0  0  0  0  0
   25.6280    9.3790   25.3100 C   0  0  0  0  0
   25.9270   10.6090   25.9030 C   0  0  0  0  0
   27.2850   10.9560   26.0760 C   0  0  0  0  0
   28.6610   13.6010   20.2200 C   0  0  0  0  0
   28.7000   14.1400   18.8260 C   0  0  0  0  0
   28.9010   13.2500   17.7610 C   0  0  0  0  0
   23.1180    6.3860   21.2200 C   0  0  0  0  0
   26.0660   11.4790   20.7040 C   0  0  0  0  0
   27.2050   11.6590   19.6440 C   0  0  0  0  0
   28.0420   12.0900   21.9390 C   0  0  0  0  0
   26.7520   11.2150   22.0390 C   0  0  0  0  0
   29.1740   11.2480   22.4240 C   0  0  0  0  0
   30.5180   10.9170   24.4700 C   0  0  0  0  0
   25.1280   10.3970   20.3600 N   0  0  0  0  0
   24.9010   10.0820   19.0750 N   0  0  0  0  0
   24.0290    9.0830   18.9840 N   0  0  0  0  0
   23.6880    8.7960   20.3500 C   0  0  0  0  0
   24.3980    9.6090   21.1500 C   0  0  0  0  0
   22.6510    7.7020   20.5650 C   0  0  0  0  0
   22.1760    7.3360   21.9900 C   0  0  0  0  0
   28.0200   12.4530   20.5370 N   0  0  0  0  0
   29.6260   10.3070   21.7790 O   0  0  0  0  0
   29.5350   11.6420   23.6430 N   0  0  0  0  0
   29.7890   10.7180   25.8570 C   0  0  0  0  0
   30.5460    9.7510   26.8000 C   0  0  0  0  0
   31.9460   10.3510   27.0570 C   0  0  0  0  0
   32.7260   10.6980   25.7470 C   0  0  0  0  0
   29.2220   14.2650   21.0890 O   0  0  0  0  0
   28.9620   13.8000   16.4790 C   0  0  0  0  0
   28.7580   15.1780   16.2690 C   0  0  0  0  0
   28.5470   16.0470   17.3360 C   0  0  0  0  0
   28.4910   15.5250   18.6450 C   0  0  0  0  0
   28.7910   15.7320   14.8450 C   0  0  0  0  0
   30.1020   15.4800   14.2050 N   0  3  0  0  0
   29.1690   13.0370   15.3480 O   0  0  0  0  0
   29.4960   11.6300   15.5170 C   0  0  0  0  0
   31.8171   12.5482   25.0465 H   0  0  0  0  0
   32.4683   11.5058   23.7417 H   0  0  0  0  0
   28.8477    8.3200   24.5860 H   0  0  0  0  0
   26.4774    7.6491   24.3254 H   0  0  0  0  0
   24.5971    9.0377   25.2161 H   0  0  0  0  0
   25.1325   11.2829   26.2236 H   0  0  0  0  0
   27.5144   11.9051   26.5604 H   0  0  0  0  0
   29.0049   12.1777   17.9265 H   0  0  0  0  0
   24.0482    5.8439   21.3901 H   0  0  0  0  0
   23.1830    5.3273   20.9690 H   0  0  0  0  0
   25.4526   12.3792   20.7430 H   0  0  0  0  0
   26.9434   12.0808   18.6735 H   0  0  0  0  0
   27.6450   10.7642   19.2039 H   0  0  0  0  0
   28.1273   12.9960   22.5390 H   0  0  0  0  0
   26.9654   10.1593   22.2067 H   0  0  0  0  0
   26.1290   11.4712   22.8959 H   0  0  0  0  0
   30.7796   10.0111   23.9232 H   0  0  0  0  0
   24.3806    9.6220   22.2398 H   0  0  0  0  0
   22.1357    7.9849   19.6471 H   0  0  0  0  0
   22.1070    7.7998   22.9740 H   0  0  0  0  0
   21.2449    7.2850   22.5544 H   0  0  0  0  0
   29.1107   12.4875   24.0244 H   0  0  0  0  0
   29.7561   11.7086   26.3105 H   0  0  0  0  0
   30.6326    8.7648   26.3439 H   0  0  0  0  0
   30.0044    9.6331   27.7386 H   0  0  0  0  0
   32.5283    9.6044   27.5969 H   0  0  0  0  0
   31.8079   11.2791   27.6116 H   0  0  0  0  0
   33.5751   11.3132   26.0447 H   0  0  0  0  0
   32.9780    9.7485   25.2747 H   0  0  0  0  0
   28.4267   17.1163   17.1621 H   0  0  0  0  0
   28.2912   16.1751   19.4968 H   0  0  0  0  0
   28.6240   16.8084   14.8856 H   0  0  0  0  0
   28.0163   15.2363   14.2600 H   0  0  0  0  0
   30.0953   15.8594   13.2582 H   0  0  0  0  0
   30.8370   15.9324   14.7487 H   0  0  0  0  0
   30.2738   14.4752   14.1687 H   0  0  0  0  0
   30.4184   11.5390   16.0905 H   0  0  0  0  0
   28.6855   11.1312   16.0485 H   0  0  0  0  0
   29.6283   11.1689   14.5382 H   0  0  0  0  0
 17  1  1  0  0  0
  1 31  1  0  0  0
  2  3  4  0  0  0
  2  7  4  0  0  0
 28  2  1  0  0  0
  3  4  4  0  0  0
  4  5  4  0  0  0
  6  5  4  0  0  0
  7  6  4  0  0  0
  8  9  1  0  0  0
 25  8  1  0  0  0
  8 32  2  0  0  0
  9 10  4  0  0  0
  9 36  4  0  0  0
 10 33  4  0  0  0
 23 11  1  0  0  0
 11 24  1  0  0  0
 12 13  1  0  0  0
 12 15  1  0  0  0
 18 12  1  0  0  0
 13 25  1  0  0  0
 15 14  1  0  0  0
 14 16  1  0  0  0
 14 25  1  0  0  0
 16 26  2  0  0  0
 16 27  1  0  0  0
 27 17  1  0  0  0
 17 28  1  0  0  0
 18 19  4  0  0  0
 22 18  4  0  0  0
 20 19  4  0  0  0
 21 20  4  0  0  0
 21 22  4  0  0  0
 21 23  1  0  0  0
 23 24  1  0  0  0
 28 29  1  0  0  0
 29 30  1  0  0  0
 30 31  1  0  0  0
 33 34  4  0  0  0
 33 39  1  0  0  0
 34 35  4  0  0  0
 34 37  1  0  0  0
 35 36  4  0  0  0
 37 38  1  0  0  0
 39 40  1  0  0  0
  1 41  1  0  0  0
  1 42  1  0  0  0
  3 43  1  0  0  0
  4 44  1  0  0  0
  5 45  1  0  0  0
  6 46  1  0  0  0
  7 47  1  0  0  0
 10 48  1  0  0  0
 11 49  1  0  0  0
 11 50  1  0  0  0
 12 51  1  0  0  0
 13 52  1  0  0  0
 13 53  1  0  0  0
 14 54  1  0  0  0
 15 55  1  0  0  0
 15 56  1  0  0  0
 17 57  1  0  0  0
 22 58  1  0  0  0
 23 59  1  0  0  0
 24 60  1  0  0  0
 24 61  1  0  0  0
 27 62  1  0  0  0
 28 63  1  0  0  0
 29 64  1  0  0  0
 29 65  1  0  0  0
 30 66  1  0  0  0
 30 67  1  0  0  0
 31 68  1  0  0  0
 31 69  1  0  0  0
 35 70  1  0  0  0
 36 71  1  0  0  0
 37 72  1  0  0  0
 37 73  1  0  0  0
 38 74  1  0  0  0
 38 75  1  0  0  0
 38 76  1  0  0  0
 40 77  1  0  0  0
 40 78  1  0  0  0
 40 79  1  0  0  0
M  END
$$$$
