1rt1_ligand
  -I-interpret- 

 44 45  0  0  0  0  0  0  0  0999 V2000
   -1.0830  -33.7260   26.7730 C   0  0  0  0  0
   -1.5740  -33.1070   27.9140 C   0  0  0  0  0
   -0.7970  -32.1960   28.6140 C   0  0  0  0  0
    0.4880  -31.8870   28.1790 C   0  0  0  0  0
    0.9870  -32.4870   27.0450 C   0  0  0  0  0
    0.2040  -33.4020   26.3410 C   0  0  0  0  0
   -1.8470  -34.8860   24.6220 C   0  0  0  0  0
   -2.6800  -34.0170   23.9500 N   0  0  0  0  0
   -2.8330  -34.0570   22.5710 C   0  0  0  0  0
   -3.6270  -33.3340   21.9680 O   0  0  0  0  0
   -2.0840  -34.9970   21.9110 N   0  0  0  0  0
   -1.2040  -35.8940   22.4960 C   0  0  0  0  0
   -0.5470  -36.6700   21.8100 O   0  0  0  0  0
   -1.1190  -35.8150   23.9210 C   0  0  0  0  0
   -1.8560  -34.8520   26.1390 C   0  0  0  0  0
   -0.2140  -36.8770   24.5210 C   0  0  0  0  0
   -0.9370  -38.0870   25.0730 C   0  0  0  0  0
    0.8910  -36.3690   25.4020 C   0  0  0  0  0
   -3.3510  -32.9190   24.6740 C   0  0  0  0  0
   -4.4930  -33.3780   25.3960 O   0  0  0  0  0
   -5.7050  -33.5160   24.6380 C   0  0  0  0  0
   -6.8360  -34.2140   25.3000 C   0  0  0  0  0
   -2.5801  -33.3391   28.2634 H   0  0  0  0  0
   -1.1952  -31.7195   29.5098 H   0  0  0  0  0
    1.0968  -31.1730   28.7337 H   0  0  0  0  0
    1.9921  -32.2476   26.6978 H   0  0  0  0  0
    0.6028  -33.8704   25.4412 H   0  0  0  0  0
   -2.1835  -35.0401   20.8968 H   0  0  0  0  0
   -2.8957  -34.7187   26.4380 H   0  0  0  0  0
   -1.3824  -35.7760   26.4707 H   0  0  0  0  0
    0.3171  -37.2516   23.6460 H   0  0  0  0  0
   -1.6198  -37.7720   25.8620 H   0  0  0  0  0
   -1.5006  -38.5679   24.2735 H   0  0  0  0  0
   -0.2093  -38.7893   25.4795 H   0  0  0  0  0
    1.5369  -35.7058   24.8266 H   0  0  0  0  0
    0.4621  -35.8221   26.2417 H   0  0  0  0  0
    1.4732  -37.2117   25.7749 H   0  0  0  0  0
   -3.6821  -32.1803   23.9441 H   0  0  0  0  0
   -2.6429  -32.4965   25.3869 H   0  0  0  0  0
   -5.4467  -34.1230   23.7703 H   0  0  0  0  0
   -6.0529  -32.5013   24.4444 H   0  0  0  0  0
   -6.5335  -35.2287   25.5590 H   0  0  0  0  0
   -7.1146  -33.6743   26.2051 H   0  0  0  0  0
   -7.6873  -34.2496   24.6202 H   0  0  0  0  0
  1  2  4  0  0  0
  1  6  4  0  0  0
 15  1  1  0  0  0
  2  3  4  0  0  0
  3  4  4  0  0  0
  5  4  4  0  0  0
  6  5  4  0  0  0
  7  8  1  0  0  0
  7 14  2  0  0  0
  7 15  1  0  0  0
  8  9  1  0  0  0
  8 19  1  0  0  0
  9 10  2  0  0  0
  9 11  1  0  0  0
 11 12  1  0  0  0
 12 13  2  0  0  0
 12 14  1  0  0  0
 14 16  1  0  0  0
 16 17  1  0  0  0
 16 18  1  0  0  0
 19 20  1  0  0  0
 20 21  1  0  0  0
 21 22  1  0  0  0
  2 23  1  0  0  0
  3 24  1  0  0  0
  4 25  1  0  0  0
  5 26  1  0  0  0
  6 27  1  0  0  0
 11 28  1  0  0  0
 15 29  1  0  0  0
 15 30  1  0  0  0
 16 31  1  0  0  0
 17 32  1  0  0  0
 17 33  1  0  0  0
 17 34  1  0  0  0
 18 35  1  0  0  0
 18 36  1  0  0  0
 18 37  1  0  0  0
 19 38  1  0  0  0
 19 39  1  0  0  0
 21 40  1  0  0  0
 21 41  1  0  0  0
 22 42  1  0  0  0
 22 43  1  0  0  0
 22 44  1  0  0  0
M  END
$$$$
