5cp5_ligand
  -I-interpret- 

 41 44  0  0  0  0  0  0  0  0999 V2000
  -12.0370    3.4240    1.3530 C   0  0  0  0  0
  -12.4240    4.7640    1.9050 C   0  0  0  0  0
  -12.5380    5.6650    0.7200 N   0  0  0  0  0
  -13.6520    5.9100   -0.0050 C   0  0  0  0  0
  -14.7290    5.3090    0.1540 O   0  0  0  0  0
  -13.3750    6.8270   -0.9630 C   0  0  0  0  0
  -14.0810    7.4450   -1.9330 C   0  0  0  0  0
  -13.4610    8.3870   -2.7740 C   0  0  0  0  0
  -12.0920    8.6720   -2.5810 C   0  0  0  0  0
  -11.3810    8.0130   -1.5440 C   0  0  0  0  0
  -12.0670    7.1150   -0.8030 C   0  0  0  0  0
  -11.5500    6.4190    0.2230 C   0  0  0  0  0
  -10.2320    6.5420    0.5310 C   0  0  0  0  0
   -9.4470    7.4600   -0.1800 C   0  0  0  0  0
  -10.0030    8.1880   -1.2390 C   0  0  0  0  0
   -8.9230    9.2840   -2.1550 S   0  0  0  0  0
   -7.5160    9.0660   -1.6010 O   0  0  0  0  0
   -9.3950   10.7190   -1.9680 O   0  0  0  0  0
   -9.0260    8.9070   -3.7090 N   0  0  0  0  0
   -8.9370    7.6440   -4.2010 C   0  0  0  0  0
   -8.1820    6.6010   -3.6630 C   0  0  0  0  0
   -8.1240    5.3490   -4.2910 C   0  0  0  0  0
   -8.8160    5.1240   -5.4670 C   0  0  0  0  0
   -8.7980    3.9440   -6.0790 F   0  0  0  0  0
   -9.5590    6.1570   -6.0200 C   0  0  0  0  0
   -9.5970    7.4000   -5.3960 C   0  0  0  0  0
  -12.8078    3.0802    0.6632 H   0  0  0  0  0
  -11.0874    3.5105    0.8249 H   0  0  0  0  0
  -11.9355    2.7110    2.1712 H   0  0  0  0  0
  -11.6849    5.1316    2.6169 H   0  0  0  0  0
  -13.3611    4.7124    2.4594 H   0  0  0  0  0
  -15.1377    7.2129   -2.0656 H   0  0  0  0  0
  -14.0270    8.8873   -3.5598 H   0  0  0  0  0
  -11.5849    9.3923   -3.2230 H   0  0  0  0  0
   -9.7909    5.9343    1.3211 H   0  0  0  0  0
   -8.4018    7.6075    0.0919 H   0  0  0  0  0
   -9.1681    9.6672   -4.3741 H   0  0  0  0  0
   -7.6278    6.7626   -2.7384 H   0  0  0  0  0
   -7.5302    4.5484   -3.8499 H   0  0  0  0  0
  -10.1135    5.9946   -6.9442 H   0  0  0  0  0
  -10.1632    8.2071   -5.8609 H   0  0  0  0  0
  1  2  1  0  0  0
  2  3  1  0  0  0
  3  4  1  0  0  0
  3 12  1  0  0  0
  4  5  2  0  0  0
  4  6  1  0  0  0
  6  7  4  0  0  0
  6 11  4  0  0  0
  7  8  4  0  0  0
  8  9  4  0  0  0
  9 10  4  0  0  0
 10 11  4  0  0  0
 10 15  4  0  0  0
 11 12  4  0  0  0
 12 13  4  0  0  0
 13 14  4  0  0  0
 14 15  4  0  0  0
 15 16  1  0  0  0
 16 17  2  0  0  0
 16 18  2  0  0  0
 16 19  1  0  0  0
 19 20  1  0  0  0
 20 21  4  0  0  0
 20 26  4  0  0  0
 21 22  4  0  0  0
 22 23  4  0  0  0
 23 24  1  0  0  0
 23 25  4  0  0  0
 25 26  4  0  0  0
  1 27  1  0  0  0
  1 28  1  0  0  0
  1 29  1  0  0  0
  2 30  1  0  0  0
  2 31  1  0  0  0
  7 32  1  0  0  0
  8 33  1  0  0  0
  9 34  1  0  0  0
 13 35  1  0  0  0
 14 36  1  0  0  0
 19 37  1  0  0  0
 21 38  1  0  0  0
 22 39  1  0  0  0
 25 40  1  0  0  0
 26 41  1  0  0  0
M  END
$$$$
