4iho_ligand
  -I-interpret- 

150152  0  0  0  0  0  0  0  0999 V2000
  -14.0100  -54.9820  -14.6780 N   0  3  0  0  0
  -14.4780  -53.6520  -15.1270 C   0  0  0  0  0
  -15.8990  -53.3750  -14.6340 C   0  0  0  0  0
  -16.5700  -54.2730  -14.1450 O   0  0  0  0  0
  -14.3280  -53.5450  -16.6450 C   0  0  0  0  0
  -12.8640  -53.4250  -17.0640 C   0  0  0  0  0
  -12.6580  -53.2170  -18.5630 C   0  0  0  0  0
  -13.6500  -53.0830  -19.3040 O   0  0  0  0  0
  -11.4860  -53.1670  -19.0170 O   0  0  0  0  0
  -16.3500  -52.1250  -14.7110 N   0  0  0  0  0
  -17.6580  -51.7590  -14.1320 C   0  0  0  0  0
  -18.7780  -52.0740  -15.0990 C   0  0  0  0  0
  -18.5150  -52.2670  -16.2880 O   0  0  0  0  0
  -20.0310  -52.1040  -14.6100 N   0  0  0  0  0
  -21.1860  -52.2480  -15.4880 C   0  0  0  0  0
  -21.5070  -50.9210  -16.1410 C   0  0  0  0  0
  -21.3680  -49.8550  -15.5230 O   0  0  0  0  0
  -22.3110  -52.5670  -14.5180 C   0  0  0  0  0
  -21.9380  -51.8270  -13.2750 C   0  0  0  0  0
  -20.4290  -51.8120  -13.2200 C   0  0  0  0  0
  -21.9540  -50.9550  -17.3790 N   0  0  0  0  0
  -22.3850  -49.7190  -17.9730 C   0  0  0  0  0
  -23.8880  -49.7800  -17.9540 C   0  0  0  0  0
  -24.4680  -50.7860  -18.3720 O   0  0  0  0  0
  -21.8380  -49.5990  -19.3850 C   0  0  0  0  0
  -21.2780  -48.2300  -19.7030 C   0  0  0  0  0
  -20.7740  -48.1770  -21.1400 C   0  0  0  0  0
  -19.4320  -48.7400  -21.3360 N   0  0  0  0  0
  -19.1720  -49.9750  -21.7670 C   0  0  0  0  0
  -20.1640  -50.8120  -22.0560 N   0  0  0  0  0
  -17.9100  -50.3800  -21.9040 N   0  0  0  0  0
  -24.5220  -48.7280  -17.4430 N   0  0  0  0  0
  -25.9850  -48.6930  -17.3870 C   0  0  0  0  0
  -26.6160  -48.4010  -18.7410 C   0  0  0  0  0
  -25.9400  -47.9020  -19.6420 O   0  0  0  0  0
  -26.4780  -47.7020  -16.3280 C   0  0  0  0  0
  -26.3750  -48.2570  -14.9190 C   0  0  0  0  0
  -26.2200  -49.4710  -14.7220 O   0  0  0  0  0
  -26.4790  -47.3790  -13.9300 N   0  0  0  0  0
  -27.9050  -48.7310  -18.8700 N   0  0  0  0  0
  -28.6610  -48.5610  -20.1210 C   0  0  0  0  0
  -29.7320  -47.4340  -20.0150 C   0  0  0  0  0
  -29.3740  -46.2830  -19.8270 O   0  0  0  0  0
  -29.2450  -49.9080  -20.5800 C   0  0  0  0  0
  -29.8230  -49.9020  -21.9880 C   0  0  0  0  0
  -31.0650  -50.7610  -22.1120 C   0  0  0  0  0
  -30.9740  -51.9440  -22.4150 O   0  0  0  0  0
  -32.2320  -50.1680  -21.8810 N   0  0  0  0  0
  -31.0180  -47.7660  -20.1290 N   0  0  0  0  0
  -32.0780  -46.7650  -20.0730 C   0  0  0  0  0
  -32.2240  -46.2250  -18.6550 C   0  0  0  0  0
  -32.2080  -46.9980  -17.6950 O   0  0  0  0  0
  -33.4260  -47.3380  -20.5610 C   0  0  0  0  0
  -34.4560  -46.2390  -20.9010 C   0  0  0  0  0
  -34.0460  -45.0730  -21.0900 O   0  0  0  0  0
  -35.6730  -46.5320  -20.9950 O   0  0  0  0  0
  -32.5480  -44.9670  -18.5150 N   0  0  0  0  0
  -32.5710  -44.3010  -17.2480 C   0  0  0  0  0
  -33.6910  -44.8440  -16.3790 C   0  0  0  0  0
  -34.5040  -45.5870  -16.8400 O   0  0  0  0  0
  -32.7480  -42.7880  -17.4880 C   0  0  0  0  0
  -31.5850  -42.0920  -18.1460 C   0  0  0  0  0
  -30.3920  -41.8860  -17.6090 C   0  0  0  0  0
  -31.5310  -41.5080  -19.4510 C   0  0  0  0  0
  -29.5880  -41.2370  -18.4630 N   0  0  0  0  0
  -30.2660  -41.0000  -19.6150 C   0  0  0  0  0
  -32.4410  -41.3700  -20.5010 C   0  0  0  0  0
  -29.8760  -40.3600  -20.7640 C   0  0  0  0  0
  -32.0430  -40.7650  -21.6370 C   0  0  0  0  0
  -30.7820  -40.2600  -21.7620 C   0  0  0  0  0
  -33.6670  -44.5630  -15.0870 N   0  0  0  0  0
  -34.8820  -44.7050  -14.2780 C   0  0  0  0  0
  -36.0100  -43.8050  -14.8080 C   0  0  0  0  0
  -35.8050  -42.6360  -15.2590 O   0  0  0  0  0
  -34.6070  -44.3190  -12.8270 C   0  0  0  0  0
  -33.4660  -44.9660  -12.0440 C   0  0  0  0  0
  -33.4270  -44.2760  -10.6950 C   0  0  0  0  0
  -33.6400  -46.4750  -11.8570 C   0  0  0  0  0
  -37.1710  -44.2440  -14.7700 O   0  0  0  0  0
  -14.1104  -55.0524  -13.6654 H   0  0  0  0  0
  -14.5688  -55.7073  -15.1276 H   0  0  0  0  0
  -13.0293  -55.0998  -14.9326 H   0  0  0  0  0
  -13.8581  -52.8719  -14.6851 H   0  0  0  0  0
  -14.8541  -52.6506  -16.9788 H   0  0  0  0  0
  -14.7397  -54.4488  -17.0943 H   0  0  0  0  0
  -12.3753  -54.3625  -16.7989 H   0  0  0  0  0
  -12.4550  -52.5503  -16.5583 H   0  0  0  0  0
  -10.8605  -53.2907  -18.2993 H   0  0  0  0  0
  -15.7862  -51.4127  -15.1748 H   0  0  0  0  0
  -17.6637  -50.6893  -13.9227 H   0  0  0  0  0
  -17.8109  -52.3315  -13.2172 H   0  0  0  0  0
  -21.0307  -52.9895  -16.2717 H   0  0  0  0  0
  -22.4159  -53.6381  -14.3451 H   0  0  0  0  0
  -23.2854  -52.2647  -14.9019 H   0  0  0  0  0
  -22.3554  -52.3119  -12.3925 H   0  0  0  0  0
  -22.3376  -50.8130  -13.2902 H   0  0  0  0  0
  -20.0333  -50.8611  -12.8631 H   0  0  0  0  0
  -20.0295  -52.5363  -12.5101 H   0  0  0  0  0
  -21.9932  -51.8309  -17.9002 H   0  0  0  0  0
  -22.0231  -48.8425  -17.4355 H   0  0  0  0  0
  -22.6640  -49.7820  -20.0722 H   0  0  0  0  0
  -21.0229  -50.3162  -19.4819 H   0  0  0  0  0
  -20.4464  -48.0235  -19.0293 H   0  0  0  0  0
  -22.0667  -47.4881  -19.5779 H   0  0  0  0  0
  -20.7228  -47.1252  -21.4214 H   0  0  0  0  0
  -21.4608  -48.7730  -21.7410 H   0  0  0  0  0
  -18.6354  -48.1387  -21.1258 H   0  0  0  0  0
  -21.1327  -50.5112  -21.9486 H   0  0  0  0  0
  -17.7104  -51.3262  -22.2285 H   0  0  0  0  0
  -17.1435  -49.7439  -21.6843 H   0  0  0  0  0
  -23.9839  -47.9381  -17.0867 H   0  0  0  0  0
  -26.3073  -49.6930  -17.0968 H   0  0  0  0  0
  -27.5279  -47.4894  -16.5296 H   0  0  0  0  0
  -25.8529  -46.8109  -16.3847 H   0  0  0  0  0
  -26.4322  -47.6943  -12.9611 H   0  0  0  0  0
  -26.6058  -46.3886  -14.1385 H   0  0  0  0  0
  -28.3888  -49.1201  -18.0607 H   0  0  0  0  0
  -27.9702  -48.2263  -20.8949 H   0  0  0  0  0
  -30.0637  -50.1473  -19.9013 H   0  0  0  0  0
  -28.4262  -50.6275  -20.5756 H   0  0  0  0  0
  -29.0676  -50.3054  -22.6623 H   0  0  0  0  0
  -30.0989  -48.8763  -22.2328 H   0  0  0  0  0
  -33.0983  -50.7015  -21.9536 H   0  0  0  0  0
  -32.2612  -49.1795  -21.6311 H   0  0  0  0  0
  -31.2677  -48.7464  -20.2589 H   0  0  0  0  0
  -31.7971  -45.9502  -20.7403 H   0  0  0  0  0
  -33.8404  -47.9465  -19.7572 H   0  0  0  0  0
  -33.2362  -47.9099  -21.4693 H   0  0  0  0  0
  -35.7904  -47.4679  -20.8164 H   0  0  0  0  0
  -32.7964  -44.4339  -19.3484 H   0  0  0  0  0
  -31.6326  -44.4785  -16.7227 H   0  0  0  0  0
  -32.8664  -42.3308  -16.5056 H   0  0  0  0  0
  -33.5961  -42.6793  -18.1640 H   0  0  0  0  0
  -30.1026  -42.2019  -16.6067 H   0  0  0  0  0
  -33.4592  -41.7465  -20.4029 H   0  0  0  0  0
  -28.8725  -39.9474  -20.8683 H   0  0  0  0  0
  -32.7403  -40.6776  -22.4702 H   0  0  0  0  0
  -30.4980  -39.7635  -22.6898 H   0  0  0  0  0
  -32.8006  -44.2464  -14.6517 H   0  0  0  0  0
  -35.1889  -45.7492  -14.3385 H   0  0  0  0  0
  -34.8656  -42.4411  -15.2245 H   0  0  0  0  0
  -35.5047  -44.6337  -12.2949 H   0  0  0  0  0
  -34.3270  -43.2670  -12.8817 H   0  0  0  0  0
  -32.5363  -44.8466  -12.6004 H   0  0  0  0  0
  -33.2476  -43.2105  -10.8384 H   0  0  0  0  0
  -34.3805  -44.4201  -10.1869 H   0  0  0  0  0
  -32.6249  -44.7030  -10.0930 H   0  0  0  0  0
  -34.5640  -46.6681  -11.3121 H   0  0  0  0  0
  -33.6846  -46.9580  -12.8331 H   0  0  0  0  0
  -32.7948  -46.8698  -11.2931 H   0  0  0  0  0
  1  2  1  0  0  0
  2  3  1  0  0  0
  2  5  1  0  0  0
  3  4  2  0  0  0
  3 10  1  0  0  0
  5  6  1  0  0  0
  6  7  1  0  0  0
  7  8  2  0  0  0
  7  9  1  0  0  0
 10 11  1  0  0  0
 11 12  1  0  0  0
 12 13  2  0  0  0
 12 14  1  0  0  0
 14 15  1  0  0  0
 14 20  1  0  0  0
 15 16  1  0  0  0
 15 18  1  0  0  0
 16 17  2  0  0  0
 16 21  1  0  0  0
 18 19  1  0  0  0
 19 20  1  0  0  0
 21 22  1  0  0  0
 22 23  1  0  0  0
 22 25  1  0  0  0
 23 24  2  0  0  0
 23 32  1  0  0  0
 25 26  1  0  0  0
 26 27  1  0  0  0
 27 28  1  0  0  0
 28 29  1  0  0  0
 29 30  2  0  0  0
 29 31  1  0  0  0
 32 33  1  0  0  0
 33 34  1  0  0  0
 33 36  1  0  0  0
 34 35  2  0  0  0
 34 40  1  0  0  0
 36 37  1  0  0  0
 37 38  2  0  0  0
 37 39  1  0  0  0
 40 41  1  0  0  0
 41 42  1  0  0  0
 41 44  1  0  0  0
 42 43  2  0  0  0
 42 49  1  0  0  0
 44 45  1  0  0  0
 45 46  1  0  0  0
 46 47  2  0  0  0
 46 48  1  0  0  0
 49 50  1  0  0  0
 50 51  1  0  0  0
 50 53  1  0  0  0
 51 52  2  0  0  0
 51 57  1  0  0  0
 53 54  1  0  0  0
 54 55  2  0  0  0
 54 56  1  0  0  0
 57 58  1  0  0  0
 58 59  1  0  0  0
 58 61  1  0  0  0
 59 60  2  0  0  0
 59 71  1  0  0  0
 61 62  1  0  0  0
 62 63  4  0  0  0
 62 64  4  0  0  0
 63 65  4  0  0  0
 64 66  4  0  0  0
 64 67  4  0  0  0
 65 66  4  0  0  0
 66 68  4  0  0  0
 67 69  4  0  0  0
 68 70  4  0  0  0
 69 70  4  0  0  0
 71 72  1  0  0  0
 72 73  1  0  0  0
 72 75  1  0  0  0
 73 74  1  0  0  0
 73 79  2  0  0  0
 75 76  1  0  0  0
 76 77  1  0  0  0
 76 78  1  0  0  0
  1 80  1  0  0  0
  1 81  1  0  0  0
  1 82  1  0  0  0
  2 83  1  0  0  0
  5 84  1  0  0  0
  5 85  1  0  0  0
  6 86  1  0  0  0
  6 87  1  0  0  0
  9 88  1  0  0  0
 10 89  1  0  0  0
 11 90  1  0  0  0
 11 91  1  0  0  0
 15 92  1  0  0  0
 18 93  1  0  0  0
 18 94  1  0  0  0
 19 95  1  0  0  0
 19 96  1  0  0  0
 20 97  1  0  0  0
 20 98  1  0  0  0
 21 99  1  0  0  0
 22100  1  0  0  0
 25101  1  0  0  0
 25102  1  0  0  0
 26103  1  0  0  0
 26104  1  0  0  0
 27105  1  0  0  0
 27106  1  0  0  0
 28107  1  0  0  0
 30108  1  0  0  0
 31109  1  0  0  0
 31110  1  0  0  0
 32111  1  0  0  0
 33112  1  0  0  0
 36113  1  0  0  0
 36114  1  0  0  0
 39115  1  0  0  0
 39116  1  0  0  0
 40117  1  0  0  0
 41118  1  0  0  0
 44119  1  0  0  0
 44120  1  0  0  0
 45121  1  0  0  0
 45122  1  0  0  0
 48123  1  0  0  0
 48124  1  0  0  0
 49125  1  0  0  0
 50126  1  0  0  0
 53127  1  0  0  0
 53128  1  0  0  0
 56129  1  0  0  0
 57130  1  0  0  0
 58131  1  0  0  0
 61132  1  0  0  0
 61133  1  0  0  0
 63134  1  0  0  0
 67135  1  0  0  0
 68136  1  0  0  0
 69137  1  0  0  0
 70138  1  0  0  0
 71139  1  0  0  0
 72140  1  0  0  0
 74141  1  0  0  0
 75142  1  0  0  0
 75143  1  0  0  0
 76144  1  0  0  0
 77145  1  0  0  0
 77146  1  0  0  0
 77147  1  0  0  0
 78148  1  0  0  0
 78149  1  0  0  0
 78150  1  0  0  0
M  END
$$$$
