### 
### Created by X-TOOL on Mon Sep 10 21:13:16 2018
### 

@<TRIPOS>MOLECULE
4iho_ligand
  149   151     1     0     0
SMALL
GAST_HUCK


@<TRIPOS>ATOM
      1 N         -14.0100  -54.9820  -14.6780 N.4       1 GLU         0.2380
      2 CA        -14.4780  -53.6520  -15.1270 C.3       1 GLU         0.0665
      3 C         -15.8990  -53.3750  -14.6340 C.2       1 GLU         0.2266
      4 O         -16.5700  -54.2730  -14.1450 O.2       1 GLU        -0.3907
      5 CB        -14.3280  -53.5450  -16.6450 C.3       1 GLU         0.0194
      6 CG        -12.8640  -53.4250  -17.0640 C.3       1 GLU         0.0075
      7 CD        -12.6580  -53.2170  -18.5630 C.2       1 GLU         0.0351
      8 OE1       -13.6500  -53.0830  -19.3040 O.co2     1 GLU        -0.5690
      9 OE2       -11.4860  -53.1670  -19.0170 O.co2     1 GLU        -0.5690
     10 N         -16.3500  -52.1250  -14.7110 N.am      1 GLY        -0.2637
     11 CA        -17.6580  -51.7590  -14.1320 C.3       1 GLY         0.1204
     12 C         -18.7780  -52.0740  -15.0990 C.2       1 GLY         0.2032
     13 O         -18.5150  -52.2670  -16.2880 O.2       1 GLY        -0.3945
     14 N         -20.0310  -52.1040  -14.6100 N.am      1 PRO        -0.2501
     15 CA        -21.1860  -52.2480  -15.4880 C.3       1 PRO         0.1338
     16 C         -21.5070  -50.9210  -16.1410 C.2       1 PRO         0.2041
     17 O         -21.3680  -49.8550  -15.5230 O.2       1 PRO        -0.3944
     18 CB        -22.3110  -52.5670  -14.5180 C.3       1 PRO        -0.0104
     19 CG        -21.9380  -51.8270  -13.2750 C.3       1 PRO        -0.0281
     20 CD        -20.4290  -51.8120  -13.2200 C.3       1 PRO         0.0369
     21 N         -21.9540  -50.9550  -17.3790 N.am      1 ARG        -0.2637
     22 CA        -22.3850  -49.7190  -17.9730 C.3       1 ARG         0.1311
     23 C         -23.8880  -49.7800  -17.9540 C.2       1 ARG         0.2040
     24 O         -24.4680  -50.7860  -18.3720 O.2       1 ARG        -0.3944
     25 CB        -21.8380  -49.5990  -19.3850 C.3       1 ARG        -0.0092
     26 CG        -21.2780  -48.2300  -19.7030 C.3       1 ARG        -0.0156
     27 CD        -20.7740  -48.1770  -21.1400 C.3       1 ARG         0.0627
     28 NE        -19.4320  -48.7400  -21.3360 N.pl3     1 ARG        -0.2723
     29 CZ        -19.1720  -49.9750  -21.7670 C.cat     1 ARG         0.2882
     30 NH1       -20.1640  -50.8120  -22.0560 N.pl3     1 ARG        -0.2849
     31 NH2       -17.9100  -50.3800  -21.9040 N.pl3     1 ARG        -0.2849
     32 N         -24.5220  -48.7280  -17.4430 N.am      1 ASN        -0.2616
     33 CA        -25.9850  -48.6930  -17.3870 C.3       1 ASN         0.1476
     34 C         -26.6160  -48.4010  -18.7410 C.2       1 ASN         0.2063
     35 O         -25.9400  -47.9020  -19.6420 O.2       1 ASN        -0.3942
     36 CB        -26.4780  -47.7020  -16.3280 C.3       1 ASN         0.0773
     37 CG        -26.3750  -48.2570  -14.9190 C.2       1 ASN         0.1780
     38 OD1       -26.2200  -49.4710  -14.7220 O.2       1 ASN        -0.3970
     39 ND2       -26.4790  -47.3790  -13.9300 N.am      1 ASN        -0.3007
     40 N         -27.9050  -48.7310  -18.8700 N.am      1 GLN        -0.2634
     41 CA        -28.6610  -48.5610  -20.1210 C.3       1 GLN         0.1330
     42 C         -29.7320  -47.4340  -20.0150 C.2       1 GLN         0.2041
     43 O         -29.3740  -46.2830  -19.8270 O.2       1 GLN        -0.3944
     44 CB        -29.2450  -49.9080  -20.5800 C.3       1 GLN         0.0045
     45 CG        -29.8230  -49.9020  -21.9880 C.3       1 GLN         0.0412
     46 CD        -31.0650  -50.7610  -22.1120 C.2       1 GLN         0.1737
     47 OE1       -30.9740  -51.9440  -22.4150 O.2       1 GLN        -0.3973
     48 NE2       -32.2320  -50.1680  -21.8810 N.am      1 GLN        -0.3009
     49 N         -31.0180  -47.7660  -20.1290 N.am      1 ASP        -0.2622
     50 CA        -32.0780  -46.7650  -20.0730 C.3       1 ASP         0.1423
     51 C         -32.2240  -46.2250  -18.6550 C.2       1 ASP         0.2057
     52 O         -32.2080  -46.9980  -17.6950 O.2       1 ASP        -0.3943
     53 CB        -33.4260  -47.3380  -20.5610 C.3       1 ASP         0.0406
     54 CG        -34.4560  -46.2390  -20.9010 C.2       1 ASP         0.0393
     55 OD1       -34.0460  -45.0730  -21.0900 O.co2     1 ASP        -0.5688
     56 OD2       -35.6730  -46.5320  -20.9950 O.co2     1 ASP        -0.5688
     57 N         -32.5480  -44.9670  -18.5150 N.am      1 TRP        -0.2626
     58 CA        -32.5710  -44.3010  -17.2480 C.3       1 TRP         0.1351
     59 C         -33.6910  -44.8440  -16.3790 C.2       1 TRP         0.2046
     60 O         -34.5040  -45.5870  -16.8400 O.2       1 TRP        -0.3943
     61 CB        -32.7480  -42.7880  -17.4880 C.3       1 TRP         0.0042
     62 CG        -31.5850  -42.0920  -18.1460 C.2       1 TRP        -0.0418
     63 CD1       -30.3920  -41.8860  -17.6090 C.2       1 TRP         0.0167
     64 CD2       -31.5310  -41.5080  -19.4510 C.ar      1 TRP        -0.0214
     65 NE1       -29.5880  -41.2370  -18.4630 N.pl3     1 TRP        -0.2890
     66 CE2       -30.2660  -41.0000  -19.6150 C.ar      1 TRP         0.0603
     67 CE3       -32.4410  -41.3700  -20.5010 C.ar      1 TRP        -0.0747
     68 CZ2       -29.8760  -40.3600  -20.7640 C.ar      1 TRP        -0.0443
     69 CZ3       -32.0430  -40.7650  -21.6370 C.ar      1 TRP        -0.0792
     70 CH2       -30.7820  -40.2600  -21.7620 C.ar      1 TRP        -0.0768
     71 N         -33.6670  -44.5630  -15.0870 N.am      1 LEU        -0.2694
     72 CA        -34.8820  -44.7050  -14.2780 C.3       1 LEU         0.0946
     73 C         -36.0100  -43.8050  -14.8080 C.2       1 LEU         0.0601
     74 O         -35.8050  -42.6360  -15.2590 O.co2     1 LEU        -0.5666
     75 CB        -34.6070  -44.3190  -12.8270 C.3       1 LEU        -0.0156
     76 CG        -33.4660  -44.9660  -12.0440 C.3       1 LEU        -0.0431
     77 CD1       -33.4270  -44.2760  -10.6950 C.3       1 LEU        -0.0625
     78 CD2       -33.6400  -46.4750  -11.8570 C.3       1 LEU        -0.0625
     79 OXT       -37.1710  -44.2440  -14.7700 O.co2     1 LEU        -0.5666
     80 H1        -13.0733  -55.1400  -15.0151 H         1 GLU         0.2015
     81 H2        -14.6228  -55.6945  -15.0424 H         1 GLU         0.2015
     82 H3        -14.0150  -55.0175  -13.6706 H         1 GLU         0.2015
     83 H4        -13.8235  -52.8917  -14.6758 H         1 GLU         0.1099
     84 H5        -14.8723  -52.6554  -16.9946 H         1 GLU         0.0363
     85 H6        -14.7585  -54.4444  -17.1095 H         1 GLU         0.0363
     86 H7        -12.3437  -54.3482  -16.7690 H         1 GLU         0.0434
     87 H8        -12.4220  -52.5692  -16.5329 H         1 GLU         0.0434
     88 H9        -15.7972  -51.4266  -15.1657 H         1 GLY         0.1882
     89 H10       -17.6656  -50.6818  -13.9093 H         1 GLY         0.0763
     90 H11       -17.8131  -52.3267  -13.2027 H         1 GLY         0.0763
     91 H12       -21.0392  -53.0367  -16.2405 H         1 PRO         0.0802
     92 H13       -22.3673  -53.6488  -14.3268 H         1 PRO         0.0313
     93 H14       -23.2763  -52.2129  -14.9089 H         1 PRO         0.0313
     94 H15       -22.3451  -52.3397  -12.3911 H         1 PRO         0.0287
     95 H16       -22.3268  -50.7988  -13.3140 H         1 PRO         0.0287
     96 H17       -20.0569  -50.8265  -12.9032 H         1 PRO         0.0524
     97 H18       -20.0529  -52.5842  -12.5328 H         1 PRO         0.0524
     98 H19       -21.9925  -51.8137  -17.8900 H         1 ARG         0.1883
     99 H20       -22.0342  -48.8632  -17.3776 H         1 ARG         0.0800
    100 H21       -22.6519  -49.8148  -20.0928 H         1 ARG         0.0313
    101 H22       -21.0357  -50.3409  -19.5114 H         1 ARG         0.0313
    102 H23       -20.4441  -48.0128  -19.0193 H         1 ARG         0.0301
    103 H24       -22.0679  -47.4763  -19.5690 H         1 ARG         0.0301
    104 H25       -20.7548  -47.1244  -21.4587 H         1 ARG         0.0689
    105 H26       -21.4778  -48.7387  -21.7718 H         1 ARG         0.0689
    106 H27       -18.6275  -48.1328  -21.1237 H         1 ARG         0.2642
    107 H28       -19.9542  -51.7641  -22.3883 H         1 ARG         0.2615
    108 H29       -21.1422  -50.5083  -21.9476 H         1 ARG         0.2615
    109 H30       -17.1360  -49.7376  -21.6822 H         1 ARG         0.2615
    110 H31       -17.7084  -51.3354  -22.2317 H         1 ARG         0.2615
    111 H32       -23.9945  -47.9536  -17.0937 H         1 ASN         0.1885
    112 H33       -26.3208  -49.6950  -17.0818 H         1 ASN         0.0826
    113 H34       -27.5306  -47.4591  -16.5352 H         1 ASN         0.0551
    114 H35       -25.8711  -46.7868  -16.3917 H         1 ASN         0.0551
    115 H36       -26.4189  -47.6862  -12.9803 H         1 ASN         0.1814
    116 H37       -26.6175  -46.4099  -14.1342 H         1 ASN         0.1814
    117 H38       -28.3793  -49.1125  -18.0766 H         1 GLN         0.1883
    118 H39       -27.9444  -48.2421  -20.8923 H         1 GLN         0.0801
    119 H40       -30.0465  -50.1902  -19.8815 H         1 GLN         0.0337
    120 H41       -28.4434  -50.6603  -20.5416 H         1 GLN         0.0337
    121 H42       -29.0605  -50.2828  -22.6834 H         1 GLN         0.0504
    122 H43       -30.0818  -48.8676  -22.2581 H         1 GLN         0.0504
    123 H44       -33.0812  -50.6916  -21.9500 H         1 GLN         0.1814
    124 H45       -32.2607  -49.1983  -21.6383 H         1 GLN         0.1814
    125 H46       -31.2628  -48.7272  -20.2564 H         1 ASP         0.1884
    126 H47       -31.7983  -45.9326  -20.7354 H         1 ASP         0.0819
    127 H48       -33.8432  -47.9776  -19.7693 H         1 ASP         0.0478
    128 H49       -33.2455  -47.9414  -21.4628 H         1 ASP         0.0478
    129 H50       -32.7916  -44.4444  -19.3320 H         1 TRP         0.1884
    130 H51       -31.6133  -44.4726  -16.7348 H         1 TRP         0.0815
    131 H52       -32.9214  -42.3088  -16.5131 H         1 TRP         0.0397
    132 H53       -33.6318  -42.6481  -18.1277 H         1 TRP         0.0397
    133 H54       -30.1029  -42.2016  -16.6076 H         1 TRP         0.0795
    134 H55       -28.6131  -40.9625  -18.2754 H         1 TRP         0.2216
    135 H56       -33.4536  -41.7444  -20.4034 H         1 TRP         0.0540
    136 H57       -28.8780  -39.9496  -20.8677 H         1 TRP         0.0541
    137 H58       -32.7365  -40.6780  -22.4656 H         1 TRP         0.0510
    138 H59       -30.4995  -39.7662  -22.6847 H         1 TRP         0.0530
    139 H60       -32.8176  -44.2527  -14.6602 H         1 LEU         0.1875
    140 H61       -35.2100  -45.7542  -14.3177 H         1 LEU         0.0726
    141 H62       -35.5298  -44.5300  -12.2668 H         1 LEU         0.0308
    142 H63       -34.4148  -43.2359  -12.8224 H         1 LEU         0.0308
    143 H64       -32.5202  -44.7906  -12.5775 H         1 LEU         0.0297
    144 H65       -32.6179  -44.7061  -10.0865 H         1 LEU         0.0232
    145 H66       -34.3888  -44.4207  -10.1812 H         1 LEU         0.0232
    146 H67       -33.2459  -43.2005  -10.8383 H         1 LEU         0.0232
    147 H68       -33.6670  -46.9657  -12.8411 H         1 LEU         0.0232
    148 H69       -34.5813  -46.6722  -11.3230 H         1 LEU         0.0232
    149 H70       -32.7968  -46.8717  -11.2726 H         1 LEU         0.0232
@<TRIPOS>BOND
     1    1    2 1  
     2    2    3 1  
     3    2    5 1  
     4    3    4 2  
     5    3   10 am 
     6    5    6 1  
     7    6    7 1  
     8    7    8 ar 
     9    7    9 ar 
    10   10   11 1  
    11   11   12 1  
    12   12   13 2  
    13   12   14 am 
    14   14   15 1  
    15   14   20 1  
    16   15   16 1  
    17   15   18 1  
    18   16   17 2  
    19   16   21 am 
    20   18   19 1  
    21   19   20 1  
    22   21   22 1  
    23   22   23 1  
    24   22   25 1  
    25   23   24 2  
    26   23   32 am 
    27   25   26 1  
    28   26   27 1  
    29   27   28 1  
    30   28   29 ar 
    31   29   30 ar 
    32   29   31 ar 
    33   32   33 1  
    34   33   34 1  
    35   33   36 1  
    36   34   35 2  
    37   34   40 am 
    38   36   37 1  
    39   37   38 2  
    40   37   39 am 
    41   40   41 1  
    42   41   42 1  
    43   41   44 1  
    44   42   43 2  
    45   42   49 am 
    46   44   45 1  
    47   45   46 1  
    48   46   47 2  
    49   46   48 am 
    50   49   50 1  
    51   50   51 1  
    52   50   53 1  
    53   51   52 2  
    54   51   57 am 
    55   53   54 1  
    56   54   55 ar 
    57   54   56 ar 
    58   57   58 1  
    59   58   59 1  
    60   58   61 1  
    61   59   60 2  
    62   59   71 am 
    63   61   62 1  
    64   62   63 2  
    65   62   64 1  
    66   63   65 1  
    67   64   66 ar 
    68   64   67 ar 
    69   65   66 1  
    70   66   68 ar 
    71   67   69 ar 
    72   68   70 ar 
    73   69   70 ar 
    74   71   72 1  
    75   72   73 1  
    76   72   75 1  
    77   73   74 ar 
    78   73   79 ar 
    79   75   76 1  
    80   76   77 1  
    81   76   78 1  
    82    1   80 1  
    83    1   81 1  
    84    1   82 1  
    85    2   83 1  
    86    5   84 1  
    87    5   85 1  
    88    6   86 1  
    89    6   87 1  
    90   10   88 1  
    91   11   89 1  
    92   11   90 1  
    93   15   91 1  
    94   18   92 1  
    95   18   93 1  
    96   19   94 1  
    97   19   95 1  
    98   20   96 1  
    99   20   97 1  
   100   21   98 1  
   101   22   99 1  
   102   25  100 1  
   103   25  101 1  
   104   26  102 1  
   105   26  103 1  
   106   27  104 1  
   107   27  105 1  
   108   28  106 1  
   109   30  107 1  
   110   30  108 1  
   111   31  109 1  
   112   31  110 1  
   113   32  111 1  
   114   33  112 1  
   115   36  113 1  
   116   36  114 1  
   117   39  115 1  
   118   39  116 1  
   119   40  117 1  
   120   41  118 1  
   121   44  119 1  
   122   44  120 1  
   123   45  121 1  
   124   45  122 1  
   125   48  123 1  
   126   48  124 1  
   127   49  125 1  
   128   50  126 1  
   129   53  127 1  
   130   53  128 1  
   131   57  129 1  
   132   58  130 1  
   133   61  131 1  
   134   61  132 1  
   135   63  133 1  
   136   65  134 1  
   137   67  135 1  
   138   68  136 1  
   139   69  137 1  
   140   70  138 1  
   141   71  139 1  
   142   72  140 1  
   143   75  141 1  
   144   75  142 1  
   145   76  143 1  
   146   77  144 1  
   147   77  145 1  
   148   77  146 1  
   149   78  147 1  
   150   78  148 1  
   151   78  149 1  
@<TRIPOS>SUBSTRUCTURE
     1 GLU         1

