### 
### Created by X-TOOL on Mon Sep 10 21:13:23 2018
### 

@<TRIPOS>MOLECULE
4zed_ligand
   78    81     1     0     0
SMALL
GAST_HUCK


@<TRIPOS>ATOM
      1 CBH       -14.0690  -27.7310   24.3310 C.3       1 AGW         0.2302
      2 CAO       -14.9840  -28.9430   24.4230 C.3       1 AGW         0.1013
      3 OAD       -16.1530  -28.7990   25.1970 O.3       1 AGW        -0.3896
      4 CBD       -14.7280  -26.6630   23.5420 C.3       1 AGW         0.1758
      5 OAR       -12.9020  -27.9620   23.5870 O.3       1 AGW        -0.3356
      6 CBC       -13.1230  -27.6370   22.2470 C.3       1 AGW         0.1192
      7 CAN       -11.9820  -26.8920   21.6350 C.3       1 AGW         0.0734
      8 OAC       -11.8810  -25.4850   21.7780 O.3       1 AGW        -0.3924
      9 CBG       -14.4120  -26.8880   22.1950 C.3       1 AGW         0.1580
     10 OAU       -15.4530  -27.6820   21.6630 O.3       1 AGW        -0.2449
     11 O15       -16.8440  -25.6890   20.9430 O.co2     1 AGW        -0.6177
     12 P1        -16.4650  -27.1140   20.6160 P.3       1 AGW         0.2562
     13 OAL       -17.6480  -28.0640   20.6330 O.co2     1 AGW        -0.6177
     14 OBA       -15.7370  -27.0900   19.1960 O.3       1 AGW        -0.2430
     15 CBO       -15.6120  -28.2280   18.3300 C.3       1 AGW         0.1728
     16 CBM       -14.2150  -28.5530   18.1640 C.3       1 AGW         0.1191
     17 O14       -13.6230  -29.0750   19.4400 O.3       1 AGW        -0.3860
     18 CBL       -13.8870  -29.4210   17.0790 C.3       1 AGW         0.1073
     19 O10       -14.3620  -30.7780   17.3820 O.3       1 AGW        -0.3868
     20 CBN       -14.5870  -29.0050   15.7890 C.3       1 AGW         0.0792
     21 OAX       -15.9760  -28.7590   15.9750 O.3       1 AGW        -0.3459
     22 C8        -16.2340  -27.8250   17.0050 C.3       1 AGW         0.1905
     23 OAH       -17.5780  -27.5850   17.1010 O.3       1 AGW        -0.3646
     24 O2        -14.9010  -27.4080   28.0700 O.3       1 AGW        -0.3841
     25 C2        -13.4760  -27.5510   28.0000 C.3       1 AGW         0.1342
     26 C3        -12.7720  -26.3720   28.5430 C.3       1 AGW         0.1141
     27 O3        -13.5910  -25.5460   29.4120 O.3       1 AGW        -0.3864
     28 C4        -12.0210  -25.5920   27.5970 C.3       1 AGW         0.1119
     29 O4        -11.4560  -24.3780   28.1700 O.3       1 AGW        -0.3865
     30 C5        -11.0920  -26.3990   26.7250 C.3       1 AGW         0.1130
     31 C6         -9.7120  -26.6010   27.3140 C.3       1 AGW         0.0730
     32 O6         -8.7770  -25.5550   27.1700 O.3       1 AGW        -0.3924
     33 O5        -11.6530  -27.7390   26.3680 O.3       1 AGW        -0.3404
     34 C1        -13.0270  -27.9800   26.6130 C.3       1 AGW         0.1913
     35 O1        -13.8080  -27.2500   25.6500 O.3       1 AGW        -0.3122
     36 C         -14.7530  -24.4070   24.7110 C.2       1 AGW         0.2637
     37 O11       -15.6390  -24.9700   25.7720 O.2       1 AGW        -0.3568
     38 O12       -14.0860  -25.4350   23.8670 O.3       1 AGW        -0.2655
     39 C11       -13.8300  -23.1270   25.0540 C.ar      1 AGW         0.0620
     40 C12       -14.2780  -22.1570   25.9480 C.ar      1 AGW        -0.0406
     41 C13       -13.4610  -21.0580   26.2210 C.ar      1 AGW        -0.0559
     42 C14       -12.2160  -20.9390   25.6000 C.ar      1 AGW        -0.0573
     43 C15       -11.7780  -21.8990   24.6820 C.ar      1 AGW        -0.0559
     44 C16       -12.6000  -23.0000   24.4000 C.ar      1 AGW        -0.0406
     45 H1        -14.3995  -29.7694   24.8535 H         1 AGW         0.0612
     46 H2        -15.2923  -29.2057   23.4003 H         1 AGW         0.0612
     47 H3        -16.6861  -28.1004   24.8364 H         1 AGW         0.2096
     48 H4        -15.8130  -26.6297   23.7200 H         1 AGW         0.0734
     49 H5        -13.2425  -28.5708   21.6781 H         1 AGW         0.0651
     50 H6        -12.0150  -27.0972   20.5548 H         1 AGW         0.0584
     51 H7        -11.0622  -27.3187   22.0614 H         1 AGW         0.0584
     52 H8        -11.1015  -25.1774   21.3303 H         1 AGW         0.2095
     53 H9        -14.3071  -25.9512   21.6282 H         1 AGW         0.0715
     54 H10       -16.1443  -29.0933   18.7518 H         1 AGW         0.0735
     55 H11       -13.7131  -27.5987   17.9465 H         1 AGW         0.0652
     56 H12       -12.7058  -29.2800   19.3016 H         1 AGW         0.2100
     57 H13       -12.7971  -29.4204   16.9303 H         1 AGW         0.0643
     58 H14       -14.1445  -31.3568   16.6608 H         1 AGW         0.2100
     59 H15       -14.4678  -29.8094   15.0483 H         1 AGW         0.0587
     60 H16       -14.1140  -28.0863   15.4119 H         1 AGW         0.0587
     61 H17       -15.7576  -26.8785   16.7096 H         1 AGW         0.0940
     62 H18       -17.8957  -27.2351   16.2769 H         1 AGW         0.2126
     63 H19       -15.1629  -27.2979   28.9765 H         1 AGW         0.2101
     64 H20       -13.2165  -28.3849   28.6688 H         1 AGW         0.0671
     65 H21       -12.0075  -26.8022   29.2066 H         1 AGW         0.0648
     66 H22       -13.0775  -24.8099   29.7235 H         1 AGW         0.2100
     67 H23       -12.7804  -25.2213   26.8928 H         1 AGW         0.0647
     68 H24       -10.8697  -24.6080   28.8812 H         1 AGW         0.2100
     69 H25       -10.9692  -25.8309   25.7911 H         1 AGW         0.0647
     70 H26        -9.2803  -27.4947   26.8399 H         1 AGW         0.0584
     71 H27        -9.8383  -26.7823   28.3916 H         1 AGW         0.0584
     72 H28        -9.1140  -24.7709   27.5871 H         1 AGW         0.2095
     73 H29       -13.2168  -29.0575   26.4996 H         1 AGW         0.0939
     74 H30       -15.2467  -22.2540   26.4247 H         1 AGW         0.0672
     75 H31       -13.7939  -20.2958   26.9163 H         1 AGW         0.0630
     76 H32       -11.5809  -20.0918   25.8324 H         1 AGW         0.0654
     77 H33       -10.8155  -21.7935   24.1946 H         1 AGW         0.0630
     78 H34       -12.2844  -23.7469   23.6806 H         1 AGW         0.0672
@<TRIPOS>BOND
     1    1    2 1  
     2    4    1 1  
     3    1    5 1  
     4    1   35 1  
     5    2    3 1  
     6    4    9 1  
     7   38    4 1  
     8    6    5 1  
     9    6    7 1  
    10    9    6 1  
    11    7    8 1  
    12    9   10 1  
    13   10   12 1  
    14   12   11 ar 
    15   12   13 ar 
    16   12   14 1  
    17   14   15 1  
    18   15   16 1  
    19   15   22 1  
    20   16   17 1  
    21   16   18 1  
    22   18   19 1  
    23   18   20 1  
    24   21   20 1  
    25   22   21 1  
    26   22   23 1  
    27   25   24 1  
    28   25   26 1  
    29   34   25 1  
    30   26   27 1  
    31   26   28 1  
    32   28   29 1  
    33   30   28 1  
    34   30   31 1  
    35   33   30 1  
    36   31   32 1  
    37   34   33 1  
    38   35   34 1  
    39   36   37 2  
    40   36   38 1  
    41   36   39 1  
    42   39   40 ar 
    43   39   44 ar 
    44   40   41 ar 
    45   41   42 ar 
    46   42   43 ar 
    47   43   44 ar 
    48    2   45 1  
    49    2   46 1  
    50    3   47 1  
    51    4   48 1  
    52    6   49 1  
    53    7   50 1  
    54    7   51 1  
    55    8   52 1  
    56    9   53 1  
    57   15   54 1  
    58   16   55 1  
    59   17   56 1  
    60   18   57 1  
    61   19   58 1  
    62   20   59 1  
    63   20   60 1  
    64   22   61 1  
    65   23   62 1  
    66   24   63 1  
    67   25   64 1  
    68   26   65 1  
    69   27   66 1  
    70   28   67 1  
    71   29   68 1  
    72   30   69 1  
    73   31   70 1  
    74   31   71 1  
    75   32   72 1  
    76   34   73 1  
    77   40   74 1  
    78   41   75 1  
    79   42   76 1  
    80   43   77 1  
    81   44   78 1  
@<TRIPOS>SUBSTRUCTURE
     1 AGW         1

