4zed_ligand
  -I-interpret- 

 79 82  0  0  0  0  0  0  0  0999 V2000
  -14.0690  -27.7310   24.3310 C   0  0  0  0  0
  -14.9840  -28.9430   24.4230 C   0  0  0  0  0
  -16.1530  -28.7990   25.1970 O   0  0  0  0  0
  -14.7280  -26.6630   23.5420 C   0  0  0  0  0
  -12.9020  -27.9620   23.5870 O   0  0  0  0  0
  -13.1230  -27.6370   22.2470 C   0  0  0  0  0
  -11.9820  -26.8920   21.6350 C   0  0  0  0  0
  -11.8810  -25.4850   21.7780 O   0  0  0  0  0
  -14.4120  -26.8880   22.1950 C   0  0  0  0  0
  -15.4530  -27.6820   21.6630 O   0  0  0  0  0
  -16.8440  -25.6890   20.9430 O   0  0  0  0  0
  -16.4650  -27.1140   20.6160 P   0  0  0  0  0
  -17.6480  -28.0640   20.6330 O   0  0  0  0  0
  -15.7370  -27.0900   19.1960 O   0  0  0  0  0
  -15.6120  -28.2280   18.3300 C   0  0  0  0  0
  -14.2150  -28.5530   18.1640 C   0  0  0  0  0
  -13.6230  -29.0750   19.4400 O   0  0  0  0  0
  -13.8870  -29.4210   17.0790 C   0  0  0  0  0
  -14.3620  -30.7780   17.3820 O   0  0  0  0  0
  -14.5870  -29.0050   15.7890 C   0  0  0  0  0
  -15.9760  -28.7590   15.9750 O   0  0  0  0  0
  -16.2340  -27.8250   17.0050 C   0  0  0  0  0
  -17.5780  -27.5850   17.1010 O   0  0  0  0  0
  -14.9010  -27.4080   28.0700 O   0  0  0  0  0
  -13.4760  -27.5510   28.0000 C   0  0  0  0  0
  -12.7720  -26.3720   28.5430 C   0  0  0  0  0
  -13.5910  -25.5460   29.4120 O   0  0  0  0  0
  -12.0210  -25.5920   27.5970 C   0  0  0  0  0
  -11.4560  -24.3780   28.1700 O   0  0  0  0  0
  -11.0920  -26.3990   26.7250 C   0  0  0  0  0
   -9.7120  -26.6010   27.3140 C   0  0  0  0  0
   -8.7770  -25.5550   27.1700 O   0  0  0  0  0
  -11.6530  -27.7390   26.3680 O   0  0  0  0  0
  -13.0270  -27.9800   26.6130 C   0  0  0  0  0
  -13.8080  -27.2500   25.6500 O   0  0  0  0  0
  -14.7530  -24.4070   24.7110 C   0  0  0  0  0
  -15.6390  -24.9700   25.7720 O   0  0  0  0  0
  -14.0860  -25.4350   23.8670 O   0  0  0  0  0
  -13.8300  -23.1270   25.0540 C   0  0  0  0  0
  -14.2780  -22.1570   25.9480 C   0  0  0  0  0
  -13.4610  -21.0580   26.2210 C   0  0  0  0  0
  -12.2160  -20.9390   25.6000 C   0  0  0  0  0
  -11.7780  -21.8990   24.6820 C   0  0  0  0  0
  -12.6000  -23.0000   24.4000 C   0  0  0  0  0
  -14.3984  -29.7242   24.9077 H   0  0  0  0  0
  -15.3211  -29.1415   23.4056 H   0  0  0  0  0
  -16.6484  -29.6212   25.1824 H   0  0  0  0  0
  -15.8009  -26.6456   23.7337 H   0  0  0  0  0
  -13.1912  -28.5405   21.6412 H   0  0  0  0  0
  -12.1065  -27.0443   20.5629 H   0  0  0  0  0
  -11.1025  -27.2777   22.1506 H   0  0  0  0  0
  -11.0934  -25.1742   21.3256 H   0  0  0  0  0
  -14.3149  -25.9926   21.5811 H   0  0  0  0  0
  -17.3481  -28.9505   20.4191 H   0  0  0  0  0
  -16.1096  -29.1086   18.7363 H   0  0  0  0  0
  -13.7660  -27.5969   17.8952 H   0  0  0  0  0
  -12.6961  -29.2822   19.3002 H   0  0  0  0  0
  -12.8056  -29.3752   16.9501 H   0  0  0  0  0
  -14.1422  -31.3629   16.6532 H   0  0  0  0  0
  -14.4837  -29.8206   15.0733 H   0  0  0  0  0
  -14.1264  -28.0806   15.4405 H   0  0  0  0  0
  -15.7470  -26.8874   16.7370 H   0  0  0  0  0
  -17.9196  -27.3351   16.2394 H   0  0  0  0  0
  -15.3184  -28.1932   27.7082 H   0  0  0  0  0
  -13.1819  -28.3683   28.6585 H   0  0  0  0  0
  -12.0094  -26.8323   29.1713 H   0  0  0  0  0
  -13.0721  -24.8022   29.7268 H   0  0  0  0  0
  -12.7522  -25.2215   26.8785 H   0  0  0  0  0
  -10.9687  -23.9027   27.4931 H   0  0  0  0  0
  -10.9940  -25.7897   25.8266 H   0  0  0  0  0
   -9.2867  -27.4480   26.7756 H   0  0  0  0  0
   -9.8664  -26.7079   28.3877 H   0  0  0  0  0
   -7.9488  -25.8083   27.5841 H   0  0  0  0  0
  -13.1750  -29.0570   26.5340 H   0  0  0  0  0
  -15.2521  -22.2545   26.4274 H   0  0  0  0  0
  -13.7957  -20.2916   26.9201 H   0  0  0  0  0
  -11.5774  -20.0871   25.8336 H   0  0  0  0  0
  -10.8102  -21.7929   24.1919 H   0  0  0  0  0
  -12.2827  -23.7511   23.6766 H   0  0  0  0  0
  1  2  1  0  0  0
  4  1  1  0  0  0
  1  5  1  0  0  0
  1 35  1  0  0  0
  2  3  1  0  0  0
  4  9  1  0  0  0
 38  4  1  0  0  0
  6  5  1  0  0  0
  6  7  1  0  0  0
  9  6  1  0  0  0
  7  8  1  0  0  0
  9 10  1  0  0  0
 10 12  1  0  0  0
 12 11  2  0  0  0
 12 13  1  0  0  0
 12 14  1  0  0  0
 14 15  1  0  0  0
 15 16  1  0  0  0
 15 22  1  0  0  0
 16 17  1  0  0  0
 16 18  1  0  0  0
 18 19  1  0  0  0
 18 20  1  0  0  0
 21 20  1  0  0  0
 22 21  1  0  0  0
 22 23  1  0  0  0
 25 24  1  0  0  0
 25 26  1  0  0  0
 34 25  1  0  0  0
 26 27  1  0  0  0
 26 28  1  0  0  0
 28 29  1  0  0  0
 30 28  1  0  0  0
 30 31  1  0  0  0
 33 30  1  0  0  0
 31 32  1  0  0  0
 34 33  1  0  0  0
 35 34  1  0  0  0
 36 37  2  0  0  0
 36 38  1  0  0  0
 36 39  1  0  0  0
 39 40  4  0  0  0
 39 44  4  0  0  0
 40 41  4  0  0  0
 41 42  4  0  0  0
 42 43  4  0  0  0
 43 44  4  0  0  0
  2 45  1  0  0  0
  2 46  1  0  0  0
  3 47  1  0  0  0
  4 48  1  0  0  0
  6 49  1  0  0  0
  7 50  1  0  0  0
  7 51  1  0  0  0
  8 52  1  0  0  0
  9 53  1  0  0  0
 13 54  1  0  0  0
 15 55  1  0  0  0
 16 56  1  0  0  0
 17 57  1  0  0  0
 18 58  1  0  0  0
 19 59  1  0  0  0
 20 60  1  0  0  0
 20 61  1  0  0  0
 22 62  1  0  0  0
 23 63  1  0  0  0
 24 64  1  0  0  0
 25 65  1  0  0  0
 26 66  1  0  0  0
 27 67  1  0  0  0
 28 68  1  0  0  0
 29 69  1  0  0  0
 30 70  1  0  0  0
 31 71  1  0  0  0
 31 72  1  0  0  0
 32 73  1  0  0  0
 34 74  1  0  0  0
 40 75  1  0  0  0
 41 76  1  0  0  0
 42 77  1  0  0  0
 43 78  1  0  0  0
 44 79  1  0  0  0
M  END
$$$$
