5ezx_ligand
  -I-interpret- 

 44 47  0  0  0  0  0  0  0  0999 V2000
  -19.5370   38.2570   92.2060 C   0  0  0  0  0
  -20.8900   40.3330   91.7370 C   0  0  0  0  0
  -15.9470   40.2690   91.7750 C   0  0  0  0  0
  -21.2640   41.3120   90.6800 C   0  0  0  0  0
  -22.3720   42.1140   90.8760 C   0  0  0  0  0
  -16.2020   36.7640   96.2470 C   0  0  0  0  0
  -20.9460   42.3410   88.5500 C   0  0  0  0  0
  -17.5370   37.1340   96.1990 C   0  0  0  0  0
  -22.0510   43.1450   88.7930 C   0  0  0  0  0
  -20.0500   42.5350   87.0200 Cl  0  0  0  0  0
  -22.7250   42.9950   89.9450 N   0  0  0  0  0
  -20.5380   41.4250   89.4900 C   0  0  0  0  0
  -21.6820   40.0940   92.6340 O   0  0  0  0  0
  -19.5550   39.6730   91.6610 C   0  0  0  0  0
  -19.0560   39.4200   93.0710 C   0  0  0  0  0
  -17.5360   39.5290   93.2230 C   0  0  0  0  0
  -17.1380   40.9400   93.6790 C   0  0  0  0  0
  -16.1830   41.3520   92.6920 O   0  0  0  0  0
  -14.9910   40.3020   90.8300 N   0  0  0  0  0
  -16.7450   39.3120   92.0010 N   0  0  0  0  0
  -17.0850   38.5530   94.2830 C   0  0  0  0  0
  -17.9710   38.0250   95.2260 C   0  0  0  0  0
  -15.3040   37.2960   95.3150 C   0  0  0  0  0
  -15.7470   38.1820   94.3410 C   0  0  0  0  0
  -15.7770   35.8760   97.2090 O   0  0  0  0  0
  -14.4870   35.9490   97.8490 C   0  0  0  0  0
  -13.6490   34.9910   97.3300 F   0  0  0  0  0
  -13.9110   37.1920   97.7380 F   0  0  0  0  0
  -19.1980   37.2665   91.9026 H   0  0  0  0  0
  -20.2064   37.4002   92.2835 H   0  0  0  0  0
  -22.9556   42.0245   91.7923 H   0  0  0  0  0
  -18.2437   36.7271   96.9223 H   0  0  0  0  0
  -22.3671   43.8871   88.0598 H   0  0  0  0  0
  -19.6645   40.7980   89.3112 H   0  0  0  0  0
  -19.1754   40.1231   90.7437 H   0  0  0  0  0
  -19.3041   39.7926   94.0649 H   0  0  0  0  0
  -16.7282   40.9533   94.6889 H   0  0  0  0  0
  -17.9913   41.6152   93.7431 H   0  0  0  0  0
  -14.3919   41.1225   90.7390 H   0  0  0  0  0
  -16.8296   38.4878   91.4061 H   0  0  0  0  0
  -19.0206   38.3175   95.1974 H   0  0  0  0  0
  -14.2518   37.0139   95.3534 H   0  0  0  0  0
  -15.0405   38.5888   93.6175 H   0  0  0  0  0
  -14.6449   35.7644   98.9116 H   0  0  0  0  0
 14  1  1  0  0  0
 15  1  1  0  0  0
  2  4  1  0  0  0
  2 13  2  0  0  0
 14  2  1  0  0  0
  3 18  1  0  0  0
  3 19  2  0  0  0
 20  3  1  0  0  0
  4  5  4  0  0  0
  4 12  4  0  0  0
  5 11  4  0  0  0
  8  6  4  0  0  0
  6 23  4  0  0  0
  6 25  1  0  0  0
  7  9  4  0  0  0
  7 10  1  0  0  0
 12  7  4  0  0  0
 22  8  4  0  0  0
 11  9  4  0  0  0
 15 14  1  0  0  0
 16 15  1  0  0  0
 16 17  1  0  0  0
 16 20  1  0  0  0
 21 16  1  0  0  0
 17 18  1  0  0  0
 21 22  4  0  0  0
 21 24  4  0  0  0
 23 24  4  0  0  0
 25 26  1  0  0  0
 26 27  1  0  0  0
 26 28  1  0  0  0
  1 29  1  0  0  0
  1 30  1  0  0  0
  5 31  1  0  0  0
  8 32  1  0  0  0
  9 33  1  0  0  0
 12 34  1  0  0  0
 14 35  1  0  0  0
 15 36  1  0  0  0
 17 37  1  0  0  0
 17 38  1  0  0  0
 19 39  1  0  0  0
 20 40  1  0  0  0
 22 41  1  0  0  0
 23 42  1  0  0  0
 24 43  1  0  0  0
 26 44  1  0  0  0
M  END
$$$$
