3rlp_ligand
  -I-interpret- 

 29 30  0  0  0  0  0  0  0  0999 V2000
   17.5980   -1.9320   49.9900 N   0  0  0  0  0
   17.5890    0.3940   49.5140 N   0  0  0  0  0
   16.9790   -3.0210   50.5380 C   0  0  0  0  0
   17.6790   -4.3490   50.4430 C   0  0  0  0  0
   13.8330   -1.5150   51.8430 C   0  0  0  0  0
   12.6620   -1.1740   51.0870 C   0  0  0  0  0
   11.3990   -1.0650   51.7310 C   0  0  0  0  0
   12.4300   -1.6080   53.9260 C   0  0  0  0  0
   13.6940   -1.7220   53.2580 C   0  0  0  0  0
   15.7460   -2.9430   51.1650 C   0  0  0  0  0
   11.2820   -1.2830   53.1350 C   0  0  0  0  0
   15.1520   -1.6710   51.2130 C   0  0  0  0  0
   16.9630   -0.7150   50.0710 C   0  0  0  0  0
   13.3180   -2.1170   56.1500 C   0  0  0  0  0
   15.7410   -0.5540   50.6750 N   0  0  0  0  0
   12.2160   -1.7910   55.2900 O   0  0  0  0  0
   12.7250   -0.8880   49.3630 Cl  0  0  0  0  0
    9.7040   -1.1440   53.8430 Cl  0  0  0  0  0
   18.4966    0.2927   49.0597 H   0  0  0  0  0
   17.1408    1.3091   49.5596 H   0  0  0  0  0
   17.8301   -4.6044   49.3942 H   0  0  0  0  0
   18.6441   -4.2863   50.9457 H   0  0  0  0  0
   17.0682   -5.1152   50.9205 H   0  0  0  0  0
   10.5138   -0.8129   51.1470 H   0  0  0  0  0
   14.5784   -1.9740   53.8431 H   0  0  0  0  0
   15.2637   -3.8199   51.5970 H   0  0  0  0  0
   13.7665   -3.0554   55.8238 H   0  0  0  0  0
   14.0617   -1.3216   56.1028 H   0  0  0  0  0
   12.9596   -2.2207   57.1742 H   0  0  0  0  0
  3  1  4  0  0  0
  1 13  4  0  0  0
 13  2  1  0  0  0
  3  4  1  0  0  0
 10  3  4  0  0  0
  5  6  4  0  0  0
  5  9  4  0  0  0
 12  5  1  0  0  0
  6  7  4  0  0  0
  6 17  1  0  0  0
  7 11  4  0  0  0
  9  8  4  0  0  0
  8 11  4  0  0  0
  8 16  1  0  0  0
 10 12  4  0  0  0
 11 18  1  0  0  0
 12 15  4  0  0  0
 13 15  4  0  0  0
 16 14  1  0  0  0
  2 19  1  0  0  0
  2 20  1  0  0  0
  4 21  1  0  0  0
  4 22  1  0  0  0
  4 23  1  0  0  0
  7 24  1  0  0  0
  9 25  1  0  0  0
 10 26  1  0  0  0
 14 27  1  0  0  0
 14 28  1  0  0  0
 14 29  1  0  0  0
M  END
$$$$
