1loq_ligand
  -I-interpret- 

 34 35  0  0  0  0  0  0  0  0999 V2000
   39.1800   33.5330   36.3510 O   0  0  0  0  0
   39.1180   34.7040   35.2570 P   0  0  0  0  0
   40.3930   34.8170   34.4320 O   0  0  0  0  0
   37.9500   34.4720   34.3790 O   0  0  0  0  0
   38.7890   36.0630   36.0300 O   0  0  0  0  0
   39.7460   36.7240   36.8780 C   0  0  0  0  0
   39.0580   37.9290   37.4710 C   0  0  0  0  0
   39.9900   38.6330   38.3080 O   0  0  0  0  0
   38.4760   38.9770   36.5460 C   0  0  0  0  0
   37.3050   39.5700   37.0970 O   0  0  0  0  0
   39.6020   40.0150   36.4750 C   0  0  0  0  0
   39.1660   41.3750   36.2590 O   0  0  0  0  0
   40.2760   39.8940   37.8220 C   0  0  0  0  0
   41.7050   40.2160   37.9350 N   0  0  0  0  0
   42.6390   39.4970   37.1920 C   0  0  0  0  0
   42.2840   38.6140   36.4530 O   0  0  0  0  0
   43.9610   39.8690   37.3740 N   0  0  0  0  0
   44.4400   40.8780   38.2140 C   0  0  0  0  0
   45.6380   41.0640   38.2540 O   0  0  0  0  0
   43.4140   41.5670   38.9410 C   0  0  0  0  0
   42.1280   41.2370   38.7910 C   0  0  0  0  0
   39.9352   33.6741   36.9266 H   0  0  0  0  0
   41.1391   34.9671   35.0171 H   0  0  0  0  0
   40.6230   37.0255   36.3053 H   0  0  0  0  0
   40.0906   36.0526   37.6645 H   0  0  0  0  0
   38.2032   37.4738   37.9712 H   0  0  0  0  0
   38.1755   38.5697   35.5806 H   0  0  0  0  0
   36.9632   40.2276   36.4868 H   0  0  0  0  0
   40.2442   39.8144   35.6174 H   0  0  0  0  0
   39.9311   41.9541   36.2282 H   0  0  0  0  0
   39.8575   40.6976   38.4279 H   0  0  0  0  0
   44.6583   39.3519   36.8384 H   0  0  0  0  0
   43.6868   42.3706   39.6251 H   0  0  0  0  0
   41.3778   41.7866   39.3595 H   0  0  0  0  0
  2  1  1  0  0  0
  2  3  1  0  0  0
  2  4  2  0  0  0
  2  5  1  0  0  0
  5  6  1  0  0  0
  6  7  1  0  0  0
  7  8  1  0  0  0
  7  9  1  0  0  0
  8 13  1  0  0  0
  9 10  1  0  0  0
  9 11  1  0  0  0
 11 12  1  0  0  0
 11 13  1  0  0  0
 13 14  1  0  0  0
 14 15  1  0  0  0
 14 21  1  0  0  0
 15 16  2  0  0  0
 15 17  1  0  0  0
 17 18  1  0  0  0
 18 19  2  0  0  0
 18 20  1  0  0  0
 20 21  2  0  0  0
  1 22  1  0  0  0
  3 23  1  0  0  0
  6 24  1  0  0  0
  6 25  1  0  0  0
  7 26  1  0  0  0
  9 27  1  0  0  0
 10 28  1  0  0  0
 11 29  1  0  0  0
 12 30  1  0  0  0
 13 31  1  0  0  0
 17 32  1  0  0  0
 20 33  1  0  0  0
 21 34  1  0  0  0
M  END
$$$$
