6df4_ligand
  -I-interpret- 

 50 53  0  0  0  0  0  0  0  0999 V2000
   12.8310   17.7740    5.0660 C   0  0  0  0  0
   13.1040   20.1090    5.8050 C   0  0  0  0  0
   14.9940   18.5970    5.8370 C   0  0  0  0  0
   15.8510   19.5240    6.3710 C   0  0  0  0  0
   15.3230   20.8820    6.5850 C   0  0  0  0  0
   15.8710   22.0930    7.1070 C   0  0  0  0  0
   14.8650   23.0000    7.0790 C   0  0  0  0  0
   13.9710   21.1140    6.3020 C   0  0  0  0  0
   12.5150   16.7610    6.1850 C   0  0  0  0  0
   19.9970   15.2360    6.3600 C   0  0  0  0  0
   19.8460   18.4060    7.4630 C   0  0  0  0  0
   19.6360   19.6360    6.8630 C   0  0  0  0  0
   12.0000   14.3780    5.7130 C   0  0  0  0  0
   13.6530   18.8760    5.5840 N   0  0  0  0  0
   11.6240   15.6380    5.7250 C   0  0  0  0  0
   18.5530   16.1290    9.5720 O   0  0  0  0  0
   17.2420   19.1300    6.7070 C   0  0  0  0  0
   19.6040   15.2050    7.8050 N   0  0  0  0  0
   11.8760   20.3260    5.6040 O   0  0  0  0  0
   19.2160   14.1150    5.6590 C   0  0  0  0  0
   19.8250   13.9200    8.4950 C   0  0  0  0  0
   18.7560   17.5320    7.7030 C   0  0  0  0  0
   18.3390   19.9910    6.4890 C   0  0  0  0  0
   13.7100   22.4220    6.5980 N   0  0  0  0  0
   19.1040   12.8310    7.6910 C   0  0  0  0  0
   18.9580   16.2390    8.3980 C   0  0  0  0  0
   19.5050   12.8650    6.3070 O   0  0  0  0  0
   17.4720   17.9060    7.3280 C   0  0  0  0  0
   11.8951   18.1809    4.6830 H   0  0  0  0  0
   13.3804   17.2655    4.2737 H   0  0  0  0  0
   15.3764   17.6038    5.6014 H   0  0  0  0  0
   16.8907   22.2546    7.4566 H   0  0  0  0  0
   14.9562   24.0399    7.3926 H   0  0  0  0  0
   11.9939   17.2949    6.9797 H   0  0  0  0  0
   13.4578   16.3241    6.5143 H   0  0  0  0  0
   21.0709   15.0860    6.2488 H   0  0  0  0  0
   19.7635   16.2043    5.9172 H   0  0  0  0  0
   20.8539   18.1084    7.7521 H   0  0  0  0  0
   20.4695   20.3156    6.6857 H   0  0  0  0  0
   13.0008   14.1047    6.0473 H   0  0  0  0  0
   11.3108   13.6069    5.3688 H   0  0  0  0  0
   10.6174   15.8814    5.3851 H   0  0  0  0  0
   19.5113   14.0619    4.6111 H   0  0  0  0  0
   18.1471   14.3203    5.7179 H   0  0  0  0  0
   19.4347   13.9627    9.5118 H   0  0  0  0  0
   20.8910   13.7018    8.5594 H   0  0  0  0  0
   18.1688   20.9583    6.0163 H   0  0  0  0  0
   18.0295   13.0047    7.7496 H   0  0  0  0  0
   19.3628   11.8576    8.1077 H   0  0  0  0  0
   16.6360   17.2340    7.5221 H   0  0  0  0  0
  1  9  1  0  0  0
 14  1  1  0  0  0
  8  2  1  0  0  0
 14  2  1  0  0  0
  2 19  2  0  0  0
  4  3  2  0  0  0
  3 14  1  0  0  0
  4  5  1  0  0  0
 17  4  1  0  0  0
  5  6  4  0  0  0
  5  8  4  0  0  0
  6  7  4  0  0  0
 24  7  4  0  0  0
  8 24  4  0  0  0
  9 15  1  0  0  0
 18 10  1  0  0  0
 10 20  1  0  0  0
 11 12  4  0  0  0
 22 11  4  0  0  0
 12 23  4  0  0  0
 15 13  2  0  0  0
 26 16  2  0  0  0
 23 17  4  0  0  0
 17 28  4  0  0  0
 18 21  1  0  0  0
 26 18  1  0  0  0
 20 27  1  0  0  0
 21 25  1  0  0  0
 22 26  1  0  0  0
 22 28  4  0  0  0
 25 27  1  0  0  0
  1 29  1  0  0  0
  1 30  1  0  0  0
  3 31  1  0  0  0
  6 32  1  0  0  0
  7 33  1  0  0  0
  9 34  1  0  0  0
  9 35  1  0  0  0
 10 36  1  0  0  0
 10 37  1  0  0  0
 11 38  1  0  0  0
 12 39  1  0  0  0
 13 40  1  0  0  0
 13 41  1  0  0  0
 15 42  1  0  0  0
 20 43  1  0  0  0
 20 44  1  0  0  0
 21 45  1  0  0  0
 21 46  1  0  0  0
 23 47  1  0  0  0
 25 48  1  0  0  0
 25 49  1  0  0  0
 28 50  1  0  0  0
M  END
$$$$
