### 
### Created by X-TOOL on Mon Sep 10 21:13:28 2018
### 

@<TRIPOS>MOLECULE
5HJA_LIGAND
   56    57     1     0     0
SMALL
GAST_HUCK


@<TRIPOS>ATOM
      1 O01       -22.5080   -6.9520   32.4910 O.3       1 XA2        -0.8710
      2 B02       -22.1100   -5.3430   32.3640 B         1 XA2         3.0000
      3 O03       -21.3990   -4.8900   33.7610 O.3       1 XA2        -0.8710
      4 O04       -21.0100   -5.1950   31.0890 O.3       1 XA2        -0.8710
      5 C05       -23.5200   -4.4340   32.0550 C.3       1 XA2        -0.3457
      6 C06       -23.1200   -2.9840   31.9760 C.3       1 XA2        -0.1826
      7 C07       -24.3730   -2.0330   31.9400 C.3       1 XA2        -0.0753
      8 C08       -24.0660   -0.6920   31.1700 C.3       1 XA2        -0.0037
      9 C09       -25.0870    0.4420   31.5360 C.3       1 XA2         0.0350
     10 N10       -25.2160    0.5360   32.9440 N.4       1 XA2         0.2231
     11 C11       -24.5500    1.7660   31.0000 C.3       1 XA2         0.0064
     12 C12       -25.5320    2.8440   31.2610 C.3       1 XA2        -0.0638
     13 C13       -24.9740    4.1940   30.8570 C.3       1 XA2        -0.1099
     14 N14       -23.6850    4.4550   31.5150 N.4       1 XA2         0.4080
     15 C15       -23.1930    5.7590   31.1300 C.3       1 XA2        -0.0761
     16 C16       -21.9610    6.1490   31.9470 C.ar      1 XA2        -0.0624
     17 C17       -20.7570    6.3610   31.3090 C.ar      1 XA2        -0.0615
     18 C18       -19.6350    6.7220   32.0480 C.ar      1 XA2        -0.0542
     19 C19       -19.7270    6.8680   33.4130 C.ar      1 XA2         0.0469
     20 CL1       -18.3130    7.3230   34.3510 Cl        1 XA2        -0.0764
     21 C21       -20.9420    6.6570   34.0550 C.ar      1 XA2         0.0476
     22 CL2       -21.0530    6.8460   35.7940 Cl        1 XA2        -0.0718
     23 C23       -22.0580    6.3000   33.3230 C.ar      1 XA2        -0.0478
     24 C24       -22.6900    3.3870   31.2340 C.3       1 XA2        -0.1099
     25 C25       -23.2340    2.0410   31.6320 C.3       1 XA2        -0.0638
     26 C26       -26.4450    0.1200   30.9170 C.2       1 XA2         0.0962
     27 O27       -26.5550   -0.0260   29.6790 O.co2     1 XA2        -0.5422
     28 O28       -27.4620   -0.0060   31.6540 O.co2     1 XA2        -0.5422
     29 H         -21.7116   -7.4666   32.6411 H         1 XA2        -0.1290
     30 H         -20.6097   -5.4178   33.9029 H         1 XA2        -0.1290
     31 H         -20.7594   -4.2737   30.9894 H         1 XA2        -0.1290
     32 H         -24.1024   -4.6000   32.9613 H         1 XA2        -0.2101
     33 H         -24.1210   -4.6918   31.1830 H         1 XA2        -0.2101
     34 H         -22.5507   -2.8353   31.0585 H         1 XA2        -0.0084
     35 H         -22.5319   -2.7422   32.8613 H         1 XA2        -0.0084
     36 H         -24.6453   -1.7851   32.9659 H         1 XA2         0.0242
     37 H         -25.1809   -2.5493   31.4215 H         1 XA2         0.0242
     38 H         -24.1424   -0.8876   30.1004 H         1 XA2         0.0315
     39 H         -23.0681   -0.3569   31.4530 H         1 XA2         0.0315
     40 H         -25.8807    1.2745   33.1748 H         1 XA2         0.1999
     41 H         -25.5522   -0.3533   33.3135 H         1 XA2         0.1999
     42 H         -24.3077    0.7542   33.3536 H         1 XA2         0.1999
     43 H         -24.4040    1.7148   29.9210 H         1 XA2         0.0350
     44 H         -25.7566    2.8627   32.3274 H         1 XA2         0.0249
     45 H         -26.4313    2.6476   30.6771 H         1 XA2         0.0249
     46 H         -25.6811    4.9670   31.1579 H         1 XA2         0.0020
     47 H         -24.8210    4.1984   29.7778 H         1 XA2         0.0020
     48 H         -23.9773    6.4940   31.3111 H         1 XA2         0.0183
     49 H         -22.9162    5.7290   30.0762 H         1 XA2         0.0183
     50 H         -20.6845    6.2459   30.2275 H         1 XA2         0.0558
     51 H         -18.6824    6.8893   31.5453 H         1 XA2         0.0606
     52 H         -23.0118    6.1374   33.8248 H         1 XA2         0.0562
     53 H         -21.7849    3.5867   31.8076 H         1 XA2         0.0020
     54 H         -22.4716    3.3788   30.1661 H         1 XA2         0.0020
     55 H         -22.5302    1.2769   31.3020 H         1 XA2         0.0249
     56 H         -23.3661    2.0323   32.7139 H         1 XA2         0.0249
@<TRIPOS>BOND
     1    1    2 1  
     2    2    3 1  
     3    2    4 1  
     4    5    6 1  
     5    6    7 1  
     6    7    8 1  
     7    8    9 1  
     8    9   10 1  
     9    9   11 1  
    10    9   26 1  
    11   11   12 1  
    12   11   25 1  
    13   12   13 1  
    14   13   14 1  
    15   14   15 1  
    16   14   24 1  
    17   15   16 1  
    18   16   17 ar 
    19   16   23 ar 
    20   17   18 ar 
    21   18   19 ar 
    22   19   20 1  
    23   19   21 ar 
    24   21   22 1  
    25   21   23 ar 
    26   24   25 1  
    27   26   27 ar 
    28   26   28 ar 
    29    1   29 1  
    30    3   30 1  
    31    4   31 1  
    32    5   32 1  
    33    5   33 1  
    34    5    2 1  
    35    6   34 1  
    36    6   35 1  
    37    7   36 1  
    38    7   37 1  
    39    8   38 1  
    40    8   39 1  
    41   10   40 1  
    42   10   41 1  
    43   10   42 1  
    44   11   43 1  
    45   12   44 1  
    46   12   45 1  
    47   13   46 1  
    48   13   47 1  
    49   15   48 1  
    50   15   49 1  
    51   17   50 1  
    52   18   51 1  
    53   23   52 1  
    54   24   53 1  
    55   24   54 1  
    56   25   55 1  
    57   25   56 1  
@<TRIPOS>SUBSTRUCTURE
     1 XA2         1

