5HJA_LIGAND
  -I-interpret- 

 58 59  0  0  0  0  0  0  0  0999 V2000
  -22.5080   -6.9520   32.4910 O   0  0  0  0  0
  -22.1100   -5.3430   32.3640 B   0  0  0  0  0
  -21.3990   -4.8900   33.7610 O   0  0  0  0  0
  -21.0100   -5.1950   31.0890 O   0  0  0  0  0
  -23.5200   -4.4340   32.0550 C   0  0  0  0  0
  -23.1200   -2.9840   31.9760 C   0  0  0  0  0
  -24.3730   -2.0330   31.9400 C   0  0  0  0  0
  -24.0660   -0.6920   31.1700 C   0  0  0  0  0
  -25.0870    0.4420   31.5360 C   0  0  0  0  0
  -25.2160    0.5360   32.9440 N   0  3  0  0  0
  -24.5500    1.7660   31.0000 C   0  0  0  0  0
  -25.5320    2.8440   31.2610 C   0  0  0  0  0
  -24.9740    4.1940   30.8570 C   0  0  0  0  0
  -23.6850    4.4550   31.5150 N   0  3  0  0  0
  -23.1930    5.7590   31.1300 C   0  0  0  0  0
  -21.9610    6.1490   31.9470 C   0  0  0  0  0
  -20.7570    6.3610   31.3090 C   0  0  0  0  0
  -19.6350    6.7220   32.0480 C   0  0  0  0  0
  -19.7270    6.8680   33.4130 C   0  0  0  0  0
  -18.3130    7.3230   34.3510 Cl  0  0  0  0  0
  -20.9420    6.6570   34.0550 C   0  0  0  0  0
  -21.0530    6.8460   35.7940 Cl  0  0  0  0  0
  -22.0580    6.3000   33.3230 C   0  0  0  0  0
  -22.6900    3.3870   31.2340 C   0  0  0  0  0
  -23.2340    2.0410   31.6320 C   0  0  0  0  0
  -26.4450    0.1200   30.9170 C   0  0  0  0  0
  -26.5550   -0.0260   29.6790 O   0  0  0  0  0
  -27.4620   -0.0060   31.6540 O   0  0  0  0  0
  -21.7147   -7.4639   32.6649 H   0  0  0  0  0
  -20.6112   -5.4195   33.9042 H   0  0  0  0  0
  -20.2255   -5.7132   31.2829 H   0  0  0  0  0
  -23.9800   -4.7527   31.1196 H   0  0  0  0  0
  -24.2504   -4.5838   32.8501 H   0  0  0  0  0
  -22.5507   -2.8353   31.0585 H   0  0  0  0  0
  -22.5319   -2.7422   32.8613 H   0  0  0  0  0
  -24.6453   -1.7851   32.9659 H   0  0  0  0  0
  -25.1809   -2.5493   31.4215 H   0  0  0  0  0
  -24.1424   -0.8876   30.1004 H   0  0  0  0  0
  -23.0681   -0.3569   31.4530 H   0  0  0  0  0
  -25.8807    1.2745   33.1748 H   0  0  0  0  0
  -25.5522   -0.3533   33.3135 H   0  0  0  0  0
  -24.3077    0.7542   33.3536 H   0  0  0  0  0
  -24.4040    1.7148   29.9210 H   0  0  0  0  0
  -25.7566    2.8627   32.3274 H   0  0  0  0  0
  -26.4313    2.6476   30.6771 H   0  0  0  0  0
  -25.6811    4.9670   31.1579 H   0  0  0  0  0
  -24.8210    4.1984   29.7778 H   0  0  0  0  0
  -23.8338    4.4484   32.5241 H   0  0  0  0  0
  -23.9773    6.4940   31.3111 H   0  0  0  0  0
  -22.9162    5.7290   30.0762 H   0  0  0  0  0
  -20.6845    6.2459   30.2275 H   0  0  0  0  0
  -18.6824    6.8893   31.5453 H   0  0  0  0  0
  -23.0118    6.1374   33.8248 H   0  0  0  0  0
  -21.7849    3.5867   31.8076 H   0  0  0  0  0
  -22.4716    3.3788   30.1661 H   0  0  0  0  0
  -22.5302    1.2769   31.3020 H   0  0  0  0  0
  -23.3661    2.0323   32.7139 H   0  0  0  0  0
  -27.2115    0.1353   32.5699 H   0  0  0  0  0
  1  2  1  0  0  0
  2  3  1  0  0  0
  2  4  1  0  0  0
  5  6  1  0  0  0
  6  7  1  0  0  0
  7  8  1  0  0  0
  8  9  1  0  0  0
  9 10  1  0  0  0
  9 11  1  0  0  0
  9 26  1  0  0  0
 11 12  1  0  0  0
 11 25  1  0  0  0
 12 13  1  0  0  0
 13 14  1  0  0  0
 14 15  1  0  0  0
 14 24  1  0  0  0
 15 16  1  0  0  0
 16 17  4  0  0  0
 16 23  4  0  0  0
 17 18  4  0  0  0
 18 19  4  0  0  0
 19 20  1  0  0  0
 19 21  4  0  0  0
 21 22  1  0  0  0
 21 23  4  0  0  0
 24 25  1  0  0  0
 26 27  2  0  0  0
 26 28  1  0  0  0
  5  2  1  0  0  0
  1 29  1  0  0  0
  3 30  1  0  0  0
  4 31  1  0  0  0
  5 32  1  0  0  0
  5 33  1  0  0  0
  6 34  1  0  0  0
  6 35  1  0  0  0
  7 36  1  0  0  0
  7 37  1  0  0  0
  8 38  1  0  0  0
  8 39  1  0  0  0
 10 40  1  0  0  0
 10 41  1  0  0  0
 10 42  1  0  0  0
 11 43  1  0  0  0
 12 44  1  0  0  0
 12 45  1  0  0  0
 13 46  1  0  0  0
 13 47  1  0  0  0
 14 48  1  0  0  0
 15 49  1  0  0  0
 15 50  1  0  0  0
 17 51  1  0  0  0
 18 52  1  0  0  0
 23 53  1  0  0  0
 24 54  1  0  0  0
 24 55  1  0  0  0
 25 56  1  0  0  0
 25 57  1  0  0  0
 28 58  1  0  0  0
M  END
$$$$
