6bhe_ligand
  -I-interpret- 

180180  0  0  0  0  0  0  0  0999 V2000
   47.5900    3.4530   68.7720 N   0  3  0  0  0
   46.5260    2.7470   68.0040 C   0  0  0  0  0
   47.0570    2.4890   66.6140 C   0  0  0  0  0
   47.1850    3.4230   65.7950 O   0  0  0  0  0
   45.2720    3.5810   67.9310 C   0  0  0  0  0
   47.3690    1.2320   66.3310 N   0  0  0  0  0
   48.0560    0.9200   65.1090 C   0  0  0  0  0
   47.3550   -0.1790   64.3610 C   0  0  0  0  0
   46.6940   -1.0540   64.9410 O   0  0  0  0  0
   49.5460    0.5970   65.3870 C   0  0  0  0  0
   49.8770   -0.8680   65.5510 C   0  0  0  0  0
   47.4750   -0.1440   63.0450 N   0  0  0  0  0
   47.0080   -1.2710   62.2730 C   0  0  0  0  0
   46.8350   -0.8760   60.7950 C   0  0  0  0  0
   45.5860   -0.0710   60.5450 C   0  0  0  0  0
   45.3310    0.0560   59.0360 C   0  0  0  0  0
   44.0920    0.8940   58.8580 C   0  0  0  0  0
   43.5580    0.8920   57.4390 N   0  3  0  0  0
   48.0370   -2.3610   62.3050 C   0  0  0  0  0
   49.2110   -2.0850   62.5740 O   0  0  0  0  0
   42.7490   -0.3380   57.2950 C   0  0  0  0  0
   44.5990    0.9980   56.3860 C   0  0  0  0  0
   42.6510    2.0640   57.3200 C   0  0  0  0  0
   47.6280   -3.5900   61.9980 N   0  0  0  0  0
   48.5810   -4.6670   61.7150 C   0  0  0  0  0
   49.4660   -4.2530   60.5680 C   0  0  0  0  0
   49.0490   -3.4900   59.6670 O   0  0  0  0  0
   47.9030   -5.9650   61.3450 C   0  0  0  0  0
   47.0040   -5.8170   60.2400 O   0  0  0  0  0
   50.7100   -4.7530   60.5410 N   0  0  0  0  0
   51.6200   -4.2540   59.5560 C   0  0  0  0  0
   51.1970   -4.5200   58.1380 C   0  0  0  0  0
   50.7170   -5.6150   57.8000 O   0  0  0  0  0
   53.0520   -4.8100   59.7720 C   0  0  0  0  0
   53.9600   -4.1710   58.9020 O   0  0  0  0  0
   53.1590   -6.3180   59.5480 C   0  0  0  0  0
   51.4020   -3.5220   57.2920 N   0  0  0  0  0
   51.2880   -3.7140   55.8540 C   0  0  0  0  0
   52.5580   -4.1450   55.1340 C   0  0  0  0  0
   52.6200   -4.2650   53.9220 O   0  0  0  0  0
   53.6240   -4.3440   55.9190 N   0  0  0  0  0
   54.9030   -4.7600   55.3670 C   0  0  0  0  0
   55.6450   -3.6560   54.6520 C   0  0  0  0  0
   55.3550   -2.4830   54.8170 O   0  0  0  0  0
   57.8770    0.2920   56.3100 O   0  0  0  0  0
   57.5960   -0.8040   56.8070 C   0  0  0  0  0
   56.3110   -0.9820   57.5520 C   0  0  0  0  0
   58.3910   -1.8560   56.6840 N   0  0  0  0  0
   59.6840   -1.7650   55.8930 C   0  0  0  0  0
   60.2950   -3.1090   55.6840 C   0  0  0  0  0
   59.4590   -4.0420   54.8360 C   0  0  0  0  0
   59.0330   -3.6600   53.3960 C   0  0  0  0  0
   57.6040   -3.0820   53.3210 C   0  0  0  0  0
   56.6660   -4.0440   53.8760 N   0  0  0  0  0
   57.3030   -2.6540   51.9160 C   0  0  0  0  0
   57.8540   -1.6670   51.4400 O   0  0  0  0  0
   56.4450   -3.4100   51.2230 N   0  0  0  0  0
   56.1360   -3.1410   49.8240 C   0  0  0  0  0
   54.6500   -3.4060   49.6160 C   0  0  0  0  0
   54.0560   -4.1180   50.3820 O   0  0  0  0  0
   56.9210   -4.0340   48.9060 C   0  0  0  0  0
   54.0760   -2.8250   48.5580 N   0  0  0  0  0
   52.6380   -3.0800   48.3590 C   0  0  0  0  0
   52.3330   -4.5410   48.1890 C   0  0  0  0  0
   53.1500   -5.2840   47.5950 O   0  0  0  0  0
   52.3350   -2.3200   47.0530 C   0  0  0  0  0
   53.3280   -1.2210   47.0230 C   0  0  0  0  0
   54.5820   -1.8050   47.6420 C   0  0  0  0  0
   51.1740   -4.9750   48.6760 N   0  0  0  0  0
   50.8040   -6.3610   48.4410 C   0  0  0  0  0
   50.6930   -6.6500   46.9100 C   0  0  0  0  0
   50.2800   -5.8030   46.1040 O   0  0  0  0  0
   49.5450   -6.7450   49.2160 C   0  0  0  0  0
   49.6270   -6.5800   50.7440 C   0  0  0  0  0
   50.9710   -6.8740   51.4600 C   0  0  0  0  0
   50.7340   -6.9800   52.9010 N   0  0  0  0  0
   51.5520   -7.5260   53.8340 C   0  0  0  0  0
   52.6980   -8.0840   53.5090 N   0  0  0  0  0
   51.1960   -7.5220   55.1290 N   0  0  0  0  0
   51.1380   -7.8530   46.5220 N   0  0  0  0  0
   51.2680   -8.2350   45.0780 C   0  0  0  0  0
   49.9390   -8.4690   44.3810 C   0  0  0  0  0
   49.0210   -9.0300   44.9780 O   0  0  0  0  0
   52.1380   -9.4990   44.9500 C   0  0  0  0  0
   49.7790   -8.0980   43.2190 O   0  0  0  0  0
   48.4261    2.8698   68.8071 H   0  0  0  0  0
   47.8096    4.3369   68.3127 H   0  0  0  0  0
   47.2601    3.6339   69.7201 H   0  0  0  0  0
   46.2701    1.8107   68.4999 H   0  0  0  0  0
   45.4978    4.5330   67.4505 H   0  0  0  0  0
   44.5172    3.0498   67.3512 H   0  0  0  0  0
   44.8977    3.7610   68.9388 H   0  0  0  0  0
   47.1211    0.4863   66.9813 H   0  0  0  0  0
   48.0358    1.7972   64.4623 H   0  0  0  0  0
   49.7958    1.0784   66.3325 H   0  0  0  0  0
   50.1054    0.9453   64.5187 H   0  0  0  0  0
   49.3128   -1.2749   66.3902 H   0  0  0  0  0
   49.6116   -1.4034   64.6394 H   0  0  0  0  0
   50.9445   -0.9789   65.7413 H   0  0  0  0  0
   47.8903    0.6651   62.5831 H   0  0  0  0  0
   46.0600   -1.5987   62.6996 H   0  0  0  0  0
   46.7616   -1.7939   60.2117 H   0  0  0  0  0
   47.6894   -0.2608   60.5128 H   0  0  0  0  0
   45.7116    0.9245   60.9709 H   0  0  0  0  0
   44.7379   -0.5743   61.0093 H   0  0  0  0  0
   45.1946   -0.9279   58.5873 H   0  0  0  0  0
   46.1829    0.5237   58.5424 H   0  0  0  0  0
   44.3537    1.9222   59.1077 H   0  0  0  0  0
   43.3176    0.4736   59.4996 H   0  0  0  0  0
   43.3791   -1.2090   57.4754 H   0  0  0  0  0
   41.9336   -0.3218   58.0181 H   0  0  0  0  0
   42.3403   -0.3864   56.2857 H   0  0  0  0  0
   45.1510    1.9290   56.5150 H   0  0  0  0  0
   45.2837    0.1539   56.4675 H   0  0  0  0  0
   44.1240    0.9887   55.4050 H   0  0  0  0  0
   41.8384    1.9676   58.0401 H   0  0  0  0  0
   43.2109    2.9771   57.5222 H   0  0  0  0  0
   42.2411    2.1036   56.3108 H   0  0  0  0  0
   46.6279   -3.7868   61.9588 H   0  0  0  0  0
   49.1546   -4.8354   62.6264 H   0  0  0  0  0
   47.3256   -6.3009   62.2063 H   0  0  0  0  0
   48.6753   -6.6785   61.0576 H   0  0  0  0  0
   46.5990   -6.6647   60.0427 H   0  0  0  0  0
   51.0000   -5.4705   61.2055 H   0  0  0  0  0
   51.6129   -3.1732   59.6972 H   0  0  0  0  0
   53.2940   -4.6074   60.8153 H   0  0  0  0  0
   54.8412   -4.5237   59.0456 H   0  0  0  0  0
   52.4984   -6.8352   60.2439 H   0  0  0  0  0
   52.8670   -6.5536   58.5246 H   0  0  0  0  0
   54.1876   -6.6369   59.7163 H   0  0  0  0  0
   51.6446   -2.6004   57.6555 H   0  0  0  0  0
   51.0144   -2.7448   55.4371 H   0  0  0  0  0
   50.5668   -4.5184   55.7094 H   0  0  0  0  0
   53.5371   -4.2008   56.9251 H   0  0  0  0  0
   54.7027   -5.5437   54.6364 H   0  0  0  0  0
   55.5267   -5.0850   56.1998 H   0  0  0  0  0
   56.2846   -0.2947   58.3976 H   0  0  0  0  0
   55.4742   -0.7726   56.8857 H   0  0  0  0  0
   56.2413   -2.0079   57.9136 H   0  0  0  0  0
   58.1317   -2.7380   57.1259 H   0  0  0  0  0
   60.3881   -1.1499   56.4534 H   0  0  0  0  0
   59.4614   -1.3323   54.9176 H   0  0  0  0  0
   60.4000   -3.5718   56.6653 H   0  0  0  0  0
   61.2391   -2.9564   55.1610 H   0  0  0  0  0
   58.5156   -4.1123   55.3775 H   0  0  0  0  0
   60.0997   -4.9127   54.6965 H   0  0  0  0  0
   59.0556   -4.5672   52.7921 H   0  0  0  0  0
   59.7200   -2.8924   53.0399 H   0  0  0  0  0
   57.5082   -2.1820   53.9284 H   0  0  0  0  0
   56.7877   -5.0356   53.6703 H   0  0  0  0  0
   55.9934   -4.1982   51.6869 H   0  0  0  0  0
   56.3969   -2.1080   49.5941 H   0  0  0  0  0
   57.9867   -3.8676   49.0630 H   0  0  0  0  0
   56.6792   -5.0752   49.1196 H   0  0  0  0  0
   56.6647   -3.8050   47.8716 H   0  0  0  0  0
   52.0414   -2.7626   49.2142 H   0  0  0  0  0
   51.3115   -1.9461   47.0265 H   0  0  0  0  0
   52.4136   -2.9650   46.1779 H   0  0  0  0  0
   52.9778   -0.3463   47.5710 H   0  0  0  0  0
   53.5069   -0.8671   46.0077 H   0  0  0  0  0
   55.2601   -2.2176   46.8950 H   0  0  0  0  0
   55.1832   -1.0516   48.1509 H   0  0  0  0  0
   50.5606   -4.3515   49.2008 H   0  0  0  0  0
   51.5975   -7.0013   48.8263 H   0  0  0  0  0
   49.3779   -7.8056   49.0282 H   0  0  0  0  0
   48.7556   -6.0753   48.8747 H   0  0  0  0  0
   48.9287   -7.3151   51.1440 H   0  0  0  0  0
   49.4388   -5.5214   50.9229 H   0  0  0  0  0
   51.6755   -6.0659   51.2631 H   0  0  0  0  0
   51.3875   -7.8098   51.0874 H   0  0  0  0  0
   49.8515   -6.5990   53.2422 H   0  0  0  0  0
   52.9920   -8.1139   52.5327 H   0  0  0  0  0
   51.8081   -7.9437   55.8275 H   0  0  0  0  0
   50.3135   -7.0972   55.4140 H   0  0  0  0  0
   51.3979   -8.5340   47.2355 H   0  0  0  0  0
   51.7361   -7.3852   44.5812 H   0  0  0  0  0
   49.3077   -9.2529   45.8667 H   0  0  0  0  0
   53.1275   -9.3007   45.3618 H   0  0  0  0  0
   51.6716  -10.3167   45.4995 H   0  0  0  0  0
   52.2285   -9.7713   43.8984 H   0  0  0  0  0
  2  1  1  0  0  0
  3  2  1  0  0  0
  2  5  1  0  0  0
  3  4  2  0  0  0
  6  3  1  0  0  0
  7  6  1  0  0  0
  8  7  1  0  0  0
  7 10  1  0  0  0
  8  9  2  0  0  0
 12  8  1  0  0  0
 10 11  1  0  0  0
 13 12  1  0  0  0
 13 14  1  0  0  0
 19 13  1  0  0  0
 14 15  1  0  0  0
 15 16  1  0  0  0
 16 17  1  0  0  0
 17 18  1  0  0  0
 18 21  1  0  0  0
 18 22  1  0  0  0
 18 23  1  0  0  0
 19 20  2  0  0  0
 24 19  1  0  0  0
 25 24  1  0  0  0
 26 25  1  0  0  0
 25 28  1  0  0  0
 26 27  2  0  0  0
 30 26  1  0  0  0
 28 29  1  0  0  0
 31 30  1  0  0  0
 32 31  1  0  0  0
 31 34  1  0  0  0
 32 33  2  0  0  0
 37 32  1  0  0  0
 34 35  1  0  0  0
 34 36  1  0  0  0
 38 37  1  0  0  0
 39 38  1  0  0  0
 39 40  2  0  0  0
 41 39  1  0  0  0
 42 41  1  0  0  0
 43 42  1  0  0  0
 43 44  2  0  0  0
 54 43  1  0  0  0
 46 45  2  0  0  0
 46 47  1  0  0  0
 48 46  1  0  0  0
 49 48  1  0  0  0
 50 49  1  0  0  0
 51 50  1  0  0  0
 52 51  1  0  0  0
 53 52  1  0  0  0
 53 54  1  0  0  0
 53 55  1  0  0  0
 55 56  2  0  0  0
 55 57  1  0  0  0
 57 58  1  0  0  0
 58 59  1  0  0  0
 58 61  1  0  0  0
 59 60  2  0  0  0
 59 62  1  0  0  0
 62 63  1  0  0  0
 62 68  1  0  0  0
 63 64  1  0  0  0
 63 66  1  0  0  0
 64 65  2  0  0  0
 64 69  1  0  0  0
 66 67  1  0  0  0
 67 68  1  0  0  0
 69 70  1  0  0  0
 70 71  1  0  0  0
 70 73  1  0  0  0
 71 72  2  0  0  0
 71 80  1  0  0  0
 73 74  1  0  0  0
 74 75  1  0  0  0
 75 76  1  0  0  0
 76 77  1  0  0  0
 77 78  2  0  0  0
 77 79  1  0  0  0
 80 81  1  0  0  0
 81 82  1  0  0  0
 81 84  1  0  0  0
 82 83  1  0  0  0
 82 85  2  0  0  0
  1 86  1  0  0  0
  1 87  1  0  0  0
  1 88  1  0  0  0
  2 89  1  0  0  0
  5 90  1  0  0  0
  5 91  1  0  0  0
  5 92  1  0  0  0
  6 93  1  0  0  0
  7 94  1  0  0  0
 10 95  1  0  0  0
 10 96  1  0  0  0
 11 97  1  0  0  0
 11 98  1  0  0  0
 11 99  1  0  0  0
 12100  1  0  0  0
 13101  1  0  0  0
 14102  1  0  0  0
 14103  1  0  0  0
 15104  1  0  0  0
 15105  1  0  0  0
 16106  1  0  0  0
 16107  1  0  0  0
 17108  1  0  0  0
 17109  1  0  0  0
 21110  1  0  0  0
 21111  1  0  0  0
 21112  1  0  0  0
 22113  1  0  0  0
 22114  1  0  0  0
 22115  1  0  0  0
 23116  1  0  0  0
 23117  1  0  0  0
 23118  1  0  0  0
 24119  1  0  0  0
 25120  1  0  0  0
 28121  1  0  0  0
 28122  1  0  0  0
 29123  1  0  0  0
 30124  1  0  0  0
 31125  1  0  0  0
 34126  1  0  0  0
 35127  1  0  0  0
 36128  1  0  0  0
 36129  1  0  0  0
 36130  1  0  0  0
 37131  1  0  0  0
 38132  1  0  0  0
 38133  1  0  0  0
 41134  1  0  0  0
 42135  1  0  0  0
 42136  1  0  0  0
 47137  1  0  0  0
 47138  1  0  0  0
 47139  1  0  0  0
 48140  1  0  0  0
 49141  1  0  0  0
 49142  1  0  0  0
 50143  1  0  0  0
 50144  1  0  0  0
 51145  1  0  0  0
 51146  1  0  0  0
 52147  1  0  0  0
 52148  1  0  0  0
 53149  1  0  0  0
 54150  1  0  0  0
 57151  1  0  0  0
 58152  1  0  0  0
 61153  1  0  0  0
 61154  1  0  0  0
 61155  1  0  0  0
 63156  1  0  0  0
 66157  1  0  0  0
 66158  1  0  0  0
 67159  1  0  0  0
 67160  1  0  0  0
 68161  1  0  0  0
 68162  1  0  0  0
 69163  1  0  0  0
 70164  1  0  0  0
 73165  1  0  0  0
 73166  1  0  0  0
 74167  1  0  0  0
 74168  1  0  0  0
 75169  1  0  0  0
 75170  1  0  0  0
 76171  1  0  0  0
 78172  1  0  0  0
 79173  1  0  0  0
 79174  1  0  0  0
 80175  1  0  0  0
 81176  1  0  0  0
 83177  1  0  0  0
 84178  1  0  0  0
 84179  1  0  0  0
 84180  1  0  0  0
M  END
$$$$
