### 
### Created by X-TOOL on Mon Sep 10 21:13:30 2018
### 

@<TRIPOS>MOLECULE
6bhe_ligand
  180   180     1     0     0
SMALL
GAST_HUCK


@<TRIPOS>ATOM
      1 N          47.5900    3.4530   68.7720 N.4       1 ALA         0.2377
      2 CA         46.5260    2.7470   68.0040 C.3       1 ALA         0.0621
      3 C          47.0570    2.4890   66.6140 C.2       1 ALA         0.2264
      4 O          47.1850    3.4230   65.7950 O.2       1 ALA        -0.3907
      5 CB         45.2720    3.5810   67.9310 C.3       1 ALA        -0.0040
      6 N          47.3690    1.2320   66.3310 N.am      1 ARG        -0.2610
      7 CA         48.0560    0.9200   65.1090 C.3       1 ARG         0.1308
      8 C          47.3550   -0.1790   64.3610 C.2       1 ARG         0.2039
      9 O          46.6940   -1.0540   64.9410 O.2       1 ARG        -0.3944
     10 CB         49.5460    0.5970   65.3870 C.3       1 ARG        -0.0152
     11 CG         49.8770   -0.8680   65.5510 C.3       1 ARG        -0.0610
     12 N          47.4750   -0.1440   63.0450 N.am      1 M3L        -0.2637
     13 CA         47.0080   -1.2710   62.2730 C.3       1 M3L         0.1310
     14 CB         46.8350   -0.8760   60.7950 C.3       1 M3L        -0.0122
     15 CG         45.5860   -0.0710   60.5450 C.3       1 M3L        -0.0440
     16 CD         45.3310    0.0560   59.0360 C.3       1 M3L        -0.0123
     17 CE         44.0920    0.8940   58.8580 C.3       1 M3L        -0.0309
     18 NZ         43.5580    0.8920   57.4390 N.4       1 M3L         0.2369
     19 C          48.0370   -2.3610   62.3050 C.2       1 M3L         0.2040
     20 O          49.2110   -2.0850   62.5740 O.2       1 M3L        -0.3944
     21 CM1        42.7490   -0.3380   57.2950 C.3       1 M3L        -0.0418
     22 CM2        44.5990    0.9980   56.3860 C.3       1 M3L        -0.0418
     23 CM3        42.6510    2.0640   57.3200 C.3       1 M3L        -0.0418
     24 N          47.6280   -3.5900   61.9980 N.am      1 SER        -0.2616
     25 CA         48.5810   -4.6670   61.7150 C.3       1 SER         0.1539
     26 C          49.4660   -4.2530   60.5680 C.2       1 SER         0.2063
     27 O          49.0490   -3.4900   59.6670 O.2       1 SER        -0.3943
     28 CB         47.9030   -5.9650   61.3450 C.3       1 SER         0.0843
     29 OG         47.0040   -5.8170   60.2400 O.3       1 SER        -0.3903
     30 N          50.7100   -4.7530   60.5410 N.am      1 THR        -0.2613
     31 CA         51.6200   -4.2540   59.5560 C.3       1 THR         0.1565
     32 C          51.1970   -4.5200   58.1380 C.2       1 THR         0.2063
     33 O          50.7170   -5.6150   57.8000 O.2       1 THR        -0.3943
     34 CB         53.0520   -4.8100   59.7720 C.3       1 THR         0.0924
     35 OG1        53.9600   -4.1710   58.9020 O.3       1 THR        -0.3874
     36 CG2        53.1590   -6.3180   59.5480 C.3       1 THR        -0.0346
     37 N          51.4020   -3.5220   57.2920 N.am      1 GLY        -0.2663
     38 CA         51.2880   -3.7140   55.8540 C.3       1 GLY         0.1201
     39 C          52.5580   -4.1450   55.1340 C.2       1 GLY         0.2005
     40 O          52.6200   -4.2650   53.9220 O.2       1 GLY        -0.3947
     41 N          53.6240   -4.3440   55.9190 N.am      1 GLY        -0.2666
     42 CA         54.9030   -4.7600   55.3670 C.3       1 GLY         0.1201
     43 C          55.6450   -3.6560   54.6520 C.2       1 GLY         0.2007
     44 O          55.3550   -2.4830   54.8170 O.2       1 GLY        -0.3947
     45 OH         57.8770    0.2920   56.3100 O.2       1 ALY        -0.3974
     46 CH         57.5960   -0.8040   56.8070 C.2       1 ALY         0.1729
     47 CH3        56.3110   -0.9820   57.5520 C.3       1 ALY         0.0256
     48 NZ         58.3910   -1.8560   56.6840 N.am      1 ALY        -0.2872
     49 CE         59.6840   -1.7650   55.8930 C.3       1 ALY         0.0309
     50 CD         60.2950   -3.1090   55.6840 C.3       1 ALY        -0.0325
     51 CG         59.4590   -4.0420   54.8360 C.3       1 ALY        -0.0470
     52 CB         59.0330   -3.6600   53.3960 C.3       1 ALY        -0.0123
     53 CA         57.6040   -3.0820   53.3210 C.3       1 ALY         0.1310
     54 N          56.6660   -4.0440   53.8760 N.am      1 ALY        -0.2640
     55 C          57.3030   -2.6540   51.9160 C.2       1 ALY         0.2039
     56 O          57.8540   -1.6670   51.4400 O.2       1 ALY        -0.3944
     57 N          56.4450   -3.4100   51.2230 N.am      1 ALA        -0.2640
     58 CA         56.1360   -3.1410   49.8240 C.3       1 ALA         0.1284
     59 C          54.6500   -3.4060   49.6160 C.2       1 ALA         0.2061
     60 O          54.0560   -4.1180   50.3820 O.2       1 ALA        -0.3942
     61 CB         56.9210   -4.0340   48.9060 C.3       1 ALA        -0.0244
     62 N          54.0760   -2.8250   48.5580 N.am      1 PRO        -0.2498
     63 CA         52.6380   -3.0800   48.3590 C.3       1 PRO         0.1338
     64 C          52.3330   -4.5410   48.1890 C.2       1 PRO         0.2041
     65 O          53.1500   -5.2840   47.5950 O.2       1 PRO        -0.3944
     66 CB         52.3350   -2.3200   47.0530 C.3       1 PRO        -0.0104
     67 CG         53.3280   -1.2210   47.0230 C.3       1 PRO        -0.0281
     68 CD         54.5820   -1.8050   47.6420 C.3       1 PRO         0.0369
     69 N          51.1740   -4.9750   48.6760 N.am      1 ARG        -0.2637
     70 CA         50.8040   -6.3610   48.4410 C.3       1 ARG         0.1310
     71 C          50.6930   -6.6500   46.9100 C.2       1 ARG         0.2033
     72 O          50.2800   -5.8030   46.1040 O.2       1 ARG        -0.3944
     73 CB         49.5450   -6.7450   49.2160 C.3       1 ARG        -0.0092
     74 CG         49.6270   -6.5800   50.7440 C.3       1 ARG        -0.0156
     75 CD         50.9710   -6.8740   51.4600 C.3       1 ARG         0.0627
     76 NE         50.7340   -6.9800   52.9010 N.pl3     1 ARG        -0.2723
     77 CZ         51.5520   -7.5260   53.8340 C.cat     1 ARG         0.2882
     78 NH1        52.6980   -8.0840   53.5090 N.pl3     1 ARG        -0.2849
     79 NH2        51.1960   -7.5220   55.1290 N.pl3     1 ARG        -0.2849
     80 N          51.1380   -7.8530   46.5220 N.am      1 LYS        -0.2698
     81 CA         51.2680   -8.2350   45.0780 C.3       1 LYS         0.0916
     82 C          49.9390   -8.4690   44.3810 C.2       1 LYS         0.0598
     83 O          49.0210   -9.0300   44.9780 O.co2     1 LYS        -0.5666
     84 CB         52.1380   -9.4990   44.9500 C.3       1 LYS        -0.0300
     85 OXT        49.7790   -8.0980   43.2190 O.co2     1 LYS        -0.5666
     86 H1         47.2624    3.6388   69.7070 H         1 ALA         0.2015
     87 H2         47.8130    4.3233   68.3150 H         1 ALA         0.2015
     88 H3         48.4144    2.8745   68.8137 H         1 ALA         0.2015
     89 H4         46.2926    1.7905   68.4946 H         1 ALA         0.1095
     90 H5         44.5038    3.0387   67.3602 H         1 ALA         0.0310
     91 H6         45.4948    4.5352   67.4311 H         1 ALA         0.0310
     92 H7         44.9025    3.7774   68.9483 H         1 ALA         0.0310
     93 H8         47.1259    0.5009   66.9685 H         1 ARG         0.1884
     94 H9         48.0284    1.8168   64.4726 H         1 ARG         0.0800
     95 H10        49.8377    1.1154   66.3123 H         1 ARG         0.0310
     96 H11        50.1391    0.9858   64.5462 H         1 ARG         0.0310
     97 H12        50.9542   -0.9812   65.7431 H         1 ARG         0.0232
     98 H13        49.6097   -1.4095   64.6316 H         1 ARG         0.0232
     99 H14        49.3083   -1.2799   66.3977 H         1 ARG         0.0232
    100 H15        47.8821    0.6492   62.5922 H         1 M3L         0.1883
    101 H16        46.0538   -1.6315   62.6848 H         1 M3L         0.0800
    102 H17        46.7882   -1.7933   60.1898 H         1 M3L         0.0312
    103 H18        47.7054   -0.2778   60.4875 H         1 M3L         0.0312
    104 H19        45.7074    0.9325   60.9788 H         1 M3L         0.0269
    105 H20        44.7291   -0.5735   61.0174 H         1 M3L         0.0269
    106 H21        45.1777   -0.9401   58.5953 H         1 M3L         0.0317
    107 H22        46.1883    0.5442   58.5495 H         1 M3L         0.0317
    108 H23        44.3297    1.9306   59.1388 H         1 M3L         0.0815
    109 H24        43.3091    0.5037   59.5249 H         1 M3L         0.0815
    110 H25        42.3360   -0.3880   56.2767 H         1 M3L         0.0778
    111 H26        41.9256   -0.3228   58.0243 H         1 M3L         0.0778
    112 H27        43.3838   -1.2178   57.4768 H         1 M3L         0.0778
    113 H28        45.1745    1.9241   56.5313 H         1 M3L         0.0778
    114 H29        44.1191    1.0160   55.3964 H         1 M3L         0.0778
    115 H30        45.2749    0.1325   56.4501 H         1 M3L         0.0778
    116 H31        41.8709    2.0039   58.0932 H         1 M3L         0.0778
    117 H32        42.1818    2.0650   56.3251 H         1 M3L         0.0778
    118 H33        43.2292    2.9902   57.4537 H         1 M3L         0.0778
    119 H34        46.6475   -3.7830   61.9596 H         1 SER         0.1884
    120 H35        49.1968   -4.8337   62.6111 H         1 SER         0.0823
    121 H36        47.3362   -6.3278   62.2151 H         1 SER         0.0606
    122 H37        48.6741   -6.7021   61.0764 H         1 SER         0.0606
    123 H38        47.4853   -5.5103   59.4805 H         1 SER         0.2097
    124 H39        50.9943   -5.4564   61.1924 H         1 THR         0.1884
    125 H40        51.6607   -3.1624   59.6849 H         1 THR         0.0826
    126 H41        53.3434   -4.5951   60.8107 H         1 THR         0.0639
    127 H42        53.9593   -3.2370   59.0757 H         1 THR         0.2101
    128 H43        54.1967   -6.6411   59.7176 H         1 THR         0.0257
    129 H44        52.8646   -6.5571   58.5155 H         1 THR         0.0257
    130 H45        52.4928   -6.8411   60.2497 H         1 THR         0.0257
    131 H46        51.6399   -2.6185   57.6484 H         1 GLY         0.1881
    132 H47        50.9580   -2.7620   55.4128 H         1 GLY         0.0763
    133 H48        50.5233   -4.4847   55.6772 H         1 GLY         0.0763
    134 H49        53.5388   -4.2036   56.9054 H         1 GLY         0.1881
    135 H50        54.7234   -5.5767   54.6524 H         1 GLY         0.0763
    136 H51        55.5341   -5.1254   56.1905 H         1 GLY         0.0763
    137 H52        56.2394   -2.0170   57.9175 H         1 ALY         0.0467
    138 H53        55.4656   -0.7710   56.8806 H         1 ALY         0.0467
    139 H54        56.2831   -0.2890   58.4058 H         1 ALY         0.0467
    140 H55        58.1367   -2.7207   57.1172 H         1 ALY         0.1850
    141 H56        60.3952   -1.1312   56.4430 H         1 ALY         0.0520
    142 H57        59.4719   -1.3130   54.9129 H         1 ALY         0.0520
    143 H58        60.4447   -3.5773   56.6680 H         1 ALY         0.0285
    144 H59        61.2687   -2.9730   55.1907 H         1 ALY         0.0285
    145 H60        58.5304   -4.2238   55.3969 H         1 ALY         0.0268
    146 H61        60.0273   -4.9802   54.7535 H         1 ALY         0.0268
    147 H62        59.0798   -4.5608   52.7664 H         1 ALY         0.0312
    148 H63        59.7360   -2.9066   53.0111 H         1 ALY         0.0312
    149 H64        57.5619   -2.1820   53.9520 H         1 ALY         0.0800
    150 H65        56.7853   -5.0161   53.6743 H         1 ALY         0.1883
    151 H66        56.0022   -4.1827   51.6778 H         1 ALA         0.1883
    152 H67        56.3667   -2.0906   49.5931 H         1 ALA         0.0797
    153 H68        56.6632   -3.8038   47.8617 H         1 ALA         0.0277
    154 H69        56.6778   -5.0851   49.1205 H         1 ALA         0.0277
    155 H70        57.9968   -3.8670   49.0634 H         1 ALA         0.0277
    156 H71        52.0507   -2.6803   49.1988 H         1 PRO         0.0802
    157 H72        51.3111   -1.9183   47.0658 H         1 PRO         0.0313
    158 H73        52.4592   -2.9798   46.1817 H         1 PRO         0.0313
    159 H74        52.9714   -0.3621   47.6105 H         1 PRO         0.0287
    160 H75        53.5206   -0.9027   45.9878 H         1 PRO         0.0287
    161 H76        55.2262   -2.2546   46.8720 H         1 PRO         0.0524
    162 H77        55.1457   -1.0336   48.1871 H         1 PRO         0.0524
    163 H78        50.5727   -4.3637   49.1905 H         1 ARG         0.1883
    164 H79        51.6204   -6.9881   48.8286 H         1 ARG         0.0800
    165 H80        49.3246   -7.8011   49.0013 H         1 ARG         0.0313
    166 H81        48.7189   -6.1166   48.8519 H         1 ARG         0.0313
    167 H82        48.8745   -7.2523   51.1819 H         1 ARG         0.0301
    168 H83        49.3625   -5.5366   50.9704 H         1 ARG         0.0301
    169 H84        51.6799   -6.0564   51.2627 H         1 ARG         0.0689
    170 H85        51.3887   -7.8200   51.0851 H         1 ARG         0.0689
    171 H86        49.8428   -6.5953   53.2456 H         1 ARG         0.2642
    172 H87        53.2985   -8.4907   54.2404 H         1 ARG         0.2615
    173 H88        52.9948   -8.1142   52.5232 H         1 ARG         0.2615
    174 H89        50.3049   -7.0931   55.4168 H         1 ARG         0.2615
    175 H90        51.8141   -7.9479   55.8343 H         1 ARG         0.2615
    176 H91        51.3928   -8.5207   47.2215 H         1 LYS         0.1875
    177 H92        51.7757   -7.4080   44.5601 H         1 LYS         0.0723
    178 H93        52.2301   -9.7748   43.8891 H         1 LYS         0.0270
    179 H94        51.6684  -10.3251   45.5041 H         1 LYS         0.0270
    180 H95        53.1370   -9.3001   45.3652 H         1 LYS         0.0270
@<TRIPOS>BOND
     1    2    1 1  
     2    3    2 1  
     3    2    5 1  
     4    3    4 2  
     5    6    3 am 
     6    7    6 1  
     7    8    7 1  
     8    7   10 1  
     9    8    9 2  
    10   12    8 am 
    11   10   11 1  
    12   13   12 1  
    13   13   14 1  
    14   19   13 1  
    15   14   15 1  
    16   15   16 1  
    17   16   17 1  
    18   17   18 1  
    19   18   21 1  
    20   18   22 1  
    21   18   23 1  
    22   19   20 2  
    23   24   19 am 
    24   25   24 1  
    25   26   25 1  
    26   25   28 1  
    27   26   27 2  
    28   30   26 am 
    29   28   29 1  
    30   31   30 1  
    31   32   31 1  
    32   31   34 1  
    33   32   33 2  
    34   37   32 am 
    35   34   35 1  
    36   34   36 1  
    37   38   37 1  
    38   39   38 1  
    39   39   40 2  
    40   41   39 am 
    41   42   41 1  
    42   43   42 1  
    43   43   44 2  
    44   54   43 am 
    45   46   45 2  
    46   46   47 1  
    47   48   46 am 
    48   49   48 1  
    49   50   49 1  
    50   51   50 1  
    51   52   51 1  
    52   53   52 1  
    53   53   54 1  
    54   53   55 1  
    55   55   56 2  
    56   55   57 am 
    57   57   58 1  
    58   58   59 1  
    59   58   61 1  
    60   59   60 2  
    61   59   62 am 
    62   62   63 1  
    63   62   68 1  
    64   63   64 1  
    65   63   66 1  
    66   64   65 2  
    67   64   69 am 
    68   66   67 1  
    69   67   68 1  
    70   69   70 1  
    71   70   71 1  
    72   70   73 1  
    73   71   72 2  
    74   71   80 am 
    75   73   74 1  
    76   74   75 1  
    77   75   76 1  
    78   76   77 ar 
    79   77   78 ar 
    80   77   79 ar 
    81   80   81 1  
    82   81   82 1  
    83   81   84 1  
    84   82   83 ar 
    85   82   85 ar 
    86    1   86 1  
    87    1   87 1  
    88    1   88 1  
    89    2   89 1  
    90    5   90 1  
    91    5   91 1  
    92    5   92 1  
    93    6   93 1  
    94    7   94 1  
    95   10   95 1  
    96   10   96 1  
    97   11   97 1  
    98   11   98 1  
    99   11   99 1  
   100   12  100 1  
   101   13  101 1  
   102   14  102 1  
   103   14  103 1  
   104   15  104 1  
   105   15  105 1  
   106   16  106 1  
   107   16  107 1  
   108   17  108 1  
   109   17  109 1  
   110   21  110 1  
   111   21  111 1  
   112   21  112 1  
   113   22  113 1  
   114   22  114 1  
   115   22  115 1  
   116   23  116 1  
   117   23  117 1  
   118   23  118 1  
   119   24  119 1  
   120   25  120 1  
   121   28  121 1  
   122   28  122 1  
   123   29  123 1  
   124   30  124 1  
   125   31  125 1  
   126   34  126 1  
   127   35  127 1  
   128   36  128 1  
   129   36  129 1  
   130   36  130 1  
   131   37  131 1  
   132   38  132 1  
   133   38  133 1  
   134   41  134 1  
   135   42  135 1  
   136   42  136 1  
   137   47  137 1  
   138   47  138 1  
   139   47  139 1  
   140   48  140 1  
   141   49  141 1  
   142   49  142 1  
   143   50  143 1  
   144   50  144 1  
   145   51  145 1  
   146   51  146 1  
   147   52  147 1  
   148   52  148 1  
   149   53  149 1  
   150   54  150 1  
   151   57  151 1  
   152   58  152 1  
   153   61  153 1  
   154   61  154 1  
   155   61  155 1  
   156   63  156 1  
   157   66  157 1  
   158   66  158 1  
   159   67  159 1  
   160   67  160 1  
   161   68  161 1  
   162   68  162 1  
   163   69  163 1  
   164   70  164 1  
   165   73  165 1  
   166   73  166 1  
   167   74  167 1  
   168   74  168 1  
   169   75  169 1  
   170   75  170 1  
   171   76  171 1  
   172   78  172 1  
   173   78  173 1  
   174   79  174 1  
   175   79  175 1  
   176   80  176 1  
   177   81  177 1  
   178   84  178 1  
   179   84  179 1  
   180   84  180 1  
@<TRIPOS>SUBSTRUCTURE
     1 ALA         1

