3qqu_ligand
  -I-interpret- 

 56 60  0  0  0  0  0  0  0  0999 V2000
  -10.8970    0.4580   -0.1090 C   0  0  0  0  0
  -12.0770   -7.0030   -4.9250 N   0  0  0  0  0
  -12.3850   -9.7470   -4.7760 O   0  0  0  0  0
  -11.0240   -9.2930   -4.8170 C   0  0  0  0  0
  -10.8840   -1.6950    0.9790 N   0  0  0  0  0
  -10.1160   -6.0660   -3.0510 O   0  0  0  0  0
  -10.8440   -7.7950   -5.0610 C   0  0  0  0  0
  -10.1440   -4.8490    2.5880 N   0  0  0  0  0
  -11.4550   -0.8790   -2.4930 C   0  0  0  0  0
  -11.3450    0.4690   -2.4230 N   0  0  0  0  0
  -13.3580   -7.6820   -5.1880 C   0  0  0  0  0
  -11.2910   -1.5730   -1.3760 N   0  0  0  0  0
  -13.1970   -9.1000   -5.7170 C   0  0  0  0  0
  -11.7160   -1.5240   -3.6850 N   0  0  0  0  0
  -12.1830   -6.4200   -0.2960 C   0  0  0  0  0
  -12.0310   -7.8500    0.0270 C   0  0  0  0  0
  -11.2670   -8.2940    1.1980 C   0  0  0  0  0
  -10.6540   -7.2940    2.0570 C   0  0  0  0  0
  -12.8030   -3.3480   -4.8760 C   0  0  0  0  0
  -11.7920   -2.8770   -3.9570 C   0  0  0  0  0
  -10.8890   -3.7970   -3.3570 C   0  0  0  0  0
  -10.9920   -5.1790   -3.6680 C   0  0  0  0  0
  -12.0040   -5.6550   -4.5920 C   0  0  0  0  0
  -12.9320   -4.7390   -5.2120 C   0  0  0  0  0
   -8.7650   -5.6890   -2.6990 C   0  0  0  0  0
  -10.9010   -3.0590    1.2020 C   0  0  0  0  0
  -11.5700   -4.0450    0.3540 C   0  0  0  0  0
  -11.5570   -5.4330    0.5670 C   0  0  0  0  0
  -10.7700   -5.8500    1.7840 C   0  0  0  0  0
  -10.1740   -3.5090    2.3560 C   0  0  0  0  0
  -11.0780    1.1590   -1.3060 C   0  0  0  0  0
  -11.0190   -0.9590   -0.1910 C   0  0  0  0  0
  -10.6759    0.9655    0.8300 H   0  0  0  0  0
  -10.5485   -9.8054   -5.6533 H   0  0  0  0  0
  -10.5943   -9.5042   -3.8378 H   0  0  0  0  0
  -10.7490   -1.1318    1.8186 H   0  0  0  0  0
  -10.1455   -7.4304   -4.3078 H   0  0  0  0  0
  -10.5009   -7.6778   -6.0889 H   0  0  0  0  0
  -13.8834   -7.1061   -5.9499 H   0  0  0  0  0
  -13.8955   -7.7447   -4.2418 H   0  0  0  0  0
  -14.1586   -9.5999   -5.8330 H   0  0  0  0  0
  -12.7517   -9.1123   -6.7118 H   0  0  0  0  0
  -11.8767   -0.9109   -4.4842 H   0  0  0  0  0
  -12.7563   -6.1077   -1.1689 H   0  0  0  0  0
  -12.4968   -8.5944   -0.6188 H   0  0  0  0  0
  -11.1607   -9.3558    1.4203 H   0  0  0  0  0
  -10.0908   -7.6224    2.9305 H   0  0  0  0  0
  -13.4864   -2.6283   -5.3266 H   0  0  0  0  0
  -10.1245   -3.4448   -2.6645 H   0  0  0  0  0
  -13.6975   -5.0877   -5.9052 H   0  0  0  0  0
   -8.2239   -5.3984   -3.5995 H   0  0  0  0  0
   -8.7927   -4.8501   -2.0036 H   0  0  0  0  0
   -8.2636   -6.5353   -2.2295 H   0  0  0  0  0
  -12.1212   -3.6739   -0.5100 H   0  0  0  0  0
   -9.6677   -2.8064    3.0179 H   0  0  0  0  0
  -11.0032    2.2462   -1.3295 H   0  0  0  0  0
  1 31  4  0  0  0
 32  1  4  0  0  0
  2  7  1  0  0  0
  2 11  1  0  0  0
 23  2  1  0  0  0
  4  3  1  0  0  0
 13  3  1  0  0  0
  7  4  1  0  0  0
 26  5  1  0  0  0
  5 32  1  0  0  0
 22  6  1  0  0  0
  6 25  1  0  0  0
  8 29  4  0  0  0
 30  8  4  0  0  0
  9 10  4  0  0  0
 12  9  4  0  0  0
  9 14  1  0  0  0
 31 10  4  0  0  0
 11 13  1  0  0  0
 32 12  4  0  0  0
 14 20  1  0  0  0
 16 15  4  0  0  0
 15 28  4  0  0  0
 17 16  4  0  0  0
 18 17  4  0  0  0
 29 18  4  0  0  0
 20 19  4  0  0  0
 19 24  4  0  0  0
 20 21  4  0  0  0
 21 22  4  0  0  0
 22 23  4  0  0  0
 24 23  4  0  0  0
 26 27  4  0  0  0
 26 30  4  0  0  0
 27 28  4  0  0  0
 28 29  4  0  0  0
  1 33  1  0  0  0
  4 34  1  0  0  0
  4 35  1  0  0  0
  5 36  1  0  0  0
  7 37  1  0  0  0
  7 38  1  0  0  0
 11 39  1  0  0  0
 11 40  1  0  0  0
 13 41  1  0  0  0
 13 42  1  0  0  0
 14 43  1  0  0  0
 15 44  1  0  0  0
 16 45  1  0  0  0
 17 46  1  0  0  0
 18 47  1  0  0  0
 19 48  1  0  0  0
 21 49  1  0  0  0
 24 50  1  0  0  0
 25 51  1  0  0  0
 25 52  1  0  0  0
 25 53  1  0  0  0
 27 54  1  0  0  0
 30 55  1  0  0  0
 31 56  1  0  0  0
M  END
$$$$
