4bdf_ligand
  -I-interpret- 

 21 22  0  0  0  0  0  0  0  0999 V2000
  -36.5720   34.9990    7.7400 C   0  0  0  0  0
  -35.8500   35.6710    8.8630 C   0  0  0  0  0
  -37.4110   33.9140    7.7210 C   0  0  0  0  0
  -39.2190   32.8080    4.5700 C   0  0  0  0  0
  -38.6940   31.3980    6.4410 C   0  0  0  0  0
  -40.0100   31.8010    4.0380 C   0  0  0  0  0
  -39.4930   30.3990    5.9070 C   0  0  0  0  0
  -40.1540   30.6010    4.7090 C   0  0  0  0  0
  -37.7370   33.6990    6.3700 C   0  0  0  0  0
  -37.1450   34.6190    5.5960 N   0  0  0  0  0
  -38.5520   32.6190    5.7810 C   0  0  0  0  0
  -36.4370   35.4000    6.4660 N   0  0  0  0  0
  -36.5736   36.0331    9.5934 H   0  0  0  0  0
  -35.1771   34.9578    9.3391 H   0  0  0  0  0
  -35.2746   36.5105    8.4726 H   0  0  0  0  0
  -37.7551   33.3360    8.5787 H   0  0  0  0  0
  -39.1175   33.7541    4.0384 H   0  0  0  0  0
  -38.1729   31.2284    7.3833 H   0  0  0  0  0
  -40.5201   31.9562    3.0873 H   0  0  0  0  0
  -39.6008   29.4506    6.4333 H   0  0  0  0  0
  -40.7869   29.8160    4.2950 H   0  0  0  0  0
  1  2  1  0  0  0
  3  1  4  0  0  0
  1 12  4  0  0  0
  9  3  4  0  0  0
  4  6  4  0  0  0
 11  4  4  0  0  0
  5  7  4  0  0  0
 11  5  4  0  0  0
  6  8  4  0  0  0
  7  8  4  0  0  0
  9 10  4  0  0  0
  9 11  1  0  0  0
 10 12  4  0  0  0
  2 13  1  0  0  0
  2 14  1  0  0  0
  2 15  1  0  0  0
  3 16  1  0  0  0
  4 17  1  0  0  0
  5 18  1  0  0  0
  6 19  1  0  0  0
  7 20  1  0  0  0
  8 21  1  0  0  0
M  END
$$$$
