2ym4_ligand
  -I-interpret- 

 52 55  0  0  0  0  0  0  0  0999 V2000
   21.2950    0.4780    7.4970 C   0  0  0  0  0
   20.6870   -0.7620    8.0660 C   0  0  0  0  0
   19.9370   -0.6480    9.2140 O   0  0  0  0  0
   18.7820   -1.3940    9.3220 C   0  0  0  0  0
   18.8350   -2.6090    9.2660 O   0  0  0  0  0
   17.4850   -0.6730    9.4500 C   0  0  0  0  0
   17.3620    0.4930    8.6890 C   0  0  0  0  0
   16.2390    1.2250    8.7260 N   0  0  0  0  0
   15.1710    0.8480    9.5140 C   0  0  0  0  0
   13.9550    1.4870    9.6610 N   0  0  0  0  0
   13.2000    0.7680   10.5380 N   0  0  0  0  0
   13.9180   -0.2960   10.9430 C   0  0  0  0  0
   13.4460   -1.2410   11.8270 C   0  0  0  0  0
   14.3050   -2.1330   12.4450 C   0  0  0  0  0
   13.8160   -3.0860   13.3290 C   0  0  0  0  0
   12.4620   -3.1460   13.5990 C   0  0  0  0  0
   11.6010   -2.2570   12.9840 C   0  0  0  0  0
   10.1480   -2.3260   13.2780 C   0  0  0  0  0
    9.0410   -2.3810   13.5050 N   0  0  0  0  0
   12.0890   -1.3030   12.0960 C   0  0  0  0  0
   15.2080   -0.2880   10.2960 C   0  0  0  0  0
   16.4150   -1.0830   10.2750 C   0  0  0  0  0
   16.5280   -2.2990   11.0620 N   0  0  0  0  0
   16.3890   -3.4150   10.2160 C   0  0  0  0  0
   16.4190   -4.6710   11.0150 C   0  0  0  0  0
   17.5970   -4.7630   11.7670 O   0  0  0  0  0
   17.8520   -3.6440   12.5810 C   0  0  0  0  0
   16.9660   -3.6660   13.7940 C   0  0  0  0  0
   17.0230   -2.3840   14.4490 N   0  3  0  0  0
   17.6910   -2.3430   11.8520 C   0  0  0  0  0
   20.5056    1.1878    7.2500 H   0  0  0  0  0
   21.9674    0.9215    8.2314 H   0  0  0  0  0
   21.8542    0.2264    6.5958 H   0  0  0  0  0
   21.5296   -1.3994    8.3341 H   0  0  0  0  0
   19.9949   -1.1198    7.3037 H   0  0  0  0  0
   18.1906    0.8118    8.0566 H   0  0  0  0  0
   15.3738   -2.0872   12.2362 H   0  0  0  0  0
   14.4996   -3.7860   13.8094 H   0  0  0  0  0
   12.0749   -3.8912   14.2939 H   0  0  0  0  0
   11.4043   -0.6058   11.6131 H   0  0  0  0  0
   17.2120   -3.4264    9.5014 H   0  0  0  0  0
   15.4364   -3.3485    9.6904 H   0  0  0  0  0
   16.3742   -5.5195   10.3323 H   0  0  0  0  0
   15.5690   -4.6704   11.6974 H   0  0  0  0  0
   18.8961   -3.7122   12.8866 H   0  0  0  0  0
   17.3062   -4.4416   14.4801 H   0  0  0  0  0
   15.9399   -3.8762   13.4924 H   0  0  0  0  0
   16.4218   -2.3975   15.2729 H   0  0  0  0  0
   17.9839   -2.1900   14.7309 H   0  0  0  0  0
   16.7035   -1.6601   13.8053 H   0  0  0  0  0
   17.6178   -1.5506   12.5969 H   0  0  0  0  0
   18.5484   -2.2241   11.1895 H   0  0  0  0  0
  1  2  1  0  0  0
  2  3  1  0  0  0
  3  4  1  0  0  0
  4  5  2  0  0  0
  4  6  1  0  0  0
  6  7  4  0  0  0
  6 22  4  0  0  0
  7  8  4  0  0  0
  8  9  4  0  0  0
  9 10  4  0  0  0
  9 21  4  0  0  0
 10 11  4  0  0  0
 11 12  4  0  0  0
 12 13  1  0  0  0
 12 21  4  0  0  0
 13 14  4  0  0  0
 13 20  4  0  0  0
 14 15  4  0  0  0
 15 16  4  0  0  0
 16 17  4  0  0  0
 17 18  1  0  0  0
 17 20  4  0  0  0
 18 19  3  0  0  0
 21 22  4  0  0  0
 22 23  1  0  0  0
 23 24  1  0  0  0
 23 30  1  0  0  0
 24 25  1  0  0  0
 25 26  1  0  0  0
 26 27  1  0  0  0
 27 28  1  0  0  0
 27 30  1  0  0  0
 28 29  1  0  0  0
  1 31  1  0  0  0
  1 32  1  0  0  0
  1 33  1  0  0  0
  2 34  1  0  0  0
  2 35  1  0  0  0
  7 36  1  0  0  0
 14 37  1  0  0  0
 15 38  1  0  0  0
 16 39  1  0  0  0
 20 40  1  0  0  0
 24 41  1  0  0  0
 24 42  1  0  0  0
 25 43  1  0  0  0
 25 44  1  0  0  0
 27 45  1  0  0  0
 28 46  1  0  0  0
 28 47  1  0  0  0
 29 48  1  0  0  0
 29 49  1  0  0  0
 29 50  1  0  0  0
 30 51  1  0  0  0
 30 52  1  0  0  0
M  END
$$$$
