1qyg_ligand
  -I-interpret- 

 41 43  0  0  0  0  0  0  0  0999 V2000
   22.4460   -1.2630   26.2590 C   0  0  0  0  0
   23.8230   -1.8700   25.8480 C   0  0  0  0  0
   23.7170   -2.3060   24.3540 C   0  0  0  0  0
   22.5100   -3.0750   23.9880 C   0  0  0  0  0
   21.2020   -2.3290   24.5660 C   0  0  0  0  0
   21.1570   -0.8370   24.1760 C   0  0  0  0  0
   22.0120   -0.0810   25.3480 C   0  0  0  0  0
   26.1290   -2.5320   24.0090 C   0  0  0  0  0
   27.1500   -3.5320   23.5930 C   0  0  0  0  0
   26.7740   -4.8540   23.1910 C   0  0  0  0  0
   27.8290   -5.7630   22.7520 C   0  0  0  0  0
   29.1740   -5.3220   22.7360 C   0  0  0  0  0
   29.5230   -3.9990   23.1720 C   0  0  0  0  0
   28.4870   -3.1350   23.5890 C   0  0  0  0  0
   24.2950   -3.0020   26.7720 C   0  0  0  0  0
   20.1090   -2.0540   26.8750 C   0  0  0  0  0
   21.3640   -2.3560   26.0570 N   0  3  0  0  0
   24.9230   -3.0250   23.9640 O   0  0  0  0  0
   26.4190   -1.3840   24.2890 O   0  0  0  0  0
   25.3480   -3.0990   27.3210 O   0  0  0  0  0
   23.3700   -3.9040   26.8580 O   0  0  0  0  0
   22.5447   -0.9135   27.2867 H   0  0  0  0  0
   24.5991   -1.1128   25.9596 H   0  0  0  0  0
   23.6176   -1.3761   23.7940 H   0  0  0  0  0
   22.5746   -4.0768   24.4128 H   0  0  0  0  0
   22.4388   -3.1448   22.9026 H   0  0  0  0  0
   20.3073   -2.8183   24.1810 H   0  0  0  0  0
   20.1354   -0.4628   24.1098 H   0  0  0  0  0
   21.5771   -0.6608   23.1858 H   0  0  0  0  0
   22.8540    0.4929   24.9611 H   0  0  0  0  0
   21.4353    0.6778   25.8769 H   0  0  0  0  0
   25.7317   -5.1721   23.2121 H   0  0  0  0  0
   27.5819   -6.7771   22.4379 H   0  0  0  0  0
   29.9562   -5.9965   22.3877 H   0  0  0  0  0
   30.5621   -3.6699   23.1808 H   0  0  0  0  0
   28.7399   -2.1270   23.9178 H   0  0  0  0  0
   19.7474   -1.0558   26.6281 H   0  0  0  0  0
   19.3388   -2.7890   26.6411 H   0  0  0  0  0
   20.3488   -2.1026   27.9372 H   0  0  0  0  0
   21.5993   -3.2907   26.3907 H   0  0  0  0  0
   22.6079   -3.6293   26.3429 H   0  0  0  0  0
  2  1  1  0  0  0
  1  7  1  0  0  0
  1 17  1  0  0  0
  3  2  1  0  0  0
  2 15  1  0  0  0
  3  4  1  0  0  0
 18  3  1  0  0  0
  4  5  1  0  0  0
  5  6  1  0  0  0
  5 17  1  0  0  0
  6  7  1  0  0  0
  8  9  1  0  0  0
 18  8  1  0  0  0
  8 19  2  0  0  0
  9 10  4  0  0  0
  9 14  4  0  0  0
 10 11  4  0  0  0
 11 12  4  0  0  0
 12 13  4  0  0  0
 13 14  4  0  0  0
 15 20  2  0  0  0
 15 21  1  0  0  0
 17 16  1  0  0  0
  1 22  1  0  0  0
  2 23  1  0  0  0
  3 24  1  0  0  0
  4 25  1  0  0  0
  4 26  1  0  0  0
  5 27  1  0  0  0
  6 28  1  0  0  0
  6 29  1  0  0  0
  7 30  1  0  0  0
  7 31  1  0  0  0
 10 32  1  0  0  0
 11 33  1  0  0  0
 12 34  1  0  0  0
 13 35  1  0  0  0
 14 36  1  0  0  0
 16 37  1  0  0  0
 16 38  1  0  0  0
 16 39  1  0  0  0
 17 40  1  0  0  0
 21 41  1  0  0  0
M  END
$$$$
