1dzk_ligand
  -I-interpret- 

 26 26  0  0  0  0  0  0  0  0999 V2000
   -0.0300   24.7570   10.5420 N   0  0  0  0  0
   -0.4030   25.8580   11.2200 C   0  0  0  0  0
    0.5710   26.7340   11.7610 C   0  0  0  0  0
    1.9330   26.4290   11.6440 N   0  0  0  0  0
    2.2990   25.1950   10.9970 C   0  0  0  0  0
    1.2920   24.3860   10.3500 C   0  0  0  0  0
   -1.9300   26.1020   11.5660 C   0  0  0  0  0
   -2.1570   26.4380   13.1700 C   0  0  0  0  0
   -3.2530   27.1590   13.7540 C   0  0  0  0  0
   -1.1970   25.8720   14.2440 C   0  0  0  0  0
    0.1150   27.8030   12.1900 O   0  0  0  0  0
    0.9980   28.7750   12.7450 C   0  0  0  0  0
    3.3396   24.8705   10.9956 H   0  0  0  0  0
    1.5592   23.5237    9.7391 H   0  0  0  0  0
   -2.4827   25.1935   11.3268 H   0  0  0  0  0
   -2.2781   26.9570   10.9864 H   0  0  0  0  0
   -2.1144   26.9319   12.1992 H   0  0  0  0  0
   -3.2858   28.1664   13.3390 H   0  0  0  0  0
   -4.1863   26.6421   13.5308 H   0  0  0  0  0
   -3.1158   27.2139   14.8339 H   0  0  0  0  0
   -1.2136   24.7828   14.2065 H   0  0  0  0  0
   -0.1854   26.2282   14.0493 H   0  0  0  0  0
   -1.5183   26.2078   15.2299 H   0  0  0  0  0
    1.5192   28.3444   13.6000 H   0  0  0  0  0
    1.7238   29.0777   11.9902 H   0  0  0  0  0
    0.4238   29.6435   13.0676 H   0  0  0  0  0
  1  6  4  0  0  0
  1  2  4  0  0  0
  2  7  1  0  0  0
  2  3  4  0  0  0
  3 11  1  0  0  0
  3  4  4  0  0  0
  4  5  4  0  0  0
  5  6  4  0  0  0
 11 12  1  0  0  0
  7  8  1  0  0  0
  8 10  1  0  0  0
  8  9  1  0  0  0
  5 13  1  0  0  0
  6 14  1  0  0  0
  7 15  1  0  0  0
  7 16  1  0  0  0
  8 17  1  0  0  0
  9 18  1  0  0  0
  9 19  1  0  0  0
  9 20  1  0  0  0
 10 21  1  0  0  0
 10 22  1  0  0  0
 10 23  1  0  0  0
 12 24  1  0  0  0
 12 25  1  0  0  0
 12 26  1  0  0  0
M  END
$$$$
