3blt_ligand
  -I-interpret- 

 22 22  0  0  0  0  0  0  0  0999 V2000
   22.6090   37.7660   73.8410 C   0  0  0  0  0
   21.8620   38.4300   72.8160 C   0  0  0  0  0
   21.9000   36.9370   74.7550 C   0  0  0  0  0
   20.4430   38.2660   72.7160 C   0  0  0  0  0
   20.4870   36.7670   74.6580 C   0  0  0  0  0
   19.7470   37.4300   73.6380 C   0  0  0  0  0
   18.3350   37.2830   73.5440 O   0  0  0  0  0
   17.4270   35.9750   73.8350 S   0  0  0  0  0
   15.9840   36.2980   73.5980 O   0  0  0  0  0
   17.7740   34.8970   72.9550 O   0  0  0  0  0
   17.5270   35.4470   75.3290 C   0  0  0  0  0
   16.2030   35.3820   76.0830 C   0  0  0  0  0
   23.6889   37.8917   73.9191 H   0  0  0  0  0
   22.3807   39.0694   72.1017 H   0  0  0  0  0
   22.4473   36.4220   75.5445 H   0  0  0  0  0
   19.8917   38.7831   71.9306 H   0  0  0  0  0
   19.9696   36.1244   75.3704 H   0  0  0  0  0
   18.1608   36.1508   75.8685 H   0  0  0  0  0
   17.9082   34.4272   75.2763 H   0  0  0  0  0
   15.7658   36.3792   76.1335 H   0  0  0  0  0
   15.5213   34.7110   75.5604 H   0  0  0  0  0
   16.3790   35.0095   77.0921 H   0  0  0  0  0
  1  2  4  0  0  0
  1  3  4  0  0  0
  2  4  4  0  0  0
  3  5  4  0  0  0
  4  6  4  0  0  0
  5  6  4  0  0  0
  6  7  1  0  0  0
  7  8  1  0  0  0
  8  9  2  0  0  0
  8 10  2  0  0  0
  8 11  1  0  0  0
 11 12  1  0  0  0
  1 13  1  0  0  0
  2 14  1  0  0  0
  3 15  1  0  0  0
  4 16  1  0  0  0
  5 17  1  0  0  0
 11 18  1  0  0  0
 11 19  1  0  0  0
 12 20  1  0  0  0
 12 21  1  0  0  0
 12 22  1  0  0  0
M  END
$$$$
