3sji_ligand
  -I-interpret- 

 87 89  0  0  0  0  0  0  0  0999 V2000
   -9.5350   -8.6290   -2.6810 C   0  0  0  0  0
   -8.1250   -7.9930   -2.4610 C   0  0  0  0  0
   -9.6980   -9.8300   -2.5040 O   0  0  0  0  0
   -7.0810   -8.8920   -1.7830 C   0  0  0  0  0
   -5.7710   -8.2020   -1.4790 C   0  0  0  0  0
   -5.1340   -7.3990   -2.5850 C   0  0  0  0  0
   -4.6050   -8.0900   -3.7120 C   0  0  0  0  0
   -4.0040   -7.3560   -4.7690 C   0  0  0  0  0
   -3.9430   -5.9730   -4.6940 C   0  0  0  0  0
   -4.5000   -5.2560   -3.5150 C   0  0  0  0  0
   -5.0770   -5.9670   -2.4980 C   0  0  0  0  0
   -7.4060  -11.1250   -0.4400 N   0  0  0  0  0
   -7.6700  -11.8500    0.8160 C   0  0  0  0  0
   -8.7800  -12.8900    0.7400 C   0  0  0  0  0
  -10.1690  -12.3890    0.3890 C   0  0  0  0  0
  -11.3120  -13.3160   -0.0970 C   0  0  0  0  0
  -12.5480  -12.8350    0.5280 N   0  3  0  0  0
  -11.1290  -14.5230   -0.7580 O   0  0  0  0  0
   -6.4170  -12.3810    1.4550 C   0  0  0  0  0
   -5.4990  -11.3310    2.0770 C   0  0  0  0  0
   -6.1030  -10.5570    3.2430 C   0  0  0  0  0
   -6.0330   -9.2440    3.2730 O   0  0  0  0  0
   -6.7760  -11.1620    4.0920 O   0  0  0  0  0
   -7.6590   -9.6740   -0.5580 C   0  0  0  0  0
   -8.2340   -9.0650    0.3270 O   0  0  0  0  0
   -6.6230   -8.5410    4.3620 C   0  0  0  0  0
   -6.3460   -7.0440    4.4880 C   0  0  0  0  0
  -10.7320   -7.7770   -3.1900 C   0  0  0  0  0
  -11.4790   -8.4650   -4.2230 N   0  0  0  0  0
  -11.6270   -7.9270   -5.5610 C   0  0  0  0  0
  -11.0560   -6.9050   -5.8940 O   0  0  0  0  0
  -11.6160   -7.2390   -2.0780 C   0  0  0  0  0
  -12.4630   -6.0780   -2.4870 C   0  0  0  0  0
   -3.3760   -5.2780   -5.6800 F   0  0  0  0  0
  -10.9320   -7.0560   -0.7570 C   0  0  0  0  0
  -12.3740  -11.3770    0.7500 C   0  0  0  0  0
  -10.8700  -11.1660    1.0040 C   0  0  0  0  0
  -12.4960   -8.6930   -6.5500 C   0  0  0  0  0
  -12.8370   -8.3200   -7.8240 C   0  0  0  0  0
  -13.6530   -9.3450   -8.3670 C   0  0  0  0  0
  -13.8000  -10.3570   -7.3790 O   0  0  0  0  0
  -13.1060   -9.9770   -6.2710 N   0  0  0  0  0
  -14.2690   -9.3720   -9.7510 C   0  0  0  0  0
   -8.2731   -7.1410   -1.7975 H   0  0  0  0  0
   -7.7343   -7.7632   -3.4523 H   0  0  0  0  0
   -6.8284   -9.6412   -2.5333 H   0  0  0  0  0
   -5.0646   -9.0005   -1.2519 H   0  0  0  0  0
   -5.9931   -7.4864   -0.6874 H   0  0  0  0  0
   -4.6610   -9.1773   -3.7633 H   0  0  0  0  0
   -3.5932   -7.8769   -5.6339 H   0  0  0  0  0
   -4.4486   -4.1685   -3.4616 H   0  0  0  0  0
   -5.4892   -5.4514   -1.6306 H   0  0  0  0  0
   -7.0412  -11.6355   -1.2442 H   0  0  0  0  0
   -8.0678  -11.0868    1.4848 H   0  0  0  0  0
   -8.8602  -13.3140    1.7409 H   0  0  0  0  0
   -8.4967  -13.5701   -0.0633 H   0  0  0  0  0
   -9.4841  -12.0614   -0.3931 H   0  0  0  0  0
  -11.4178  -13.5443   -1.1576 H   0  0  0  0  0
  -12.7221  -13.3187    1.4090 H   0  0  0  0  0
  -13.3533  -13.0181   -0.0707 H   0  0  0  0  0
  -11.9845  -14.9114   -0.9553 H   0  0  0  0  0
   -5.8447  -12.8624    0.6620 H   0  0  0  0  0
   -6.7361  -13.0340    2.2673 H   0  0  0  0  0
   -5.2791  -10.6030    1.2962 H   0  0  0  0  0
   -4.6318  -11.8631    2.4680 H   0  0  0  0  0
   -6.1962   -8.9893    5.2592 H   0  0  0  0  0
   -7.6990   -8.6228    4.2084 H   0  0  0  0  0
   -5.2734   -6.8820    4.5951 H   0  0  0  0  0
   -6.7045   -6.5330    3.5944 H   0  0  0  0  0
   -6.8631   -6.6526    5.3641 H   0  0  0  0  0
  -10.2969   -6.8895   -3.6496 H   0  0  0  0  0
  -11.9162   -9.3594   -4.0011 H   0  0  0  0  0
  -12.3188   -8.0513   -1.8926 H   0  0  0  0  0
  -11.8218   -5.2599   -2.8151 H   0  0  0  0  0
  -13.1183   -6.3782   -3.3047 H   0  0  0  0  0
  -13.0646   -5.7520   -1.6385 H   0  0  0  0  0
  -10.5461   -8.0156   -0.4131 H   0  0  0  0  0
  -10.1083   -6.3512   -0.8704 H   0  0  0  0  0
  -11.6460   -6.6685   -0.0302 H   0  0  0  0  0
  -12.9704  -11.0312    1.5943 H   0  0  0  0  0
  -12.7145  -10.8020   -0.1111 H   0  0  0  0  0
  -10.5172  -10.2377    0.5547 H   0  0  0  0  0
  -10.6550  -11.0782    2.0690 H   0  0  0  0  0
  -12.5356   -7.4019   -8.3284 H   0  0  0  0  0
  -14.9278   -8.5120   -9.8709 H   0  0  0  0  0
  -13.4782   -9.3327  -10.5001 H   0  0  0  0  0
  -14.8426  -10.2907   -9.8742 H   0  0  0  0  0
  2  1  1  0  0  0
  1  3  2  0  0  0
  1 28  1  0  0  0
  4  2  1  0  0  0
  4  5  1  0  0  0
 24  4  1  0  0  0
  5  6  1  0  0  0
  6  7  4  0  0  0
  6 11  4  0  0  0
  7  8  4  0  0  0
  8  9  4  0  0  0
 10  9  4  0  0  0
  9 34  1  0  0  0
 11 10  4  0  0  0
 12 13  1  0  0  0
 12 24  1  0  0  0
 13 14  1  0  0  0
 13 19  1  0  0  0
 14 15  1  0  0  0
 15 16  1  0  0  0
 15 37  1  0  0  0
 16 17  1  0  0  0
 16 18  1  0  0  0
 17 36  1  0  0  0
 19 20  1  0  0  0
 20 21  1  0  0  0
 21 22  1  0  0  0
 21 23  2  0  0  0
 22 26  1  0  0  0
 24 25  2  0  0  0
 26 27  1  0  0  0
 28 29  1  0  0  0
 28 32  1  0  0  0
 29 30  1  0  0  0
 30 31  2  0  0  0
 30 38  1  0  0  0
 32 33  1  0  0  0
 32 35  1  0  0  0
 36 37  1  0  0  0
 38 39  4  0  0  0
 38 42  4  0  0  0
 39 40  4  0  0  0
 40 41  4  0  0  0
 40 43  1  0  0  0
 41 42  4  0  0  0
  2 44  1  0  0  0
  2 45  1  0  0  0
  4 46  1  0  0  0
  5 47  1  0  0  0
  5 48  1  0  0  0
  7 49  1  0  0  0
  8 50  1  0  0  0
 10 51  1  0  0  0
 11 52  1  0  0  0
 12 53  1  0  0  0
 13 54  1  0  0  0
 14 55  1  0  0  0
 14 56  1  0  0  0
 15 57  1  0  0  0
 16 58  1  0  0  0
 17 59  1  0  0  0
 17 60  1  0  0  0
 18 61  1  0  0  0
 19 62  1  0  0  0
 19 63  1  0  0  0
 20 64  1  0  0  0
 20 65  1  0  0  0
 26 66  1  0  0  0
 26 67  1  0  0  0
 27 68  1  0  0  0
 27 69  1  0  0  0
 27 70  1  0  0  0
 28 71  1  0  0  0
 29 72  1  0  0  0
 32 73  1  0  0  0
 33 74  1  0  0  0
 33 75  1  0  0  0
 33 76  1  0  0  0
 35 77  1  0  0  0
 35 78  1  0  0  0
 35 79  1  0  0  0
 36 80  1  0  0  0
 36 81  1  0  0  0
 37 82  1  0  0  0
 37 83  1  0  0  0
 39 84  1  0  0  0
 43 85  1  0  0  0
 43 86  1  0  0  0
 43 87  1  0  0  0
M  END
$$$$
