6eo8_ligand
  -I-interpret- 

 90 94  0  0  0  0  0  0  0  0999 V2000
   15.5660   27.8390   11.6770 C   0  0  0  0  0
   16.4830   26.8860   11.4860 C   0  0  0  0  0
   16.3480   25.8470   12.3330 C   0  0  0  0  0
   15.3250   25.9940   13.1810 C   0  0  0  0  0
   14.3560   25.4380   15.2750 O   0  0  0  0  0
   14.9740   25.1150   14.1160 C   0  0  0  0  0
   10.5500   19.1970   13.3640 O   0  0  0  0  0
   10.9720   20.2360   12.8590 C   0  0  0  0  0
   10.0130   21.2720   12.2700 C   0  0  0  0  0
    9.8790   21.0470   10.7730 C   0  0  0  0  0
    8.8660   22.0260   10.2020 C   0  0  0  0  0
    7.5530   21.8600   10.8430 N   0  3  0  0  0
    6.5980   22.8130   10.2600 C   0  0  0  0  0
    6.8640   23.0100    8.7660 C   0  0  0  0  0
    5.1580   22.3400   10.4640 C   0  0  0  0  0
    7.6760   22.1100   12.2860 C   0  0  0  0  0
    8.6500   21.1340   12.9280 C   0  0  0  0  0
   12.2710   20.5550   12.7760 N   0  0  0  0  0
   13.1430   19.6840   13.2760 C   0  0  0  0  0
   13.8000   19.9820   14.4580 C   0  0  0  0  0
   13.5090   21.1730   15.0480 O   0  0  0  0  0
   14.7170   21.7870   15.5050 C   0  0  0  0  0
   14.6920   23.2790   15.1650 C   0  0  0  0  0
   14.1780   24.2210   15.9530 N   0  0  0  0  0
   15.1810   23.8040   14.0440 C   0  0  0  0  0
   14.5720   27.4120   12.8970 S   0  0  0  0  0
   15.4500   29.3060   10.7680 Cl  0  0  0  0  0
   13.3750   18.4940   12.6040 C   0  0  0  0  0
   14.2850   17.5790   13.1220 C   0  0  0  0  0
   14.9480   17.8770   14.3120 C   0  0  0  0  0
   14.7120   19.0750   14.9860 C   0  0  0  0  0
   12.6850   18.2860   11.4510 O   0  0  0  0  0
   12.0210   17.0210   11.5150 C   0  0  0  0  0
   11.2000   16.8110   10.2410 C   0  0  0  0  0
   11.5740   15.4690    9.6080 C   0  0  0  0  0
   12.9500   15.4910    9.2220 O   0  0  0  0  0
   13.0860   14.9540    7.8980 C   0  0  0  0  0
   12.7720   16.0370    6.8780 C   0  0  0  0  0
   11.4250   16.4950    7.0650 O   0  0  0  0  0
   12.9250   15.4720    5.4750 C   0  0  0  0  0
   12.7610   16.5260    4.5140 O   0  0  0  0  0
   14.3070   14.8580    5.3230 C   0  0  0  0  0
   14.4050   14.2080    4.0470 O   0  0  0  0  0
   14.5330   13.8400    6.4290 C   0  0  0  0  0
   14.4290   14.4890    7.7050 O   0  0  0  0  0
   15.9270   13.2260    6.2800 C   0  0  0  0  0
   15.9040   12.2360    5.2480 O   0  0  0  0  0
   17.2600   26.9433   10.7237 H   0  0  0  0  0
   17.0046   24.9770   12.3274 H   0  0  0  0  0
   10.4042   22.2729   12.4525 H   0  0  0  0  0
    9.5427   20.0269   10.5876 H   0  0  0  0  0
   10.8455   21.2037   10.2941 H   0  0  0  0  0
    8.7601   21.8362    9.1339 H   0  0  0  0  0
    9.2188   23.0409   10.3855 H   0  0  0  0  0
    7.2191   20.9083   10.6905 H   0  0  0  0  0
    6.7335   23.7653   10.7727 H   0  0  0  0  0
    7.8738   23.3957    8.6258 H   0  0  0  0  0
    6.7639   22.0544    8.2513 H   0  0  0  0  0
    6.1431   23.7198    8.3604 H   0  0  0  0  0
    5.0236   21.3711    9.9831 H   0  0  0  0  0
    4.9546   22.2488   11.5310 H   0  0  0  0  0
    4.4731   23.0641   10.0228 H   0  0  0  0  0
    6.6970   21.9812   12.7476 H   0  0  0  0  0
    8.0482   23.1237   12.4345 H   0  0  0  0  0
    8.7363   21.3538   13.9921 H   0  0  0  0  0
    8.2842   20.1158   12.7959 H   0  0  0  0  0
   12.5778   21.4284   12.3477 H   0  0  0  0  0
   15.5705   21.3174   15.0160 H   0  0  0  0  0
   14.8020   21.6620   16.5845 H   0  0  0  0  0
   15.6583   23.2641   13.2262 H   0  0  0  0  0
   14.4778   16.6396   12.6038 H   0  0  0  0  0
   15.6619   17.1625   14.7218 H   0  0  0  0  0
   15.2362   19.2975   15.9154 H   0  0  0  0  0
   11.3594   17.0013   12.3810 H   0  0  0  0  0
   12.7614   16.2261   11.6053 H   0  0  0  0  0
   11.4102   17.6159    9.5367 H   0  0  0  0  0
   10.1385   16.8124   10.4887 H   0  0  0  0  0
   10.9529   15.2963    8.7291 H   0  0  0  0  0
   11.4121   14.6690   10.3304 H   0  0  0  0  0
   12.3931   14.1224    7.7702 H   0  0  0  0  0
   13.4609   16.8712    7.0108 H   0  0  0  0  0
   11.2283   17.1786    6.4204 H   0  0  0  0  0
   12.1674   14.7064    5.3075 H   0  0  0  0  0
   12.8578   16.1681    3.6285 H   0  0  0  0  0
   15.0619   15.6415    5.3899 H   0  0  0  0  0
   15.2784   13.8208    3.9526 H   0  0  0  0  0
   13.7809   13.0541    6.3592 H   0  0  0  0  0
   16.2225   12.7628    7.2214 H   0  0  0  0  0
   16.6418   14.0064    6.0190 H   0  0  0  0  0
   16.7788   11.8515    5.1554 H   0  0  0  0  0
  1  2  4  0  0  0
 26  1  4  0  0  0
  1 27  1  0  0  0
  3  2  4  0  0  0
  4  3  4  0  0  0
  6  4  1  0  0  0
  4 26  4  0  0  0
  5  6  4  0  0  0
 24  5  4  0  0  0
  6 25  4  0  0  0
  8  7  2  0  0  0
  8  9  1  0  0  0
 18  8  1  0  0  0
  9 10  1  0  0  0
  9 17  1  0  0  0
 10 11  1  0  0  0
 11 12  1  0  0  0
 12 13  1  0  0  0
 16 12  1  0  0  0
 13 14  1  0  0  0
 13 15  1  0  0  0
 17 16  1  0  0  0
 19 18  1  0  0  0
 20 19  4  0  0  0
 19 28  4  0  0  0
 21 20  1  0  0  0
 20 31  4  0  0  0
 22 21  1  0  0  0
 23 22  1  0  0  0
 23 24  4  0  0  0
 23 25  4  0  0  0
 28 29  4  0  0  0
 28 32  1  0  0  0
 29 30  4  0  0  0
 30 31  4  0  0  0
 32 33  1  0  0  0
 33 34  1  0  0  0
 34 35  1  0  0  0
 35 36  1  0  0  0
 36 37  1  0  0  0
 37 38  1  0  0  0
 37 45  1  0  0  0
 38 39  1  0  0  0
 38 40  1  0  0  0
 40 41  1  0  0  0
 40 42  1  0  0  0
 42 43  1  0  0  0
 42 44  1  0  0  0
 44 45  1  0  0  0
 44 46  1  0  0  0
 46 47  1  0  0  0
  2 48  1  0  0  0
  3 49  1  0  0  0
  9 50  1  0  0  0
 10 51  1  0  0  0
 10 52  1  0  0  0
 11 53  1  0  0  0
 11 54  1  0  0  0
 12 55  1  0  0  0
 13 56  1  0  0  0
 14 57  1  0  0  0
 14 58  1  0  0  0
 14 59  1  0  0  0
 15 60  1  0  0  0
 15 61  1  0  0  0
 15 62  1  0  0  0
 16 63  1  0  0  0
 16 64  1  0  0  0
 17 65  1  0  0  0
 17 66  1  0  0  0
 18 67  1  0  0  0
 22 68  1  0  0  0
 22 69  1  0  0  0
 25 70  1  0  0  0
 29 71  1  0  0  0
 30 72  1  0  0  0
 31 73  1  0  0  0
 33 74  1  0  0  0
 33 75  1  0  0  0
 34 76  1  0  0  0
 34 77  1  0  0  0
 35 78  1  0  0  0
 35 79  1  0  0  0
 37 80  1  0  0  0
 38 81  1  0  0  0
 39 82  1  0  0  0
 40 83  1  0  0  0
 41 84  1  0  0  0
 42 85  1  0  0  0
 43 86  1  0  0  0
 44 87  1  0  0  0
 46 88  1  0  0  0
 46 89  1  0  0  0
 47 90  1  0  0  0
M  END
$$$$
