5uwn_ligand
  -I-interpret- 

 56 59  0  0  0  0  0  0  0  0999 V2000
   -1.6990   -7.6350   28.1450 C   0  0  0  0  0
   -2.4240   -7.6960   29.4590 N   0  3  0  0  0
   -1.3830   -9.0290   27.5860 C   0  0  0  0  0
   -0.7210   -8.9310   26.2680 N   0  0  0  0  0
   -0.1620  -10.3740   25.7670 S   0  0  0  0  0
   -0.1330  -10.3630   24.3520 O   0  0  0  0  0
   -1.0510  -11.4340   26.1240 O   0  0  0  0  0
    1.3450  -10.6460   26.2720 C   0  0  0  0  0
    2.3600   -9.7920   25.8750 C   0  0  0  0  0
    3.6690   -9.9940   26.2970 C   0  0  0  0  0
    4.0130  -11.0400   27.1320 C   0  0  0  0  0
    3.0070  -11.9100   27.5280 C   0  0  0  0  0
    1.6880  -11.7080   27.1050 C   0  0  0  0  0
    5.4510  -11.2050   27.5270 C   0  0  0  0  0
    6.2990  -10.1020   27.5140 C   0  0  0  0  0
    7.6440  -10.2360   27.8630 C   0  0  0  0  0
    8.1940  -11.4650   28.2180 C   0  0  0  0  0
    7.3460  -12.5700   28.2340 C   0  0  0  0  0
    5.9910  -12.4450   27.8910 C   0  0  0  0  0
    9.6730  -11.6020   28.5890 C   0  0  0  0  0
   10.8500  -10.9550   27.3960 S   0  0  0  0  0
   12.4830  -11.2850   27.8130 C   0  0  0  0  0
   12.9660  -10.9280   29.0420 N   0  0  0  0  0
   14.2470  -11.2090   29.3750 C   0  0  0  0  0
   15.1180  -11.8780   28.4370 C   0  0  0  0  0
   14.5600  -12.2370   27.1240 C   0  0  0  0  0
   13.2700  -11.9110   26.9000 N   0  0  0  0  0
   15.2560  -12.8190   26.2610 O   0  0  0  0  0
   16.4940  -12.0930   28.9860 C   0  0  0  0  0
   16.3430  -11.6030   30.4370 C   0  0  0  0  0
   14.9810  -10.9210   30.6560 C   0  0  0  0  0
   -0.7551   -7.1136   28.3044 H   0  0  0  0  0
   -2.3411   -7.1221   27.4290 H   0  0  0  0  0
   -2.6104   -6.7485   29.7874 H   0  0  0  0  0
   -3.3056   -8.1943   29.3367 H   0  0  0  0  0
   -1.8467   -8.1865   30.1420 H   0  0  0  0  0
   -2.3163   -9.5798   27.4694 H   0  0  0  0  0
   -0.7134   -9.5405   28.2775 H   0  0  0  0  0
   -0.6263   -8.0648   25.7378 H   0  0  0  0  0
    2.1295   -8.9498   25.2226 H   0  0  0  0  0
    4.4460   -9.3080   25.9598 H   0  0  0  0  0
    3.2454  -12.7561   28.1725 H   0  0  0  0  0
    0.9114  -12.3979   27.4353 H   0  0  0  0  0
    5.9097   -9.1247   27.2288 H   0  0  0  0  0
    8.2825   -9.3526   27.8575 H   0  0  0  0  0
    7.7406  -13.5458   28.5170 H   0  0  0  0  0
    5.3493  -13.3259   27.9081 H   0  0  0  0  0
    9.8711  -12.6712   28.6643 H   0  0  0  0  0
    9.8137  -11.0229   29.5017 H   0  0  0  0  0
   15.5536  -12.3989   27.5843 H   0  0  0  0  0
   17.2671  -11.5621   28.4305 H   0  0  0  0  0
   16.8298  -13.1275   28.9136 H   0  0  0  0  0
   17.1314  -10.8792   30.6433 H   0  0  0  0  0
   16.4124  -12.4629   31.1033 H   0  0  0  0  0
   14.4578  -11.2962   31.5356 H   0  0  0  0  0
   15.0713   -9.8540   30.8598 H   0  0  0  0  0
  1  2  1  0  0  0
  1  3  1  0  0  0
  3  4  1  0  0  0
  4  5  1  0  0  0
  5  6  2  0  0  0
  5  7  2  0  0  0
  5  8  1  0  0  0
  8  9  4  0  0  0
  8 13  4  0  0  0
  9 10  4  0  0  0
 10 11  4  0  0  0
 11 12  4  0  0  0
 11 14  1  0  0  0
 12 13  4  0  0  0
 14 15  4  0  0  0
 14 19  4  0  0  0
 15 16  4  0  0  0
 16 17  4  0  0  0
 17 18  4  0  0  0
 17 20  1  0  0  0
 18 19  4  0  0  0
 20 21  1  0  0  0
 21 22  1  0  0  0
 22 23  1  0  0  0
 22 27  2  0  0  0
 23 24  2  0  0  0
 24 25  1  0  0  0
 24 31  1  0  0  0
 25 26  1  0  0  0
 25 29  1  0  0  0
 26 27  1  0  0  0
 26 28  2  0  0  0
 29 30  1  0  0  0
 30 31  1  0  0  0
  1 32  1  0  0  0
  1 33  1  0  0  0
  2 34  1  0  0  0
  2 35  1  0  0  0
  2 36  1  0  0  0
  3 37  1  0  0  0
  3 38  1  0  0  0
  4 39  1  0  0  0
  9 40  1  0  0  0
 10 41  1  0  0  0
 12 42  1  0  0  0
 13 43  1  0  0  0
 15 44  1  0  0  0
 16 45  1  0  0  0
 18 46  1  0  0  0
 19 47  1  0  0  0
 20 48  1  0  0  0
 20 49  1  0  0  0
 25 50  1  0  0  0
 29 51  1  0  0  0
 29 52  1  0  0  0
 30 53  1  0  0  0
 30 54  1  0  0  0
 31 55  1  0  0  0
 31 56  1  0  0  0
M  END
$$$$
