5er4_ligand
  -I-interpret- 

 35 38  0  0  0  0  0  0  0  0999 V2000
   36.3950   -4.1850   13.4910 C   0  0  0  0  0
   35.9120   -1.9640   12.8120 C   0  0  0  0  0
   36.7790   -2.8120   13.4390 C   0  0  0  0  0
   31.7490   -3.2240   11.8680 C   0  0  0  0  0
   35.6190   -6.9220   13.5830 C   0  0  0  0  0
   37.2250   -5.1190   14.0970 C   0  0  0  0  0
   36.1540   -0.5860   12.6800 C   0  0  0  0  0
   38.2020   -0.8580   13.8280 C   0  0  0  0  0
   37.3080   -0.0310   13.1950 C   0  0  0  0  0
   38.9800   -2.8730   14.6450 O   0  0  0  0  0
   39.3660   -0.3390   14.3730 O   0  0  0  0  0
   32.8550   -4.1020   12.2000 N   0  0  0  0  0
   34.2500   -3.7260   12.2920 C   0  0  0  0  0
   35.1830   -4.6670   12.9460 C   0  0  0  0  0
   34.6390   -2.2910   12.1950 C   0  0  0  0  0
   34.8210   -5.9500   12.9900 C   0  0  0  0  0
   32.4410   -5.5010   12.4420 C   0  0  0  0  0
   33.5660   -6.5720   12.4550 C   0  0  0  0  0
   37.9690   -2.2190   13.9660 C   0  0  0  0  0
   36.8400   -6.4760   14.1470 C   0  0  0  0  0
   31.6915   -2.4205   12.6023 H   0  0  0  0  0
   31.9078   -2.8008   10.8762 H   0  0  0  0  0
   30.8195   -3.7933   11.8769 H   0  0  0  0  0
   35.3215   -7.9702   13.6124 H   0  0  0  0  0
   38.1729   -4.8044   14.5336 H   0  0  0  0  0
   35.4280    0.0466   12.1692 H   0  0  0  0  0
   37.5044    1.0371   13.1014 H   0  0  0  0  0
   39.6610   -2.2416   14.8883 H   0  0  0  0  0
   39.8739   -1.0479   14.7744 H   0  0  0  0  0
   34.0169   -1.5454   11.6998 H   0  0  0  0  0
   31.7846   -5.7665   11.6133 H   0  0  0  0  0
   32.0028   -5.5151   13.4400 H   0  0  0  0  0
   33.2708   -7.4094   13.0872 H   0  0  0  0  0
   33.7383   -6.9383   11.4430 H   0  0  0  0  0
   37.4976   -7.1981   14.6310 H   0  0  0  0  0
  1  3  4  0  0  0
  1  6  4  0  0  0
 14  1  4  0  0  0
  3  2  4  0  0  0
  2  7  4  0  0  0
  2 15  4  0  0  0
  3 19  4  0  0  0
 12  4  1  0  0  0
  5 16  4  0  0  0
 20  5  4  0  0  0
  6 20  4  0  0  0
  7  9  4  0  0  0
  8  9  4  0  0  0
  8 11  1  0  0  0
 19  8  4  0  0  0
 19 10  1  0  0  0
 13 12  1  0  0  0
 12 17  1  0  0  0
 13 14  4  0  0  0
 13 15  4  0  0  0
 14 16  4  0  0  0
 16 18  1  0  0  0
 17 18  1  0  0  0
  4 21  1  0  0  0
  4 22  1  0  0  0
  4 23  1  0  0  0
  5 24  1  0  0  0
  6 25  1  0  0  0
  7 26  1  0  0  0
  9 27  1  0  0  0
 10 28  1  0  0  0
 11 29  1  0  0  0
 15 30  1  0  0  0
 17 31  1  0  0  0
 17 32  1  0  0  0
 18 33  1  0  0  0
 18 34  1  0  0  0
 20 35  1  0  0  0
M  END
$$$$
