2zjf_ligand
  -I-interpret- 

 28 29  0  0  0  0  0  0  0  0999 V2000
   -3.6830   -0.1380   19.8580 N   0  0  0  0  0
   -4.1800    1.1190   19.8610 C   0  0  0  0  0
   -3.2250    2.0720   19.7920 N   0  0  0  0  0
   -5.3830    1.3590   19.9270 O   0  0  0  0  0
   -4.3190   -1.3350   19.9030 C   0  0  0  0  0
   -3.4380   -2.4730   19.9080 C   0  0  0  0  0
   -3.9710   -3.8030   19.9560 C   0  0  0  0  0
   -5.3930   -3.9900   19.9960 C   0  0  0  0  0
   -6.2840   -2.8840   19.9910 C   0  0  0  0  0
   -5.7510   -1.5540   19.9460 C   0  0  0  0  0
   -3.3470    3.4330   19.7840 C   0  0  0  0  0
   -4.5830    4.1970   19.8500 C   0  0  0  0  0
   -4.5700    5.6250   19.8400 C   0  0  0  0  0
   -3.3080    6.3060   19.7630 C   0  0  0  0  0
   -2.0690    5.5700   19.6950 C   0  0  0  0  0
   -2.0980    4.1390   19.7060 C   0  0  0  0  0
   -2.6655   -0.1956   19.8149 H   0  0  0  0  0
   -2.2682    1.7228   19.7377 H   0  0  0  0  0
   -2.3589   -2.3228   19.8751 H   0  0  0  0  0
   -3.3024   -4.6638   19.9620 H   0  0  0  0  0
   -5.7977   -5.0015   20.0309 H   0  0  0  0  0
   -7.3617   -3.0448   20.0211 H   0  0  0  0  0
   -6.4285   -0.7001   19.9441 H   0  0  0  0  0
   -5.5356    3.6705   19.9081 H   0  0  0  0  0
   -5.5018    6.1883   19.8899 H   0  0  0  0  0
   -3.2859    7.3958   19.7558 H   0  0  0  0  0
   -1.1182    6.0996   19.6357 H   0  0  0  0  0
   -1.1639    3.5796   19.6547 H   0  0  0  0  0
  1  2  1  0  0  0
  1  5  1  0  0  0
  2  3  1  0  0  0
  2  4  2  0  0  0
  3 11  1  0  0  0
  5  6  4  0  0  0
  5 10  4  0  0  0
  6  7  4  0  0  0
  7  8  4  0  0  0
  8  9  4  0  0  0
  9 10  4  0  0  0
 11 12  4  0  0  0
 11 16  4  0  0  0
 12 13  4  0  0  0
 13 14  4  0  0  0
 14 15  4  0  0  0
 15 16  4  0  0  0
  1 17  1  0  0  0
  3 18  1  0  0  0
  6 19  1  0  0  0
  7 20  1  0  0  0
  8 21  1  0  0  0
  9 22  1  0  0  0
 10 23  1  0  0  0
 12 24  1  0  0  0
 13 25  1  0  0  0
 14 26  1  0  0  0
 15 27  1  0  0  0
 16 28  1  0  0  0
M  END
$$$$
