### 
### Created by X-TOOL on Mon Sep 10 21:12:49 2018
### 

@<TRIPOS>MOLECULE
1kl3_ligand
   97    99     1     0     0
SMALL
GAST_HUCK


@<TRIPOS>ATOM
      1 N          11.7480   -0.0020   34.0530 N.4       1 SER         0.2396
      2 CA         11.6390    1.4920   34.1360 C.3       1 SER         0.0885
      3 C          12.7950    2.1520   33.3880 C.2       1 SER         0.2291
      4 O          13.8410    2.4190   33.9460 O.2       1 SER        -0.3906
      5 CB         11.6190    1.9930   35.5860 C.3       1 SER         0.1041
      6 OG         12.8820    1.9400   36.2520 O.3       1 SER        -0.3870
      7 N          12.6650    2.4310   32.1060 N.am      1 HIS        -0.2591
      8 CA         13.7990    3.0940   31.4670 C.3       1 HIS         0.1424
      9 C          13.6270    4.6080   31.5290 C.2       1 HIS         0.2085
     10 O          12.5060    5.1180   31.4120 O.2       1 HIS        -0.3940
     11 CB         13.8020    2.5630   30.0380 C.3       1 HIS         0.0427
     12 CG         15.0120    2.9680   29.2720 C.2       1 HIS         0.0561
     13 ND1        15.1420    4.2430   28.7610 N.pl3     1 HIS        -0.2623
     14 CD2        16.1380    2.2850   28.9460 C.2       1 HIS        -0.0276
     15 CE1        16.3240    4.3250   28.1710 C.2       1 HIS         0.0875
     16 NE2        16.9470    3.1540   28.2630 N.2       1 HIS        -0.3437
     17 N          14.7300    5.3410   31.6740 N.am      1 PRO        -0.2497
     18 CA         14.6360    6.7940   31.7520 C.3       1 PRO         0.1338
     19 C          13.9090    7.3890   30.5630 C.2       1 PRO         0.2041
     20 O          13.1600    8.3510   30.7290 O.2       1 PRO        -0.3944
     21 CB         16.0970    7.2570   31.7370 C.3       1 PRO        -0.0104
     22 CG         16.9330    6.0750   31.8530 C.3       1 PRO        -0.0281
     23 CD         16.1280    4.8800   31.7040 C.3       1 PRO         0.0369
     24 N          14.0330    6.8510   29.3530 N.am      1 GLN        -0.2636
     25 CA         13.3680    7.5680   28.2550 C.3       1 GLN         0.1330
     26 C          11.8610    7.7470   28.4710 C.2       1 GLN         0.2042
     27 O          11.2480    8.7040   27.9820 O.2       1 GLN        -0.3944
     28 CB         13.5160    6.7470   26.9660 C.3       1 GLN         0.0045
     29 CG         13.1820    7.4450   25.7360 C.3       1 GLN         0.0412
     30 CD         13.5500    6.6790   24.4470 C.2       1 GLN         0.1737
     31 OE1        12.9460    6.8250   23.3770 O.2       1 GLN        -0.3973
     32 NE2        14.5750    5.9160   24.5660 N.am      1 GLN        -0.3009
     33 N          11.2610    6.8700   29.2630 N.am      1 PHE        -0.2619
     34 CA          9.8070    6.8630   29.3740 C.3       1 PHE         0.1405
     35 C           9.2910    7.1030   30.7810 C.2       1 PHE         0.2060
     36 O           8.1300    6.8160   31.0450 O.2       1 PHE        -0.3942
     37 CB          9.2740    5.4980   28.9930 C.3       1 PHE         0.0214
     38 CG          9.8920    4.9660   27.7160 C.ar      1 PHE        -0.0386
     39 CD1         9.6370    5.6230   26.5240 C.ar      1 PHE        -0.0601
     40 CD2        10.7200    3.8790   27.7240 C.ar      1 PHE        -0.0601
     41 CE1        10.1930    5.1940   25.3240 C.ar      1 PHE        -0.0686
     42 CE2        11.2940    3.4420   26.4980 C.ar      1 PHE        -0.0686
     43 CZ         11.0210    4.1220   25.3210 C.ar      1 PHE        -0.0687
     44 N          10.1330    7.6580   31.6270 N.am      1 GLU        -0.2647
     45 CA          9.7960    7.7870   33.0470 C.3       1 GLU         0.1143
     46 C           8.8910    8.9960   33.2880 C.2       1 GLU         0.1246
     47 O           8.7860    9.8140   32.3740 O.2       1 GLU        -0.3725
     48 CB         11.0930    7.8780   33.8350 C.3       1 GLU        -0.0021
     49 CG         11.7620    9.2360   33.8850 C.3       1 GLU         0.0045
     50 CD         13.1030    9.1090   34.5930 C.2       1 GLU         0.0350
     51 OE1        13.9250   10.0500   34.4680 O.co2     1 GLU        -0.5690
     52 OE2        13.3350    8.0380   35.2330 O.co2     1 GLU        -0.5690
     53 H1         10.9792   -0.4231   34.5506 H         1 SER         0.2016
     54 H2         12.6183   -0.2989   34.4659 H         1 SER         0.2016
     55 H3         11.7197   -0.2878   33.0868 H         1 SER         0.2016
     56 H4         10.6954    1.7911   33.6563 H         1 SER         0.1122
     57 H5         10.9065    1.3754   36.1524 H         1 SER         0.0640
     58 H6         11.2766    3.0383   35.5830 H         1 SER         0.0640
     59 H7         13.5089    2.4781   35.7830 H         1 SER         0.2099
     60 H8         11.8347    2.2011   31.5983 H         1 HIS         0.1886
     61 H9         14.7379    2.8213   31.9710 H         1 HIS         0.0824
     62 H10        12.9124    2.9486   29.5184 H         1 HIS         0.0491
     63 H11        13.7595    1.4644   30.0717 H         1 HIS         0.0491
     64 H12        14.4434    4.9970   28.8269 H         1 HIS         0.2386
     65 H13        16.3568    1.2447   29.1822 H         1 HIS         0.0324
     66 H14        16.7242    5.2138   27.6855 H         1 HIS         0.1149
     67 H15        14.1317    7.0992   32.6807 H         1 PRO         0.0802
     68 H16        16.2848    7.9338   32.5835 H         1 PRO         0.0313
     69 H17        16.3153    7.7798   30.7941 H         1 PRO         0.0313
     70 H18        17.4168    6.0670   32.8408 H         1 PRO         0.0287
     71 H19        17.7030    6.0953   31.0677 H         1 PRO         0.0287
     72 H20        16.3809    4.3618   30.7672 H         1 PRO         0.0524
     73 H21        16.2895    4.2007   32.5540 H         1 PRO         0.0524
     74 H22        14.5484    6.0080   29.1990 H         1 GLN         0.1883
     75 H23        13.8403    8.5544   28.1366 H         1 GLN         0.0801
     76 H24        12.8582    5.8691   27.0463 H         1 GLN         0.0337
     77 H25        14.5624    6.4158   26.8938 H         1 GLN         0.0337
     78 H26        13.7173    8.4059   25.7296 H         1 GLN         0.0504
     79 H27        12.0976    7.6293   25.7287 H         1 GLN         0.0504
     80 H28        14.8914    5.3782   23.7846 H         1 GLN         0.1814
     81 H29        15.0573    5.8593   25.4402 H         1 GLN         0.1814
     82 H30        11.8054    6.2130   29.7845 H         1 PHE         0.1885
     83 H31         9.4024    7.6327   28.7003 H         1 PHE         0.0823
     84 H32         8.1854    5.5714   28.8534 H         1 PHE         0.0474
     85 H33         9.4923    4.7942   29.8097 H         1 PHE         0.0474
     86 H34         8.9889    6.4919   26.5265 H         1 PHE         0.0557
     87 H35        10.9360    3.3581   28.6498 H         1 PHE         0.0557
     88 H36         9.9660    5.7125   24.3995 H         1 PHE         0.0599
     89 H37        11.9459    2.5760   26.4840 H         1 PHE         0.0599
     90 H38        11.4732    3.7936   24.3922 H         1 PHE         0.0559
     91 H39        11.0141    7.9960   31.2962 H         1 GLU         0.1884
     92 H40         9.2531    6.8853   33.3667 H         1 GLU         0.0791
     93 H41         8.3609    9.1280   34.2301 H         1 GLU         0.1373
     94 H42        11.8063    7.1709   33.3866 H         1 GLU         0.0331
     95 H43        10.8769    7.5741   34.8699 H         1 GLU         0.0331
     96 H44        11.1215    9.9414   34.4346 H         1 GLU         0.0433
     97 H45        11.9204    9.6057   32.8612 H         1 GLU         0.0433
@<TRIPOS>BOND
     1    1    2 1  
     2    2    3 1  
     3    2    5 1  
     4    3    4 2  
     5    3    7 am 
     6    5    6 1  
     7    7    8 1  
     8    8    9 1  
     9    8   11 1  
    10    9   10 2  
    11    9   17 am 
    12   11   12 1  
    13   12   13 1  
    14   12   14 2  
    15   13   15 1  
    16   14   16 1  
    17   15   16 2  
    18   17   18 1  
    19   17   23 1  
    20   18   19 1  
    21   18   21 1  
    22   19   20 2  
    23   19   24 am 
    24   21   22 1  
    25   22   23 1  
    26   24   25 1  
    27   25   26 1  
    28   25   28 1  
    29   26   27 2  
    30   26   33 am 
    31   28   29 1  
    32   29   30 1  
    33   30   31 2  
    34   30   32 am 
    35   33   34 1  
    36   34   35 1  
    37   34   37 1  
    38   35   36 2  
    39   35   44 am 
    40   37   38 1  
    41   38   39 ar 
    42   38   40 ar 
    43   39   41 ar 
    44   40   42 ar 
    45   41   43 ar 
    46   42   43 ar 
    47   44   45 1  
    48   45   46 1  
    49   45   48 1  
    50   46   47 2  
    51   48   49 1  
    52   49   50 1  
    53   50   51 ar 
    54   50   52 ar 
    55    1   53 1  
    56    1   54 1  
    57    1   55 1  
    58    2   56 1  
    59    5   57 1  
    60    5   58 1  
    61    6   59 1  
    62    7   60 1  
    63    8   61 1  
    64   11   62 1  
    65   11   63 1  
    66   13   64 1  
    67   14   65 1  
    68   15   66 1  
    69   18   67 1  
    70   21   68 1  
    71   21   69 1  
    72   22   70 1  
    73   22   71 1  
    74   23   72 1  
    75   23   73 1  
    76   24   74 1  
    77   25   75 1  
    78   28   76 1  
    79   28   77 1  
    80   29   78 1  
    81   29   79 1  
    82   32   80 1  
    83   32   81 1  
    84   33   82 1  
    85   34   83 1  
    86   37   84 1  
    87   37   85 1  
    88   39   86 1  
    89   40   87 1  
    90   41   88 1  
    91   42   89 1  
    92   43   90 1  
    93   44   91 1  
    94   45   92 1  
    95   46   93 1  
    96   48   94 1  
    97   48   95 1  
    98   49   96 1  
    99   49   97 1  
@<TRIPOS>SUBSTRUCTURE
     1 SER         1

