1kl3_ligand
  -I-interpret- 

 97 99  0  0  0  0  0  0  0  0999 V2000
   11.7480   -0.0020   34.0530 N   0  3  0  0  0
   11.6390    1.4920   34.1360 C   0  0  0  0  0
   12.7950    2.1520   33.3880 C   0  0  0  0  0
   13.8410    2.4190   33.9460 O   0  0  0  0  0
   11.6190    1.9930   35.5860 C   0  0  0  0  0
   12.8820    1.9400   36.2520 O   0  0  0  0  0
   12.6650    2.4310   32.1060 N   0  0  0  0  0
   13.7990    3.0940   31.4670 C   0  0  0  0  0
   13.6270    4.6080   31.5290 C   0  0  0  0  0
   12.5060    5.1180   31.4120 O   0  0  0  0  0
   13.8020    2.5630   30.0380 C   0  0  0  0  0
   15.0120    2.9680   29.2720 C   0  0  0  0  0
   15.1420    4.2430   28.7610 N   0  0  0  0  0
   16.1380    2.2850   28.9460 C   0  0  0  0  0
   16.3240    4.3250   28.1710 C   0  0  0  0  0
   16.9470    3.1540   28.2630 N   0  0  0  0  0
   14.7300    5.3410   31.6740 N   0  0  0  0  0
   14.6360    6.7940   31.7520 C   0  0  0  0  0
   13.9090    7.3890   30.5630 C   0  0  0  0  0
   13.1600    8.3510   30.7290 O   0  0  0  0  0
   16.0970    7.2570   31.7370 C   0  0  0  0  0
   16.9330    6.0750   31.8530 C   0  0  0  0  0
   16.1280    4.8800   31.7040 C   0  0  0  0  0
   14.0330    6.8510   29.3530 N   0  0  0  0  0
   13.3680    7.5680   28.2550 C   0  0  0  0  0
   11.8610    7.7470   28.4710 C   0  0  0  0  0
   11.2480    8.7040   27.9820 O   0  0  0  0  0
   13.5160    6.7470   26.9660 C   0  0  0  0  0
   13.1820    7.4450   25.7360 C   0  0  0  0  0
   13.5500    6.6790   24.4470 C   0  0  0  0  0
   12.9460    6.8250   23.3770 O   0  0  0  0  0
   14.5750    5.9160   24.5660 N   0  0  0  0  0
   11.2610    6.8700   29.2630 N   0  0  0  0  0
    9.8070    6.8630   29.3740 C   0  0  0  0  0
    9.2910    7.1030   30.7810 C   0  0  0  0  0
    8.1300    6.8160   31.0450 O   0  0  0  0  0
    9.2740    5.4980   28.9930 C   0  0  0  0  0
    9.8920    4.9660   27.7160 C   0  0  0  0  0
    9.6370    5.6230   26.5240 C   0  0  0  0  0
   10.7200    3.8790   27.7240 C   0  0  0  0  0
   10.1930    5.1940   25.3240 C   0  0  0  0  0
   11.2940    3.4420   26.4980 C   0  0  0  0  0
   11.0210    4.1220   25.3210 C   0  0  0  0  0
   10.1330    7.6580   31.6270 N   0  0  0  0  0
    9.7960    7.7870   33.0470 C   0  0  0  0  0
    8.8910    8.9960   33.2880 C   0  0  0  0  0
    8.7860    9.8140   32.3740 O   0  0  0  0  0
   11.0930    7.8780   33.8350 C   0  0  0  0  0
   11.7620    9.2360   33.8850 C   0  0  0  0  0
   13.1030    9.1090   34.5930 C   0  0  0  0  0
   13.9250   10.0500   34.4680 O   0  0  0  0  0
   13.3350    8.0380   35.2330 O   0  0  0  0  0
   11.7576   -0.2871   33.0737 H   0  0  0  0  0
   12.6110   -0.3044   34.5049 H   0  0  0  0  0
   10.9492   -0.4267   34.5242 H   0  0  0  0  0
   10.6917    1.7669   33.6722 H   0  0  0  0  0
   10.9411    1.3418   36.1379 H   0  0  0  0  0
   11.3192    3.0405   35.5562 H   0  0  0  0  0
   12.7838    2.2689   37.1485 H   0  0  0  0  0
   11.8181    2.1965   31.5882 H   0  0  0  0  0
   14.7498    2.8897   31.9593 H   0  0  0  0  0
   12.9316    2.9755   29.5278 H   0  0  0  0  0
   13.7884    1.4742   30.0875 H   0  0  0  0  0
   16.3570    1.2437   29.1824 H   0  0  0  0  0
   16.7246    5.2146   27.6850 H   0  0  0  0  0
   14.0768    7.1077   32.6335 H   0  0  0  0  0
   16.2879    7.9406   32.5642 H   0  0  0  0  0
   16.3177    7.7897   30.8120 H   0  0  0  0  0
   17.4073    6.0670   32.8344 H   0  0  0  0  0
   17.6919    6.0952   31.0708 H   0  0  0  0  0
   16.3869    4.3377   30.7946 H   0  0  0  0  0
   16.2983    4.1818   32.5235 H   0  0  0  0  0
   14.5587    5.9912   29.1959 H   0  0  0  0  0
   13.8389    8.5496   28.2028 H   0  0  0  0  0
   12.8189    5.9131   27.0481 H   0  0  0  0  0
   14.5687    6.4745   26.8915 H   0  0  0  0  0
   13.7531    8.3734   25.7302 H   0  0  0  0  0
   12.1005    7.5810   25.7292 H   0  0  0  0  0
   14.9228    5.3995   23.7581 H   0  0  0  0  0
   15.0418    5.8261   25.4684 H   0  0  0  0  0
   11.8163    6.1999   29.7950 H   0  0  0  0  0
    9.4741    7.6690   28.7200 H   0  0  0  0  0
    8.1999    5.5905   28.8323 H   0  0  0  0  0
    9.5198    4.8055   29.7981 H   0  0  0  0  0
    8.9853    6.4967   26.5265 H   0  0  0  0  0
   10.9372    3.3552   28.6549 H   0  0  0  0  0
    9.9647    5.7154   24.3944 H   0  0  0  0  0
   11.9495    2.5712   26.4839 H   0  0  0  0  0
   11.4757    3.7918   24.3870 H   0  0  0  0  0
   11.0317    8.0027   31.2896 H   0  0  0  0  0
    9.2342    6.9153   33.3824 H   0  0  0  0  0
    8.3604    9.1281   34.2309 H   0  0  0  0  0
   11.7971    7.2138   33.3338 H   0  0  0  0  0
   10.8374    7.6302   34.8652 H   0  0  0  0  0
   11.1271    9.9362   34.4279 H   0  0  0  0  0
   11.9177    9.6040   32.8709 H   0  0  0  0  0
   12.5633    7.4684   35.1918 H   0  0  0  0  0
  1  2  1  0  0  0
  2  3  1  0  0  0
  2  5  1  0  0  0
  3  4  2  0  0  0
  3  7  1  0  0  0
  5  6  1  0  0  0
  7  8  1  0  0  0
  8  9  1  0  0  0
  8 11  1  0  0  0
  9 10  2  0  0  0
  9 17  1  0  0  0
 11 12  1  0  0  0
 12 13  4  0  0  0
 12 14  4  0  0  0
 13 15  4  0  0  0
 14 16  4  0  0  0
 15 16  4  0  0  0
 17 18  1  0  0  0
 17 23  1  0  0  0
 18 19  1  0  0  0
 18 21  1  0  0  0
 19 20  2  0  0  0
 19 24  1  0  0  0
 21 22  1  0  0  0
 22 23  1  0  0  0
 24 25  1  0  0  0
 25 26  1  0  0  0
 25 28  1  0  0  0
 26 27  2  0  0  0
 26 33  1  0  0  0
 28 29  1  0  0  0
 29 30  1  0  0  0
 30 31  2  0  0  0
 30 32  1  0  0  0
 33 34  1  0  0  0
 34 35  1  0  0  0
 34 37  1  0  0  0
 35 36  2  0  0  0
 35 44  1  0  0  0
 37 38  1  0  0  0
 38 39  4  0  0  0
 38 40  4  0  0  0
 39 41  4  0  0  0
 40 42  4  0  0  0
 41 43  4  0  0  0
 42 43  4  0  0  0
 44 45  1  0  0  0
 45 46  1  0  0  0
 45 48  1  0  0  0
 46 47  2  0  0  0
 48 49  1  0  0  0
 49 50  1  0  0  0
 50 51  2  0  0  0
 50 52  1  0  0  0
  1 53  1  0  0  0
  1 54  1  0  0  0
  1 55  1  0  0  0
  2 56  1  0  0  0
  5 57  1  0  0  0
  5 58  1  0  0  0
  6 59  1  0  0  0
  7 60  1  0  0  0
  8 61  1  0  0  0
 11 62  1  0  0  0
 11 63  1  0  0  0
 14 64  1  0  0  0
 15 65  1  0  0  0
 18 66  1  0  0  0
 21 67  1  0  0  0
 21 68  1  0  0  0
 22 69  1  0  0  0
 22 70  1  0  0  0
 23 71  1  0  0  0
 23 72  1  0  0  0
 24 73  1  0  0  0
 25 74  1  0  0  0
 28 75  1  0  0  0
 28 76  1  0  0  0
 29 77  1  0  0  0
 29 78  1  0  0  0
 32 79  1  0  0  0
 32 80  1  0  0  0
 33 81  1  0  0  0
 34 82  1  0  0  0
 37 83  1  0  0  0
 37 84  1  0  0  0
 39 85  1  0  0  0
 40 86  1  0  0  0
 41 87  1  0  0  0
 42 88  1  0  0  0
 43 89  1  0  0  0
 44 90  1  0  0  0
 45 91  1  0  0  0
 46 92  1  0  0  0
 48 93  1  0  0  0
 48 94  1  0  0  0
 49 95  1  0  0  0
 49 96  1  0  0  0
 52 97  1  0  0  0
M  END
$$$$
