3mrt_ligand
  -I-interpret- 

 41 42  0  0  0  0  0  0  0  0999 V2000
   19.2170   14.8630   55.6580 C   0  0  0  0  0
   18.8880   13.5550   55.1020 N   0  0  0  0  0
   18.1140   12.6850   57.5030 S   0  0  0  0  0
   20.6140   15.3230   55.1970 C   0  0  0  0  0
   18.0670   11.4130   55.1920 N   0  0  0  0  0
   21.6480   14.5200   55.7920 O   0  0  0  0  0
   20.8240   16.8040   55.5630 C   0  0  0  0  0
   18.0890   11.3500   53.9380 N   0  0  0  0  0
   22.0730   17.2840   55.0420 O   0  0  0  0  0
   19.6710   17.6650   55.0450 C   0  0  0  0  0
   17.8320    9.9150   49.0880 N   0  0  0  0  0
   19.7940   19.0140   55.4950 O   0  0  0  0  0
   18.3450   17.0980   55.5400 C   0  0  0  0  0
   18.2270   15.7400   55.1020 O   0  0  0  0  0
   17.1460   17.8820   55.0270 C   0  0  0  0  0
   15.9760   17.0970   55.2810 O   0  0  0  0  0
   18.3720   12.5500   55.8200 C   0  0  0  0  0
   17.7870   10.2760   53.3350 C   0  0  0  0  0
   17.8100   10.1650   51.8490 C   0  0  0  0  0
   18.4340   11.1300   51.0560 C   0  0  0  0  0
   18.4300   10.9780   49.6640 C   0  0  0  0  0
   17.2280    8.9620   49.8270 C   0  0  0  0  0
   17.1990    9.0750   51.2210 C   0  0  0  0  0
   19.2264   14.8496   56.7479 H   0  0  0  0  0
   19.0611   13.3972   54.1092 H   0  0  0  0  0
   20.6720   15.2036   54.1151 H   0  0  0  0  0
   21.5101   13.5989   55.5593 H   0  0  0  0  0
   20.8476   16.8786   56.6502 H   0  0  0  0  0
   22.7884   16.7364   55.3736 H   0  0  0  0  0
   19.7040   17.6536   53.9556 H   0  0  0  0  0
   19.0595   19.5313   55.1565 H   0  0  0  0  0
   18.3458   17.1670   56.6278 H   0  0  0  0  0
   17.2481   18.0786   53.9598 H   0  0  0  0  0
   17.0758   18.8447   55.5334 H   0  0  0  0  0
   15.2012   17.5686   54.9666 H   0  0  0  0  0
   16.7359   10.1313   53.5845 H   0  0  0  0  0
   18.5617    9.5788   53.6540 H   0  0  0  0  0
   18.9186   11.9916   51.5151 H   0  0  0  0  0
   18.9157   11.7272   49.0388 H   0  0  0  0  0
   16.7633    8.1053   49.3389 H   0  0  0  0  0
   16.6995    8.3124   51.8186 H   0  0  0  0  0
  2  1  1  0  0  0
  1  4  1  0  0  0
  1 14  1  0  0  0
 17  2  1  0  0  0
 17  3  2  0  0  0
  4  6  1  0  0  0
  4  7  1  0  0  0
  8  5  2  0  0  0
  5 17  1  0  0  0
  7  9  1  0  0  0
  7 10  1  0  0  0
 18  8  1  0  0  0
 10 12  1  0  0  0
 13 10  1  0  0  0
 21 11  4  0  0  0
 11 22  4  0  0  0
 14 13  1  0  0  0
 13 15  1  0  0  0
 15 16  1  0  0  0
 19 18  1  0  0  0
 20 19  4  0  0  0
 19 23  4  0  0  0
 20 21  4  0  0  0
 22 23  4  0  0  0
  1 24  1  0  0  0
  2 25  1  0  0  0
  4 26  1  0  0  0
  6 27  1  0  0  0
  7 28  1  0  0  0
  9 29  1  0  0  0
 10 30  1  0  0  0
 12 31  1  0  0  0
 13 32  1  0  0  0
 15 33  1  0  0  0
 15 34  1  0  0  0
 16 35  1  0  0  0
 18 36  1  0  0  0
 18 37  1  0  0  0
 20 38  1  0  0  0
 21 39  1  0  0  0
 22 40  1  0  0  0
 23 41  1  0  0  0
M  END
$$$$
