1tow_ligand
  -I-interpret- 

 34 36  0  0  0  0  0  0  0  0999 V2000
   17.4080    7.2290    2.0020 O   0  0  0  0  0
   17.9280    6.4240    2.7610 C   0  0  0  0  0
   17.1920    5.4060    3.1960 O   0  0  0  0  0
   19.3710    6.5730    3.1920 C   0  0  0  0  0
   19.8380    5.4040    4.0810 C   0  0  0  0  0
   20.1330    4.1170    3.2890 C   0  0  0  0  0
   21.0330    4.3350    2.1460 N   0  0  0  0  0
   20.6150    4.5170    0.8490 C   0  0  0  0  0
   19.3820    4.6100    0.2010 C   0  0  0  0  0
   21.8270    4.6580    0.0110 C   0  0  0  0  0
   21.7870    4.8620   -1.3620 C   0  0  0  0  0
   20.5190    4.9520   -1.9530 C   0  0  0  0  0
   19.3480    4.8220   -1.1880 C   0  0  0  0  0
   22.9600    4.5250    0.9060 C   0  0  0  0  0
   22.3980    4.3210    2.2560 C   0  0  0  0  0
   23.3060    4.1740    3.3110 C   0  0  0  0  0
   24.3290    4.5700    0.6410 C   0  0  0  0  0
   25.1830    4.4050    1.7380 C   0  0  0  0  0
   24.6770    4.2150    3.0320 C   0  0  0  0  0
   17.7207    4.8567    3.7794 H   0  0  0  0  0
   19.4588    7.4935    3.7692 H   0  0  0  0  0
   19.9923    6.5867    2.2965 H   0  0  0  0  0
   19.0340    5.1821    4.7827 H   0  0  0  0  0
   20.7635    5.7102    4.5687 H   0  0  0  0  0
   19.1860    3.7447    2.8981 H   0  0  0  0  0
   20.6219    3.4166    3.9661 H   0  0  0  0  0
   18.4547    4.5191    0.7667 H   0  0  0  0  0
   22.6990    4.9481   -1.9527 H   0  0  0  0  0
   20.4402    5.1261   -3.0261 H   0  0  0  0  0
   18.3816    4.8877   -1.6879 H   0  0  0  0  0
   22.9517    4.0301    4.3317 H   0  0  0  0  0
   24.7134    4.7254   -0.3670 H   0  0  0  0  0
   26.2618    4.4246    1.5834 H   0  0  0  0  0
   25.3811    4.0941    3.8553 H   0  0  0  0  0
  1  2  2  0  0  0
  2  3  1  0  0  0
  2  4  1  0  0  0
  4  5  1  0  0  0
  5  6  1  0  0  0
  6  7  1  0  0  0
  7  8  4  0  0  0
  7 15  4  0  0  0
  8  9  4  0  0  0
  8 10  4  0  0  0
  9 13  4  0  0  0
 10 11  4  0  0  0
 10 14  4  0  0  0
 11 12  4  0  0  0
 12 13  4  0  0  0
 14 15  4  0  0  0
 14 17  4  0  0  0
 15 16  4  0  0  0
 16 19  4  0  0  0
 17 18  4  0  0  0
 18 19  4  0  0  0
  3 20  1  0  0  0
  4 21  1  0  0  0
  4 22  1  0  0  0
  5 23  1  0  0  0
  5 24  1  0  0  0
  6 25  1  0  0  0
  6 26  1  0  0  0
  9 27  1  0  0  0
 11 28  1  0  0  0
 12 29  1  0  0  0
 13 30  1  0  0  0
 16 31  1  0  0  0
 17 32  1  0  0  0
 18 33  1  0  0  0
 19 34  1  0  0  0
M  END
$$$$
