2yga_ligand
  -I-interpret- 

 86 87  0  0  0  0  0  0  0  0999 V2000
   26.1920  -34.0760   -5.4050 C   0  0  0  0  0
   26.2580  -33.8010   -3.8950 C   0  0  0  0  0
   25.5780  -32.5610   -3.3090 C   0  0  0  0  0
   24.8710  -31.6240   -4.1700 C   0  0  0  0  0
   24.8130  -31.8720   -5.6690 C   0  0  0  0  0
   25.4770  -33.1120   -6.2540 C   0  0  0  0  0
   26.2470  -35.5490   -5.8650 C   0  0  0  0  0
   24.8360  -36.1000   -5.6250 C   0  0  0  0  0
   24.1370  -36.3360   -6.9740 C   0  0  0  0  0
   22.7590  -36.9830   -6.7570 C   0  0  0  0  0
   21.8840  -36.4960   -7.9100 C   0  0  0  0  0
   21.2250  -35.1510   -7.5390 C   0  0  0  0  0
   20.4730  -35.1960   -6.1940 C   0  0  0  0  0
   20.4380  -34.0080   -5.3370 C   0  0  0  0  0
   19.6610  -34.0380   -4.0170 C   0  0  0  0  0
   20.6330  -34.1340   -2.8450 C   0  0  0  0  0
   21.2480  -35.5330   -2.8500 C   0  0  0  0  0
   22.4840  -35.6870   -2.0980 C   0  0  0  0  0
   23.3510  -34.4370   -1.9170 C   0  0  0  0  0
   24.6370  -34.5440   -1.2140 C   0  0  0  0  0
   25.3050  -33.2170   -0.8470 C   0  0  0  0  0
   25.6210  -32.2550   -1.8830 N   0  0  0  0  0
   26.8190  -34.5720   -3.1740 O   0  0  0  0  0
   24.2350  -31.1060   -6.3820 O   0  0  0  0  0
   25.3970  -33.2890   -7.6620 O   0  0  0  0  0
   26.4840  -32.5600   -8.2440 C   0  0  0  0  0
   24.9370  -37.3950   -4.8110 C   0  0  0  0  0
   22.8270  -38.4190   -6.8190 O   0  0  0  0  0
   23.6700  -38.8240   -7.9010 C   0  0  0  0  0
   22.7560  -36.2970   -9.0320 O   0  0  0  0  0
   20.1610  -34.8700   -8.6160 C   0  0  0  0  0
   21.1830  -32.7350   -5.7600 C   0  0  0  0  0
   18.9780  -32.8100   -3.8180 O   0  0  0  0  0
   17.7940  -32.7030   -4.5960 C   0  0  0  0  0
   17.0680  -31.7510   -4.4570 O   0  0  0  0  0
   17.4660  -33.7250   -5.5760 N   0  0  0  0  0
   19.9250  -33.8990   -1.6170 O   0  0  0  0  0
   18.7510  -34.7160   -1.4890 C   0  0  0  0  0
   24.9560  -35.7960   -0.3660 C   0  0  0  0  0
   25.5720  -32.9480    0.2850 O   0  0  0  0  0
   27.2062  -33.7795   -5.6724 H   0  0  0  0  0
   24.3848  -30.7476   -3.7415 H   0  0  0  0  0
   25.6179  -33.9302   -5.5477 H   0  0  0  0  0
   26.9980  -36.1142   -5.3130 H   0  0  0  0  0
   26.5377  -35.6320   -6.9122 H   0  0  0  0  0
   24.2398  -35.3829   -5.0607 H   0  0  0  0  0
   24.7507  -37.0022   -7.5804 H   0  0  0  0  0
   24.0045  -35.3785   -7.4778 H   0  0  0  0  0
   22.3716  -36.7128   -5.7747 H   0  0  0  0  0
   21.0978  -37.2174   -8.1327 H   0  0  0  0  0
   22.0114  -34.3995   -7.4685 H   0  0  0  0  0
   19.9682  -36.1100   -5.8811 H   0  0  0  0  0
   18.9773  -34.8856   -4.0653 H   0  0  0  0  0
   21.4217  -33.3870   -2.9352 H   0  0  0  0  0
   21.4908  -35.7577   -3.8886 H   0  0  0  0  0
   20.5179  -36.1908   -2.3783 H   0  0  0  0  0
   23.0921  -36.3901   -2.6672 H   0  0  0  0  0
   22.1850  -35.9887   -1.0942 H   0  0  0  0  0
   22.7509  -33.7716   -1.2963 H   0  0  0  0  0
   23.6141  -34.1337   -2.9304 H   0  0  0  0  0
   25.2564  -34.8903   -2.0413 H   0  0  0  0  0
   25.8882  -31.3121   -1.6001 H   0  0  0  0  0
   26.3929  -31.5054   -7.9841 H   0  0  0  0  0
   27.4273  -32.9497   -7.8613 H   0  0  0  0  0
   26.4560  -32.6722   -9.3279 H   0  0  0  0  0
   25.5280  -38.1251   -5.3640 H   0  0  0  0  0
   25.4176  -37.1854   -3.8554 H   0  0  0  0  0
   23.9370  -37.7921   -4.6368 H   0  0  0  0  0
   23.2641  -38.4434   -8.8383 H   0  0  0  0  0
   24.6723  -38.4237   -7.7485 H   0  0  0  0  0
   23.7138  -39.9125   -7.9380 H   0  0  0  0  0
   22.2438  -35.9889   -9.7832 H   0  0  0  0  0
   20.6412  -34.8116   -9.5928 H   0  0  0  0  0
   19.4266  -35.6755   -8.6183 H   0  0  0  0  0
   19.6646  -33.9247   -8.3966 H   0  0  0  0  0
   22.2455  -32.9549   -5.8637 H   0  0  0  0  0
   20.7884  -32.3846   -6.7137 H   0  0  0  0  0
   21.0424  -31.9644   -5.0020 H   0  0  0  0  0
   16.6234  -33.6354   -6.1438 H   0  0  0  0  0
   18.0784  -34.5318   -5.6960 H   0  0  0  0  0
   18.0704  -34.5035   -2.3134 H   0  0  0  0  0
   19.0371  -35.7675   -1.5142 H   0  0  0  0  0
   18.2575  -34.4950   -0.5426 H   0  0  0  0  0
   24.2143  -35.8951    0.4265 H   0  0  0  0  0
   24.9300  -36.6806   -1.0024 H   0  0  0  0  0
   25.9479  -35.6923    0.0738 H   0  0  0  0  0
  1  2  1  0  0  0
  1  6  1  0  0  0
  1  7  1  0  0  0
  2  3  1  0  0  0
  2 23  2  0  0  0
  3  4  2  0  0  0
  3 22  1  0  0  0
  4  5  1  0  0  0
  5  6  1  0  0  0
  5 24  2  0  0  0
  6 25  1  0  0  0
  7  8  1  0  0  0
  8  9  1  0  0  0
  8 27  1  0  0  0
  9 10  1  0  0  0
 10 11  1  0  0  0
 10 28  1  0  0  0
 11 12  1  0  0  0
 11 30  1  0  0  0
 12 13  1  0  0  0
 12 31  1  0  0  0
 13 14  2  0  0  0
 14 15  1  0  0  0
 14 32  1  0  0  0
 15 16  1  0  0  0
 15 33  1  0  0  0
 16 17  1  0  0  0
 16 37  1  0  0  0
 17 18  1  0  0  0
 18 19  1  0  0  0
 19 20  1  0  0  0
 20 21  1  0  0  0
 20 39  1  0  0  0
 21 22  1  0  0  0
 21 40  2  0  0  0
 25 26  1  0  0  0
 28 29  1  0  0  0
 33 34  1  0  0  0
 34 35  2  0  0  0
 34 36  1  0  0  0
 37 38  1  0  0  0
  1 41  1  0  0  0
  4 42  1  0  0  0
  6 43  1  0  0  0
  7 44  1  0  0  0
  7 45  1  0  0  0
  8 46  1  0  0  0
  9 47  1  0  0  0
  9 48  1  0  0  0
 10 49  1  0  0  0
 11 50  1  0  0  0
 12 51  1  0  0  0
 13 52  1  0  0  0
 15 53  1  0  0  0
 16 54  1  0  0  0
 17 55  1  0  0  0
 17 56  1  0  0  0
 18 57  1  0  0  0
 18 58  1  0  0  0
 19 59  1  0  0  0
 19 60  1  0  0  0
 20 61  1  0  0  0
 22 62  1  0  0  0
 26 63  1  0  0  0
 26 64  1  0  0  0
 26 65  1  0  0  0
 27 66  1  0  0  0
 27 67  1  0  0  0
 27 68  1  0  0  0
 29 69  1  0  0  0
 29 70  1  0  0  0
 29 71  1  0  0  0
 30 72  1  0  0  0
 31 73  1  0  0  0
 31 74  1  0  0  0
 31 75  1  0  0  0
 32 76  1  0  0  0
 32 77  1  0  0  0
 32 78  1  0  0  0
 36 79  1  0  0  0
 36 80  1  0  0  0
 38 81  1  0  0  0
 38 82  1  0  0  0
 38 83  1  0  0  0
 39 84  1  0  0  0
 39 85  1  0  0  0
 39 86  1  0  0  0
M  END
$$$$
