6sq0_ligand
  -I-interpret- 

 57 61  0  0  0  0  0  0  0  0999 V2000
   35.8770   11.3400    9.2610 C   0  0  0  0  0
   34.8070   10.9180   10.2450 C   0  0  0  0  0
   34.8830   11.7810   11.4910 C   0  0  0  0  0
   31.4210    8.8420    9.1200 C   0  0  0  0  0
   30.2610    9.7400    8.6910 C   0  0  0  0  0
   30.6350   11.2160    8.7400 C   0  0  0  0  0
   31.1090   11.5530   10.1710 C   0  0  0  0  0
   29.9690   11.1190   11.0460 C   0  0  0  0  0
   29.9400    9.9300   11.7160 C   0  0  0  0  0
   28.7000    9.8890   12.4400 C   0  0  0  0  0
   28.0960    8.9690   13.2910 C   0  0  0  0  0
   26.8540    9.2510   13.8400 C   0  0  0  0  0
   28.0240   11.0880   12.1570 C   0  0  0  0  0
   31.0530    8.9330   11.6370 C   0  0  0  0  0
   31.4800   12.9910   10.5580 C   0  0  0  0  0
   31.9990   15.3200   10.0830 C   0  0  0  0  0
   31.6900   13.3050   11.9180 C   0  0  0  0  0
   35.0670    9.6020   10.5820 F   0  0  0  0  0
   33.4020   11.0540    9.5510 C   0  0  0  0  0
   32.2830   10.7200   10.4430 N   0  3  0  0  0
   28.8160   11.8260   11.2960 N   0  0  0  0  0
   26.7820   11.3730   12.7030 C   0  0  0  0  0
   26.2030   10.4390   13.5480 C   0  0  0  0  0
   31.9840    9.2710   10.4670 C   0  0  0  0  0
   31.5440   12.3180   12.8250 F   0  0  0  0  0
   32.0330   14.5530   12.3690 C   0  0  0  0  0
   32.1920   15.5850   11.4410 C   0  0  0  0  0
   31.6570   14.0530    9.6850 C   0  0  0  0  0
   31.4720   13.8150    8.3680 F   0  0  0  0  0
   32.5580   16.9290   11.8950 C   0  0  0  0  0
   36.8567   11.2473    9.7296 H   0  0  0  0  0
   35.8320   10.6993    8.3803 H   0  0  0  0  0
   35.7101   12.3762    8.9669 H   0  0  0  0  0
   34.1446   11.4371   12.2152 H   0  0  0  0  0
   35.8806   11.7053   11.9235 H   0  0  0  0  0
   34.6782   12.8183   11.2260 H   0  0  0  0  0
   32.2120    8.9169    8.3738 H   0  0  0  0  0
   31.0540    7.8194    9.2073 H   0  0  0  0  0
   29.4303    9.5755    9.3773 H   0  0  0  0  0
   29.9969    9.4888    7.6637 H   0  0  0  0  0
   29.7713   11.8280    8.4799 H   0  0  0  0  0
   31.4318   11.4223    8.0254 H   0  0  0  0  0
   28.5971    8.0299   13.5255 H   0  0  0  0  0
   26.3845    8.5298   14.5089 H   0  0  0  0  0
   30.6319    7.9395   11.4826 H   0  0  0  0  0
   31.6228    8.9599   12.5658 H   0  0  0  0  0
   32.1193   16.1138    9.3458 H   0  0  0  0  0
   33.3775   10.3564    8.7138 H   0  0  0  0  0
   33.2829   12.0936    9.2456 H   0  0  0  0  0
   32.5790   10.9443   11.3930 H   0  0  0  0  0
   26.2729   12.3091   12.4734 H   0  0  0  0  0
   25.2260   10.6410   13.9871 H   0  0  0  0  0
   32.9019    8.7064   10.6306 H   0  0  0  0  0
   32.1792   14.7371   13.4334 H   0  0  0  0  0
   33.5041   17.2202   11.4386 H   0  0  0  0  0
   31.7799   17.6342   11.6029 H   0  0  0  0  0
   32.6614   16.9290   12.9801 H   0  0  0  0  0
  2  1  1  0  0  0
  2  3  1  0  0  0
  2 18  1  0  0  0
 19  2  1  0  0  0
  5  4  1  0  0  0
  4 24  1  0  0  0
  6  5  1  0  0  0
  7  6  1  0  0  0
  7  8  1  0  0  0
  7 15  1  0  0  0
 20  7  1  0  0  0
  8  9  4  0  0  0
  8 21  4  0  0  0
  9 10  4  0  0  0
  9 14  1  0  0  0
 10 11  4  0  0  0
 13 10  4  0  0  0
 11 12  4  0  0  0
 12 23  4  0  0  0
 21 13  4  0  0  0
 13 22  4  0  0  0
 14 24  1  0  0  0
 15 17  4  0  0  0
 15 28  4  0  0  0
 16 27  4  0  0  0
 28 16  4  0  0  0
 17 25  1  0  0  0
 17 26  4  0  0  0
 19 20  1  0  0  0
 20 24  1  0  0  0
 22 23  4  0  0  0
 26 27  4  0  0  0
 27 30  1  0  0  0
 28 29  1  0  0  0
  1 31  1  0  0  0
  1 32  1  0  0  0
  1 33  1  0  0  0
  3 34  1  0  0  0
  3 35  1  0  0  0
  3 36  1  0  0  0
  4 37  1  0  0  0
  4 38  1  0  0  0
  5 39  1  0  0  0
  5 40  1  0  0  0
  6 41  1  0  0  0
  6 42  1  0  0  0
 11 43  1  0  0  0
 12 44  1  0  0  0
 14 45  1  0  0  0
 14 46  1  0  0  0
 16 47  1  0  0  0
 19 48  1  0  0  0
 19 49  1  0  0  0
 20 50  1  0  0  0
 22 51  1  0  0  0
 23 52  1  0  0  0
 24 53  1  0  0  0
 26 54  1  0  0  0
 30 55  1  0  0  0
 30 56  1  0  0  0
 30 57  1  0  0  0
M  END
$$$$
