4pkv_ligand
  -I-interpret- 

 50 51  0  0  0  0  0  0  0  0999 V2000
   11.5840   19.1180   26.6790 C   0  0  0  0  0
   12.3510   19.2000   28.0010 C   0  0  0  0  0
    4.5450   15.4200   25.5120 C   0  0  0  0  0
   12.3190   18.2100   29.0790 O   0  0  0  0  0
   13.1660   20.2450   28.2310 N   0  0  0  0  0
    3.8120   15.0860   26.7680 N   0  3  0  0  0
    8.6140   20.8100   27.9240 C   0  0  0  0  0
    7.5180   20.1310   28.4660 C   0  0  0  0  0
    7.0620   20.4400   29.7390 C   0  0  0  0  0
    7.7070   21.4230   30.4730 C   0  0  0  0  0
    8.8090   22.1040   29.9480 C   0  0  0  0  0
    9.2670   21.7980   28.6680 C   0  0  0  0  0
    5.8790   19.7090   30.3290 C   0  0  0  0  0
    9.6310   17.7960   27.0810 C   0  0  0  0  0
    8.3170   17.2060   26.5920 C   0  0  0  0  0
    8.0480   16.9450   25.2450 C   0  0  0  0  0
    6.8200   16.3700   24.8880 C   0  0  0  0  0
    5.8750   16.0450   25.8730 C   0  0  0  0  0
    6.1550   16.2950   27.2150 C   0  0  0  0  0
    7.3730   16.8650   27.5690 C   0  0  0  0  0
   12.1040   17.8550   25.9790 C   0  0  0  0  0
   10.0830   19.1440   26.7000 N   0  0  0  0  0
   13.9370   20.2750   29.3380 O   0  0  0  0  0
    9.1360   20.4000   26.4570 S   0  0  0  0  0
    7.9670   20.1980   25.6030 O   0  0  0  0  0
    9.8680   21.4950   25.8600 O   0  0  0  0  0
    7.2520   21.7210   31.7050 F   0  0  0  0  0
   11.7827   20.0528   26.1549 H   0  0  0  0  0
    3.9579   16.1200   24.9175 H   0  0  0  0  0
    4.7095   14.5138   24.9290 H   0  0  0  0  0
   13.2014   21.0177   27.5661 H   0  0  0  0  0
    2.9135   14.6638   26.5339 H   0  0  0  0  0
    4.3648   14.4287   27.3183 H   0  0  0  0  0
    3.6585   15.9380   27.3074 H   0  0  0  0  0
    7.0196   19.3550   27.8851 H   0  0  0  0  0
    9.3087   22.8722   30.5381 H   0  0  0  0  0
   10.1259   22.3236   28.2506 H   0  0  0  0  0
    5.0051   19.8643   29.6963 H   0  0  0  0  0
    6.1032   18.6438   30.3859 H   0  0  0  0  0
    5.6780   20.0932   31.3290 H   0  0  0  0  0
   10.3818   17.1431   26.6359 H   0  0  0  0  0
    9.4871   17.8735   28.1587 H   0  0  0  0  0
    8.7858   17.1862   24.4798 H   0  0  0  0  0
    6.5981   16.1743   23.8389 H   0  0  0  0  0
    5.4232   16.0451   27.9832 H   0  0  0  0  0
    7.5959   17.0487   28.6200 H   0  0  0  0  0
   11.7465   16.9732   26.5106 H   0  0  0  0  0
   11.7396   17.8342   24.9519 H   0  0  0  0  0
   13.1940   17.8638   25.9790 H   0  0  0  0  0
   14.4526   21.0847   29.3456 H   0  0  0  0  0
  1  2  1  0  0  0
  1 21  1  0  0  0
 22  1  1  0  0  0
  2  4  2  0  0  0
  2  5  1  0  0  0
  3  6  1  0  0  0
 18  3  1  0  0  0
  5 23  1  0  0  0
  7  8  4  0  0  0
  7 12  4  0  0  0
 24  7  1  0  0  0
  8  9  4  0  0  0
  9 10  4  0  0  0
  9 13  1  0  0  0
 11 10  4  0  0  0
 10 27  1  0  0  0
 12 11  4  0  0  0
 14 15  1  0  0  0
 22 14  1  0  0  0
 15 16  4  0  0  0
 15 20  4  0  0  0
 16 17  4  0  0  0
 17 18  4  0  0  0
 19 18  4  0  0  0
 20 19  4  0  0  0
 22 24  1  0  0  0
 24 25  2  0  0  0
 24 26  2  0  0  0
  1 28  1  0  0  0
  3 29  1  0  0  0
  3 30  1  0  0  0
  5 31  1  0  0  0
  6 32  1  0  0  0
  6 33  1  0  0  0
  6 34  1  0  0  0
  8 35  1  0  0  0
 11 36  1  0  0  0
 12 37  1  0  0  0
 13 38  1  0  0  0
 13 39  1  0  0  0
 13 40  1  0  0  0
 14 41  1  0  0  0
 14 42  1  0  0  0
 16 43  1  0  0  0
 17 44  1  0  0  0
 19 45  1  0  0  0
 20 46  1  0  0  0
 21 47  1  0  0  0
 21 48  1  0  0  0
 21 49  1  0  0  0
 23 50  1  0  0  0
M  END
$$$$
