1gui_ligand
  -I-interpret- 

129134  0  0  0  0  0  0  0  0999 V2000
   59.2470   27.2410    4.7390 C   0  0  0  0  0
   60.6670   27.4420    5.2820 C   0  0  0  0  0
   60.6940   28.4990    6.3920 C   0  0  0  0  0
   59.5160   28.3440    7.3980 C   0  0  0  0  0
   59.5260   29.5110    8.3830 C   0  0  0  0  0
   58.1860   27.1070    5.8610 C   0  0  0  0  0
   59.2660   26.0600    3.9760 O   0  0  0  0  0
   61.5810   27.8280    4.2730 O   0  0  0  0  0
   62.0050   28.5320    6.9880 O   0  0  0  0  0
   58.2110   28.1850    6.7920 O   0  0  0  0  0
   58.4790   30.3900    8.0580 O   0  0  0  0  0
   55.2760   25.3590    6.3900 C   0  0  0  0  0
   55.3160   26.8770    6.3570 C   0  0  0  0  0
   54.0930   27.5050    5.6590 C   0  0  0  0  0
   52.7370   26.7990    5.8160 C   0  0  0  0  0
   51.7470   27.2410    4.7400 C   0  0  0  0  0
   53.8180   24.9700    6.7240 C   0  0  0  0  0
   56.1810   24.8790    7.3640 O   0  0  0  0  0
   56.4950   27.2700    5.6820 O   0  0  0  0  0
   53.8410   28.8000    6.1580 O   0  0  0  0  0
   52.8760   25.4040    5.7610 O   0  0  0  0  0
   50.9940   26.1150    4.3490 O   0  0  0  0  0
   53.3500   21.3270    7.3100 C   0  0  0  0  0
   52.5420   22.6000    7.1030 C   0  0  0  0  0
   51.4050   22.3970    6.1850 C   0  0  0  0  0
   50.5090   21.3680    6.8600 C   0  0  0  0  0
   49.1170   21.1530    6.2150 C   0  0  0  0  0
   52.2950   20.3910    7.8790 C   0  0  0  0  0
   54.4660   21.4990    8.1590 O   0  0  0  0  0
   53.4810   23.3400    6.3830 O   0  0  0  0  0
   50.6730   23.5990    6.0530 O   0  0  0  0  0
   51.2830   20.1930    6.9170 O   0  0  0  0  0
   48.3720   20.2540    7.0080 O   0  0  0  0  0
   54.4280   18.2010    9.5930 C   0  0  0  0  0
   52.9730   18.3400    9.2200 C   0  0  0  0  0
   52.2300   17.0510    9.0630 C   0  0  0  0  0
   52.4400   16.1840   10.3220 C   0  0  0  0  0
   51.8300   14.7960   10.1400 C   0  0  0  0  0
   54.4510   17.3050   10.8390 C   0  0  0  0  0
   55.0110   19.4950    9.8350 O   0  0  0  0  0
   53.0120   18.9240    7.9590 O   0  0  0  0  0
   50.8780   17.3310    8.7950 O   0  0  0  0  0
   53.8390   16.0610   10.5620 O   0  0  0  0  0
   51.8960   14.0510   11.3520 O   0  0  0  0  0
   56.9620   17.0240   13.2170 C   0  0  0  0  0
   56.1040   16.1990   12.3000 C   0  0  0  0  0
   56.8780   14.9650   11.8470 C   0  0  0  0  0
   57.4590   14.2110   13.0480 C   0  0  0  0  0
   58.5080   13.2220   12.5320 C   0  0  0  0  0
   57.2520   16.1270   14.4250 C   0  0  0  0  0
   56.3240   18.2160   13.5980 O   0  0  0  0  0
   55.8390   16.9950   11.1590 O   0  0  0  0  0
   55.9700   14.1370   11.1660 O   0  0  0  0  0
   58.0940   15.1050   13.9380 O   0  0  0  0  0
   58.1400   11.9870   13.0800 O   0  0  0  0  0
   60.4240   16.7210   16.4330 C   0  0  0  0  0
   58.9610   17.1150   16.3300 C   0  0  0  0  0
   58.1820   16.4610   17.4680 C   0  0  0  0  0
   58.8500   16.9240   18.7680 C   0  0  0  0  0
   58.2940   16.2120   19.9940 C   0  0  0  0  0
   60.9570   17.2830   17.7340 C   0  0  0  0  0
   62.3290   16.9620   17.8300 O   0  0  0  0  0
   61.1450   17.1730   15.3070 O   0  0  0  0  0
   58.4950   16.8060   15.0350 O   0  0  0  0  0
   56.8510   16.9200   17.3680 O   0  0  0  0  0
   60.2390   16.6160   18.7490 O   0  0  0  0  0
   58.1720   17.1100   21.0800 O   0  0  0  0  0
   58.9668   28.1148    4.1508 H   0  0  0  0  0
   60.9724   26.4748    5.6812 H   0  0  0  0  0
   60.5193   29.4844    5.9600 H   0  0  0  0  0
   59.6885   27.4037    7.9216 H   0  0  0  0  0
   60.4796   30.0356    8.3230 H   0  0  0  0  0
   59.3918   29.1375    9.3982 H   0  0  0  0  0
   58.5006   26.0811    6.0524 H   0  0  0  0  0
   59.9225   26.1404    3.2802 H   0  0  0  0  0
   61.5748   27.1742    3.5700 H   0  0  0  0  0
   62.6662   28.6291    6.2988 H   0  0  0  0  0
   58.4787   31.1269    8.6733 H   0  0  0  0  0
   55.5742   24.9193    5.4383 H   0  0  0  0  0
   55.3000   27.2333    7.3870 H   0  0  0  0  0
   54.4007   27.4459    4.6150 H   0  0  0  0  0
   52.3512   27.0832    6.7950 H   0  0  0  0  0
   52.2815   27.6516    3.8834 H   0  0  0  0  0
   51.0882   28.0163    5.1311 H   0  0  0  0  0
   53.7440   25.3433    7.7454 H   0  0  0  0  0
   56.1520   23.9196    7.3809 H   0  0  0  0  0
   53.0771   29.1711    5.7104 H   0  0  0  0  0
   50.3642   26.3721    3.6716 H   0  0  0  0  0
   53.8213   20.9554    6.4001 H   0  0  0  0  0
   52.1414   23.0105    8.0299 H   0  0  0  0  0
   51.7455   22.0806    5.1991 H   0  0  0  0  0
   50.2200   21.7264    7.8480 H   0  0  0  0  0
   49.2378   20.7428    5.2124 H   0  0  0  0  0
   48.5921   22.1062    6.1514 H   0  0  0  0  0
   51.9081   20.7850    8.8188 H   0  0  0  0  0
   54.9307   20.6637    8.2480 H   0  0  0  0  0
   49.9354   23.4591    5.4547 H   0  0  0  0  0
   47.5085   20.1186    6.6109 H   0  0  0  0  0
   55.0219   17.7570    8.7941 H   0  0  0  0  0
   52.4612   18.8907   10.0092 H   0  0  0  0  0
   52.6096   16.4747    8.2192 H   0  0  0  0  0
   51.9472   16.6625   11.1684 H   0  0  0  0  0
   52.3896   14.2646    9.3702 H   0  0  0  0  0
   50.7845   14.9068    9.8523 H   0  0  0  0  0
   53.9349   17.8257   11.6456 H   0  0  0  0  0
   55.9355   19.3891   10.0708 H   0  0  0  0  0
   50.3958   16.5071    8.6932 H   0  0  0  0  0
   51.5078   13.1838   11.2148 H   0  0  0  0  0
   57.8813   17.3384   12.7229 H   0  0  0  0  0
   55.1893   15.8889   12.8052 H   0  0  0  0  0
   57.7102   15.2577   11.2067 H   0  0  0  0  0
   56.6518   13.6991   13.5720 H   0  0  0  0  0
   59.5165   13.5113   12.8274 H   0  0  0  0  0
   58.5326   13.1900   11.4427 H   0  0  0  0  0
   56.3410   15.9008   14.9790 H   0  0  0  0  0
   56.9011   18.7142   14.1814 H   0  0  0  0  0
   56.4236   13.3464   10.8646 H   0  0  0  0  0
   58.7617   11.3135   12.7945 H   0  0  0  0  0
   60.5386   15.6371   16.4403 H   0  0  0  0  0
   58.8159   18.1882   16.4538 H   0  0  0  0  0
   58.1788   15.3715   17.4355 H   0  0  0  0  0
   58.6594   17.9955   18.8291 H   0  0  0  0  0
   58.9756   15.4092   20.2750 H   0  0  0  0  0
   57.3085   15.8132   19.7536 H   0  0  0  0  0
   60.8454   18.3648   17.8066 H   0  0  0  0  0
   62.6817   17.3123   18.6512 H   0  0  0  0  0
   62.0654   16.9137   15.3926 H   0  0  0  0  0
   56.3254   16.5295   18.0700 H   0  0  0  0  0
   57.8206   16.6433   21.8418 H   0  0  0  0  0
  1  2  1  0  0  0
  6  1  1  0  0  0
  1  7  1  0  0  0
  2  3  1  0  0  0
  2  8  1  0  0  0
  4  3  1  0  0  0
  3  9  1  0  0  0
  4  5  1  0  0  0
 10  4  1  0  0  0
  5 11  1  0  0  0
  6 10  1  0  0  0
 19  6  1  0  0  0
 12 13  1  0  0  0
 17 12  1  0  0  0
 12 18  1  0  0  0
 13 14  1  0  0  0
 13 19  1  0  0  0
 15 14  1  0  0  0
 14 20  1  0  0  0
 15 16  1  0  0  0
 21 15  1  0  0  0
 16 22  1  0  0  0
 17 21  1  0  0  0
 30 17  1  0  0  0
 23 24  1  0  0  0
 28 23  1  0  0  0
 23 29  1  0  0  0
 24 25  1  0  0  0
 24 30  1  0  0  0
 26 25  1  0  0  0
 25 31  1  0  0  0
 26 27  1  0  0  0
 32 26  1  0  0  0
 27 33  1  0  0  0
 28 32  1  0  0  0
 41 28  1  0  0  0
 34 35  1  0  0  0
 39 34  1  0  0  0
 34 40  1  0  0  0
 35 36  1  0  0  0
 35 41  1  0  0  0
 37 36  1  0  0  0
 36 42  1  0  0  0
 37 38  1  0  0  0
 43 37  1  0  0  0
 38 44  1  0  0  0
 39 43  1  0  0  0
 52 39  1  0  0  0
 45 46  1  0  0  0
 50 45  1  0  0  0
 45 51  1  0  0  0
 46 47  1  0  0  0
 46 52  1  0  0  0
 48 47  1  0  0  0
 47 53  1  0  0  0
 48 49  1  0  0  0
 54 48  1  0  0  0
 49 55  1  0  0  0
 50 54  1  0  0  0
 64 50  1  0  0  0
 57 56  1  0  0  0
 56 61  1  0  0  0
 56 63  1  0  0  0
 57 58  1  0  0  0
 57 64  1  0  0  0
 58 59  1  0  0  0
 58 65  1  0  0  0
 59 60  1  0  0  0
 59 66  1  0  0  0
 60 67  1  0  0  0
 61 62  1  0  0  0
 61 66  1  0  0  0
  1 68  1  0  0  0
  2 69  1  0  0  0
  3 70  1  0  0  0
  4 71  1  0  0  0
  5 72  1  0  0  0
  5 73  1  0  0  0
  6 74  1  0  0  0
  7 75  1  0  0  0
  8 76  1  0  0  0
  9 77  1  0  0  0
 11 78  1  0  0  0
 12 79  1  0  0  0
 13 80  1  0  0  0
 14 81  1  0  0  0
 15 82  1  0  0  0
 16 83  1  0  0  0
 16 84  1  0  0  0
 17 85  1  0  0  0
 18 86  1  0  0  0
 20 87  1  0  0  0
 22 88  1  0  0  0
 23 89  1  0  0  0
 24 90  1  0  0  0
 25 91  1  0  0  0
 26 92  1  0  0  0
 27 93  1  0  0  0
 27 94  1  0  0  0
 28 95  1  0  0  0
 29 96  1  0  0  0
 31 97  1  0  0  0
 33 98  1  0  0  0
 34 99  1  0  0  0
 35100  1  0  0  0
 36101  1  0  0  0
 37102  1  0  0  0
 38103  1  0  0  0
 38104  1  0  0  0
 39105  1  0  0  0
 40106  1  0  0  0
 42107  1  0  0  0
 44108  1  0  0  0
 45109  1  0  0  0
 46110  1  0  0  0
 47111  1  0  0  0
 48112  1  0  0  0
 49113  1  0  0  0
 49114  1  0  0  0
 50115  1  0  0  0
 51116  1  0  0  0
 53117  1  0  0  0
 55118  1  0  0  0
 56119  1  0  0  0
 57120  1  0  0  0
 58121  1  0  0  0
 59122  1  0  0  0
 60123  1  0  0  0
 60124  1  0  0  0
 61125  1  0  0  0
 62126  1  0  0  0
 63127  1  0  0  0
 65128  1  0  0  0
 67129  1  0  0  0
M  END
$$$$
