6jav_ligand
  -I-interpret- 

 49 52  0  0  0  0  0  0  0  0999 V2000
    9.8030   -9.9700    1.4680 N   0  3  0  0  0
   14.4590  -12.5000    4.9430 N   0  0  0  0  0
   11.3180  -11.6820    3.1830 C   0  0  0  0  0
   11.9200  -10.8930    2.2810 C   0  0  0  0  0
   13.5530  -11.9790    4.0580 C   0  0  0  0  0
   12.2280  -12.3010    4.1900 C   0  0  0  0  0
   11.8710  -13.1880    5.2750 C   0  0  0  0  0
   16.4370  -15.3200    6.5060 C   0  0  0  0  0
   18.9110  -17.1570    8.9700 C   0  0  0  0  0
   17.2640  -18.6980    8.2330 C   0  0  0  0  0
    9.9440  -13.7800    6.8250 C   0  0  0  0  0
   11.1360  -10.2170    1.2200 C   0  0  0  0  0
    9.1990   -9.5650    0.4160 C   0  0  0  0  0
   17.1530  -16.4180    7.4400 C   0  0  0  0  0
   18.3090  -16.1500    8.1910 C   0  0  0  0  0
   18.3820  -18.4250    8.9850 C   0  0  0  0  0
   16.6560  -17.6760    7.4580 C   0  0  0  0  0
    8.3910  -13.7390    6.7760 C   0  0  0  0  0
    7.7080  -14.8080    7.0940 C   0  0  0  0  0
    9.0390  -10.9500    2.1250 C   0  0  0  0  0
    9.8010  -11.8880    3.1220 C   0  0  0  0  0
   14.0780  -13.3350    5.9450 C   0  0  0  0  0
   12.7920  -13.6470    6.0830 N   0  0  0  0  0
   10.4680  -13.5780    5.4740 N   0  0  0  0  0
   13.5820  -10.9460    2.7050 S   0  0  0  0  0
   15.2380  -14.0840    7.1990 S   0  0  0  0  0
   19.1570  -19.7240    9.9760 Cl  0  0  0  0  0
    9.8669   -9.2342    2.1715 H   0  0  0  0  0
   15.8297  -15.9160    5.8248 H   0  0  0  0  0
   17.2635  -14.7062    6.1478 H   0  0  0  0  0
   19.7978  -16.9302    9.5618 H   0  0  0  0  0
   16.8428  -19.7033    8.2319 H   0  0  0  0  0
   10.2746  -14.7458    7.2071 H   0  0  0  0  0
   10.3121  -12.9934    7.4837 H   0  0  0  0  0
   11.5964   -9.2368    1.0966 H   0  0  0  0  0
   11.1533  -10.8955    0.3671 H   0  0  0  0  0
    9.6624   -8.6430    0.0648 H   0  0  0  0  0
    9.2713  -10.3278   -0.3593 H   0  0  0  0  0
    8.1504   -9.3802    0.6491 H   0  0  0  0  0
   18.7452  -15.1513    8.1707 H   0  0  0  0  0
   15.7712  -17.9094    6.8657 H   0  0  0  0  0
    7.8750  -12.8260    6.4788 H   0  0  0  0  0
    8.2281  -15.7188    7.3906 H   0  0  0  0  0
    6.6186  -14.7881    7.0624 H   0  0  0  0  0
    8.6480  -11.5997    1.3420 H   0  0  0  0  0
    8.3073  -10.4077    2.7239 H   0  0  0  0  0
    9.4151  -11.6661    4.1170 H   0  0  0  0  0
    9.6378  -12.9091    2.7773 H   0  0  0  0  0
    9.8575  -13.7083    4.6674 H   0  0  0  0  0
 12  1  1  0  0  0
  1 13  1  0  0  0
 20  1  1  0  0  0
  2  5  4  0  0  0
 22  2  4  0  0  0
  3  4  4  0  0  0
  6  3  4  0  0  0
  3 21  1  0  0  0
  4 12  1  0  0  0
 25  4  4  0  0  0
  5  6  4  0  0  0
  5 25  4  0  0  0
  7  6  4  0  0  0
 23  7  4  0  0  0
  7 24  1  0  0  0
  8 14  1  0  0  0
 26  8  1  0  0  0
 15  9  4  0  0  0
  9 16  4  0  0  0
 10 16  4  0  0  0
 17 10  4  0  0  0
 11 18  1  0  0  0
 24 11  1  0  0  0
 14 15  4  0  0  0
 14 17  4  0  0  0
 16 27  1  0  0  0
 18 19  2  0  0  0
 21 20  1  0  0  0
 22 23  4  0  0  0
 22 26  1  0  0  0
  1 28  1  0  0  0
  8 29  1  0  0  0
  8 30  1  0  0  0
  9 31  1  0  0  0
 10 32  1  0  0  0
 11 33  1  0  0  0
 11 34  1  0  0  0
 12 35  1  0  0  0
 12 36  1  0  0  0
 13 37  1  0  0  0
 13 38  1  0  0  0
 13 39  1  0  0  0
 15 40  1  0  0  0
 17 41  1  0  0  0
 18 42  1  0  0  0
 19 43  1  0  0  0
 19 44  1  0  0  0
 20 45  1  0  0  0
 20 46  1  0  0  0
 21 47  1  0  0  0
 21 48  1  0  0  0
 24 49  1  0  0  0
M  END
$$$$
