2ajl_ligand
  -I-interpret- 

 51 53  0  0  0  0  0  0  0  0999 V2000
  111.4360  -77.8720  -54.5300 N   0  0  0  0  0
  111.8970  -78.6710  -55.6500 C   0  0  0  0  0
  112.9700  -77.7680  -56.2170 C   0  0  0  0  0
  112.3440  -76.4060  -56.0210 C   0  0  0  0  0
  111.9190  -76.5330  -54.5830 C   0  0  0  0  0
  110.3970  -78.2460  -53.7940 C   0  0  0  0  0
  110.2140  -77.3510  -52.5820 C   0  0  0  0  0
  109.6850  -79.2100  -54.0640 O   0  0  0  0  0
  108.8180  -76.9090  -52.4810 N   0  3  0  0  0
  110.6220  -78.2600  -51.4130 C   0  0  0  0  0
  110.0470  -76.7200  -47.3950 C   0  0  0  0  0
  108.9310  -77.0970  -48.1690 C   0  0  0  0  0
  109.0960  -77.6010  -49.4730 C   0  0  0  0  0
  110.4040  -77.7100  -50.0140 C   0  0  0  0  0
  111.5330  -77.3560  -49.2720 C   0  0  0  0  0
  111.3320  -76.8610  -47.9780 C   0  0  0  0  0
  109.6580  -75.1680  -43.4050 C   0  0  0  0  0
  108.4970  -75.3570  -44.1960 C   0  0  0  0  0
  108.6260  -75.8780  -45.5180 C   0  0  0  0  0
  109.9070  -76.2130  -46.0680 C   0  0  0  0  0
  111.0520  -76.0150  -45.2190 C   0  0  0  0  0
  110.9380  -75.4980  -43.9040 C   0  0  0  0  0
  112.4500  -80.0580  -55.5000 C   0  0  0  0  0
  112.4210  -80.8840  -54.5080 N   0  3  0  0  0
  111.0111  -78.9313  -56.2293 H   0  0  0  0  0
  113.2256  -77.9880  -57.2535 H   0  0  0  0  0
  113.9390  -77.8793  -55.7304 H   0  0  0  0  0
  111.5369  -76.1718  -56.7152 H   0  0  0  0  0
  113.0075  -75.5661  -56.2271 H   0  0  0  0  0
  112.7264  -76.3387  -53.8770 H   0  0  0  0  0
  111.1734  -75.7947  -54.2880 H   0  0  0  0  0
  110.8024  -76.4340  -52.6146 H   0  0  0  0  0
  108.5938  -76.3103  -53.2758 H   0  0  0  0  0
  108.2038  -77.7233  -52.4833 H   0  0  0  0  0
  108.6897  -76.3873  -51.6140 H   0  0  0  0  0
  111.6967  -78.4126  -51.5119 H   0  0  0  0  0
  109.9932  -79.1472  -51.4885 H   0  0  0  0  0
  107.9285  -76.9971  -47.7530 H   0  0  0  0  0
  108.2294  -77.9041  -50.0606 H   0  0  0  0  0
  112.5358  -77.4615  -49.6860 H   0  0  0  0  0
  112.2036  -76.5705  -47.3914 H   0  0  0  0  0
  109.5620  -74.7625  -42.3978 H   0  0  0  0  0
  107.5138  -75.1064  -43.7976 H   0  0  0  0  0
  107.7312  -76.0245  -46.1230 H   0  0  0  0  0
  112.0405  -76.2713  -45.6001 H   0  0  0  0  0
  111.8252  -75.3571  -43.2866 H   0  0  0  0  0
  113.5169  -79.8360  -55.5253 H   0  0  0  0  0
  111.8093  -80.5901  -56.2032 H   0  0  0  0  0
  112.9041  -81.7437  -54.7687 H   0  0  0  0  0
  112.8844  -80.4629  -53.7028 H   0  0  0  0  0
  111.4516  -81.0957  -54.2716 H   0  0  0  0  0
  1  2  1  0  0  0
  1  5  1  0  0  0
  6  1  1  0  0  0
  2  3  1  0  0  0
  2 23  1  0  0  0
  4  3  1  0  0  0
  5  4  1  0  0  0
  7  6  1  0  0  0
  6  8  2  0  0  0
  7  9  1  0  0  0
 10  7  1  0  0  0
 14 10  1  0  0  0
 11 12  4  0  0  0
 11 16  4  0  0  0
 20 11  1  0  0  0
 12 13  4  0  0  0
 13 14  4  0  0  0
 15 14  4  0  0  0
 16 15  4  0  0  0
 18 17  4  0  0  0
 17 22  4  0  0  0
 19 18  4  0  0  0
 19 20  4  0  0  0
 20 21  4  0  0  0
 21 22  4  0  0  0
 23 24  1  0  0  0
  2 25  1  0  0  0
  3 26  1  0  0  0
  3 27  1  0  0  0
  4 28  1  0  0  0
  4 29  1  0  0  0
  5 30  1  0  0  0
  5 31  1  0  0  0
  7 32  1  0  0  0
  9 33  1  0  0  0
  9 34  1  0  0  0
  9 35  1  0  0  0
 10 36  1  0  0  0
 10 37  1  0  0  0
 12 38  1  0  0  0
 13 39  1  0  0  0
 15 40  1  0  0  0
 16 41  1  0  0  0
 17 42  1  0  0  0
 18 43  1  0  0  0
 19 44  1  0  0  0
 21 45  1  0  0  0
 22 46  1  0  0  0
 23 47  1  0  0  0
 23 48  1  0  0  0
 24 49  1  0  0  0
 24 50  1  0  0  0
 24 51  1  0  0  0
M  END
$$$$
