4bdd_ligand
  -I-interpret- 

 34 35  0  0  0  0  0  0  0  0999 V2000
  -40.0170   31.7010    3.2650 O   0  0  0  0  0
  -40.3000   30.8040    4.0610 C   0  0  0  0  0
  -41.0220   29.6920    3.7580 N   0  0  0  0  0
  -41.6040   29.3250    2.4430 C   0  0  0  0  0
  -42.3850   28.0380    2.6640 C   0  0  0  0  0
  -42.5470   30.4120    1.9430 C   0  0  0  0  0
  -40.5050   29.0830    1.4190 C   0  0  0  0  0
  -39.9270   30.8000    5.3860 N   0  0  0  0  0
  -39.1400   31.7390    6.1040 C   0  0  0  0  0
  -38.9390   31.4760    7.4620 C   0  0  0  0  0
  -38.2320   32.3430    8.2470 C   0  0  0  0  0
  -37.6780   33.5200    7.6960 C   0  0  0  0  0
  -37.8560   33.7830    6.3210 C   0  0  0  0  0
  -38.6000   32.8790    5.5270 C   0  0  0  0  0
  -36.9450   34.3710    8.4870 N   0  0  0  0  0
  -36.4140   35.4220    7.8830 C   0  0  0  0  0
  -36.5740   35.6680    6.5220 C   0  0  0  0  0
  -37.2860   34.8810    5.7300 N   0  0  0  0  0
  -41.1818   29.0352    4.5218 H   0  0  0  0  0
  -42.8300   27.7182    1.7218 H   0  0  0  0  0
  -41.7108   27.2637    3.0302 H   0  0  0  0  0
  -43.1717   28.2134    3.3978 H   0  0  0  0  0
  -41.9872   31.3347    1.7901 H   0  0  0  0  0
  -42.9953   30.0971    1.0007 H   0  0  0  0  0
  -43.3308   30.5792    2.6817 H   0  0  0  0  0
  -40.9517   28.7671    0.4763 H   0  0  0  0  0
  -39.9437   30.0047    1.2657 H   0  0  0  0  0
  -39.8351   28.3045    1.7840 H   0  0  0  0  0
  -40.2651   30.0072    5.9315 H   0  0  0  0  0
  -39.3516   30.5675    7.9007 H   0  0  0  0  0
  -38.0945   32.1248    9.3060 H   0  0  0  0  0
  -38.7484   33.0776    4.4656 H   0  0  0  0  0
  -35.8272   36.1240    8.4754 H   0  0  0  0  0
  -36.0928   36.5455    6.0901 H   0  0  0  0  0
  1  2  2  0  0  0
  2  3  1  0  0  0
  2  8  1  0  0  0
  3  4  1  0  0  0
  4  5  1  0  0  0
  4  6  1  0  0  0
  4  7  1  0  0  0
  8  9  1  0  0  0
  9 10  4  0  0  0
  9 14  4  0  0  0
 10 11  4  0  0  0
 11 12  4  0  0  0
 12 13  4  0  0  0
 12 15  4  0  0  0
 13 14  4  0  0  0
 13 18  4  0  0  0
 15 16  4  0  0  0
 16 17  4  0  0  0
 17 18  4  0  0  0
  3 19  1  0  0  0
  5 20  1  0  0  0
  5 21  1  0  0  0
  5 22  1  0  0  0
  6 23  1  0  0  0
  6 24  1  0  0  0
  6 25  1  0  0  0
  7 26  1  0  0  0
  7 27  1  0  0  0
  7 28  1  0  0  0
  8 29  1  0  0  0
 10 30  1  0  0  0
 11 31  1  0  0  0
 14 32  1  0  0  0
 16 33  1  0  0  0
 17 34  1  0  0  0
M  END
$$$$
