5ayt_ligand
  -I-interpret- 

 35 38  0  0  0  0  0  0  0  0999 V2000
  -20.4280   -0.9070   -2.2840 O   0  0  0  0  0
  -21.4000   -0.2710   -2.7120 C   0  0  0  0  0
  -22.2730    0.2780   -1.8430 N   0  0  0  0  0
  -22.0730    0.1090   -0.4490 O   0  0  0  0  0
  -23.3510    0.9750   -2.2810 C   0  0  0  0  0
  -24.1300    1.4620   -1.4690 O   0  0  0  0  0
  -23.5880    1.1440   -3.6420 C   0  0  0  0  0
  -24.6890    1.8740   -4.0760 C   0  0  0  0  0
  -24.9050    2.0320   -5.4410 C   0  0  0  0  0
  -24.0230    1.4840   -6.3620 C   0  0  0  0  0
  -22.9200    0.7600   -5.9190 C   0  0  0  0  0
  -22.6980    0.6030   -4.5530 C   0  0  0  0  0
  -21.6030   -0.1160   -4.0870 C   0  0  0  0  0
  -20.7150   -0.6710   -5.0000 C   0  0  0  0  0
  -20.9230   -0.4990   -6.3770 C   0  0  0  0  0
  -22.0380    0.2050   -6.8380 C   0  0  0  0  0
  -22.2860    0.4140   -8.2010 C   0  0  0  0  0
  -22.7250    1.4910   -8.5910 O   0  0  0  0  0
  -21.9830   -0.5860   -9.1280 C   0  0  0  0  0
  -22.2550   -1.9230   -8.8780 C   0  0  0  0  0
  -21.9420   -2.8660   -9.8590 C   0  0  0  0  0
  -21.3750   -2.4730  -11.0730 C   0  0  0  0  0
  -21.1250   -1.1270  -11.3130 C   0  0  0  0  0
  -21.4290   -0.1920  -10.3380 C   0  0  0  0  0
  -21.2740   -0.4022   -0.3012 H   0  0  0  0  0
  -25.3752    2.3175   -3.3546 H   0  0  0  0  0
  -25.7736    2.5904   -5.7900 H   0  0  0  0  0
  -24.1938    1.6204   -7.4299 H   0  0  0  0  0
  -19.8557   -1.2407   -4.6462 H   0  0  0  0  0
  -20.2117   -0.9164   -7.0897 H   0  0  0  0  0
  -22.7044   -2.2315   -7.9341 H   0  0  0  0  0
  -22.1426   -3.9214   -9.6750 H   0  0  0  0  0
  -21.1295   -3.2186  -11.8292 H   0  0  0  0  0
  -20.6927   -0.8097  -12.2620 H   0  0  0  0  0
  -21.2313    0.8639  -10.5226 H   0  0  0  0  0
  1  2  2  0  0  0
  2  3  1  0  0  0
  2 13  1  0  0  0
  3  4  1  0  0  0
  3  5  1  0  0  0
  5  6  2  0  0  0
  5  7  1  0  0  0
  7  8  4  0  0  0
  7 12  4  0  0  0
  8  9  4  0  0  0
  9 10  4  0  0  0
 10 11  4  0  0  0
 11 12  4  0  0  0
 11 16  4  0  0  0
 12 13  4  0  0  0
 13 14  4  0  0  0
 14 15  4  0  0  0
 15 16  4  0  0  0
 16 17  1  0  0  0
 17 18  2  0  0  0
 17 19  1  0  0  0
 19 20  4  0  0  0
 19 24  4  0  0  0
 20 21  4  0  0  0
 21 22  4  0  0  0
 22 23  4  0  0  0
 23 24  4  0  0  0
  4 25  1  0  0  0
  8 26  1  0  0  0
  9 27  1  0  0  0
 10 28  1  0  0  0
 14 29  1  0  0  0
 15 30  1  0  0  0
 20 31  1  0  0  0
 21 32  1  0  0  0
 22 33  1  0  0  0
 23 34  1  0  0  0
 24 35  1  0  0  0
M  END
$$$$
