5lp1_ligand
  -I-interpret- 

 87 92  0  0  0  0  0  0  0  0999 V2000
   27.3750  -32.3000    3.8100 N   0  0  0  0  0
   23.1520  -29.0820    1.9220 N   0  0  0  0  0
   27.5940  -34.3070    5.2800 C   0  0  0  0  0
   27.5460  -32.7930    5.1870 C   0  0  0  0  0
   28.6100  -32.1620    3.0440 C   0  0  0  0  0
   29.5610  -31.0450    3.5080 C   0  0  0  0  0
   30.8550  -30.6670    2.7410 C   0  0  0  0  0
   29.2120  -29.5360    3.4920 C   0  0  0  0  0
   31.2800  -27.3370    4.8630 C   0  0  0  0  0
   33.5060  -26.7720    5.6010 C   0  0  0  0  0
   33.0500  -28.9090    4.5780 C   0  0  0  0  0
   25.9160  -31.5360    1.9610 C   0  0  0  0  0
   23.4880  -31.8030    1.5400 C   0  0  0  0  0
   23.5480  -33.2860    1.3180 C   0  0  0  0  0
   21.2260  -32.4330    1.3540 C   0  0  0  0  0
   22.0390  -29.8850    1.7410 C   0  0  0  0  0
   25.0390  -26.9500    2.4100 C   0  0  0  0  0
   29.0460  -24.1290    5.1570 F   0  0  0  0  0
   28.0530  -24.7840    4.4930 C   0  0  0  0  0
   27.1810  -25.5520    5.2150 C   0  0  0  0  0
   26.1870  -26.2290    4.5320 C   0  0  0  0  0
   27.9730  -24.6490    3.1310 C   0  0  0  0  0
   26.9650  -25.3260    2.4650 C   0  0  0  0  0
   26.0670  -26.1350    3.1500 C   0  0  0  0  0
   25.7300  -28.6370    2.2810 S   0  0  0  0  0
   24.3330  -29.6280    1.9520 C   0  0  0  0  0
   20.9170  -29.3810    1.7660 O   0  0  0  0  0
   22.2270  -31.3250    1.5530 C   0  0  0  0  0
   22.0880  -33.6600    1.0590 C   0  0  0  0  0
   24.5780  -30.9790    1.8040 N   0  0  0  0  0
   26.1130  -32.0450    3.3900 C   0  0  0  0  0
   25.1410  -32.1970    4.1200 O   0  0  0  0  0
   27.7690  -34.8260    6.6450 N   0  3  0  0  0
   28.8730  -34.3220    7.4950 C   0  0  0  0  0
   30.2260  -34.3370    6.8240 C   0  0  0  0  0
   26.5360  -35.2030    7.3510 C   0  0  0  0  0
   25.7260  -34.0490    7.8550 C   0  0  0  0  0
   30.3430  -30.7730    4.8080 C   0  0  0  0  0
   30.7170  -29.6030    3.8610 C   0  0  0  0  0
   31.7050  -28.5880    4.4290 C   0  0  0  0  0
   33.9360  -28.0180    5.1560 C   0  0  0  0  0
   34.4660  -25.8100    6.2260 C   0  0  0  0  0
   35.1750  -25.1360    5.3170 F   0  0  0  0  0
   33.8670  -24.8930    6.9900 F   0  0  0  0  0
   35.3490  -26.4130    7.0180 F   0  0  0  0  0
   32.1640  -26.4440    5.4420 C   0  0  0  0  0
   28.4558  -34.6362    4.6994 H   0  0  0  0  0
   26.6370  -34.6806    4.9158 H   0  0  0  0  0
   26.6880  -32.4540    5.7675 H   0  0  0  0  0
   28.4961  -32.4095    5.5589 H   0  0  0  0  0
   28.3150  -31.9129    2.0247 H   0  0  0  0  0
   29.1534  -33.0994    3.1627 H   0  0  0  0  0
   31.0050  -30.5252    1.6707 H   0  0  0  0  0
   31.7114  -31.2909    2.4851 H   0  0  0  0  0
   28.4017  -29.0114    3.9983 H   0  0  0  0  0
   28.7190  -28.9516    2.7151 H   0  0  0  0  0
   30.2336  -27.0555    4.7451 H   0  0  0  0  0
   33.4116  -29.8780    4.2339 H   0  0  0  0  0
   26.6520  -30.7590    1.7547 H   0  0  0  0  0
   26.0400  -32.3668    1.2664 H   0  0  0  0  0
   23.9750  -33.8212    2.1662 H   0  0  0  0  0
   24.2052  -33.5614    0.4932 H   0  0  0  0  0
   20.5247  -32.2169    0.5481 H   0  0  0  0  0
   20.5882  -32.5757    2.2263 H   0  0  0  0  0
   24.8372  -26.5299    1.4247 H   0  0  0  0  0
   24.0847  -26.9537    2.9368 H   0  0  0  0  0
   27.2672  -25.6283    6.2989 H   0  0  0  0  0
   25.4836  -26.8486    5.0883 H   0  0  0  0  0
   28.6832  -24.0260    2.5873 H   0  0  0  0  0
   26.8745  -25.2222    1.3837 H   0  0  0  0  0
   21.7927  -34.4904    1.7004 H   0  0  0  0  0
   21.9574  -33.9713    0.0226 H   0  0  0  0  0
   28.2014  -35.7137    6.3891 H   0  0  0  0  0
   28.9367  -34.9785    8.3628 H   0  0  0  0  0
   28.6450  -33.2839    7.7368 H   0  0  0  0  0
   30.4790  -35.3591    6.5421 H   0  0  0  0  0
   30.1952  -33.7100    5.9329 H   0  0  0  0  0
   30.9768  -33.9527    7.5144 H   0  0  0  0  0
   26.8348  -35.7856    8.2224 H   0  0  0  0  0
   25.9126  -35.7401    6.6361 H   0  0  0  0  0
   26.3242  -33.4647    8.5542 H   0  0  0  0  0
   25.4295  -33.4206    7.0152 H   0  0  0  0  0
   24.8367  -34.4245    8.3612 H   0  0  0  0  0
   30.9991  -31.4404    5.3668 H   0  0  0  0  0
   29.9771  -30.7355    5.8341 H   0  0  0  0  0
   34.9845  -28.2956    5.2642 H   0  0  0  0  0
   31.8041  -25.4714    5.7777 H   0  0  0  0  0
  1  4  1  0  0  0
  5  1  1  0  0  0
  1 31  1  0  0  0
  2 16  1  0  0  0
 26  2  2  0  0  0
  4  3  1  0  0  0
  3 33  1  0  0  0
  6  5  1  0  0  0
  7  6  1  0  0  0
  8  6  1  0  0  0
 38  6  1  0  0  0
 39  7  1  0  0  0
 39  8  1  0  0  0
 40  9  4  0  0  0
  9 46  4  0  0  0
 41 10  4  0  0  0
 10 42  1  0  0  0
 46 10  4  0  0  0
 40 11  4  0  0  0
 11 41  4  0  0  0
 12 30  1  0  0  0
 31 12  1  0  0  0
 13 14  1  0  0  0
 13 28  2  0  0  0
 30 13  1  0  0  0
 14 29  1  0  0  0
 28 15  1  0  0  0
 15 29  1  0  0  0
 16 27  2  0  0  0
 28 16  1  0  0  0
 17 24  1  0  0  0
 25 17  1  0  0  0
 19 18  1  0  0  0
 20 19  4  0  0  0
 22 19  4  0  0  0
 21 20  4  0  0  0
 24 21  4  0  0  0
 23 22  4  0  0  0
 24 23  4  0  0  0
 26 25  1  0  0  0
 30 26  1  0  0  0
 31 32  2  0  0  0
 33 34  1  0  0  0
 33 36  1  0  0  0
 34 35  1  0  0  0
 36 37  1  0  0  0
 39 38  1  0  0  0
 39 40  1  0  0  0
 42 43  1  0  0  0
 42 44  1  0  0  0
 42 45  1  0  0  0
  3 47  1  0  0  0
  3 48  1  0  0  0
  4 49  1  0  0  0
  4 50  1  0  0  0
  5 51  1  0  0  0
  5 52  1  0  0  0
  7 53  1  0  0  0
  7 54  1  0  0  0
  8 55  1  0  0  0
  8 56  1  0  0  0
  9 57  1  0  0  0
 11 58  1  0  0  0
 12 59  1  0  0  0
 12 60  1  0  0  0
 14 61  1  0  0  0
 14 62  1  0  0  0
 15 63  1  0  0  0
 15 64  1  0  0  0
 17 65  1  0  0  0
 17 66  1  0  0  0
 20 67  1  0  0  0
 21 68  1  0  0  0
 22 69  1  0  0  0
 23 70  1  0  0  0
 29 71  1  0  0  0
 29 72  1  0  0  0
 33 73  1  0  0  0
 34 74  1  0  0  0
 34 75  1  0  0  0
 35 76  1  0  0  0
 35 77  1  0  0  0
 35 78  1  0  0  0
 36 79  1  0  0  0
 36 80  1  0  0  0
 37 81  1  0  0  0
 37 82  1  0  0  0
 37 83  1  0  0  0
 38 84  1  0  0  0
 38 85  1  0  0  0
 41 86  1  0  0  0
 46 87  1  0  0  0
M  END
$$$$
