### 
### Created by X-TOOL on Mon Sep 10 21:13:31 2018
### 

@<TRIPOS>MOLECULE
5lp1_ligand
   87    92     1     0     0
SMALL
GAST_HUCK


@<TRIPOS>ATOM
      1 N1         27.3750  -32.3000    3.8100 N.am      1 71H        -0.2654
      2 N3         23.1520  -29.0820    1.9220 N.2       1 71H        -0.2656
      3 C4         27.5940  -34.3070    5.2800 C.3       1 71H        -0.0110
      4 C5         27.5460  -32.7930    5.1870 C.3       1 71H         0.0739
      5 C6         28.6100  -32.1620    3.0440 C.3       1 71H         0.0381
      6 C7         29.5610  -31.0450    3.5080 C.3       1 71H        -0.0248
      7 C8         30.8550  -30.6670    2.7410 C.3       1 71H        -0.0575
      8 C10        29.2120  -29.5360    3.4920 C.3       1 71H        -0.0575
      9 C13        31.2800  -27.3370    4.8630 C.ar      1 71H        -0.0182
     10 C15        33.5060  -26.7720    5.6010 C.ar      1 71H         0.0718
     11 C17        33.0500  -28.9090    4.5780 C.ar      1 71H        -0.0182
     12 C20        25.9160  -31.5360    1.9610 C.3       1 71H         0.1524
     13 C21        23.4880  -31.8030    1.5400 C.2       1 71H         0.0796
     14 C22        23.5480  -33.2860    1.3180 C.3       1 71H         0.0128
     15 C24        21.2260  -32.4330    1.3540 C.3       1 71H        -0.0306
     16 C26        22.0390  -29.8850    1.7410 C.2       1 71H         0.1170
     17 C28        25.0390  -26.9500    2.4100 C.3       1 71H         0.0518
     18 F3         29.0460  -24.1290    5.1570 F         1 71H        -0.1893
     19 C32        28.0530  -24.7840    4.4930 C.ar      1 71H         0.1248
     20 C31        27.1810  -25.5520    5.2150 C.ar      1 71H        -0.0349
     21 C30        26.1870  -26.2290    4.5320 C.ar      1 71H        -0.0610
     22 C33        27.9730  -24.6490    3.1310 C.ar      1 71H        -0.0349
     23 C34        26.9650  -25.3260    2.4650 C.ar      1 71H        -0.0610
     24 C29        26.0670  -26.1350    3.1500 C.ar      1 71H        -0.0334
     25 S          25.7300  -28.6370    2.2810 S.3       1 71H        -0.0066
     26 C27        24.3330  -29.6280    1.9520 C.2       1 71H         0.2141
     27 O1         20.9170  -29.3810    1.7660 O.2       1 71H        -0.4376
     28 C25        22.2270  -31.3250    1.5530 C.2       1 71H         0.0125
     29 C23        22.0880  -33.6600    1.0590 C.3       1 71H        -0.0356
     30 N2         24.5780  -30.9790    1.8040 N.pl3     1 71H        -0.1846
     31 C19        26.1130  -32.0450    3.3900 C.2       1 71H         0.2090
     32 O          25.1410  -32.1970    4.1200 O.2       1 71H        -0.3939
     33 N          27.7690  -34.8260    6.6450 N.4       1 71H         0.2363
     34 C2         28.8730  -34.3220    7.4950 C.3       1 71H        -0.0347
     35 C3         30.2260  -34.3370    6.8240 C.3       1 71H        -0.0245
     36 C1         26.5360  -35.2030    7.3510 C.3       1 71H        -0.0347
     37 C          25.7260  -34.0490    7.8550 C.3       1 71H        -0.0245
     38 C11        30.3430  -30.7730    4.8080 C.3       1 71H        -0.0575
     39 C9         30.7170  -29.6030    3.8610 C.3       1 71H        -0.0200
     40 C12        31.7050  -28.5880    4.4290 C.ar      1 71H        -0.0236
     41 C16        33.9360  -28.0180    5.1560 C.ar      1 71H        -0.0105
     42 C18        34.4660  -25.8100    6.2260 C.3       1 71H         0.3942
     43 F2         35.1750  -25.1360    5.3170 F         1 71H        -0.2083
     44 F1         33.8670  -24.8930    6.9900 F         1 71H        -0.2083
     45 F          35.3490  -26.4130    7.0180 F         1 71H        -0.2083
     46 C14        32.1640  -26.4440    5.4420 C.ar      1 71H        -0.0105
     47 H1         28.4344  -34.6631    4.6661 H         1 71H         0.0834
     48 H2         26.6512  -34.7066    4.8782 H         1 71H         0.0834
     49 H3         26.7028  -32.4323    5.7944 H         1 71H         0.0575
     50 H4         28.4867  -32.3884    5.5886 H         1 71H         0.0575
     51 H5         28.3380  -31.9612    1.9973 H         1 71H         0.0527
     52 H6         29.1540  -33.1161    3.1049 H         1 71H         0.0527
     53 H7         30.7440  -30.3236    1.7019 H         1 71H         0.0200
     54 H8         31.7036  -31.3637    2.8083 H         1 71H         0.0200
     55 H9         28.5189  -29.1700    4.2638 H         1 71H         0.0200
     56 H10        28.9497  -29.0889    2.5218 H         1 71H         0.0200
     57 H11        30.2394  -27.0570    4.7458 H         1 71H         0.0894
     58 H12        33.4096  -29.8727    4.2357 H         1 71H         0.0894
     59 H13        26.6615  -30.7559    1.7474 H         1 71H         0.0854
     60 H14        26.0468  -32.3709    1.2569 H         1 71H         0.0854
     61 H15        23.9355  -33.8028    2.2084 H         1 71H         0.0488
     62 H16        24.1776  -33.5297    0.4495 H         1 71H         0.0488
     63 H17        20.5594  -32.2107    0.5077 H         1 71H         0.0331
     64 H18        20.6259  -32.5860    2.2631 H         1 71H         0.0331
     65 H19        24.8673  -26.5298    1.4080 H         1 71H         0.0571
     66 H20        24.0911  -26.9670    2.9678 H         1 71H         0.0571
     67 H21        27.2668  -25.6279    6.2929 H         1 71H         0.0587
     68 H22        25.4875  -26.8452    5.0852 H         1 71H         0.0547
     69 H23        28.6793  -24.0294    2.5903 H         1 71H         0.0587
     70 H24        26.8750  -25.2228    1.3897 H         1 71H         0.0547
     71 H25        21.7930  -34.4903    1.7174 H         1 71H         0.0304
     72 H26        21.9607  -33.9617    0.0089 H         1 71H         0.0304
     73 H27        28.1348  -35.7396    6.4268 H         1 71H         0.2034
     74 H28        28.9281  -34.9492    8.3970 H         1 71H         0.0812
     75 H29        28.6418  -33.2857    7.7825 H         1 71H         0.0812
     76 H30        30.9847  -33.9494    7.5198 H         1 71H         0.0281
     77 H31        30.1963  -33.7045    5.9245 H         1 71H         0.0281
     78 H32        30.4826  -35.3680    6.5390 H         1 71H         0.0281
     79 H33        26.8120  -35.8298    8.2118 H         1 71H         0.0812
     80 H34        25.9094  -35.7852    6.6593 H         1 71H         0.0812
     81 H35        24.8282  -34.4267    8.3661 H         1 71H         0.0281
     82 H36        25.4261  -33.4140    7.0084 H         1 71H         0.0281
     83 H37        26.3286  -33.4585    8.5608 H         1 71H         0.0281
     84 H38        31.1415  -31.4815    5.0734 H         1 71H         0.0200
     85 H39        29.7576  -30.5269    5.7062 H         1 71H         0.0200
     86 H40        34.9787  -28.2941    5.2636 H         1 71H         0.0897
     87 H41        31.8061  -25.4768    5.7758 H         1 71H         0.0897
@<TRIPOS>BOND
     1    1    4 1  
     2    5    1 1  
     3    1   31 am 
     4    2   16 1  
     5   26    2 2  
     6    4    3 1  
     7    3   33 1  
     8    6    5 1  
     9    7    6 1  
    10    8    6 1  
    11   38    6 1  
    12   39    7 1  
    13   39    8 1  
    14   40    9 ar 
    15    9   46 ar 
    16   41   10 ar 
    17   10   42 1  
    18   46   10 ar 
    19   40   11 ar 
    20   11   41 ar 
    21   12   30 1  
    22   31   12 1  
    23   13   14 1  
    24   13   28 2  
    25   30   13 1  
    26   14   29 1  
    27   28   15 1  
    28   15   29 1  
    29   16   27 2  
    30   28   16 1  
    31   17   24 1  
    32   25   17 1  
    33   19   18 1  
    34   20   19 ar 
    35   22   19 ar 
    36   21   20 ar 
    37   24   21 ar 
    38   23   22 ar 
    39   24   23 ar 
    40   26   25 1  
    41   30   26 1  
    42   31   32 2  
    43   33   34 1  
    44   33   36 1  
    45   34   35 1  
    46   36   37 1  
    47   39   38 1  
    48   39   40 1  
    49   42   43 1  
    50   42   44 1  
    51   42   45 1  
    52    3   47 1  
    53    3   48 1  
    54    4   49 1  
    55    4   50 1  
    56    5   51 1  
    57    5   52 1  
    58    7   53 1  
    59    7   54 1  
    60    8   55 1  
    61    8   56 1  
    62    9   57 1  
    63   11   58 1  
    64   12   59 1  
    65   12   60 1  
    66   14   61 1  
    67   14   62 1  
    68   15   63 1  
    69   15   64 1  
    70   17   65 1  
    71   17   66 1  
    72   20   67 1  
    73   21   68 1  
    74   22   69 1  
    75   23   70 1  
    76   29   71 1  
    77   29   72 1  
    78   33   73 1  
    79   34   74 1  
    80   34   75 1  
    81   35   76 1  
    82   35   77 1  
    83   35   78 1  
    84   36   79 1  
    85   36   80 1  
    86   37   81 1  
    87   37   82 1  
    88   37   83 1  
    89   38   84 1  
    90   38   85 1  
    91   41   86 1  
    92   46   87 1  
@<TRIPOS>SUBSTRUCTURE
     1 71H         1

