2wj1_ligand
  -I-interpret- 

 49 51  0  0  0  0  0  0  0  0999 V2000
    1.8240  -40.1690   13.7180 C   0  0  0  0  0
    0.9500  -40.2330   14.8150 C   0  0  0  0  0
    1.4310  -40.1330   16.1160 C   0  0  0  0  0
    2.8050  -39.9550   16.3460 C   0  0  0  0  0
    3.6970  -39.9010   15.2750 C   0  0  0  0  0
    3.2020  -40.0090   13.9590 C   0  0  0  0  0
    4.2130  -39.9180   12.7950 C   0  0  0  0  0
    3.5690  -39.8140   11.3870 C   0  0  0  0  0
    4.7170  -39.6620   10.3570 C   0  0  0  0  0
    4.2140  -39.5270    8.9170 C   0  0  0  0  0
    5.3550  -38.9560    8.0400 C   0  0  0  0  0
    5.2380  -37.4110    7.9600 C   0  0  0  0  0
    6.3420  -36.8060    7.0790 C   0  0  0  0  0
    7.5920  -37.1470    7.6100 O   0  0  0  0  0
    6.2500  -35.2840    7.0870 C   0  0  0  0  0
    5.3850  -34.5350    7.7660 N   0  0  0  0  0
    7.1150  -34.4780    6.4090 O   0  0  0  0  0
    6.7040  -33.1850    6.6730 C   0  0  0  0  0
    5.6540  -33.2390    7.4930 C   0  0  0  0  0
    4.9710  -32.1410    8.0100 C   0  0  0  0  0
    3.7480  -32.3270    8.6640 C   0  0  0  0  0
    3.0660  -31.2190    9.2010 C   0  0  0  0  0
    3.6610  -29.9590    9.0750 C   0  0  0  0  0
    4.8990  -29.8250    8.4320 C   0  0  0  0  0
    5.5070  -30.9010    7.9360 N   0  0  0  0  0
    1.4431  -40.2418   12.6993 H   0  0  0  0  0
   -0.1188  -40.3627   14.6448 H   0  0  0  0  0
    0.7411  -40.1928   16.9578 H   0  0  0  0  0
    3.1761  -39.8586   17.3663 H   0  0  0  0  0
    4.7651  -39.7767   15.4534 H   0  0  0  0  0
    4.7989  -40.8370   12.8098 H   0  0  0  0  0
    4.7930  -39.0078   12.9477 H   0  0  0  0  0
    2.8981  -38.9563   11.3381 H   0  0  0  0  0
    2.9801  -40.7055   11.1713 H   0  0  0  0  0
    5.3329  -40.5597   10.4110 H   0  0  0  0  0
    5.2665  -38.7535   10.6036 H   0  0  0  0  0
    3.3552  -38.8564    8.8876 H   0  0  0  0  0
    3.9115  -40.5035    8.5388 H   0  0  0  0  0
    5.2803  -39.3744    7.0363 H   0  0  0  0  0
    6.3152  -39.2211    8.4825 H   0  0  0  0  0
    5.3390  -37.0051    8.9665 H   0  0  0  0  0
    4.2717  -37.1607    7.5222 H   0  0  0  0  0
    6.2215  -37.1880    6.0653 H   0  0  0  0  0
    8.2846  -36.7707    7.0621 H   0  0  0  0  0
    7.1600  -32.2770    6.2785 H   0  0  0  0  0
    3.3247  -33.3271    8.7573 H   0  0  0  0  0
    2.1041  -31.3389    9.6996 H   0  0  0  0  0
    3.1601  -29.0789    9.4782 H   0  0  0  0  0
    5.3628  -28.8431    8.3382 H   0  0  0  0  0
  1  2  4  0  0  0
  1  6  4  0  0  0
  2  3  4  0  0  0
  3  4  4  0  0  0
  4  5  4  0  0  0
  5  6  4  0  0  0
  6  7  1  0  0  0
  7  8  1  0  0  0
  8  9  1  0  0  0
  9 10  1  0  0  0
 10 11  1  0  0  0
 11 12  1  0  0  0
 12 13  1  0  0  0
 13 14  1  0  0  0
 13 15  1  0  0  0
 15 16  4  0  0  0
 15 17  4  0  0  0
 16 19  4  0  0  0
 17 18  4  0  0  0
 18 19  4  0  0  0
 19 20  1  0  0  0
 20 21  4  0  0  0
 20 25  4  0  0  0
 21 22  4  0  0  0
 22 23  4  0  0  0
 23 24  4  0  0  0
 24 25  4  0  0  0
  1 26  1  0  0  0
  2 27  1  0  0  0
  3 28  1  0  0  0
  4 29  1  0  0  0
  5 30  1  0  0  0
  7 31  1  0  0  0
  7 32  1  0  0  0
  8 33  1  0  0  0
  8 34  1  0  0  0
  9 35  1  0  0  0
  9 36  1  0  0  0
 10 37  1  0  0  0
 10 38  1  0  0  0
 11 39  1  0  0  0
 11 40  1  0  0  0
 12 41  1  0  0  0
 12 42  1  0  0  0
 13 43  1  0  0  0
 14 44  1  0  0  0
 18 45  1  0  0  0
 21 46  1  0  0  0
 22 47  1  0  0  0
 23 48  1  0  0  0
 24 49  1  0  0  0
M  END
$$$$
