2xpb_ligand
  -I-interpret- 

 41 43  0  0  0  0  0  0  0  0999 V2000
   39.4070  -17.8470   12.7850 C   0  0  0  0  0
   39.3470  -19.2380   12.9100 C   0  0  0  0  0
   39.6560  -20.0070   14.4540 Cl  0  0  0  0  0
   39.0910  -20.0120   11.7750 C   0  0  0  0  0
   38.8920  -19.3970   10.5260 C   0  0  0  0  0
   38.9510  -18.0020   10.4380 C   0  0  0  0  0
   39.1760  -17.2240   11.5630 C   0  0  0  0  0
   39.2480  -15.8420   11.4880 C   0  0  0  0  0
   39.7830  -15.1150   12.4820 N   0  0  0  0  0
   38.8340  -14.9970   10.4890 N   0  0  0  0  0
   39.1440  -13.7380   10.8640 C   0  0  0  0  0
   38.8660  -12.4650    9.9880 C   0  0  0  0  0
   38.4260  -12.5990    8.8300 O   0  0  0  0  0
   39.0700  -11.3200   10.4500 O   0  0  0  0  0
   39.7390  -13.8140   12.1380 C   0  0  0  0  0
   40.3110  -12.7470   13.1350 C   0  0  0  0  0
   39.5500  -12.0730   13.8250 O   0  0  0  0  0
   41.6540  -12.7150   13.3110 N   0  0  0  0  0
   42.5210  -13.5960   12.4530 C   0  0  0  0  0
   42.2280  -11.8120   14.3560 C   0  0  0  0  0
   42.9650  -12.7190   15.3920 C   0  0  0  0  0
   42.2700  -13.7170   16.0980 C   0  0  0  0  0
   42.9290  -14.5400   17.0230 C   0  0  0  0  0
   44.3010  -14.4070   17.2490 C   0  0  0  0  0
   45.0130  -13.4180   16.5390 C   0  0  0  0  0
   44.3460  -12.5820   15.6170 C   0  0  0  0  0
   39.6388  -17.2401   13.6602 H   0  0  0  0  0
   39.0453  -21.0979   11.8582 H   0  0  0  0  0
   38.6946  -19.9988    9.6389 H   0  0  0  0  0
   38.8180  -17.5194    9.4698 H   0  0  0  0  0
   39.4060  -11.3930   11.3463 H   0  0  0  0  0
   42.2474  -14.6390   12.6126 H   0  0  0  0  0
   42.3747  -13.3370   11.4044 H   0  0  0  0  0
   43.5667  -13.4480   12.7227 H   0  0  0  0  0
   41.4404  -11.2354   14.8411 H   0  0  0  0  0
   42.9195  -11.0975   13.9095 H   0  0  0  0  0
   41.2027  -13.8531   15.9237 H   0  0  0  0  0
   42.3635  -15.2927   17.5723 H   0  0  0  0  0
   44.8118  -15.0555   17.9608 H   0  0  0  0  0
   46.0839  -13.2983   16.7029 H   0  0  0  0  0
   44.9079  -11.8222   15.0738 H   0  0  0  0  0
  1  2  4  0  0  0
  1  7  4  0  0  0
  2  3  1  0  0  0
  2  4  4  0  0  0
  4  5  4  0  0  0
  5  6  4  0  0  0
  6  7  4  0  0  0
  7  8  1  0  0  0
  8  9  4  0  0  0
  8 10  4  0  0  0
  9 15  4  0  0  0
 10 11  4  0  0  0
 11 12  1  0  0  0
 11 15  4  0  0  0
 12 13  2  0  0  0
 12 14  1  0  0  0
 15 16  1  0  0  0
 16 17  2  0  0  0
 16 18  1  0  0  0
 18 19  1  0  0  0
 18 20  1  0  0  0
 20 21  1  0  0  0
 21 22  4  0  0  0
 21 26  4  0  0  0
 22 23  4  0  0  0
 23 24  4  0  0  0
 24 25  4  0  0  0
 25 26  4  0  0  0
  1 27  1  0  0  0
  4 28  1  0  0  0
  5 29  1  0  0  0
  6 30  1  0  0  0
 14 31  1  0  0  0
 19 32  1  0  0  0
 19 33  1  0  0  0
 19 34  1  0  0  0
 20 35  1  0  0  0
 20 36  1  0  0  0
 22 37  1  0  0  0
 23 38  1  0  0  0
 24 39  1  0  0  0
 25 40  1  0  0  0
 26 41  1  0  0  0
M  END
$$$$
