6cjp_ligand
  -I-interpret- 

 61 64  0  0  0  0  0  0  0  0999 V2000
   19.6730   24.0080   52.9970 C   0  0  0  0  0
   22.0170   26.1340   54.0430 C   0  0  0  0  0
   24.5820   26.1800   54.2980 C   0  0  0  0  0
   25.2950   23.4560   52.8610 C   0  0  0  0  0
   16.7410   24.9390   55.8360 C   0  0  0  0  0
   16.3770   27.4220   55.9970 C   0  0  0  0  0
   15.3780   28.6500   54.1840 C   0  0  0  0  0
   14.5300   30.0860   52.3830 C   0  0  0  0  0
   21.6880   24.8640   48.5030 O   0  0  0  0  0
   20.7150   25.1940   49.4690 C   0  0  0  0  0
   20.6840   24.4920   50.6690 C   0  0  0  0  0
   21.7430   23.4000   50.8420 C   0  0  0  0  0
   22.4140   23.2780   52.0840 O   0  0  0  0  0
   23.2310   22.1550   52.2150 C   0  0  0  0  0
   23.2370   21.6650   53.6510 C   0  0  0  0  0
   22.0050   22.6690   49.9020 O   0  0  0  0  0
   19.7300   24.8040   51.6620 C   0  0  0  0  0
   19.8970   24.7330   54.3300 C   0  0  0  0  0
   21.2700   25.2550   54.7730 C   0  0  0  0  0
   23.3430   26.6190   54.6370 C   0  0  0  0  0
   24.8260   24.9300   53.1670 C   0  0  0  0  0
   25.9700   24.6240   52.2240 O   0  0  0  0  0
   24.6200   22.5800   51.8210 C   0  0  0  0  0
   18.8880   24.8710   55.1840 N   0  0  0  0  0
   17.6340   24.4040   54.8700 O   0  0  0  0  0
   16.2540   26.2540   55.2530 C   0  0  0  0  0
   15.9400   28.6230   55.4560 C   0  0  0  0  0
   14.9470   29.9130   53.7190 O   0  0  0  0  0
   15.2580   27.4720   53.4420 C   0  0  0  0  0
   15.7000   26.2720   53.9760 C   0  0  0  0  0
   18.7970   25.8170   51.3990 C   0  0  0  0  0
   18.8350   26.5180   50.1830 C   0  0  0  0  0
   17.9090   27.5490   49.9180 O   0  0  0  0  0
   19.7940   26.2080   49.2200 C   0  0  0  0  0
   20.4992   23.3004   52.9287 H   0  0  0  0  0
   18.6476   23.6426   53.0537 H   0  0  0  0  0
   21.6798   26.4806   53.0661 H   0  0  0  0  0
   25.4507   26.6434   54.7657 H   0  0  0  0  0
   25.5065   22.6230   53.5314 H   0  0  0  0  0
   17.2334   25.0860   56.7973 H   0  0  0  0  0
   15.9128   24.2588   56.0346 H   0  0  0  0  0
   16.8126   27.3947   56.9958 H   0  0  0  0  0
   15.3504   29.8319   51.7119 H   0  0  0  0  0
   13.6794   29.4347   52.1820 H   0  0  0  0  0
   14.2390   31.1247   52.2262 H   0  0  0  0  0
   21.5815   25.4318   47.7363 H   0  0  0  0  0
   22.8681   21.3417   51.5866 H   0  0  0  0  0
   23.6133   22.4546   54.3014 H   0  0  0  0  0
   22.2219   21.4010   53.9477 H   0  0  0  0  0
   23.8800   20.7886   53.7318 H   0  0  0  0  0
   21.6715   24.9044   55.7238 H   0  0  0  0  0
   23.2863   27.3902   55.4052 H   0  0  0  0  0
   23.8410   25.3664   53.3326 H   0  0  0  0  0
   25.2217   21.6782   51.7079 H   0  0  0  0  0
   24.5396   23.1606   50.9020 H   0  0  0  0  0
   16.0373   29.5456   56.0282 H   0  0  0  0  0
   14.8176   27.4969   52.4452 H   0  0  0  0  0
   15.6146   25.3500   53.4010 H   0  0  0  0  0
   18.0383   26.0616   52.1424 H   0  0  0  0  0
   18.0803   27.9154   49.0474 H   0  0  0  0  0
   19.8227   26.7559   48.2781 H   0  0  0  0  0
  1 17  1  0  0  0
 18  1  1  0  0  0
 19  2  2  0  0  0
  2 20  1  0  0  0
 20  3  2  0  0  0
  3 21  1  0  0  0
 21  4  1  0  0  0
 22  4  1  0  0  0
  4 23  1  0  0  0
 25  5  1  0  0  0
  5 26  1  0  0  0
 26  6  4  0  0  0
  6 27  4  0  0  0
 27  7  4  0  0  0
  7 28  1  0  0  0
  7 29  4  0  0  0
 28  8  1  0  0  0
 10  9  1  0  0  0
 11 10  4  0  0  0
 10 34  4  0  0  0
 11 12  1  0  0  0
 17 11  4  0  0  0
 12 13  1  0  0  0
 12 16  2  0  0  0
 13 14  1  0  0  0
 14 15  1  0  0  0
 14 23  1  0  0  0
 17 31  4  0  0  0
 18 19  1  0  0  0
 24 18  2  0  0  0
 21 22  1  0  0  0
 24 25  1  0  0  0
 26 30  4  0  0  0
 29 30  4  0  0  0
 31 32  4  0  0  0
 32 33  1  0  0  0
 32 34  4  0  0  0
  1 35  1  0  0  0
  1 36  1  0  0  0
  2 37  1  0  0  0
  3 38  1  0  0  0
  4 39  1  0  0  0
  5 40  1  0  0  0
  5 41  1  0  0  0
  6 42  1  0  0  0
  8 43  1  0  0  0
  8 44  1  0  0  0
  8 45  1  0  0  0
  9 46  1  0  0  0
 14 47  1  0  0  0
 15 48  1  0  0  0
 15 49  1  0  0  0
 15 50  1  0  0  0
 19 51  1  0  0  0
 20 52  1  0  0  0
 21 53  1  0  0  0
 23 54  1  0  0  0
 23 55  1  0  0  0
 27 56  1  0  0  0
 29 57  1  0  0  0
 30 58  1  0  0  0
 31 59  1  0  0  0
 33 60  1  0  0  0
 34 61  1  0  0  0
M  END
$$$$
