5m28_ligand
  -I-interpret- 

 66 68  0  0  0  0  0  0  0  0999 V2000
    7.9580   12.3370   38.6780 C   0  0  0  0  0
    7.9680   11.2730   37.5960 C   0  0  0  0  0
    9.3960   11.0050   37.1520 C   0  0  0  0  0
   10.0280   12.3080   36.6870 C   0  0  0  0  0
    9.9400   13.3660   37.7760 C   0  0  0  0  0
   10.4180   14.7150   37.3020 C   0  0  0  0  0
    8.6020   11.8710   39.8160 O   0  0  0  0  0
    7.3170   10.0800   38.0320 O   0  0  0  0  0
    9.3610   10.0690   36.0900 O   0  0  0  0  0
   11.4090   12.0560   36.3920 O   0  0  0  0  0
    8.5640   13.5250   38.1690 O   0  0  0  0  0
   10.4590   15.6430   38.3640 O   0  0  0  0  0
   11.8090   12.2520   35.0590 C   0  0  0  0  0
   12.6260   11.0530   34.6050 C   0  0  0  0  0
   14.0010   11.0230   35.2610 C   0  0  0  0  0
   14.6990   12.3730   35.1510 C   0  0  0  0  0
   13.7950   13.5100   35.6060 C   0  0  0  0  0
   14.4190   14.8580   35.3090 C   0  0  0  0  0
   11.9130    9.8660   34.9240 O   0  0  0  0  0
   14.7930   10.0240   34.6220 O   0  0  0  0  0
   15.8540   12.3520   36.0050 O   0  0  0  0  0
   12.5460   13.4530   34.8920 O   0  0  0  0  0
   13.6830   15.9480   35.8480 O   0  0  0  0  0
   17.1120   12.2400   35.3780 C   0  0  0  0  0
   17.9240   11.1350   36.0450 C   0  0  0  0  0
   18.2980   11.5170   37.4730 C   0  0  0  0  0
   19.0310   12.8480   37.4330 C   0  0  0  0  0
   18.1530   13.8960   36.7660 C   0  0  0  0  0
   18.8590   15.2200   36.6180 C   0  0  0  0  0
   17.1650    9.9350   36.0040 O   0  0  0  0  0
   19.1060   10.5150   38.0870 O   0  0  0  0  0
   19.3490   13.2640   38.7690 O   0  0  0  0  0
   17.8120   13.4700   35.4340 O   0  0  0  0  0
   17.9840   16.2510   36.2050 O   0  0  0  0  0
    6.9327   12.5714   38.9641 H   0  0  0  0  0
    7.4044   11.6404   36.7384 H   0  0  0  0  0
    9.9878   10.6040   37.9748 H   0  0  0  0  0
    9.4996   12.6716   35.8057 H   0  0  0  0  0
   10.5709   13.0297   38.5988 H   0  0  0  0  0
    9.7261   15.0831   36.5444 H   0  0  0  0  0
   11.4238   14.6053   36.8964 H   0  0  0  0  0
    8.1655   11.0740   40.1256 H   0  0  0  0  0
    6.4200   10.2874   38.3040 H   0  0  0  0  0
    8.9602    9.2527   36.3975 H   0  0  0  0  0
   10.7659   16.4910   38.0348 H   0  0  0  0  0
   10.9149   12.3467   34.4428 H   0  0  0  0  0
   12.7804   11.1279   33.5286 H   0  0  0  0  0
   13.8773   10.7946   36.3196 H   0  0  0  0  0
   14.9670   12.5390   34.1076 H   0  0  0  0  0
   13.6451   13.3980   36.6798 H   0  0  0  0  0
   14.4424   14.9792   34.2260 H   0  0  0  0  0
   15.4090   14.8709   35.7649 H   0  0  0  0  0
   12.4216    9.1027   34.6408 H   0  0  0  0  0
   15.6621    9.9976   35.0289 H   0  0  0  0  0
   14.1253   16.7712   35.6282 H   0  0  0  0  0
   16.9589   11.9860   34.3291 H   0  0  0  0  0
   18.8611   10.9863   35.5086 H   0  0  0  0  0
   17.3922   11.6043   38.0730 H   0  0  0  0  0
   19.9526   12.7345   36.8622 H   0  0  0  0  0
   17.2749   14.0119   37.4014 H   0  0  0  0  0
   19.6324   15.1080   35.8581 H   0  0  0  0  0
   19.2706   15.4944   37.5893 H   0  0  0  0  0
   17.6633    9.2282   36.4208 H   0  0  0  0  0
   19.3235   10.7851   38.9822 H   0  0  0  0  0
   19.8117   14.1046   38.7396 H   0  0  0  0  0
   18.4745   17.0722   36.1242 H   0  0  0  0  0
  1  2  1  0  0  0
  1  7  1  0  0  0
  1 11  1  0  0  0
  2  3  1  0  0  0
  2  8  1  0  0  0
  3  4  1  0  0  0
  3  9  1  0  0  0
  4  5  1  0  0  0
  4 10  1  0  0  0
  5  6  1  0  0  0
  5 11  1  0  0  0
  6 12  1  0  0  0
 10 13  1  0  0  0
 13 14  1  0  0  0
 13 22  1  0  0  0
 14 15  1  0  0  0
 14 19  1  0  0  0
 15 16  1  0  0  0
 15 20  1  0  0  0
 16 17  1  0  0  0
 16 21  1  0  0  0
 17 18  1  0  0  0
 17 22  1  0  0  0
 18 23  1  0  0  0
 21 24  1  0  0  0
 24 25  1  0  0  0
 24 33  1  0  0  0
 25 26  1  0  0  0
 25 30  1  0  0  0
 26 27  1  0  0  0
 26 31  1  0  0  0
 27 28  1  0  0  0
 27 32  1  0  0  0
 28 29  1  0  0  0
 28 33  1  0  0  0
 29 34  1  0  0  0
  1 35  1  0  0  0
  2 36  1  0  0  0
  3 37  1  0  0  0
  4 38  1  0  0  0
  5 39  1  0  0  0
  6 40  1  0  0  0
  6 41  1  0  0  0
  7 42  1  0  0  0
  8 43  1  0  0  0
  9 44  1  0  0  0
 12 45  1  0  0  0
 13 46  1  0  0  0
 14 47  1  0  0  0
 15 48  1  0  0  0
 16 49  1  0  0  0
 17 50  1  0  0  0
 18 51  1  0  0  0
 18 52  1  0  0  0
 19 53  1  0  0  0
 20 54  1  0  0  0
 23 55  1  0  0  0
 24 56  1  0  0  0
 25 57  1  0  0  0
 26 58  1  0  0  0
 27 59  1  0  0  0
 28 60  1  0  0  0
 29 61  1  0  0  0
 29 62  1  0  0  0
 30 63  1  0  0  0
 31 64  1  0  0  0
 32 65  1  0  0  0
 34 66  1  0  0  0
M  END
$$$$
