5yls_ligand
  -I-interpret- 

 52 54  0  0  0  0  0  0  0  0999 V2000
   16.9710  221.8660   47.4920 C   0  0  0  0  0
   16.6030  223.2680   47.4770 O   0  0  0  0  0
   17.0030  224.0200   46.3520 C   0  0  0  0  0
   16.7750  223.5300   45.0490 C   0  0  0  0  0
   17.1690  224.2930   43.9330 C   0  0  0  0  0
   17.7900  225.5500   44.1140 C   0  0  0  0  0
   18.1970  226.3470   42.7860 C   0  0  0  0  0
   18.4770  227.6530   42.7330 C   0  0  0  0  0
   18.7930  228.2590   41.3860 C   0  0  0  0  0
   19.6120  229.0930   41.2940 O   0  0  0  0  0
   18.0360  227.7960   40.1260 C   0  0  0  0  0
   18.7400  227.6560   38.9010 C   0  0  0  0  0
   18.0630  227.2220   37.7180 C   0  0  0  0  0
   16.6730  226.9170   37.7570 C   0  0  0  0  0
   16.0120  226.4750   36.5580 O   0  0  0  0  0
   16.1740  225.1020   36.3210 C   0  0  0  0  0
   15.9430  227.0500   39.0010 C   0  0  0  0  0
   14.5310  226.7580   39.0930 C   0  0  0  0  0
   13.7440  227.3560   40.1580 C   0  0  0  0  0
   14.4680  228.0500   41.3430 C   0  0  0  0  0
   13.7310  227.8330   42.6640 C   0  0  0  0  0
   14.4960  229.5620   41.2970 C   0  0  0  0  0
   15.8810  227.6220   41.4570 O   0  0  0  0  0
   16.6280  227.4860   40.1580 C   0  0  0  0  0
   18.0030  226.0660   45.4300 C   0  0  0  0  0
   17.6190  225.2910   46.5430 C   0  0  0  0  0
   17.8380  225.7950   47.8850 N   0  0  0  0  0
   16.5283  221.3662   46.6304 H   0  0  0  0  0
   18.0564  221.7761   47.4477 H   0  0  0  0  0
   16.6041  221.4052   48.4091 H   0  0  0  0  0
   16.2945  222.5621   44.9062 H   0  0  0  0  0
   16.9946  223.9132   42.9263 H   0  0  0  0  0
   18.2497  225.7821   41.8553 H   0  0  0  0  0
   18.4773  228.2633   43.6361 H   0  0  0  0  0
   19.8058  227.8812   38.8617 H   0  0  0  0  0
   18.6139  227.1244   36.7825 H   0  0  0  0  0
   17.2352  224.8749   36.2193 H   0  0  0  0  0
   15.7591  224.5389   37.1570 H   0  0  0  0  0
   15.6531  224.8291   35.4032 H   0  0  0  0  0
   14.4823  225.6856   39.2820 H   0  0  0  0  0
   14.1049  227.1615   38.1745 H   0  0  0  0  0
   13.2092  226.5208   40.6103 H   0  0  0  0  0
   13.1800  228.1525   39.6726 H   0  0  0  0  0
   12.7245  228.2445   42.5889 H   0  0  0  0  0
   13.6735  226.7652   42.8754 H   0  0  0  0  0
   14.2712  228.3350   43.4667 H   0  0  0  0  0
   15.0080  229.8873   40.3914 H   0  0  0  0  0
   13.4748  229.9431   41.2954 H   0  0  0  0  0
   15.0253  229.9411   42.1712 H   0  0  0  0  0
   18.4569  227.0469   45.5711 H   0  0  0  0  0
   17.5513  225.2400   48.6913 H   0  0  0  0  0
   18.2788  226.7045   48.0226 H   0  0  0  0  0
  1  2  1  0  0  0
  2  3  1  0  0  0
  3  4  4  0  0  0
  3 26  4  0  0  0
  4  5  4  0  0  0
  5  6  4  0  0  0
  6  7  1  0  0  0
  6 25  4  0  0  0
  7  8  2  0  0  0
  8  9  1  0  0  0
  9 10  2  0  0  0
  9 11  1  0  0  0
 11 12  4  0  0  0
 11 24  4  0  0  0
 12 13  4  0  0  0
 13 14  4  0  0  0
 14 15  1  0  0  0
 14 17  4  0  0  0
 15 16  1  0  0  0
 17 18  1  0  0  0
 17 24  4  0  0  0
 18 19  1  0  0  0
 19 20  1  0  0  0
 20 21  1  0  0  0
 20 22  1  0  0  0
 20 23  1  0  0  0
 23 24  1  0  0  0
 25 26  4  0  0  0
 26 27  1  0  0  0
  1 28  1  0  0  0
  1 29  1  0  0  0
  1 30  1  0  0  0
  4 31  1  0  0  0
  5 32  1  0  0  0
  7 33  1  0  0  0
  8 34  1  0  0  0
 12 35  1  0  0  0
 13 36  1  0  0  0
 16 37  1  0  0  0
 16 38  1  0  0  0
 16 39  1  0  0  0
 18 40  1  0  0  0
 18 41  1  0  0  0
 19 42  1  0  0  0
 19 43  1  0  0  0
 21 44  1  0  0  0
 21 45  1  0  0  0
 21 46  1  0  0  0
 22 47  1  0  0  0
 22 48  1  0  0  0
 22 49  1  0  0  0
 25 50  1  0  0  0
 27 51  1  0  0  0
 27 52  1  0  0  0
M  END
$$$$
