6au5_ligand
  -I-interpret- 

197197  0  0  0  0  0  0  0  0999 V2000
  -14.3500   34.4220   28.5960 N   0  3  0  0  0
  -13.9360   35.8170   28.5200 C   0  0  0  0  0
  -12.4510   35.9570   28.8400 C   0  0  0  0  0
  -11.9370   35.3070   29.7490 O   0  0  0  0  0
  -14.7760   36.6780   29.4680 C   0  0  0  0  0
  -14.4490   38.1600   29.4100 C   0  0  0  0  0
  -15.6090   39.0270   29.8580 C   0  0  0  0  0
  -16.7630   38.5960   29.8470 O   0  0  0  0  0
  -15.3090   40.2580   30.2520 N   0  0  0  0  0
  -11.7690   36.8130   28.0850 N   0  0  0  0  0
  -10.3270   36.9560   28.2230 C   0  0  0  0  0
   -9.9690   37.7350   29.4850 C   0  0  0  0  0
  -10.5740   38.7650   29.7950 O   0  0  0  0  0
   -9.7520   37.6480   26.9890 C   0  0  0  0  0
   -8.2830   37.9350   27.0850 C   0  0  0  0  0
   -7.3540   36.9240   26.9140 C   0  0  0  0  0
   -7.8300   39.2190   27.3420 C   0  0  0  0  0
   -6.0060   37.1850   27.0050 C   0  0  0  0  0
   -6.4800   39.4850   27.4330 C   0  0  0  0  0
   -5.5660   38.4670   27.2650 C   0  0  0  0  0
   -8.9720   37.2350   30.2110 N   0  0  0  0  0
   -8.5130   37.8380   31.4560 C   0  0  0  0  0
   -7.1300   38.4400   31.2440 C   0  0  0  0  0
   -6.2030   37.7450   30.8140 O   0  0  0  0  0
   -8.4730   36.8070   32.5860 C   0  0  0  0  0
   -8.1020   37.4210   33.9250 C   0  0  0  0  0
   -8.2590   38.6480   34.0780 O   0  0  0  0  0
   -7.6490   36.6770   34.8200 O   0  0  0  0  0
   -6.9910   39.7290   31.5620 N   0  0  0  0  0
   -5.7210   40.4180   31.3550 C   0  0  0  0  0
   -4.6510   39.9960   32.3560 C   0  0  0  0  0
   -3.4610   40.2100   32.0960 O   0  0  0  0  0
   -5.9280   41.9320   31.4250 C   0  0  0  0  0
   -6.8250   42.5530   30.3520 C   0  0  0  0  0
   -7.2390   43.9560   30.7540 C   0  0  0  0  0
   -6.1150   42.5730   29.0090 C   0  0  0  0  0
   -5.0370   39.3960   33.4840 N   0  0  0  0  0
   -4.0550   39.0510   34.5060 C   0  0  0  0  0
   -3.2720   37.7850   34.1680 C   0  0  0  0  0
   -2.0940   37.6780   34.5340 O   0  0  0  0  0
   -4.7470   38.9010   35.8640 C   0  0  0  0  0
   -5.4420   40.0840   36.2250 O   0  0  0  0  0
   -3.8920   36.8310   33.4740 N   0  0  0  0  0
   -3.2530   35.5470   33.1730 C   0  0  0  0  0
   -3.0970   35.3100   31.6720 C   0  0  0  0  0
   -2.3550   34.4120   31.2540 O   0  0  0  0  0
   -4.0530   34.3670   33.7550 C   0  0  0  0  0
   -5.3470   34.3250   33.1410 O   0  0  0  0  0
   -4.2160   34.5130   35.2520 C   0  0  0  0  0
   -3.8080   36.1150   30.8820 N   0  0  0  0  0
   -3.8940   35.9700   29.4090 C   0  0  0  0  0
   -4.5740   34.6600   29.0550 C   0  0  0  0  0
   -4.2250   34.0070   28.0500 O   0  0  0  0  0
   -2.5380   36.0520   28.7080 C   0  0  0  0  0
   -1.8670   37.3760   29.0470 C   0  0  0  0  0
   -0.5470   37.3900   28.2860 C   0  0  0  0  0
    0.2100   38.6260   28.5140 N   0  0  0  0  0
    1.1710   39.0360   27.6750 C   0  0  0  0  0
    1.4430   38.3160   26.5770 N   0  0  0  0  0
    1.8490   40.1660   27.9110 N   0  0  0  0  0
    2.6210   42.2170   28.9500 C   0  0  0  0  0
    1.6400   41.0500   29.0650 C   0  0  0  0  0
    2.4700   43.1770   30.1310 C   0  0  0  0  0
    3.4660   44.3260   29.9610 C   0  0  0  0  0
   -5.5590   34.2890   29.8600 N   0  0  0  0  0
   -6.2920   33.0530   29.6490 C   0  0  0  0  0
   -7.7910   33.3140   29.7140 C   0  0  0  0  0
   -8.2540   34.1700   30.4710 O   0  0  0  0  0
   -5.8860   32.0010   30.6840 C   0  0  0  0  0
   -4.4200   31.5840   30.6130 C   0  0  0  0  0
   -4.0770   30.9060   29.2880 C   0  0  0  0  0
   -5.0280   29.8560   28.9260 N   0  0  0  0  0
   -5.0070   28.6180   29.4130 C   0  0  0  0  0
   -4.0860   28.2630   30.2970 N   0  0  0  0  0
   -5.9150   27.7340   29.0180 N   0  0  0  0  0
   -8.5420   32.5830   28.8990 N   0  0  0  0  0
   -9.9930   32.6450   28.9680 C   0  0  0  0  0
  -10.4720   32.0490   30.2850 C   0  0  0  0  0
   -9.9500   31.0330   30.7540 O   0  0  0  0  0
  -10.6150   31.8950   27.7910 C   0  0  0  0  0
  -10.2910   32.4170   26.3900 C   0  0  0  0  0
  -10.8240   31.4650   25.3320 C   0  0  0  0  0
  -10.8660   33.8100   26.1940 C   0  0  0  0  0
  -11.4650   32.6920   30.8860 N   0  0  0  0  0
  -12.0140   32.2340   32.1550 C   0  0  0  0  0
  -13.5150   31.9960   32.0450 C   0  0  0  0  0
  -14.2850   32.9260   31.8040 O   0  0  0  0  0
  -11.7180   33.2460   33.2650 C   0  0  0  0  0
  -12.4410   32.9520   34.5690 C   0  0  0  0  0
  -12.1720   34.0180   35.6200 C   0  0  0  0  0
  -10.7910   33.8660   36.2360 C   0  0  0  0  0
  -10.6270   34.7470   37.4270 N   0  3  0  0  0
  -13.9870   30.8690   32.1950 O   0  0  0  0  0
  -13.7808   33.8645   27.9592 H   0  0  0  0  0
  -14.2258   34.0832   29.5501 H   0  0  0  0  0
  -15.3322   34.3452   28.3318 H   0  0  0  0  0
  -14.0989   36.1680   27.5010 H   0  0  0  0  0
  -14.5663   36.3402   30.4829 H   0  0  0  0  0
  -15.8182   36.5650   29.1694 H   0  0  0  0  0
  -14.2188   38.4138   28.3753 H   0  0  0  0  0
  -13.6105   38.3464   30.0810 H   0  0  0  0  0
  -16.0483   40.8887   30.5619 H   0  0  0  0  0
  -14.3391   40.5736   30.2449 H   0  0  0  0  0
  -12.2650   37.3795   27.3969 H   0  0  0  0  0
   -9.8907   35.9609   28.3100 H   0  0  0  0  0
  -10.2639   38.6047   26.8848 H   0  0  0  0  0
   -9.8973   36.9767   26.1427 H   0  0  0  0  0
   -7.6937   35.9096   26.7049 H   0  0  0  0  0
   -8.5487   40.0278   27.4737 H   0  0  0  0  0
   -5.2850   36.3785   26.8716 H   0  0  0  0  0
   -6.1361   40.4989   27.6375 H   0  0  0  0  0
   -4.4983   38.6740   27.3373 H   0  0  0  0  0
   -8.5069   36.3895   29.8804 H   0  0  0  0  0
   -9.2138   38.6215   31.7445 H   0  0  0  0  0
   -7.7148   36.0649   32.3360 H   0  0  0  0  0
   -9.4689   36.3741   32.6802 H   0  0  0  0  0
   -7.6104   35.7745   34.4952 H   0  0  0  0  0
   -7.7823   40.2389   31.9546 H   0  0  0  0  0
   -5.3646   40.1352   30.3645 H   0  0  0  0  0
   -4.9424   42.3766   31.2868 H   0  0  0  0  0
   -6.4221   42.1239   32.3774 H   0  0  0  0  0
   -7.7222   41.9413   30.2575 H   0  0  0  0  0
   -7.7870   43.9161   31.6954 H   0  0  0  0  0
   -6.3501   44.5750   30.8755 H   0  0  0  0  0
   -7.8764   44.3815   29.9789 H   0  0  0  0  0
   -5.2015   43.1619   29.0912 H   0  0  0  0  0
   -5.8662   41.5531   28.7158 H   0  0  0  0  0
   -6.7697   43.0183   28.2599 H   0  0  0  0  0
   -6.0224   39.1779   33.6320 H   0  0  0  0  0
   -3.3327   39.8662   34.5477 H   0  0  0  0  0
   -3.9869   38.7022   36.6195 H   0  0  0  0  0
   -5.4657   38.0842   35.7977 H   0  0  0  0  0
   -5.8637   39.9583   37.0782 H   0  0  0  0  0
   -4.8415   36.9999   33.1418 H   0  0  0  0  0
   -2.2668   35.5993   33.6343 H   0  0  0  0  0
   -3.5092   33.4443   33.5524 H   0  0  0  0  0
   -5.8477   33.5899   33.5024 H   0  0  0  0  0
   -3.2331   34.5374   35.7225 H   0  0  0  0  0
   -4.7475   35.4394   35.4697 H   0  0  0  0  0
   -4.7844   33.6671   35.6385 H   0  0  0  0  0
   -4.3251   36.8783   31.3183 H   0  0  0  0  0
   -4.4835   36.8141   29.0511 H   0  0  0  0  0
   -2.6831   35.9851   27.6298 H   0  0  0  0  0
   -1.9064   35.2295   29.0437 H   0  0  0  0  0
   -1.7030   37.4702   30.1205 H   0  0  0  0  0
   -2.4949   38.2197   28.7606 H   0  0  0  0  0
   -0.7683   37.3190   27.2211 H   0  0  0  0  0
    0.0562   36.5528   28.6372 H   0  0  0  0  0
   -0.0018   39.1906   29.3366 H   0  0  0  0  0
    0.9197   37.4619   26.3846 H   0  0  0  0  0
    2.5663   40.4337   27.2371 H   0  0  0  0  0
    2.4123   42.7603   28.0284 H   0  0  0  0  0
    3.6367   41.8216   28.9480 H   0  0  0  0  0
    1.8109   40.5045   29.9931 H   0  0  0  0  0
    0.6146   41.4196   29.0754 H   0  0  0  0  0
    2.6692   42.6498   31.0640 H   0  0  0  0  0
    1.4537   43.5698   30.1608 H   0  0  0  0  0
    4.4796   43.9258   29.9361 H   0  0  0  0  0
    3.2580   44.8504   29.0284 H   0  0  0  0  0
    3.3674   45.0174   30.7979 H   0  0  0  0  0
   -5.8088   34.8867   30.6479 H   0  0  0  0  0
   -6.0464   32.6691   28.6589 H   0  0  0  0  0
   -6.4828   31.1104   30.4874 H   0  0  0  0  0
   -6.0473   32.4404   31.6684 H   0  0  0  0  0
   -4.2302   30.8730   31.4171 H   0  0  0  0  0
   -3.8073   32.4809   30.7038 H   0  0  0  0  0
   -3.0949   30.4451   29.3933 H   0  0  0  0  0
   -4.1054   31.6658   28.5070 H   0  0  0  0  0
   -5.7584   30.0888   28.2532 H   0  0  0  0  0
   -3.3889   28.9400   30.6071 H   0  0  0  0  0
   -5.9017   26.7862   29.3948 H   0  0  0  0  0
   -6.6260   28.0025   28.3377 H   0  0  0  0  0
   -8.0957   31.9705   28.2163 H   0  0  0  0  0
  -10.3047   33.6881   28.9149 H   0  0  0  0  0
  -11.6938   31.9994   27.9067 H   0  0  0  0  0
  -10.2108   30.8836   27.8339 H   0  0  0  0  0
   -9.2076   32.4757   26.2856 H   0  0  0  0  0
  -10.3635   30.4855   25.4613 H   0  0  0  0  0
  -11.9053   31.3762   25.4366 H   0  0  0  0  0
  -10.5841   31.8529   24.3420 H   0  0  0  0  0
  -11.9484   33.7756   26.3179 H   0  0  0  0  0
  -10.4358   34.4865   26.9325 H   0  0  0  0  0
  -10.6248   34.1635   25.1915 H   0  0  0  0  0
  -11.8534   33.5276   30.4486 H   0  0  0  0  0
  -11.5350   31.2879   32.4072 H   0  0  0  0  0
  -13.7836   33.7395   31.7120 H   0  0  0  0  0
  -12.0586   34.2209   32.9163 H   0  0  0  0  0
  -10.6481   33.2024   33.4687 H   0  0  0  0  0
  -12.0811   31.9968   34.9513 H   0  0  0  0  0
  -13.5123   32.9324   34.3687 H   0  0  0  0  0
  -12.9140   33.9141   36.4117 H   0  0  0  0  0
  -12.2277   34.9949   35.1397 H   0  0  0  0  0
  -10.0468   34.1484   35.4914 H   0  0  0  0  0
  -10.6647   32.8303   36.5514 H   0  0  0  0  0
   -9.6923   34.6211   37.8154 H   0  0  0  0  0
  -10.7525   35.7202   37.1484 H   0  0  0  0  0
  -11.3243   34.5005   38.1294 H   0  0  0  0  0
  1  2  1  0  0  0
  2  3  1  0  0  0
  2  5  1  0  0  0
  3  4  2  0  0  0
  3 10  1  0  0  0
  5  6  1  0  0  0
  6  7  1  0  0  0
  7  8  2  0  0  0
  7  9  1  0  0  0
 10 11  1  0  0  0
 11 12  1  0  0  0
 11 14  1  0  0  0
 12 13  2  0  0  0
 12 21  1  0  0  0
 14 15  1  0  0  0
 15 16  4  0  0  0
 15 17  4  0  0  0
 16 18  4  0  0  0
 17 19  4  0  0  0
 18 20  4  0  0  0
 19 20  4  0  0  0
 21 22  1  0  0  0
 22 23  1  0  0  0
 22 25  1  0  0  0
 23 24  2  0  0  0
 23 29  1  0  0  0
 25 26  1  0  0  0
 26 27  2  0  0  0
 26 28  1  0  0  0
 29 30  1  0  0  0
 30 31  1  0  0  0
 30 33  1  0  0  0
 31 32  2  0  0  0
 31 37  1  0  0  0
 33 34  1  0  0  0
 34 35  1  0  0  0
 34 36  1  0  0  0
 37 38  1  0  0  0
 38 39  1  0  0  0
 38 41  1  0  0  0
 39 40  2  0  0  0
 39 43  1  0  0  0
 41 42  1  0  0  0
 43 44  1  0  0  0
 44 45  1  0  0  0
 44 47  1  0  0  0
 45 46  2  0  0  0
 45 50  1  0  0  0
 47 48  1  0  0  0
 47 49  1  0  0  0
 50 51  1  0  0  0
 51 52  1  0  0  0
 51 54  1  0  0  0
 52 53  2  0  0  0
 52 65  1  0  0  0
 54 55  1  0  0  0
 55 56  1  0  0  0
 56 57  1  0  0  0
 57 58  1  0  0  0
 58 59  2  0  0  0
 58 60  1  0  0  0
 60 62  1  0  0  0
 62 61  1  0  0  0
 61 63  1  0  0  0
 63 64  1  0  0  0
 65 66  1  0  0  0
 66 67  1  0  0  0
 66 69  1  0  0  0
 67 68  2  0  0  0
 67 76  1  0  0  0
 69 70  1  0  0  0
 70 71  1  0  0  0
 71 72  1  0  0  0
 72 73  1  0  0  0
 73 74  2  0  0  0
 73 75  1  0  0  0
 76 77  1  0  0  0
 77 78  1  0  0  0
 77 80  1  0  0  0
 78 79  2  0  0  0
 78 84  1  0  0  0
 80 81  1  0  0  0
 81 82  1  0  0  0
 81 83  1  0  0  0
 84 85  1  0  0  0
 85 86  1  0  0  0
 85 88  1  0  0  0
 86 87  1  0  0  0
 86 93  2  0  0  0
 88 89  1  0  0  0
 89 90  1  0  0  0
 90 91  1  0  0  0
 91 92  1  0  0  0
  1 94  1  0  0  0
  1 95  1  0  0  0
  1 96  1  0  0  0
  2 97  1  0  0  0
  5 98  1  0  0  0
  5 99  1  0  0  0
  6100  1  0  0  0
  6101  1  0  0  0
  9102  1  0  0  0
  9103  1  0  0  0
 10104  1  0  0  0
 11105  1  0  0  0
 14106  1  0  0  0
 14107  1  0  0  0
 16108  1  0  0  0
 17109  1  0  0  0
 18110  1  0  0  0
 19111  1  0  0  0
 20112  1  0  0  0
 21113  1  0  0  0
 22114  1  0  0  0
 25115  1  0  0  0
 25116  1  0  0  0
 28117  1  0  0  0
 29118  1  0  0  0
 30119  1  0  0  0
 33120  1  0  0  0
 33121  1  0  0  0
 34122  1  0  0  0
 35123  1  0  0  0
 35124  1  0  0  0
 35125  1  0  0  0
 36126  1  0  0  0
 36127  1  0  0  0
 36128  1  0  0  0
 37129  1  0  0  0
 38130  1  0  0  0
 41131  1  0  0  0
 41132  1  0  0  0
 42133  1  0  0  0
 43134  1  0  0  0
 44135  1  0  0  0
 47136  1  0  0  0
 48137  1  0  0  0
 49138  1  0  0  0
 49139  1  0  0  0
 49140  1  0  0  0
 50141  1  0  0  0
 51142  1  0  0  0
 54143  1  0  0  0
 54144  1  0  0  0
 55145  1  0  0  0
 55146  1  0  0  0
 56147  1  0  0  0
 56148  1  0  0  0
 57149  1  0  0  0
 59150  1  0  0  0
 60151  1  0  0  0
 61152  1  0  0  0
 61153  1  0  0  0
 62154  1  0  0  0
 62155  1  0  0  0
 63156  1  0  0  0
 63157  1  0  0  0
 64158  1  0  0  0
 64159  1  0  0  0
 64160  1  0  0  0
 65161  1  0  0  0
 66162  1  0  0  0
 69163  1  0  0  0
 69164  1  0  0  0
 70165  1  0  0  0
 70166  1  0  0  0
 71167  1  0  0  0
 71168  1  0  0  0
 72169  1  0  0  0
 74170  1  0  0  0
 75171  1  0  0  0
 75172  1  0  0  0
 76173  1  0  0  0
 77174  1  0  0  0
 80175  1  0  0  0
 80176  1  0  0  0
 81177  1  0  0  0
 82178  1  0  0  0
 82179  1  0  0  0
 82180  1  0  0  0
 83181  1  0  0  0
 83182  1  0  0  0
 83183  1  0  0  0
 84184  1  0  0  0
 85185  1  0  0  0
 87186  1  0  0  0
 88187  1  0  0  0
 88188  1  0  0  0
 89189  1  0  0  0
 89190  1  0  0  0
 90191  1  0  0  0
 90192  1  0  0  0
 91193  1  0  0  0
 91194  1  0  0  0
 92195  1  0  0  0
 92196  1  0  0  0
 92197  1  0  0  0
M  END
$$$$
