### 
### Created by X-TOOL on Mon Sep 10 21:13:32 2018
### 

@<TRIPOS>MOLECULE
6au5_ligand
  197   197     1     0     0
SMALL
GAST_HUCK


@<TRIPOS>ATOM
      1 N         -14.3500   34.4220   28.5960 N.4       1 GLN         0.2380
      2 CA        -13.9360   35.8170   28.5200 C.3       1 GLN         0.0671
      3 C         -12.4510   35.9570   28.8400 C.2       1 GLN         0.2270
      4 O         -11.9370   35.3070   29.7490 O.2       1 GLN        -0.3907
      5 CB        -14.7760   36.6780   29.4680 C.3       1 GLN         0.0247
      6 CG        -14.4490   38.1600   29.4100 C.3       1 GLN         0.0443
      7 CD        -15.6090   39.0270   29.8580 C.2       1 GLN         0.1738
      8 OE1       -16.7630   38.5960   29.8470 O.2       1 GLN        -0.3973
      9 NE2       -15.3090   40.2580   30.2520 N.am      1 GLN        -0.3009
     10 N         -11.7690   36.8130   28.0850 N.am      1 PHE        -0.2592
     11 CA        -10.3270   36.9560   28.2230 C.3       1 PHE         0.1406
     12 C          -9.9690   37.7350   29.4850 C.2       1 PHE         0.2060
     13 O         -10.5740   38.7650   29.7950 O.2       1 PHE        -0.3942
     14 CB         -9.7520   37.6480   26.9890 C.3       1 PHE         0.0214
     15 CG         -8.2830   37.9350   27.0850 C.ar      1 PHE        -0.0386
     16 CD1        -7.3540   36.9240   26.9140 C.ar      1 PHE        -0.0601
     17 CD2        -7.8300   39.2190   27.3420 C.ar      1 PHE        -0.0601
     18 CE1        -6.0060   37.1850   27.0050 C.ar      1 PHE        -0.0686
     19 CE2        -6.4800   39.4850   27.4330 C.ar      1 PHE        -0.0686
     20 CZ         -5.5660   38.4670   27.2650 C.ar      1 PHE        -0.0687
     21 N          -8.9720   37.2350   30.2110 N.am      1 ASP        -0.2620
     22 CA         -8.5130   37.8380   31.4560 C.3       1 ASP         0.1423
     23 C          -7.1300   38.4400   31.2440 C.2       1 ASP         0.2056
     24 O          -6.2030   37.7450   30.8140 O.2       1 ASP        -0.3943
     25 CB         -8.4730   36.8070   32.5860 C.3       1 ASP         0.0406
     26 CG         -8.1020   37.4210   33.9250 C.2       1 ASP         0.0393
     27 OD1        -8.2590   38.6480   34.0780 O.co2     1 ASP        -0.5688
     28 OD2        -7.6490   36.6770   34.8200 O.co2     1 ASP        -0.5688
     29 N          -6.9910   39.7290   31.5620 N.am      1 LEU        -0.2636
     30 CA         -5.7210   40.4180   31.3550 C.3       1 LEU         0.1312
     31 C          -4.6510   39.9960   32.3560 C.2       1 LEU         0.2040
     32 O          -3.4610   40.2100   32.0960 O.2       1 LEU        -0.3944
     33 CB         -5.9280   41.9320   31.4250 C.3       1 LEU        -0.0101
     34 CG         -6.8250   42.5530   30.3520 C.3       1 LEU        -0.0425
     35 CD1        -7.2390   43.9560   30.7540 C.3       1 LEU        -0.0625
     36 CD2        -6.1150   42.5730   29.0090 C.3       1 LEU        -0.0625
     37 N          -5.0370   39.3960   33.4840 N.am      1 SER        -0.2616
     38 CA         -4.0550   39.0510   34.5060 C.3       1 SER         0.1539
     39 C          -3.2720   37.7850   34.1680 C.2       1 SER         0.2063
     40 O          -2.0940   37.6780   34.5340 O.2       1 SER        -0.3943
     41 CB         -4.7470   38.9010   35.8640 C.3       1 SER         0.0843
     42 OG         -5.4420   40.0840   36.2250 O.3       1 SER        -0.3903
     43 N          -3.8920   36.8310   33.4740 N.am      1 THR        -0.2613
     44 CA         -3.2530   35.5470   33.1730 C.3       1 THR         0.1565
     45 C          -3.0970   35.3100   31.6720 C.2       1 THR         0.2065
     46 O          -2.3550   34.4120   31.2540 O.2       1 THR        -0.3943
     47 CB         -4.0530   34.3670   33.7550 C.3       1 THR         0.0924
     48 OG1        -5.3470   34.3250   33.1410 O.3       1 THR        -0.3874
     49 CG2        -4.2160   34.5130   35.2520 C.3       1 THR        -0.0346
     50 N          -3.8080   36.1150   30.8820 N.am      1 BWV        -0.2636
     51 CA         -3.8940   35.9700   29.4090 C.3       1 BWV         0.1311
     52 C          -4.5740   34.6600   29.0550 C.2       1 BWV         0.2039
     53 O          -4.2250   34.0070   28.0500 O.2       1 BWV        -0.3944
     54 CB         -2.5380   36.0520   28.7080 C.3       1 BWV        -0.0092
     55 CG         -1.8670   37.3760   29.0470 C.3       1 BWV        -0.0156
     56 CD         -0.5470   37.3900   28.2860 C.3       1 BWV         0.0627
     57 NE          0.2100   38.6260   28.5140 N.pl3     1 BWV        -0.2722
     58 CZ          1.1710   39.0360   27.6750 C.cat     1 BWV         0.2903
     59 NH1         1.4430   38.3160   26.5770 N.pl3     1 BWV        -0.2848
     60 NH2         1.8490   40.1660   27.9110 N.pl3     1 BWV        -0.2722
     61 C01         2.6210   42.2170   28.9500 C.3       1 BWV        -0.0200
     62 C02         1.6400   41.0500   29.0650 C.3       1 BWV         0.0625
     63 C03         2.4700   43.1770   30.1310 C.3       1 BWV        -0.0527
     64 C04         3.4660   44.3260   29.9610 C.3       1 BWV        -0.0652
     65 N          -5.5590   34.2890   29.8600 N.am      1 ARG        -0.2637
     66 CA         -6.2920   33.0530   29.6490 C.3       1 ARG         0.1311
     67 C          -7.7910   33.3140   29.7140 C.2       1 ARG         0.2039
     68 O          -8.2540   34.1700   30.4710 O.2       1 ARG        -0.3944
     69 CB         -5.8860   32.0010   30.6840 C.3       1 ARG        -0.0092
     70 CG         -4.4200   31.5840   30.6130 C.3       1 ARG        -0.0156
     71 CD         -4.0770   30.9060   29.2880 C.3       1 ARG         0.0627
     72 NE         -5.0280   29.8560   28.9260 N.pl3     1 ARG        -0.2723
     73 CZ         -5.0070   28.6180   29.4130 C.cat     1 ARG         0.2882
     74 NH1        -4.0860   28.2630   30.2970 N.pl3     1 ARG        -0.2849
     75 NH2        -5.9150   27.7340   29.0180 N.pl3     1 ARG        -0.2849
     76 N          -8.5420   32.5830   28.8990 N.am      1 LEU        -0.2637
     77 CA         -9.9930   32.6450   28.9680 C.3       1 LEU         0.1312
     78 C         -10.4720   32.0490   30.2850 C.2       1 LEU         0.2033
     79 O          -9.9500   31.0330   30.7540 O.2       1 LEU        -0.3944
     80 CB        -10.6150   31.8950   27.7910 C.3       1 LEU        -0.0101
     81 CG        -10.2910   32.4170   26.3900 C.3       1 LEU        -0.0425
     82 CD1       -10.8240   31.4650   25.3320 C.3       1 LEU        -0.0625
     83 CD2       -10.8660   33.8100   26.1940 C.3       1 LEU        -0.0625
     84 N         -11.4650   32.6920   30.8860 N.am      1 LYS        -0.2695
     85 CA        -12.0140   32.2340   32.1550 C.3       1 LYS         0.0944
     86 C         -13.5150   31.9960   32.0450 C.2       1 LYS         0.0601
     87 O         -14.2850   32.9260   31.8040 O.co2     1 LYS        -0.5666
     88 CB        -11.7180   33.2460   33.2650 C.3       1 LYS        -0.0177
     89 CG        -12.4410   32.9520   34.5690 C.3       1 LYS        -0.0446
     90 CD        -12.1720   34.0180   35.6200 C.3       1 LYS        -0.0125
     91 CE        -10.7910   33.8660   36.2360 C.3       1 LYS        -0.0354
     92 NZ        -10.6270   34.7470   37.4270 N.4       1 LYS         0.2185
     93 OXT       -13.9870   30.8690   32.1950 O.co2     1 LYS        -0.5666
     94 H1        -15.3324   34.3509   28.3817 H         1 GLN         0.2015
     95 H2        -14.1830   34.0721   29.5264 H         1 GLN         0.2015
     96 H3        -13.8212   33.8779   27.9324 H         1 GLN         0.2015
     97 H4        -14.1024   36.1714   27.4921 H         1 GLN         0.1100
     98 H5        -14.6064   36.3264   30.4964 H         1 GLN         0.0370
     99 H6        -15.8363   36.5473   29.2060 H         1 GLN         0.0370
    100 H7        -14.1904   38.4242   28.3740 H         1 GLN         0.0506
    101 H8        -13.5874   38.3573   30.0647 H         1 GLN         0.0506
    102 H9        -16.0335   40.8754   30.5584 H         1 GLN         0.1814
    103 H10       -14.3584   40.5683   30.2425 H         1 GLN         0.1814
    104 H11       -12.2553   37.3684   27.4104 H         1 PHE         0.1886
    105 H12        -9.8842   35.9520   28.2994 H         1 PHE         0.0823
    106 H13       -10.2829   38.6009   26.8468 H         1 PHE         0.0474
    107 H14        -9.9223   36.9996   26.1169 H         1 PHE         0.0474
    108 H15        -7.6918   35.9152   26.7060 H         1 PHE         0.0557
    109 H16        -8.5448   40.0234   27.4730 H         1 PHE         0.0557
    110 H17        -5.2890   36.3829   26.8723 H         1 PHE         0.0599
    111 H18        -6.1380   40.4933   27.6364 H         1 PHE         0.0599
    112 H19        -4.5042   38.6729   27.3369 H         1 PHE         0.0559
    113 H20        -8.5160   36.4061   29.8869 H         1 ASP         0.1884
    114 H21        -9.2112   38.6397   31.7385 H         1 ASP         0.0819
    115 H22        -7.7294   36.0366   32.3337 H         1 ASP         0.0478
    116 H23        -9.4663   36.3428   32.6746 H         1 ASP         0.0478
    117 H24        -7.7668   40.2289   31.9469 H         1 LEU         0.1883
    118 H25        -5.3601   40.1631   30.3477 H         1 LEU         0.0800
    119 H26        -4.9391   42.4076   31.3489 H         1 LEU         0.0315
    120 H27        -6.3715   42.1629   32.4048 H         1 LEU         0.0315
    121 H28        -7.7311   41.9366   30.2569 H         1 LEU         0.0298
    122 H29        -7.8823   44.3865   29.9725 H         1 LEU         0.0232
    123 H30        -6.3427   44.5817   30.8769 H         1 LEU         0.0232
    124 H31        -7.7922   43.9171   31.7040 H         1 LEU         0.0232
    125 H32        -5.8224   41.5490   28.7337 H         1 LEU         0.0232
    126 H33        -5.2172   43.2047   29.0782 H         1 LEU         0.0232
    127 H34        -6.7913   42.9796   28.2427 H         1 LEU         0.0232
    128 H35        -6.0030   39.1822   33.6291 H         1 SER         0.1884
    129 H36        -3.3361   39.8807   34.5750 H         1 SER         0.0823
    130 H37        -3.9882   38.6840   36.6302 H         1 SER         0.0606
    131 H38        -5.4630   38.0677   35.8106 H         1 SER         0.0606
    132 H39        -4.8281   40.8071   36.2773 H         1 SER         0.2097
    133 H40        -4.8229   36.9966   33.1483 H         1 THR         0.1884
    134 H41        -2.2529   35.5545   33.6309 H         1 THR         0.0826
    135 H42        -3.5174   33.4302   33.5419 H         1 THR         0.0639
    136 H43        -5.8425   33.5976   33.4986 H         1 THR         0.2101
    137 H44        -4.7895   33.6598   35.6433 H         1 THR         0.0257
    138 H45        -4.7524   35.4476   35.4730 H         1 THR         0.0257
    139 H46        -3.2247   34.5377   35.7281 H         1 THR         0.0257
    140 H47        -4.3150   36.8634   31.3097 H         1 BWV         0.1883
    141 H48        -4.5149   36.7952   29.0301 H         1 BWV         0.0800
    142 H49        -2.6837   35.9835   27.6199 H         1 BWV         0.0313
    143 H50        -1.9005   35.2216   29.0456 H         1 BWV         0.0313
    144 H51        -1.6839   37.4447   30.1295 H         1 BWV         0.0301
    145 H52        -2.5000   38.2171   28.7280 H         1 BWV         0.0301
    146 H53        -0.7570   37.2964   27.2103 H         1 BWV         0.0689
    147 H54         0.0618   36.5355   28.6165 H         1 BWV         0.0689
    148 H55        -0.0039   39.1962   29.3447 H         1 BWV         0.2642
    149 H56         2.1804   38.6254   25.9279 H         1 BWV         0.2615
    150 H57         0.9145   37.4535   26.3827 H         1 BWV         0.2615
    151 H58         2.5734   40.4364   27.2305 H         1 BWV         0.2642
    152 H59         2.4236   42.7624   28.0154 H         1 BWV         0.0299
    153 H60         3.6481   41.8236   28.9351 H         1 BWV         0.0299
    154 H61         1.8257   40.4968   29.9975 H         1 BWV         0.0689
    155 H62         0.6073   41.4289   29.0628 H         1 BWV         0.0689
    156 H63         2.6775   42.6435   31.0703 H         1 BWV         0.0264
    157 H64         1.4453   43.5762   30.1546 H         1 BWV         0.0264
    158 H65         3.3675   45.0245   30.8050 H         1 BWV         0.0230
    159 H66         3.2572   44.8561   29.0201 H         1 BWV         0.0230
    160 H67         4.4894   43.9235   29.9358 H         1 BWV         0.0230
    161 H68        -5.8039   34.8749   30.6325 H         1 ARG         0.1883
    162 H69        -6.0471   32.6685   28.6479 H         1 ARG         0.0800
    163 H70        -6.5066   31.1064   30.5277 H         1 ARG         0.0313
    164 H71        -6.0794   32.4110   31.6862 H         1 ARG         0.0313
    165 H72        -4.2109   30.8828   31.4343 H         1 ARG         0.0301
    166 H73        -3.7910   32.4793   30.7261 H         1 ARG         0.0301
    167 H74        -3.0751   30.4595   29.3707 H         1 ARG         0.0689
    168 H75        -4.0748   31.6672   28.4939 H         1 ARG         0.0689
    169 H76        -5.7656   30.0911   28.2466 H         1 ARG         0.2642
    170 H77        -4.0740   27.3034   30.6710 H         1 ARG         0.2615
    171 H78        -3.3821   28.9467   30.6101 H         1 ARG         0.2615
    172 H79        -6.6330   28.0051   28.3310 H         1 ARG         0.2615
    173 H80        -5.9016   26.7769   29.3985 H         1 ARG         0.2615
    174 H81        -8.1045   31.9826   28.2296 H         1 LEU         0.1883
    175 H82       -10.3057   33.6985   28.9201 H         1 LEU         0.0800
    176 H83       -11.7075   31.9299   27.9144 H         1 LEU         0.0315
    177 H84       -10.2732   30.8508   27.8440 H         1 LEU         0.0315
    178 H85        -9.1976   32.4753   26.2853 H         1 LEU         0.0298
    179 H86       -10.5825   31.8554   24.3324 H         1 LEU         0.0232
    180 H87       -11.9153   31.3745   25.4364 H         1 LEU         0.0232
    181 H88       -10.3600   30.4761   25.4613 H         1 LEU         0.0232
    182 H89       -10.4688   34.4829   26.9682 H         1 LEU         0.0232
    183 H90       -11.9624   33.7684   26.2718 H         1 LEU         0.0232
    184 H91       -10.5830   34.1871   25.2002 H         1 LEU         0.0232
    185 H92       -11.8458   33.5112   30.4571 H         1 LYS         0.1875
    186 H93       -11.5308   31.2809   32.4160 H         1 LYS         0.0726
    187 H94       -12.0234   34.2434   32.9160 H         1 LYS         0.0305
    188 H95       -10.6354   33.2412   33.4596 H         1 LYS         0.0305
    189 H96       -12.0996   31.9796   34.9535 H         1 LYS         0.0269
    190 H97       -13.5228   32.9099   34.3741 H         1 LYS         0.0269
    191 H98       -12.9278   33.9335   36.4147 H         1 LYS         0.0317
    192 H99       -12.2447   35.0093   35.1488 H         1 LYS         0.0317
    193 H100      -10.0328   34.1340   35.4855 H         1 LYS         0.0813
    194 H101      -10.6492   32.8193   36.5429 H         1 LYS         0.0813
    195 H102       -9.7035   34.6234   37.8117 H         1 LYS         0.1994
    196 H103      -11.3156   34.5043   38.1219 H         1 LYS         0.1994
    197 H104      -10.7508   35.7091   37.1529 H         1 LYS         0.1994
@<TRIPOS>BOND
     1    1    2 1  
     2    2    3 1  
     3    2    5 1  
     4    3    4 2  
     5    3   10 am 
     6    5    6 1  
     7    6    7 1  
     8    7    8 2  
     9    7    9 am 
    10   10   11 1  
    11   11   12 1  
    12   11   14 1  
    13   12   13 2  
    14   12   21 am 
    15   14   15 1  
    16   15   16 ar 
    17   15   17 ar 
    18   16   18 ar 
    19   17   19 ar 
    20   18   20 ar 
    21   19   20 ar 
    22   21   22 1  
    23   22   23 1  
    24   22   25 1  
    25   23   24 2  
    26   23   29 am 
    27   25   26 1  
    28   26   27 ar 
    29   26   28 ar 
    30   29   30 1  
    31   30   31 1  
    32   30   33 1  
    33   31   32 2  
    34   31   37 am 
    35   33   34 1  
    36   34   35 1  
    37   34   36 1  
    38   37   38 1  
    39   38   39 1  
    40   38   41 1  
    41   39   40 2  
    42   39   43 am 
    43   41   42 1  
    44   43   44 1  
    45   44   45 1  
    46   44   47 1  
    47   45   46 2  
    48   45   50 am 
    49   47   48 1  
    50   47   49 1  
    51   50   51 1  
    52   51   52 1  
    53   51   54 1  
    54   52   53 2  
    55   52   65 am 
    56   54   55 1  
    57   55   56 1  
    58   56   57 1  
    59   57   58 ar 
    60   58   59 ar 
    61   58   60 ar 
    62   60   62 1  
    63   62   61 1  
    64   61   63 1  
    65   63   64 1  
    66   65   66 1  
    67   66   67 1  
    68   66   69 1  
    69   67   68 2  
    70   67   76 am 
    71   69   70 1  
    72   70   71 1  
    73   71   72 1  
    74   72   73 ar 
    75   73   74 ar 
    76   73   75 ar 
    77   76   77 1  
    78   77   78 1  
    79   77   80 1  
    80   78   79 2  
    81   78   84 am 
    82   80   81 1  
    83   81   82 1  
    84   81   83 1  
    85   84   85 1  
    86   85   86 1  
    87   85   88 1  
    88   86   87 ar 
    89   86   93 ar 
    90   88   89 1  
    91   89   90 1  
    92   90   91 1  
    93   91   92 1  
    94    1   94 1  
    95    1   95 1  
    96    1   96 1  
    97    2   97 1  
    98    5   98 1  
    99    5   99 1  
   100    6  100 1  
   101    6  101 1  
   102    9  102 1  
   103    9  103 1  
   104   10  104 1  
   105   11  105 1  
   106   14  106 1  
   107   14  107 1  
   108   16  108 1  
   109   17  109 1  
   110   18  110 1  
   111   19  111 1  
   112   20  112 1  
   113   21  113 1  
   114   22  114 1  
   115   25  115 1  
   116   25  116 1  
   117   29  117 1  
   118   30  118 1  
   119   33  119 1  
   120   33  120 1  
   121   34  121 1  
   122   35  122 1  
   123   35  123 1  
   124   35  124 1  
   125   36  125 1  
   126   36  126 1  
   127   36  127 1  
   128   37  128 1  
   129   38  129 1  
   130   41  130 1  
   131   41  131 1  
   132   42  132 1  
   133   43  133 1  
   134   44  134 1  
   135   47  135 1  
   136   48  136 1  
   137   49  137 1  
   138   49  138 1  
   139   49  139 1  
   140   50  140 1  
   141   51  141 1  
   142   54  142 1  
   143   54  143 1  
   144   55  144 1  
   145   55  145 1  
   146   56  146 1  
   147   56  147 1  
   148   57  148 1  
   149   59  149 1  
   150   59  150 1  
   151   60  151 1  
   152   61  152 1  
   153   61  153 1  
   154   62  154 1  
   155   62  155 1  
   156   63  156 1  
   157   63  157 1  
   158   64  158 1  
   159   64  159 1  
   160   64  160 1  
   161   65  161 1  
   162   66  162 1  
   163   69  163 1  
   164   69  164 1  
   165   70  165 1  
   166   70  166 1  
   167   71  167 1  
   168   71  168 1  
   169   72  169 1  
   170   74  170 1  
   171   74  171 1  
   172   75  172 1  
   173   75  173 1  
   174   76  174 1  
   175   77  175 1  
   176   80  176 1  
   177   80  177 1  
   178   81  178 1  
   179   82  179 1  
   180   82  180 1  
   181   82  181 1  
   182   83  182 1  
   183   83  183 1  
   184   83  184 1  
   185   84  185 1  
   186   85  186 1  
   187   88  187 1  
   188   88  188 1  
   189   89  189 1  
   190   89  190 1  
   191   90  191 1  
   192   90  192 1  
   193   91  193 1  
   194   91  194 1  
   195   92  195 1  
   196   92  196 1  
   197   92  197 1  
@<TRIPOS>SUBSTRUCTURE
     1 GLN         1

