5za9_ligand
  -I-interpret- 

 51 54  0  0  0  0  0  0  0  0999 V2000
   24.2760   14.4870  -12.0310 C   0  0  0  0  0
   25.3520   15.5040  -12.4020 C   0  0  0  0  0
   26.7390   13.4440  -13.0270 C   0  0  0  0  0
   28.9200   14.9530  -14.0960 C   0  0  0  0  0
   27.7680   15.3980  -11.9340 C   0  0  0  0  0
   28.8630   16.4870  -10.1780 C   0  0  0  0  0
   31.2340   17.2460  -10.3980 C   0  0  0  0  0
   27.7590   15.8930  -10.6780 N   0  0  0  0  0
   25.8650   13.4140  -14.2760 C   0  0  0  0  0
   24.4790   12.8690  -13.9510 C   0  0  0  0  0
   28.8680   14.7140  -16.3250 C   0  0  0  0  0
   28.7980   15.7020  -15.2820 C   0  0  0  0  0
   29.1220   12.3180  -16.4960 C   0  0  0  0  0
   29.0610   12.4350  -17.8820 C   0  0  0  0  0
   28.9040   13.6860  -18.4790 C   0  0  0  0  0
   28.8050   14.8410  -17.7060 C   0  0  0  0  0
   31.4380   17.2090   -9.1950 O   0  0  0  0  0
   32.2130   17.6370  -11.3980 N   0  0  0  0  0
   33.3920   17.8320  -11.0500 C   0  0  0  0  0
   34.0880   18.3250  -11.9230 N   0  0  0  0  0
   33.9630   17.5030   -9.8400 N   0  0  0  0  0
   30.0050   16.5870  -10.9530 C   0  0  0  0  0
   30.0140   16.0920  -12.2090 N   0  0  0  0  0
   28.8540   16.9830   -8.9180 N   0  0  0  0  0
   26.6210   14.7840  -12.4530 N   0  0  0  0  0
   23.6080   13.9280  -13.2830 C   0  0  0  0  0
   28.9100   15.4990  -12.7090 C   0  0  0  0  0
   29.0210   13.4850  -15.7550 C   0  0  0  0  0
   29.0530   13.6210  -14.4440 O   0  0  0  0  0
   23.5208   14.9803  -11.4191 H   0  0  0  0  0
   24.7402   13.6669  -11.4832 H   0  0  0  0  0
   25.3937   16.3070  -11.6661 H   0  0  0  0  0
   25.1313   15.9649  -13.3648 H   0  0  0  0  0
   27.7764   13.2222  -13.2774 H   0  0  0  0  0
   26.4143   12.6885  -12.3115 H   0  0  0  0  0
   26.3329   12.7670  -15.0180 H   0  0  0  0  0
   25.7633   14.4293  -14.6593 H   0  0  0  0  0
   24.5892   12.0285  -13.2658 H   0  0  0  0  0
   24.0002   12.5630  -14.8812 H   0  0  0  0  0
   28.6783   16.7804  -15.3857 H   0  0  0  0  0
   29.2442   11.3483  -16.0134 H   0  0  0  0  0
   29.1364   11.5435  -18.5046 H   0  0  0  0  0
   28.8581   13.7610  -19.5655 H   0  0  0  0  0
   28.6814   15.8181  -18.1731 H   0  0  0  0  0
   33.6865   18.5371  -12.8363 H   0  0  0  0  0
   33.4028   17.0496   -9.1182 H   0  0  0  0  0
   34.9459   17.7128   -9.6661 H   0  0  0  0  0
   28.0126   16.9078   -8.3463 H   0  0  0  0  0
   29.6886   17.4318   -8.5406 H   0  0  0  0  0
   23.4537   14.7450  -13.9878 H   0  0  0  0  0
   22.6624   13.4683  -12.9956 H   0  0  0  0  0
  2  1  1  0  0  0
  1 26  1  0  0  0
 25  2  1  0  0  0
  3  9  1  0  0  0
 25  3  1  0  0  0
 12  4  4  0  0  0
  4 27  1  0  0  0
  4 29  4  0  0  0
  5  8  4  0  0  0
  5 25  1  0  0  0
 27  5  4  0  0  0
  8  6  4  0  0  0
  6 22  4  0  0  0
  6 24  1  0  0  0
  7 17  2  0  0  0
  7 18  1  0  0  0
 22  7  1  0  0  0
  9 10  1  0  0  0
 10 26  1  0  0  0
 11 12  4  0  0  0
 11 16  4  0  0  0
 28 11  4  0  0  0
 13 14  4  0  0  0
 13 28  4  0  0  0
 14 15  4  0  0  0
 15 16  4  0  0  0
 18 19  4  0  0  0
 19 20  2  0  0  0
 19 21  1  0  0  0
 22 23  4  0  0  0
 23 27  4  0  0  0
 28 29  4  0  0  0
  1 30  1  0  0  0
  1 31  1  0  0  0
  2 32  1  0  0  0
  2 33  1  0  0  0
  3 34  1  0  0  0
  3 35  1  0  0  0
  9 36  1  0  0  0
  9 37  1  0  0  0
 10 38  1  0  0  0
 10 39  1  0  0  0
 12 40  1  0  0  0
 13 41  1  0  0  0
 14 42  1  0  0  0
 15 43  1  0  0  0
 16 44  1  0  0  0
 20 45  1  0  0  0
 21 46  1  0  0  0
 21 47  1  0  0  0
 24 48  1  0  0  0
 24 49  1  0  0  0
 26 50  1  0  0  0
 26 51  1  0  0  0
M  END
$$$$
