4qp9_ligand
  -I-interpret- 

 38 41  0  0  0  0  0  0  0  0999 V2000
    1.4890   10.7310   15.7910 C   0  0  0  0  0
    1.2730   10.1530   14.5690 C   0  0  0  0  0
    2.4930   10.1630   13.8670 C   0  0  0  0  0
   -0.2000    8.8190   12.9730 C   0  0  0  0  0
   -2.2170    8.9840   13.9300 C   0  0  0  0  0
   -3.9070    9.5380   15.3780 C   0  0  0  0  0
   -2.7290   11.1320   18.5050 C   0  0  0  0  0
   -3.2850   11.7390   19.6180 C   0  0  0  0  0
   -4.8720   11.3080   17.4480 C   0  0  0  0  0
    4.8560   11.2550   19.0140 C   0  0  0  0  0
    4.0200   10.6400   17.8740 C   0  0  0  0  0
    3.4680   11.7460   16.9640 C   0  0  0  0  0
    2.7930   11.0900   15.8400 N   0  0  0  0  0
    3.3930   10.7290   14.6260 N   0  0  0  0  0
   -0.0080    9.5820   14.0840 C   0  0  0  0  0
   -1.5180    8.4620   12.8670 N   0  0  0  0  0
   -1.3100    9.7020   14.7450 C   0  0  0  0  0
   -1.7290   10.3170   15.8440 N   0  0  0  0  0
   -3.0140   10.2600   16.1700 C   0  0  0  0  0
   -3.4890    8.9240   14.2850 N   0  0  0  0  0
   -3.5340   10.9150   17.3890 C   0  0  0  0  0
   -4.5560   12.1090   19.6270 N   0  0  0  0  0
   -5.3440   11.9110   18.5940 C   0  0  0  0  0
    0.7487   10.8752   16.5779 H   0  0  0  0  0
    2.6580    9.7674   12.8648 H   0  0  0  0  0
    0.5821    8.5335   12.2695 H   0  0  0  0  0
   -4.9575    9.4798   15.6628 H   0  0  0  0  0
   -1.6818   10.8297   18.5019 H   0  0  0  0  0
   -2.6678   11.9147   20.4991 H   0  0  0  0  0
   -5.5348   11.1403   16.5991 H   0  0  0  0  0
    5.6882   11.8171   18.5901 H   0  0  0  0  0
    4.2280   11.9226   19.6040 H   0  0  0  0  0
    5.2408   10.4586   19.6510 H   0  0  0  0  0
    3.1873   10.0828   18.3032 H   0  0  0  0  0
    4.6537    9.9769   17.2850 H   0  0  0  0  0
    4.2750   12.3851   16.6056 H   0  0  0  0  0
    2.7709   12.3800   17.5118 H   0  0  0  0  0
   -6.3856   12.2282   18.6443 H   0  0  0  0  0
  2  1  4  0  0  0
  1 13  4  0  0  0
  2  3  4  0  0  0
 15  2  1  0  0  0
  3 14  4  0  0  0
 15  4  4  0  0  0
  4 16  4  0  0  0
  5 16  4  0  0  0
 17  5  4  0  0  0
 20  5  4  0  0  0
 19  6  4  0  0  0
  6 20  4  0  0  0
  7  8  4  0  0  0
 21  7  4  0  0  0
  8 22  4  0  0  0
 21  9  4  0  0  0
  9 23  4  0  0  0
 11 10  1  0  0  0
 12 11  1  0  0  0
 13 12  1  0  0  0
 14 13  4  0  0  0
 17 15  4  0  0  0
 18 17  4  0  0  0
 19 18  4  0  0  0
 19 21  1  0  0  0
 22 23  4  0  0  0
  1 24  1  0  0  0
  3 25  1  0  0  0
  4 26  1  0  0  0
  6 27  1  0  0  0
  7 28  1  0  0  0
  8 29  1  0  0  0
  9 30  1  0  0  0
 10 31  1  0  0  0
 10 32  1  0  0  0
 10 33  1  0  0  0
 11 34  1  0  0  0
 11 35  1  0  0  0
 12 36  1  0  0  0
 12 37  1  0  0  0
 23 38  1  0  0  0
M  END
$$$$
