2qlf_ligand
  -I-interpret- 

 62 61  0  0  0  0  0  0  0  0999 V2000
  -47.6810   11.7670   30.8280 N   0  3  0  0  0
  -47.2950   13.1760   30.9770 C   0  0  0  0  0
  -48.2020   13.9010   31.9720 C   0  0  0  0  0
  -49.3380   13.4740   32.2130 O   0  0  0  0  0
  -47.4220   13.7420   29.5570 C   0  0  0  0  0
  -46.3980   13.1540   28.5880 C   0  0  0  0  0
  -45.1820   13.2570   28.8640 O   0  0  0  0  0
  -46.8040   12.5980   27.5440 O   0  0  0  0  0
  -47.6870   14.9870   32.5490 N   0  0  0  0  0
  -48.4290   15.7870   33.5230 C   0  0  0  0  0
  -48.7350   17.1640   32.9560 C   0  0  0  0  0
  -48.2260   17.5320   31.9000 O   0  0  0  0  0
  -47.6130   15.9490   34.8030 C   0  0  0  0  0
  -47.3310   14.6290   35.4880 C   0  0  0  0  0
  -46.6180   14.5840   36.4900 O   0  0  0  0  0
  -47.8900   13.5460   34.9570 N   0  0  0  0  0
  -49.5650   17.9230   33.6650 N   0  0  0  0  0
  -49.9300   19.2670   33.2310 C   0  0  0  0  0
  -49.4230   20.3220   34.2200 C   0  0  0  0  0
  -49.4770   20.1190   35.4370 O   0  0  0  0  0
  -51.4480   19.3780   33.0820 C   0  0  0  0  0
  -52.1330   18.4090   32.1130 C   0  0  0  0  0
  -53.6310   18.6620   32.1410 C   0  0  0  0  0
  -51.5950   18.5930   30.7060 C   0  0  0  0  0
  -48.9420   21.4470   33.6860 N   0  0  0  0  0
  -48.3990   22.5440   34.4910 C   0  0  0  0  0
  -49.2630   23.7960   34.4730 C   0  0  0  0  0
  -49.8620   24.0430   35.7460 O   0  0  0  0  0
  -47.0130   22.9360   33.9800 C   0  0  0  0  0
  -45.8990   22.2330   34.7190 C   0  0  0  0  0
  -44.8230   22.0230   34.1170 O   0  0  0  0  0
  -46.1030   21.8910   35.9050 O   0  0  0  0  0
  -47.6260   11.3029   31.7347 H   0  0  0  0  0
  -48.6362   11.7130   30.4745 H   0  0  0  0  0
  -47.0479   11.3099   30.1717 H   0  0  0  0  0
  -46.2900   13.3006   31.3801 H   0  0  0  0  0
  -47.2500   14.8170   29.6108 H   0  0  0  0  0
  -48.4150   13.4888   29.1856 H   0  0  0  0  0
  -45.0830   13.7129   29.7030 H   0  0  0  0  0
  -46.7390   15.2709   32.3017 H   0  0  0  0  0
  -49.3627   15.2706   33.7456 H   0  0  0  0  0
  -48.1900   16.5664   35.4915 H   0  0  0  0  0
  -46.6565   16.3978   34.5352 H   0  0  0  0  0
  -47.7345   12.6316   35.3814 H   0  0  0  0  0
  -48.4744   13.6294   34.1252 H   0  0  0  0  0
  -49.9558   17.5568   34.5331 H   0  0  0  0  0
  -49.4598   19.4502   32.2649 H   0  0  0  0  0
  -51.6326   20.3748   32.6814 H   0  0  0  0  0
  -51.8580   19.1498   34.0658 H   0  0  0  0  0
  -51.9277   17.3837   32.4208 H   0  0  0  0  0
  -54.0066   18.5007   33.1514 H   0  0  0  0  0
  -53.8303   19.6898   31.8377 H   0  0  0  0  0
  -54.1269   17.9764   31.4539 H   0  0  0  0  0
  -51.7834   19.6150   30.3771 H   0  0  0  0  0
  -50.5222   18.4001   30.7005 H   0  0  0  0  0
  -52.0943   17.8956   30.0334 H   0  0  0  0  0
  -48.9530   21.5474   32.6710 H   0  0  0  0  0
  -48.3628   22.1667   35.5130 H   0  0  0  0  0
  -49.4073   24.4272   33.5962 H   0  0  0  0  0
  -46.8911   24.0084   34.1323 H   0  0  0  0  0
  -46.9503   22.6505   32.9299 H   0  0  0  0  0
  -46.9908   22.1493   36.1631 H   0  0  0  0  0
  1  2  1  0  0  0
  2  3  1  0  0  0
  2  5  1  0  0  0
  3  4  2  0  0  0
  3  9  1  0  0  0
  5  6  1  0  0  0
  6  7  1  0  0  0
  6  8  2  0  0  0
  9 10  1  0  0  0
 10 11  1  0  0  0
 10 13  1  0  0  0
 11 12  2  0  0  0
 11 17  1  0  0  0
 13 14  1  0  0  0
 14 15  2  0  0  0
 14 16  1  0  0  0
 17 18  1  0  0  0
 18 19  1  0  0  0
 18 21  1  0  0  0
 19 20  2  0  0  0
 19 25  1  0  0  0
 21 22  1  0  0  0
 22 23  1  0  0  0
 22 24  1  0  0  0
 25 26  1  0  0  0
 26 27  1  0  0  0
 26 29  1  0  0  0
 27 28  2  0  0  0
 29 30  1  0  0  0
 30 31  2  0  0  0
 30 32  1  0  0  0
  1 33  1  0  0  0
  1 34  1  0  0  0
  1 35  1  0  0  0
  2 36  1  0  0  0
  5 37  1  0  0  0
  5 38  1  0  0  0
  7 39  1  0  0  0
  9 40  1  0  0  0
 10 41  1  0  0  0
 13 42  1  0  0  0
 13 43  1  0  0  0
 16 44  1  0  0  0
 16 45  1  0  0  0
 17 46  1  0  0  0
 18 47  1  0  0  0
 21 48  1  0  0  0
 21 49  1  0  0  0
 22 50  1  0  0  0
 23 51  1  0  0  0
 23 52  1  0  0  0
 23 53  1  0  0  0
 24 54  1  0  0  0
 24 55  1  0  0  0
 24 56  1  0  0  0
 25 57  1  0  0  0
 26 58  1  0  0  0
 27 59  1  0  0  0
 29 60  1  0  0  0
 29 61  1  0  0  0
 32 62  1  0  0  0
M  END
$$$$
