3mg8_ligand
  -I-interpret- 

 85 88  0  0  0  0  0  0  0  0999 V2000
   12.6880 -137.8260   25.9020 C   0  0  0  0  0
   12.1280 -138.8630   25.2570 N   0  0  0  0  0
   11.6160 -138.4400   24.0960 C   0  0  0  0  0
   11.8790 -137.1330   23.9670 C   0  0  0  0  0
   12.5270 -136.6850   25.1090 C   0  0  0  0  0
   13.0180 -135.4440   25.5190 C   0  0  0  0  0
   13.6750 -135.3450   26.7420 C   0  0  0  0  0
   13.8400 -136.4790   27.5430 C   0  0  0  0  0
   13.3510 -137.7230   27.1290 C   0  0  0  0  0
   11.4030 -136.2440   22.8160 C   0  0  0  0  0
   10.9610 -136.8060   21.4630 C   0  0  0  0  0
   11.2010 -135.0550   23.0350 O   0  0  0  0  0
   11.1420 -137.9940   21.2190 O   0  0  0  0  0
   15.8420 -138.1750   18.4000 N   0  0  0  0  0
   11.0010 -135.9740   14.0170 N   0  0  0  0  0
   10.1230 -135.6670   12.9050 C   0  0  0  0  0
    9.4810 -134.3080   13.1300 C   0  0  0  0  0
   10.1440 -133.0790   13.0120 C   0  0  0  0  0
    9.4440 -131.8850   13.2320 C   0  0  0  0  0
    8.0950 -131.9100   13.5730 C   0  0  0  0  0
    7.4490 -133.1310   13.7040 C   0  0  0  0  0
    8.1380 -134.3190   13.4820 C   0  0  0  0  0
   11.8410 -133.0000   12.6140 C   0  0  0  0  0
   10.4470 -135.9670   20.5710 N   0  0  0  0  0
   10.6800 -136.9100   14.8890 C   0  0  0  0  0
   11.6920 -137.0980   16.0100 C   0  0  0  0  0
    9.6330 -137.5550   14.8610 O   0  0  0  0  0
   12.4800 -138.3820   15.8340 C   0  0  0  0  0
   10.9160 -137.1390   17.2350 N   0  0  0  0  0
   13.6820 -138.3120   16.7500 C   0  0  0  0  0
   13.6460 -138.9390   17.9970 C   0  0  0  0  0
   14.7680 -138.8450   18.8160 C   0  0  0  0  0
   15.9100 -137.5630   17.2180 C   0  0  0  0  0
   14.8190 -137.6120   16.3470 C   0  0  0  0  0
   10.9980 -136.2100   18.1660 C   0  0  0  0  0
    9.9830 -136.4250   19.2580 C   0  0  0  0  0
   11.7360 -135.2240   18.1290 O   0  0  0  0  0
    8.7350 -135.6340   18.8290 C   0  0  0  0  0
    7.4400 -135.8870   19.6170 C   0  0  0  0  0
    6.5800 -134.8690   19.5610 N   0  0  0  0  0
    7.2220 -136.9460   20.2100 O   0  0  0  0  0
    5.2670 -134.8940   20.2330 C   0  0  0  0  0
    4.1310 -134.4890   19.2700 C   0  0  0  0  0
    4.1090 -135.4060   18.0500 C   0  0  0  0  0
    2.7910 -134.6260   19.9830 C   0  0  0  0  0
    4.3010 -133.0530   18.7820 C   0  0  0  0  0
   11.0759 -139.0551   23.3763 H   0  0  0  0  0
   12.8884 -134.5638   24.8893 H   0  0  0  0  0
   14.0614 -134.3820   27.0758 H   0  0  0  0  0
   14.3549 -136.3932   28.4999 H   0  0  0  0  0
   13.4856 -138.6036   27.7571 H   0  0  0  0  0
   11.8758 -135.4610   14.1261 H   0  0  0  0  0
    9.3469 -136.4290   12.8325 H   0  0  0  0  0
   10.6994 -135.6489   11.9800 H   0  0  0  0  0
    9.9599 -130.9297   13.1353 H   0  0  0  0  0
    7.5512 -130.9795   13.7356 H   0  0  0  0  0
    6.3956 -133.1595   13.9825 H   0  0  0  0  0
    7.6168 -135.2707   13.5857 H   0  0  0  0  0
   12.4166 -133.5240   13.3770 H   0  0  0  0  0
   12.0078 -133.4698   11.6447 H   0  0  0  0  0
   12.1550 -131.9570   12.5725 H   0  0  0  0  0
   10.3731 -134.9772   20.8058 H   0  0  0  0  0
   12.4236 -136.2901   16.0188 H   0  0  0  0  0
   12.7985 -138.4930   14.7975 H   0  0  0  0  0
   11.8618 -139.2442   16.0841 H   0  0  0  0  0
   10.2786 -137.9216   17.3822 H   0  0  0  0  0
   12.7620 -139.4881   18.3211 H   0  0  0  0  0
   14.7678 -139.3194   19.7973 H   0  0  0  0  0
   16.8142 -137.0258   16.9318 H   0  0  0  0  0
   14.8554 -137.1158   15.3772 H   0  0  0  0  0
    9.7860 -137.4904   19.3769 H   0  0  0  0  0
    8.5247 -135.9441   17.8054 H   0  0  0  0  0
    8.9796 -134.5840   18.9898 H   0  0  0  0  0
    6.8414 -134.0377   19.0309 H   0  0  0  0  0
    5.2886 -134.1838   21.0596 H   0  0  0  0  0
    5.0776 -135.9087   20.5831 H   0  0  0  0  0
    5.0612 -135.3326   17.5247 H   0  0  0  0  0
    3.9492 -136.4347   18.3731 H   0  0  0  0  0
    3.3009 -135.1033   17.3840 H   0  0  0  0  0
    2.6519 -135.6606   20.2967 H   0  0  0  0  0
    2.7778 -133.9750   20.8571 H   0  0  0  0  0
    1.9883 -134.3401   19.3033 H   0  0  0  0  0
    4.2889 -132.3764   19.6365 H   0  0  0  0  0
    5.2512 -132.9594   18.2562 H   0  0  0  0  0
    3.4839 -132.8012   18.1060 H   0  0  0  0  0
  1  2  4  0  0  0
  5  1  4  0  0  0
  1  9  4  0  0  0
  3  2  4  0  0  0
  4  3  4  0  0  0
  4  5  4  0  0  0
 10  4  1  0  0  0
  5  6  4  0  0  0
  6  7  4  0  0  0
  7  8  4  0  0  0
  9  8  4  0  0  0
 11 10  1  0  0  0
 10 12  2  0  0  0
 11 13  2  0  0  0
 24 11  1  0  0  0
 32 14  4  0  0  0
 33 14  4  0  0  0
 15 16  1  0  0  0
 25 15  1  0  0  0
 16 17  1  0  0  0
 17 18  4  0  0  0
 17 22  4  0  0  0
 18 19  4  0  0  0
 18 23  1  0  0  0
 19 20  4  0  0  0
 21 20  4  0  0  0
 22 21  4  0  0  0
 36 24  1  0  0  0
 26 25  1  0  0  0
 25 27  2  0  0  0
 26 28  1  0  0  0
 29 26  1  0  0  0
 28 30  1  0  0  0
 35 29  1  0  0  0
 30 31  4  0  0  0
 30 34  4  0  0  0
 31 32  4  0  0  0
 34 33  4  0  0  0
 35 36  1  0  0  0
 35 37  2  0  0  0
 36 38  1  0  0  0
 38 39  1  0  0  0
 39 40  1  0  0  0
 39 41  2  0  0  0
 40 42  1  0  0  0
 42 43  1  0  0  0
 43 44  1  0  0  0
 43 45  1  0  0  0
 43 46  1  0  0  0
  3 47  1  0  0  0
  6 48  1  0  0  0
  7 49  1  0  0  0
  8 50  1  0  0  0
  9 51  1  0  0  0
 15 52  1  0  0  0
 16 53  1  0  0  0
 16 54  1  0  0  0
 19 55  1  0  0  0
 20 56  1  0  0  0
 21 57  1  0  0  0
 22 58  1  0  0  0
 23 59  1  0  0  0
 23 60  1  0  0  0
 23 61  1  0  0  0
 24 62  1  0  0  0
 26 63  1  0  0  0
 28 64  1  0  0  0
 28 65  1  0  0  0
 29 66  1  0  0  0
 31 67  1  0  0  0
 32 68  1  0  0  0
 33 69  1  0  0  0
 34 70  1  0  0  0
 36 71  1  0  0  0
 38 72  1  0  0  0
 38 73  1  0  0  0
 40 74  1  0  0  0
 42 75  1  0  0  0
 42 76  1  0  0  0
 44 77  1  0  0  0
 44 78  1  0  0  0
 44 79  1  0  0  0
 45 80  1  0  0  0
 45 81  1  0  0  0
 45 82  1  0  0  0
 46 83  1  0  0  0
 46 84  1  0  0  0
 46 85  1  0  0  0
M  END
$$$$
