4mw1_ligand
  -I-interpret- 

 44 45  0  0  0  0  0  0  0  0999 V2000
  -41.6950  -17.7880   -7.0710 C   0  0  0  0  0
  -42.1660  -16.4520   -6.9750 O   0  0  0  0  0
  -41.2520  -15.4400   -6.9860 C   0  0  0  0  0
  -41.8120  -14.1790   -7.0030 C   0  0  0  0  0
  -39.8860  -15.6230   -7.0390 C   0  0  0  0  0
  -39.0890  -14.5080   -7.1210 C   0  0  0  0  0
  -37.3700  -14.7200   -7.1630 Cl  0  0  0  0  0
  -39.6160  -13.2330   -7.1570 C   0  0  0  0  0
  -40.9980  -13.0600   -7.0970 C   0  0  0  0  0
  -41.6290  -11.6890   -7.1120 C   0  0  0  0  0
  -42.0230  -11.2070   -8.4400 N   0  3  0  0  0
  -43.0800  -12.0040   -9.0660 C   0  0  0  0  0
  -43.6410  -11.3270  -10.2990 C   0  0  0  0  0
  -44.5670  -12.1890  -11.1360 C   0  0  0  0  0
  -43.8450  -13.0040  -12.1020 N   0  0  0  0  0
  -44.4720  -13.8500  -12.9380 C   0  0  0  0  0
  -45.6830  -13.8260  -13.1170 O   0  0  0  0  0
  -43.6590  -14.7360  -13.6330 N   0  0  0  0  0
  -44.1160  -15.7380  -14.5220 C   0  0  0  0  0
  -43.1640  -16.6190  -15.1180 C   0  0  0  0  0
  -43.7330  -17.5560  -15.9090 C   0  0  0  0  0
  -45.4230  -17.4070  -15.9460 S   0  0  0  0  0
  -45.4000  -16.0630  -14.9080 C   0  0  0  0  0
  -41.1496  -17.9133   -8.0064 H   0  0  0  0  0
  -41.0327  -17.9996   -6.2316 H   0  0  0  0  0
  -42.5424  -18.4732   -7.0485 H   0  0  0  0  0
  -42.8941  -14.0623   -6.9426 H   0  0  0  0  0
  -39.4522  -16.6227   -7.0165 H   0  0  0  0  0
  -38.9569  -12.3681   -7.2318 H   0  0  0  0  0
  -40.8815  -10.9927   -6.7318 H   0  0  0  0  0
  -42.5394  -11.7534   -6.5161 H   0  0  0  0  0
  -41.2012  -11.2643   -9.0414 H   0  0  0  0  0
  -42.3826  -10.2593   -8.3261 H   0  0  0  0  0
  -43.8884  -12.1266   -8.3452 H   0  0  0  0  0
  -42.6546  -12.9619   -9.3652 H   0  0  0  0  0
  -42.7915  -11.0701  -10.9318 H   0  0  0  0  0
  -44.2289  -10.4772   -9.9522 H   0  0  0  0  0
  -45.2368  -11.5282  -11.6863 H   0  0  0  0  0
  -45.1032  -12.8588  -10.4638 H   0  0  0  0  0
  -42.8286  -12.9308  -12.1462 H   0  0  0  0  0
  -42.6519  -14.6583  -13.4914 H   0  0  0  0  0
  -42.0893  -16.5439  -14.9524 H   0  0  0  0  0
  -43.1742  -18.3150  -16.4565 H   0  0  0  0  0
  -46.2906  -15.5233  -14.5862 H   0  0  0  0  0
  1  2  1  0  0  0
  2  3  1  0  0  0
  3  4  4  0  0  0
  3  5  4  0  0  0
  4  9  4  0  0  0
  5  6  4  0  0  0
  6  7  1  0  0  0
  6  8  4  0  0  0
  8  9  4  0  0  0
  9 10  1  0  0  0
 10 11  1  0  0  0
 11 12  1  0  0  0
 12 13  1  0  0  0
 13 14  1  0  0  0
 14 15  1  0  0  0
 15 16  1  0  0  0
 16 17  2  0  0  0
 16 18  1  0  0  0
 18 19  1  0  0  0
 19 20  4  0  0  0
 19 23  4  0  0  0
 20 21  4  0  0  0
 21 22  4  0  0  0
 22 23  4  0  0  0
  1 24  1  0  0  0
  1 25  1  0  0  0
  1 26  1  0  0  0
  4 27  1  0  0  0
  5 28  1  0  0  0
  8 29  1  0  0  0
 10 30  1  0  0  0
 10 31  1  0  0  0
 11 32  1  0  0  0
 11 33  1  0  0  0
 12 34  1  0  0  0
 12 35  1  0  0  0
 13 36  1  0  0  0
 13 37  1  0  0  0
 14 38  1  0  0  0
 14 39  1  0  0  0
 15 40  1  0  0  0
 18 41  1  0  0  0
 20 42  1  0  0  0
 21 43  1  0  0  0
 23 44  1  0  0  0
M  END
$$$$
