4lj8_ligand
  -I-interpret- 

 42 44  0  0  0  0  0  0  0  0999 V2000
   -5.4690   27.3180   -6.4690 P   0  0  0  0  0
   -5.2880   26.5110   -7.7480 O   0  0  0  0  0
   -4.3320   28.2340   -6.1910 O   0  0  0  0  0
   -5.9260   26.4770   -5.3300 O   0  0  0  0  0
   -7.2280   28.7310   -8.1960 P   0  0  0  0  0
   -7.6600   27.5320   -8.9970 O   0  0  0  0  0
   -6.3440   29.7760   -8.7980 O   0  0  0  0  0
   -6.6770   28.3250   -6.7330 O   0  0  0  0  0
   -8.6830   29.2380   -7.8150 O   0  0  0  0  0
   -8.9000   30.4490   -7.2210 C   0  0  0  0  0
   -9.6170   31.2930   -8.2480 C   0  0  0  0  0
  -10.2800   32.3200   -7.5160 O   0  0  0  0  0
   -8.6270   31.9740   -9.1940 C   0  0  0  0  0
   -8.8620   31.5930  -10.5420 O   0  0  0  0  0
   -8.7770   33.4620   -8.9690 C   0  0  0  0  0
   -9.6050   34.1370   -9.9260 O   0  0  0  0  0
   -9.5220   33.5180   -7.6600 C   0  0  0  0  0
   -8.6390   33.6890   -6.4890 N   0  0  0  0  0
   -8.4000   32.8260   -5.4760 C   0  0  0  0  0
   -7.5720   33.3590   -4.5600 N   0  0  0  0  0
   -7.2900   34.5940   -4.9750 C   0  0  0  0  0
   -6.4810   35.7050   -4.4550 C   0  0  0  0  0
   -5.8070   35.5640   -3.3040 N   0  0  0  0  0
   -6.4330   36.8220   -5.1880 N   0  0  0  0  0
   -7.1140   36.9470   -6.3470 C   0  0  0  0  0
   -7.8670   35.9800   -6.8810 N   0  0  0  0  0
   -7.9920   34.8070   -6.2380 C   0  0  0  0  0
   -6.0492   25.9401   -7.8753 H   0  0  0  0  0
   -6.6590   25.9262   -5.6143 H   0  0  0  0  0
   -8.2198   26.9713   -8.4550 H   0  0  0  0  0
   -7.9623   30.9122   -6.9140 H   0  0  0  0  0
   -9.4934   30.3429   -6.3129 H   0  0  0  0  0
  -10.2902   30.6706   -8.8375 H   0  0  0  0  0
   -7.6005   31.6697   -8.9895 H   0  0  0  0  0
   -8.2284   32.0336  -11.1130 H   0  0  0  0  0
   -7.7992   33.9407   -9.0218 H   0  0  0  0  0
   -9.6454   35.0715   -9.7098 H   0  0  0  0  0
  -10.1675   34.3958   -7.6895 H   0  0  0  0  0
   -8.8249   31.8244   -5.4100 H   0  0  0  0  0
   -5.8557   34.6850   -2.7888 H   0  0  0  0  0
   -5.2457   36.3358   -2.9438 H   0  0  0  0  0
   -7.0456   37.8951   -6.8804 H   0  0  0  0  0
  1  2  1  0  0  0
  1  3  2  0  0  0
  1  4  1  0  0  0
  8  1  1  0  0  0
  5  6  1  0  0  0
  5  7  2  0  0  0
  5  8  1  0  0  0
  5  9  1  0  0  0
  9 10  1  0  0  0
 10 11  1  0  0  0
 11 12  1  0  0  0
 11 13  1  0  0  0
 12 17  1  0  0  0
 13 14  1  0  0  0
 13 15  1  0  0  0
 15 16  1  0  0  0
 15 17  1  0  0  0
 17 18  1  0  0  0
 18 19  4  0  0  0
 18 27  4  0  0  0
 19 20  4  0  0  0
 20 21  4  0  0  0
 21 22  4  0  0  0
 21 27  4  0  0  0
 22 23  1  0  0  0
 22 24  4  0  0  0
 24 25  4  0  0  0
 25 26  4  0  0  0
 26 27  4  0  0  0
  2 28  1  0  0  0
  4 29  1  0  0  0
  6 30  1  0  0  0
 10 31  1  0  0  0
 10 32  1  0  0  0
 11 33  1  0  0  0
 13 34  1  0  0  0
 14 35  1  0  0  0
 15 36  1  0  0  0
 16 37  1  0  0  0
 17 38  1  0  0  0
 19 39  1  0  0  0
 23 40  1  0  0  0
 23 41  1  0  0  0
 25 42  1  0  0  0
M  END
$$$$
