3io7_ligand
  -I-interpret- 

 55 58  0  0  0  0  0  0  0  0999 V2000
   14.8660   16.6100    4.0650 N   0  0  0  0  0
   14.5510   15.6640    2.9800 C   0  0  0  0  0
   15.4050   15.9210    1.7360 C   0  0  0  0  0
   15.9240   16.3910    4.8910 C   0  0  0  0  0
   16.8280   15.2000    4.7700 C   0  0  0  0  0
   18.2800   15.6330    5.0340 C   0  0  0  0  0
   16.8010   11.8770    5.5320 C   0  0  0  0  0
   15.4020   10.4250    4.2010 C   0  0  0  0  0
   14.2640   10.1050    3.3030 C   0  0  0  0  0
   13.2510   10.9400    2.7880 C   0  0  0  0  0
   11.9190   12.7820    2.3290 C   0  0  0  0  0
   11.3870   10.7030    1.3050 C   0  0  0  0  0
   14.6610   19.1190    3.9210 C   0  0  0  0  0
   13.9790   17.7860    4.2590 C   0  0  0  0  0
   16.1650   17.1650    5.7890 O   0  0  0  0  0
   18.9120   14.8880    6.2150 C   0  0  0  0  0
   18.6090   13.3830    6.1500 C   0  0  0  0  0
   17.1540   13.0940    6.1320 N   0  0  0  0  0
   16.2740   14.2330    5.8210 C   0  0  0  0  0
   15.6660   11.7090    4.7220 C   0  0  0  0  0
   16.2700    9.4410    4.4730 N   0  0  0  0  0
   17.3170    9.6330    5.2380 C   0  0  0  0  0
   17.5710   10.8150    5.7590 N   0  0  0  0  0
   12.9510   12.2360    2.9580 N   0  0  0  0  0
   11.1040   12.0230    1.4710 C   0  0  0  0  0
   12.4670   10.1680    1.9570 N   0  0  0  0  0
   12.9990    8.8820    1.9520 N   0  0  0  0  0
   14.0510    8.8370    2.7430 C   0  0  0  0  0
   14.8430    7.7180    2.9800 N   0  0  0  0  0
   13.5030   15.7909    2.7083 H   0  0  0  0  0
   14.7578   14.6544    3.3349 H   0  0  0  0  0
   15.2212   16.9323    1.3732 H   0  0  0  0  0
   16.4590   15.8112    1.9914 H   0  0  0  0  0
   15.1409   15.2019    0.9606 H   0  0  0  0  0
   16.8492   14.7337    3.7850 H   0  0  0  0  0
   18.2747   16.6966    5.2726 H   0  0  0  0  0
   18.8649   15.4061    4.1427 H   0  0  0  0  0
   11.6986   13.8387    2.4800 H   0  0  0  0  0
   10.7641   10.0801    0.6630 H   0  0  0  0  0
   15.5320   19.2530    4.5625 H   0  0  0  0  0
   14.9748   19.1107    2.8772 H   0  0  0  0  0
   13.9588   19.9366    4.0842 H   0  0  0  0  0
   13.6962   17.8168    5.3112 H   0  0  0  0  0
   13.1268   17.6714    3.5891 H   0  0  0  0  0
   18.4960   15.2867    7.1403 H   0  0  0  0  0
   19.9924   15.0271    6.1757 H   0  0  0  0  0
   19.0325   12.9170    7.0397 H   0  0  0  0  0
   19.0396   12.9938    5.2274 H   0  0  0  0  0
   15.3501   13.8195    5.4166 H   0  0  0  0  0
   16.1523   14.8015    6.7430 H   0  0  0  0  0
   15.0066   12.5485    4.5018 H   0  0  0  0  0
   17.9885    8.8001    5.4462 H   0  0  0  0  0
   10.2638   12.4823    0.9502 H   0  0  0  0  0
   15.6483    7.7857    3.6023 H   0  0  0  0  0
   14.6183    6.8299    2.5315 H   0  0  0  0  0
  1  2  1  0  0  0
  4  1  1  0  0  0
  1 14  1  0  0  0
  2  3  1  0  0  0
  5  4  1  0  0  0
  4 15  2  0  0  0
  6  5  1  0  0  0
  5 19  1  0  0  0
 16  6  1  0  0  0
 18  7  1  0  0  0
  7 20  4  0  0  0
  7 23  4  0  0  0
  8  9  1  0  0  0
 20  8  4  0  0  0
  8 21  4  0  0  0
  9 10  4  0  0  0
  9 28  4  0  0  0
 10 24  4  0  0  0
 10 26  4  0  0  0
 24 11  4  0  0  0
 11 25  4  0  0  0
 12 25  4  0  0  0
 26 12  4  0  0  0
 14 13  1  0  0  0
 17 16  1  0  0  0
 17 18  1  0  0  0
 18 19  1  0  0  0
 21 22  4  0  0  0
 22 23  4  0  0  0
 26 27  4  0  0  0
 27 28  4  0  0  0
 28 29  1  0  0  0
  2 30  1  0  0  0
  2 31  1  0  0  0
  3 32  1  0  0  0
  3 33  1  0  0  0
  3 34  1  0  0  0
  5 35  1  0  0  0
  6 36  1  0  0  0
  6 37  1  0  0  0
 11 38  1  0  0  0
 12 39  1  0  0  0
 13 40  1  0  0  0
 13 41  1  0  0  0
 13 42  1  0  0  0
 14 43  1  0  0  0
 14 44  1  0  0  0
 16 45  1  0  0  0
 16 46  1  0  0  0
 17 47  1  0  0  0
 17 48  1  0  0  0
 19 49  1  0  0  0
 19 50  1  0  0  0
 20 51  1  0  0  0
 22 52  1  0  0  0
 25 53  1  0  0  0
 29 54  1  0  0  0
 29 55  1  0  0  0
M  END
$$$$
