4mwy_ligand
  -I-interpret- 

 48 48  0  0  0  0  0  0  0  0999 V2000
   24.3750  -63.7510   18.6210 C   0  0  0  0  0
   23.7560  -63.6020   17.2620 C   0  0  0  0  0
   24.4430  -62.5990   16.4500 C   0  0  0  0  0
   25.9010  -62.7070   16.5270 C   0  0  0  0  0
   26.3990  -62.7300   17.9450 C   0  0  0  0  0
   25.8130  -63.8480   18.6350 O   0  0  0  0  0
   23.7560  -64.7160   19.5530 C   0  0  0  0  0
   24.4470  -65.1050   20.5350 O   0  0  0  0  0
   22.5730  -65.1080   19.4010 O   0  0  0  0  0
   27.8640  -62.9370   18.0000 C   0  0  0  0  0
   28.3650  -62.7480   19.5130 C   0  0  0  0  0
   29.9490  -62.9080   19.7240 C   0  0  0  0  0
   30.7170  -61.9670   19.0170 O   0  0  0  0  0
   28.2440  -64.1930   17.5890 O   0  0  0  0  0
   29.1320  -64.3180   16.5320 C   0  0  0  0  0
   27.8290  -61.5370   20.1590 O   0  0  0  0  0
   24.0650  -62.8420   15.0140 N   0  0  0  0  0
   23.8710  -61.8130   13.9940 C   0  0  0  0  0
   23.5800  -62.1660   12.7700 N   0  0  0  0  0
   23.9750  -60.5350   14.2970 N   0  0  0  0  0
   27.1790  -61.7450   14.5230 C   0  0  0  0  0
   27.7910  -60.5370   13.8680 C   0  0  0  0  0
   27.2240  -62.8400   13.9690 O   0  0  0  0  0
   26.5440  -61.5800   15.8120 N   0  0  0  0  0
   24.1144  -62.7775   19.0364 H   0  0  0  0  0
   22.7222  -63.2824   17.3931 H   0  0  0  0  0
   23.8280  -64.5612   16.7492 H   0  0  0  0  0
   24.1499  -61.6163   16.8194 H   0  0  0  0  0
   26.1672  -63.6530   16.0556 H   0  0  0  0  0
   26.1332  -61.7744   18.3971 H   0  0  0  0  0
   25.3192  -64.7066   20.4889 H   0  0  0  0  0
   28.3103  -62.2070   17.3247 H   0  0  0  0  0
   27.9285  -63.5981   20.0374 H   0  0  0  0  0
   30.2266  -63.8953   19.3548 H   0  0  0  0  0
   30.1509  -62.7591   20.7847 H   0  0  0  0  0
   31.6487  -62.1217   19.1893 H   0  0  0  0  0
   28.7023  -63.8584   15.6419 H   0  0  0  0  0
   30.0677  -63.8192   16.7843 H   0  0  0  0  0
   29.3217  -65.3743   16.3415 H   0  0  0  0  0
   28.1632  -61.4802   21.0572 H   0  0  0  0  0
   23.9322  -63.8116   14.7265 H   0  0  0  0  0
   23.4897  -63.1537   12.5319 H   0  0  0  0  0
   23.8286  -59.8268   13.5777 H   0  0  0  0  0
   24.2019  -60.2538   15.2509 H   0  0  0  0  0
   28.8565  -60.7087   13.7154 H   0  0  0  0  0
   27.3083  -60.3630   12.9063 H   0  0  0  0  0
   27.6501  -59.6670   14.5094 H   0  0  0  0  0
   26.5387  -60.6558   16.2436 H   0  0  0  0  0
  2  1  1  0  0  0
  6  1  1  0  0  0
  1  7  1  0  0  0
  3  2  1  0  0  0
  4  3  1  0  0  0
  3 17  1  0  0  0
  4  5  1  0  0  0
 24  4  1  0  0  0
  5  6  1  0  0  0
  5 10  1  0  0  0
  7  8  1  0  0  0
  7  9  2  0  0  0
 10 11  1  0  0  0
 10 14  1  0  0  0
 11 12  1  0  0  0
 11 16  1  0  0  0
 12 13  1  0  0  0
 14 15  1  0  0  0
 17 18  1  0  0  0
 18 19  2  0  0  0
 18 20  1  0  0  0
 21 22  1  0  0  0
 21 23  2  0  0  0
 21 24  1  0  0  0
  1 25  1  0  0  0
  2 26  1  0  0  0
  2 27  1  0  0  0
  3 28  1  0  0  0
  4 29  1  0  0  0
  5 30  1  0  0  0
  8 31  1  0  0  0
 10 32  1  0  0  0
 11 33  1  0  0  0
 12 34  1  0  0  0
 12 35  1  0  0  0
 13 36  1  0  0  0
 15 37  1  0  0  0
 15 38  1  0  0  0
 15 39  1  0  0  0
 16 40  1  0  0  0
 17 41  1  0  0  0
 19 42  1  0  0  0
 20 43  1  0  0  0
 20 44  1  0  0  0
 22 45  1  0  0  0
 22 46  1  0  0  0
 22 47  1  0  0  0
 24 48  1  0  0  0
M  END
$$$$
