5v7t_ligand
  -I-interpret- 

 67 71  0  0  0  0  0  0  0  0999 V2000
  -16.7200    9.5200  -27.6480 C   0  0  0  0  0
  -18.0050    9.8900  -28.3980 C   0  0  0  0  0
  -17.7390   10.8620  -29.5690 C   0  0  0  0  0
  -16.2290   11.0920  -29.7960 C   0  0  0  0  0
  -21.0710    9.5500  -30.8780 C   0  0  0  0  0
  -22.7520    7.8490  -31.2130 C   0  0  0  0  0
  -20.4140    7.3030  -31.3650 C   0  0  0  0  0
  -15.6460    7.6450  -32.9520 C   0  0  0  0  0
  -16.1070    7.6660  -34.2600 C   0  0  0  0  0
  -17.3860    8.1330  -34.5320 C   0  0  0  0  0
  -13.8620   11.4260  -22.9160 C   0  0  0  0  0
  -11.8830   12.7450  -22.0940 C   0  0  0  0  0
   -9.6400   12.8310  -21.1740 C   0  0  0  0  0
  -13.9060   10.5040  -24.1350 C   0  0  0  0  0
  -15.0700   10.9120  -25.0350 C   0  0  0  0  0
  -14.8170   10.4070  -26.4590 C   0  0  0  0  0
  -15.9670   10.7410  -27.3140 N   0  3  0  0  0
  -15.5500   11.5400  -28.4910 C   0  0  0  0  0
  -18.3830   10.4470  -30.7950 O   0  0  0  0  0
  -18.5860    9.0350  -31.0240 C   0  0  0  0  0
  -20.0550    8.6240  -31.0970 C   0  0  0  0  0
  -22.4070    9.1630  -30.9390 C   0  0  0  0  0
  -21.7500    6.9160  -31.4270 C   0  0  0  0  0
  -17.7290    8.5540  -32.1780 C   0  0  0  0  0
  -16.4490    8.0870  -31.9110 C   0  0  0  0  0
  -18.1900    8.5830  -33.4920 C   0  0  0  0  0
  -12.7060   12.2960  -23.1150 N   0  0  0  0  0
  -10.5080   12.4050  -22.1370 C   0  0  0  0  0
  -10.1560   13.6350  -20.1400 C   0  0  0  0  0
   -9.6040   14.2030  -19.0810 N   0  0  0  0  0
  -10.5160   14.8510  -18.4480 N   0  0  0  0  0
  -11.6820   14.7260  -19.0410 C   0  0  0  0  0
  -11.5030   13.9620  -20.1290 N   0  0  0  0  0
  -12.3630   13.5000  -21.1290 N   0  0  0  0  0
  -16.1054    8.8798  -28.2808 H   0  0  0  0  0
  -16.9783    8.9936  -26.7291 H   0  0  0  0  0
  -18.6777   10.3820  -27.6954 H   0  0  0  0  0
  -18.4336    8.9753  -28.8076 H   0  0  0  0  0
  -18.1851   11.8122  -29.2754 H   0  0  0  0  0
  -16.0985   11.8700  -30.5482 H   0  0  0  0  0
  -15.7749   10.1588  -30.1291 H   0  0  0  0  0
  -20.8184   10.5870  -30.6569 H   0  0  0  0  0
  -23.7999    7.5527  -31.2597 H   0  0  0  0  0
  -19.6338    6.5597  -31.5290 H   0  0  0  0  0
  -14.6421    7.2773  -32.7399 H   0  0  0  0  0
  -15.4678    7.3173  -35.0711 H   0  0  0  0  0
  -17.7576    8.1465  -35.5566 H   0  0  0  0  0
  -13.7740   10.8558  -21.9912 H   0  0  0  0  0
  -14.7814   12.0041  -22.8233 H   0  0  0  0  0
   -8.5850   12.5585  -21.2043 H   0  0  0  0  0
  -14.0418    9.4731  -23.8079 H   0  0  0  0  0
  -12.9707   10.5863  -24.6886 H   0  0  0  0  0
  -15.1574   11.9984  -25.0453 H   0  0  0  0  0
  -15.9936   10.4761  -24.6540 H   0  0  0  0  0
  -14.6819    9.3256  -26.4406 H   0  0  0  0  0
  -13.9202   10.8817  -26.8572 H   0  0  0  0  0
  -16.6103   11.3440  -26.8012 H   0  0  0  0  0
  -15.8371   12.5753  -28.3069 H   0  0  0  0  0
  -14.4750   11.4098  -28.6155 H   0  0  0  0  0
  -18.2376    8.5031  -30.1386 H   0  0  0  0  0
  -23.1903    9.9017  -30.7694 H   0  0  0  0  0
  -22.0077    5.8793  -31.6438 H   0  0  0  0  0
  -16.0764    8.0678  -30.8868 H   0  0  0  0  0
  -19.1894    8.9617  -33.7061 H   0  0  0  0  0
  -12.4903   12.5924  -24.0668 H   0  0  0  0  0
  -10.1358   11.7902  -22.9565 H   0  0  0  0  0
  -12.6235   15.1636  -18.7091 H   0  0  0  0  0
  2  1  1  0  0  0
  1 17  1  0  0  0
  3  2  1  0  0  0
  3  4  1  0  0  0
 19  3  1  0  0  0
  4 18  1  0  0  0
 21  5  4  0  0  0
  5 22  4  0  0  0
 22  6  4  0  0  0
 23  6  4  0  0  0
 21  7  4  0  0  0
  7 23  4  0  0  0
  8  9  4  0  0  0
 25  8  4  0  0  0
  9 10  4  0  0  0
 10 26  4  0  0  0
 14 11  1  0  0  0
 11 27  1  0  0  0
 27 12  1  0  0  0
 12 28  4  0  0  0
 12 34  4  0  0  0
 28 13  4  0  0  0
 13 29  4  0  0  0
 15 14  1  0  0  0
 16 15  1  0  0  0
 17 16  1  0  0  0
 18 17  1  0  0  0
 20 19  1  0  0  0
 20 21  1  0  0  0
 24 20  1  0  0  0
 24 25  4  0  0  0
 24 26  4  0  0  0
 29 30  4  0  0  0
 29 33  4  0  0  0
 30 31  4  0  0  0
 31 32  4  0  0  0
 32 33  4  0  0  0
 33 34  4  0  0  0
  1 35  1  0  0  0
  1 36  1  0  0  0
  2 37  1  0  0  0
  2 38  1  0  0  0
  3 39  1  0  0  0
  4 40  1  0  0  0
  4 41  1  0  0  0
  5 42  1  0  0  0
  6 43  1  0  0  0
  7 44  1  0  0  0
  8 45  1  0  0  0
  9 46  1  0  0  0
 10 47  1  0  0  0
 11 48  1  0  0  0
 11 49  1  0  0  0
 13 50  1  0  0  0
 14 51  1  0  0  0
 14 52  1  0  0  0
 15 53  1  0  0  0
 15 54  1  0  0  0
 16 55  1  0  0  0
 16 56  1  0  0  0
 17 57  1  0  0  0
 18 58  1  0  0  0
 18 59  1  0  0  0
 20 60  1  0  0  0
 22 61  1  0  0  0
 23 62  1  0  0  0
 25 63  1  0  0  0
 26 64  1  0  0  0
 27 65  1  0  0  0
 28 66  1  0  0  0
 32 67  1  0  0  0
M  END
$$$$
