1f5k_ligand
  -I-interpret- 

 17 17  0  0  0  0  0  0  0  0999 V2000
   31.6410    5.1930   28.1710 C   0  0  0  0  0
   30.5160    4.7390   28.9170 C   0  0  0  0  0
   29.4310    5.5860   29.2060 C   0  0  0  0  0
   29.4310    6.9220   28.7570 C   0  0  0  0  0
   30.5300    7.3980   28.0180 C   0  0  0  0  0
   31.6150    6.5470   27.7310 C   0  0  0  0  0
   32.7410    4.3330   27.8770 C   0  0  0  0  0
   33.7960    4.7450   27.1870 N   0  0  0  0  0
   32.7780    3.0680   28.2730 N   0  0  0  0  0
   30.4953    3.7090   29.2730 H   0  0  0  0  0
   28.5856    5.2072   29.7803 H   0  0  0  0  0
   28.5899    7.5786   28.9795 H   0  0  0  0  0
   30.5416    8.4296   27.6662 H   0  0  0  0  0
   32.4566    6.9350   27.1572 H   0  0  0  0  0
   34.5632    4.1008   26.9952 H   0  0  0  0  0
   33.8402    5.7061   26.8481 H   0  0  0  0  0
   33.5821    2.4845   28.0419 H   0  0  0  0  0
  1  7  1  0  0  0
  1  6  4  0  0  0
  1  2  4  0  0  0
  2  3  4  0  0  0
  3  4  4  0  0  0
  4  5  4  0  0  0
  5  6  4  0  0  0
  7  9  2  0  0  0
  7  8  1  0  0  0
  2 10  1  0  0  0
  3 11  1  0  0  0
  4 12  1  0  0  0
  5 13  1  0  0  0
  6 14  1  0  0  0
  8 15  1  0  0  0
  8 16  1  0  0  0
  9 17  1  0  0  0
M  END
$$$$
