### 
### Created by X-TOOL on Wed Jan  1 15:39:34 2020
### 

@<TRIPOS>MOLECULE
6g2m_ligand
   52    55     1     0     0
SMALL
GAST_HUCK


@<TRIPOS>ATOM
      1 OP2        -6.2110   26.2050   32.4090 O.co2     1 O84        -0.5660
      2 P          -5.7820   24.8420   32.0490 P.3       1 O84         0.0922
      3 OP1        -6.9190   23.9700   31.6620 O.co2     1 O84        -0.5660
      4 OP3        -5.0130   24.1820   33.2180 O.co2     1 O84        -0.5660
      5 CAB        -4.5610   24.8280   30.7040 C.3       1 O84         0.2365
      6 C2         -4.3130   23.4000   30.2820 C.ar      1 O84         0.0228
      7 CAA        -3.3430   22.6830   30.9520 C.ar      1 O84        -0.0333
      8 C9         -3.1130   21.3380   30.6000 C.ar      1 O84        -0.0322
      9 C10        -3.8790   20.7360   29.6080 C.ar      1 O84        -0.0340
     10 C11        -4.8150   21.4680   28.9010 C.ar      1 O84        -0.0322
     11 C12        -5.0400   22.8010   29.2610 C.ar      1 O84        -0.0333
     12 O3'        -5.0180   25.4680   29.4950 O.3       1 O84        -0.3659
     13 O7         -3.3620   25.4170   31.0680 O.3       1 O84        -0.3694
     14 C5'        -3.2420   26.8060   31.2940 C.3       1 O84         0.0697
     15 C4'        -3.9480   27.5540   30.1700 C.3       1 O84         0.1098
     16 O4'        -2.9780   27.5870   29.1100 O.3       1 O84        -0.3386
     17 C3'        -5.1660   26.8960   29.5390 C.3       1 O84         0.0855
     18 C2'        -5.1370   27.3760   28.0960 C.3       1 O84         0.0316
     19 C1'        -3.6230   27.7180   27.8990 C.3       1 O84         0.1814
     20 N9         -3.0190   26.8900   26.8520 N.am      1 O84        -0.1600
     21 C4         -3.3940   25.5570   26.6720 C.2       1 O84         0.0701
     22 C8         -2.0860   27.4340   26.0260 C.2       1 O84         0.3359
     23 O2         -1.6020   28.5990   26.2210 O.2       1 O84        -0.3796
     24 N1         -1.6460   26.6990   24.9620 N.am      1 O84        -0.1831
     25 C6         -2.1300   25.4330   24.6920 C.2       1 O84         0.1986
     26 O6         -1.6870   24.9650   23.6240 O.2       1 O84        -0.4034
     27 C5         -2.9760   24.8030   25.6450 C.2       1 O84         0.0414
     28 C17        -3.5130   23.4250   25.5900 C.2       1 O84        -0.0901
     29 C18        -3.5420   22.5850   24.6520 C.2       1 O84        -0.0878
     30 C19        -4.1740   21.2510   24.7830 C.3       1 O84         0.0355
     31 P2         -3.1930   20.0380   23.9890 P.3       1 O84         0.0668
     32 O11        -2.9200   20.4750   22.5210 O.co2     1 O84        -0.5608
     33 O9         -4.0340   18.7730   23.9360 O.co2     1 O84        -0.5608
     34 O10        -1.9010   19.8310   24.7410 O.co2     1 O84        -0.5608
     35 H1         -2.7640   23.1494   31.7408 H         1 O84         0.0852
     36 H2         -2.3377   20.7718   31.1034 H         1 O84         0.0698
     37 H3         -3.7412   19.6837   29.3870 H         1 O84         0.0856
     38 H4         -5.3645   21.0172   28.0826 H         1 O84         0.0698
     39 H5         -5.7937   23.3756   28.7348 H         1 O84         0.0852
     40 H6         -2.1785   27.0862   31.3123 H         1 O84         0.0577
     41 H7         -3.7060   27.0644   32.2573 H         1 O84         0.0577
     42 H8         -4.2180   28.5623   30.5169 H         1 O84         0.0645
     43 H9         -6.0928   27.1809   30.0585 H         1 O84         0.0615
     44 H10        -5.7692   28.2655   27.9576 H         1 O84         0.0345
     45 H11        -5.4614   26.5844   27.4046 H         1 O84         0.0345
     46 H12        -3.5438   28.7679   27.5804 H         1 O84         0.0977
     47 H13        -4.0615   25.1058   27.4047 H         1 O84         0.1168
     48 H14        -0.9509   27.0898   24.3586 H         1 O84         0.2264
     49 H15        -3.9598   23.0777   26.5204 H         1 O84         0.0374
     50 H16        -3.0818   22.8511   23.7016 H         1 O84         0.0448
     51 H17        -5.1707   21.2737   24.3182 H         1 O84         0.0582
     52 H18        -4.2722   20.9983   25.8491 H         1 O84         0.0582
@<TRIPOS>BOND
     1    1    2 ar 
     2    2    3 ar 
     3    2    4 ar 
     4    2    5 1  
     5    5    6 1  
     6    5   12 1  
     7    5   13 1  
     8    6    7 ar 
     9    6   11 ar 
    10    7    8 ar 
    11    8    9 ar 
    12    9   10 ar 
    13   10   11 ar 
    14   12   17 1  
    15   13   14 1  
    16   14   15 1  
    17   15   16 1  
    18   15   17 1  
    19   16   19 1  
    20   17   18 1  
    21   18   19 1  
    22   19   20 1  
    23   20   21 1  
    24   20   22 am 
    25   21   27 2  
    26   22   23 2  
    27   22   24 am 
    28   24   25 am 
    29   25   26 2  
    30   25   27 1  
    31   27   28 1  
    32   28   29 2  
    33   29   30 1  
    34   30   31 1  
    35   31   32 ar 
    36   31   33 ar 
    37   31   34 ar 
    38    7   35 1  
    39    8   36 1  
    40    9   37 1  
    41   10   38 1  
    42   11   39 1  
    43   14   40 1  
    44   14   41 1  
    45   15   42 1  
    46   17   43 1  
    47   18   44 1  
    48   18   45 1  
    49   19   46 1  
    50   21   47 1  
    51   24   48 1  
    52   28   49 1  
    53   29   50 1  
    54   30   51 1  
    55   30   52 1  
@<TRIPOS>SUBSTRUCTURE
     1 O84         1

