6g2m_ligand
  -I-interpret- 

 56 59  0  0  0  0  0  0  0  0999 V2000
   -6.2110   26.2050   32.4090 O   0  0  0  0  0
   -5.7820   24.8420   32.0490 P   0  0  0  0  0
   -6.9190   23.9700   31.6620 O   0  0  0  0  0
   -5.0130   24.1820   33.2180 O   0  0  0  0  0
   -4.5610   24.8280   30.7040 C   0  0  0  0  0
   -4.3130   23.4000   30.2820 C   0  0  0  0  0
   -3.3430   22.6830   30.9520 C   0  0  0  0  0
   -3.1130   21.3380   30.6000 C   0  0  0  0  0
   -3.8790   20.7360   29.6080 C   0  0  0  0  0
   -4.8150   21.4680   28.9010 C   0  0  0  0  0
   -5.0400   22.8010   29.2610 C   0  0  0  0  0
   -5.0180   25.4680   29.4950 O   0  0  0  0  0
   -3.3620   25.4170   31.0680 O   0  0  0  0  0
   -3.2420   26.8060   31.2940 C   0  0  0  0  0
   -3.9480   27.5540   30.1700 C   0  0  0  0  0
   -2.9780   27.5870   29.1100 O   0  0  0  0  0
   -5.1660   26.8960   29.5390 C   0  0  0  0  0
   -5.1370   27.3760   28.0960 C   0  0  0  0  0
   -3.6230   27.7180   27.8990 C   0  0  0  0  0
   -3.0190   26.8900   26.8520 N   0  0  0  0  0
   -3.3940   25.5570   26.6720 C   0  0  0  0  0
   -2.0860   27.4340   26.0260 C   0  0  0  0  0
   -1.6020   28.5990   26.2210 O   0  0  0  0  0
   -1.6460   26.6990   24.9620 N   0  0  0  0  0
   -2.1300   25.4330   24.6920 C   0  0  0  0  0
   -1.6870   24.9650   23.6240 O   0  0  0  0  0
   -2.9760   24.8030   25.6450 C   0  0  0  0  0
   -3.5130   23.4250   25.5900 C   0  0  0  0  0
   -3.5420   22.5850   24.6520 C   0  0  0  0  0
   -4.1740   21.2510   24.7830 C   0  0  0  0  0
   -3.1930   20.0380   23.9890 P   0  0  0  0  0
   -2.9200   20.4750   22.5210 O   0  0  0  0  0
   -4.0340   18.7730   23.9360 O   0  0  0  0  0
   -1.9010   19.8310   24.7410 O   0  0  0  0  0
   -6.5892   23.0968   31.4375 H   0  0  0  0  0
   -4.7433   23.2967   32.9628 H   0  0  0  0  0
   -2.7608   23.1520   31.7452 H   0  0  0  0  0
   -2.3334   20.7687   31.1062 H   0  0  0  0  0
   -3.7404   19.6779   29.3858 H   0  0  0  0  0
   -5.3676   21.0147   28.0780 H   0  0  0  0  0
   -5.7978   23.3788   28.7319 H   0  0  0  0  0
   -2.1886   27.0852   31.3165 H   0  0  0  0  0
   -3.6977   27.0637   32.2501 H   0  0  0  0  0
   -4.2995   28.4912   30.6015 H   0  0  0  0  0
   -6.0726   27.1378   30.0937 H   0  0  0  0  0
   -5.7991   28.2213   27.9083 H   0  0  0  0  0
   -5.5089   26.6364   27.3869 H   0  0  0  0  0
   -3.5205   28.7485   27.5590 H   0  0  0  0  0
   -4.0621   25.1054   27.4054 H   0  0  0  0  0
   -0.9370   27.0976   24.3466 H   0  0  0  0  0
   -3.9602   23.0773   26.5212 H   0  0  0  0  0
   -3.0813   22.8513   23.7007 H   0  0  0  0  0
   -5.1589   21.2751   24.3167 H   0  0  0  0  0
   -4.2648   21.0011   25.8401 H   0  0  0  0  0
   -3.7554   20.5999   22.0649 H   0  0  0  0  0
   -4.8435   18.9483   23.4506 H   0  0  0  0  0
  1  2  2  0  0  0
  2  3  1  0  0  0
  2  4  1  0  0  0
  2  5  1  0  0  0
  5  6  1  0  0  0
  5 12  1  0  0  0
  5 13  1  0  0  0
  6  7  4  0  0  0
  6 11  4  0  0  0
  7  8  4  0  0  0
  8  9  4  0  0  0
  9 10  4  0  0  0
 10 11  4  0  0  0
 12 17  1  0  0  0
 13 14  1  0  0  0
 14 15  1  0  0  0
 15 16  1  0  0  0
 15 17  1  0  0  0
 16 19  1  0  0  0
 17 18  1  0  0  0
 18 19  1  0  0  0
 19 20  1  0  0  0
 20 21  1  0  0  0
 20 22  1  0  0  0
 21 27  2  0  0  0
 22 23  2  0  0  0
 22 24  1  0  0  0
 24 25  1  0  0  0
 25 26  2  0  0  0
 25 27  1  0  0  0
 27 28  1  0  0  0
 28 29  2  0  0  0
 29 30  1  0  0  0
 30 31  1  0  0  0
 31 32  1  0  0  0
 31 33  1  0  0  0
 31 34  2  0  0  0
  3 35  1  0  0  0
  4 36  1  0  0  0
  7 37  1  0  0  0
  8 38  1  0  0  0
  9 39  1  0  0  0
 10 40  1  0  0  0
 11 41  1  0  0  0
 14 42  1  0  0  0
 14 43  1  0  0  0
 15 44  1  0  0  0
 17 45  1  0  0  0
 18 46  1  0  0  0
 18 47  1  0  0  0
 19 48  1  0  0  0
 21 49  1  0  0  0
 24 50  1  0  0  0
 28 51  1  0  0  0
 29 52  1  0  0  0
 30 53  1  0  0  0
 30 54  1  0  0  0
 32 55  1  0  0  0
 33 56  1  0  0  0
M  END
$$$$
