6tl2_ligand
  -I-interpret- 

 30 30  0  0  0  0  0  0  0  0999 V2000
  -27.4920  -17.8530  -31.2520 C   0  0  0  0  0
  -25.7040  -18.2000  -29.1160 C   0  0  0  0  0
  -24.8820  -17.5680  -28.1880 C   0  0  0  0  0
  -25.3760  -17.1630  -26.9430 C   0  0  0  0  0
  -24.5200  -16.5080  -26.0480 C   0  0  0  0  0
  -23.2020  -16.2630  -26.4030 C   0  0  0  0  0
  -22.7210  -16.6380  -27.6520 C   0  0  0  0  0
  -21.4220  -16.3840  -27.9690 C   0  0  0  0  0
  -18.9190  -17.7790  -26.9980 C   0  0  0  0  0
  -23.5590  -17.3100  -28.5400 C   0  0  0  0  0
  -28.3830  -18.7270  -30.7860 N   0  0  0  0  0
  -27.3160  -17.5970  -32.5470 N   0  0  0  0  0
  -18.3140  -18.7440  -26.2980 N   0  0  0  0  0
  -18.2610  -16.8760  -27.7110 N   0  0  0  0  0
  -26.5590  -16.9270  -30.1170 S   0  0  0  0  0
  -20.6710  -17.6900  -26.8850 S   0  0  0  0  0
  -25.0650  -15.9320  -24.3450 Br  0  0  0  0  0
  -26.4391  -18.8156  -28.5976 H   0  0  0  0  0
  -25.1039  -18.8372  -29.7656 H   0  0  0  0  0
  -26.4144  -17.3548  -26.6728 H   0  0  0  0  0
  -22.5357  -15.7708  -25.6945 H   0  0  0  0  0
  -21.0773  -15.3637  -27.8008 H   0  0  0  0  0
  -21.1674  -16.4339  -29.0277 H   0  0  0  0  0
  -23.1795  -17.6335  -29.5093 H   0  0  0  0  0
  -28.9776  -19.2438  -31.4340 H   0  0  0  0  0
  -28.4706  -18.8794  -29.7813 H   0  0  0  0  0
  -26.6527  -16.8794  -32.8395 H   0  0  0  0  0
  -17.2962  -18.8108  -26.2958 H   0  0  0  0  0
  -18.8702  -19.4135  -25.7662 H   0  0  0  0  0
  -18.7712  -16.1343  -28.1906 H   0  0  0  0  0
  1 11  1  0  0  0
  1 12  2  0  0  0
 15  1  1  0  0  0
  3  2  1  0  0  0
  2 15  1  0  0  0
  3  4  4  0  0  0
 10  3  4  0  0  0
  5  4  4  0  0  0
  6  5  4  0  0  0
  5 17  1  0  0  0
  7  6  4  0  0  0
  8  7  1  0  0  0
  7 10  4  0  0  0
 16  8  1  0  0  0
  9 13  1  0  0  0
  9 14  2  0  0  0
  9 16  1  0  0  0
  2 18  1  0  0  0
  2 19  1  0  0  0
  4 20  1  0  0  0
  6 21  1  0  0  0
  8 22  1  0  0  0
  8 23  1  0  0  0
 10 24  1  0  0  0
 11 25  1  0  0  0
 11 26  1  0  0  0
 12 27  1  0  0  0
 13 28  1  0  0  0
 13 29  1  0  0  0
 14 30  1  0  0  0
M  END
$$$$
