6pi6_ligand
  -I-interpret- 

 29 29  0  0  0  0  0  0  0  0999 V2000
  -15.4690    2.0140   -7.5250 C   0  0  0  0  0
   -8.6080    1.1180   -2.1030 C   0  0  0  0  0
   -9.4760    2.3940   -2.2020 C   0  0  0  0  0
  -10.6200    2.1470   -3.0370 N   0  0  0  0  0
  -11.5210    3.0570   -3.4080 C   0  0  0  0  0
  -11.4450    4.3880   -2.8860 N   0  0  0  0  0
  -12.4130    5.3030   -3.3370 C   0  0  0  0  0
  -12.4210    6.4280   -2.9120 O   0  0  0  0  0
  -13.4980    4.9150   -4.1310 N   0  0  0  0  0
  -13.5270    3.5730   -4.6660 C   0  0  0  0  0
  -12.5790    2.6360   -4.1990 N   0  0  0  0  0
  -14.5830    3.1870   -5.4740 N   0  0  0  0  0
  -14.7810    1.8880   -6.1180 C   0  0  0  0  0
  -15.6180    1.0720   -5.1840 C   0  0  0  0  0
  -16.4452    2.4850   -7.4098 H   0  0  0  0  0
  -14.8455    2.6228   -8.1797 H   0  0  0  0  0
  -15.5919    1.0213   -7.9581 H   0  0  0  0  0
   -9.1996    0.3102   -1.6721 H   0  0  0  0  0
   -8.2705    0.8315   -3.0991 H   0  0  0  0  0
   -7.7442    1.3160   -1.4683 H   0  0  0  0  0
   -8.8824    3.1987   -2.6359 H   0  0  0  0  0
   -9.8141    2.6760   -1.2048 H   0  0  0  0  0
  -10.7538    1.1938   -3.3745 H   0  0  0  0  0
  -12.6727    1.6502   -4.4435 H   0  0  0  0  0
  -15.3053    3.8880   -5.6392 H   0  0  0  0  0
  -13.8171    1.4155   -6.3068 H   0  0  0  0  0
  -15.0958    0.9601   -4.2338 H   0  0  0  0  0
  -16.5712    1.5744   -5.0193 H   0  0  0  0  0
  -15.7946    0.0891   -5.6209 H   0  0  0  0  0
 13  1  1  0  0  0
  3  2  1  0  0  0
  4  3  1  0  0  0
  5  4  1  0  0  0
  5  6  4  0  0  0
 11  5  1  0  0  0
  7  6  1  0  0  0
  7  8  2  0  0  0
  9  7  1  0  0  0
 10  9  4  0  0  0
 10 11  1  0  0  0
 12 10  1  0  0  0
 12 13  1  0  0  0
 13 14  1  0  0  0
  1 15  1  0  0  0
  1 16  1  0  0  0
  1 17  1  0  0  0
  2 18  1  0  0  0
  2 19  1  0  0  0
  2 20  1  0  0  0
  3 21  1  0  0  0
  3 22  1  0  0  0
  4 23  1  0  0  0
 11 24  1  0  0  0
 12 25  1  0  0  0
 13 26  1  0  0  0
 14 27  1  0  0  0
 14 28  1  0  0  0
 14 29  1  0  0  0
M  END
$$$$
