### 
### Created by X-TOOL on Mon Aug  2 16:17:05 2021
### 

@<TRIPOS>MOLECULE
6i4x_ligand
  146   148     1     0     0
SMALL
GAST_HUCK


@<TRIPOS>ATOM
      1 N         121.9330   30.9480  215.8710 N.4       1 SER         0.2396
      2 CA        121.6360   32.2040  216.5490 C.3       1 SER         0.0885
      3 C         122.7150   32.5500  217.5700 C.2       1 SER         0.2291
      4 O         123.8970   32.6380  217.2340 O.2       1 SER        -0.3906
      5 CB        120.2710   32.1330  217.2340 C.3       1 SER         0.1041
      6 OG        120.3260   31.3180  218.3920 O.3       1 SER        -0.3870
      7 N         122.2980   32.7400  218.8230 N.am      1 SER        -0.2592
      8 CA        123.2300   33.1530  219.8670 C.3       1 SER         0.1406
      9 C         124.1390   32.0160  220.3160 C.2       1 SER         0.2059
     10 O         125.3010   32.2610  220.6610 O.2       1 SER        -0.3942
     11 CB        122.4600   33.7090  221.0670 C.3       1 SER         0.0214
     12 CG        121.5770   34.8770  220.7320 C.ar      1 SER        -0.0386
     13 CD1       121.9430   35.7800  219.7460 C.ar      1 SER        -0.0601
     14 CD2       120.3810   35.0720  221.4020 C.ar      1 SER        -0.0601
     15 CE1       121.1310   36.8550  219.4340 C.ar      1 SER        -0.0686
     16 CE2       119.5640   36.1450  221.0950 C.ar      1 SER        -0.0686
     17 CZ        119.9410   37.0380  220.1100 C.ar      1 SER        -0.0687
     18 N         123.6420   30.7830  220.3200 N.am      1 SER        -0.2639
     19 CA        124.4300   29.6450  220.7830 C.3       1 SER         0.1282
     20 C         125.0420   28.8680  219.6230 C.2       1 SER         0.2038
     21 O         125.4960   27.7360  219.7960 O.2       1 SER        -0.3944
     22 CB        123.5670   28.7110  221.6350 C.3       1 SER        -0.0244
     23 N         125.0560   29.4750  218.4430 N.am      1 SER        -0.2607
     24 CA        125.6110   28.8120  217.2700 C.3       1 SER         0.1468
     25 C         126.9260   29.4280  216.8150 C.2       1 SER         0.2075
     26 O         127.1910   30.6120  217.0200 O.2       1 SER        -0.3941
     27 CB        124.5970   28.8270  216.1280 C.3       1 SER         0.0400
     28 CG        123.6580   27.6480  216.1760 C.ar      1 SER        -0.0004
     29 CD1       122.5660   27.6410  217.0320 C.ar      1 SER        -0.0239
     30 CD2       123.8750   26.5320  215.3800 C.ar      1 SER        -0.0239
     31 CE1       121.7090   26.5590  217.0870 C.ar      1 SER         0.0115
     32 CE2       123.0230   25.4450  215.4280 C.ar      1 SER         0.0115
     33 CZ        121.9410   25.4650  216.2820 C.ar      1 SER         0.1728
     34 OH        121.1380   24.4440  216.3300 O.3       1 SER        -0.2040
     35 P         119.8220   24.3960  215.4030 P.3       1 SER         0.1348
     36 O1P       120.2240   23.9840  214.0410 O.co2     1 SER        -0.6653
     37 O2P       118.8250   23.3700  215.9730 O.co2     1 SER        -0.6653
     38 O3P       119.1630   25.7880  215.3510 O.co2     1 SER        -0.6653
     39 N         127.7490   28.5930  216.1920 N.am      1 SER        -0.2611
     40 CA        129.0650   28.9980  215.7290 C.3       1 SER         0.1565
     41 C         129.1780   28.8020  214.2210 C.2       1 SER         0.2065
     42 O         128.5620   27.9020  213.6510 O.2       1 SER        -0.3943
     43 CB        130.1810   28.1980  216.4440 C.3       1 SER         0.0924
     44 OG1       130.0020   28.2880  217.8620 O.3       1 SER        -0.3874
     45 CG2       131.5620   28.7300  216.0850 C.3       1 SER        -0.0346
     46 N         129.9520   29.6740  213.5800 N.am      1 SER        -0.2634
     47 CA        130.3590   29.5050  212.1940 C.3       1 SER         0.1335
     48 C         131.8810   29.4820  212.1600 C.2       1 SER         0.2042
     49 O         132.5520   29.9740  213.0700 O.2       1 SER        -0.3944
     50 CB        129.7960   30.6130  211.2780 C.3       1 SER        -0.0037
     51 CG1       129.7390   30.1360  209.8250 C.3       1 SER        -0.0491
     52 CG2       130.6200   31.8840  211.4040 C.3       1 SER        -0.0582
     53 CD1       128.9890   31.0730  208.9090 C.3       1 SER        -0.0648
     54 N         132.4280   28.8850  211.1090 N.am      1 SER        -0.2637
     55 CA        133.8760   28.8030  210.9800 C.3       1 SER         0.1312
     56 C         134.3910   30.0120  210.2100 C.2       1 SER         0.2040
     57 O         133.9150   30.3190  209.1140 O.2       1 SER        -0.3944
     58 CB        134.2910   27.4990  210.2910 C.3       1 SER        -0.0101
     59 CG        134.6060   26.3570  211.2670 C.3       1 SER        -0.0425
     60 CD1       133.4660   26.1520  212.2460 C.3       1 SER        -0.0625
     61 CD2       134.9310   25.0530  210.5450 C.3       1 SER        -0.0625
     62 N         135.3620   30.6970  210.7960 N.am      1 SER        -0.2622
     63 CA        135.8580   31.9710  210.3090 C.3       1 SER         0.1424
     64 C         137.3590   32.0440  210.5440 C.2       1 SER         0.2075
     65 O         137.8660   31.4670  211.5130 O.2       1 SER        -0.3941
     66 CB        135.1600   33.1440  211.0200 C.3       1 SER         0.0406
     67 CG        135.3120   34.4570  210.2750 C.2       1 SER         0.0393
     68 OD1       136.3780   35.0940  210.4040 O.co2     1 SER        -0.5688
     69 OD2       134.3600   34.8610  209.5760 O.co2     1 SER        -0.5688
     70 N         138.1030   32.7220  209.6580 N.am      1 SER        -0.2555
     71 CA        139.5240   33.0120  209.8550 C.3       1 SER         0.0972
     72 C         139.7410   34.2880  210.6620 C.2       1 SER         0.0603
     73 O         140.1080   34.2010  211.8330 O.co2     1 SER        -0.5666
     74 CB        140.0350   33.1790  208.4260 C.3       1 SER        -0.0159
     75 CG        138.8740   33.7560  207.7080 C.3       1 SER        -0.0288
     76 CD        137.6850   33.0370  208.2840 C.3       1 SER         0.0362
     77 OXT       139.5440   35.3770  210.1250 O.co2     1 SER        -0.5666
     78 H1        121.2047   30.7458  215.2041 H         1 SER         0.2016
     79 H2        121.9836   30.2039  216.5491 H         1 SER         0.2016
     80 H3        122.8159   31.0259  215.3910 H         1 SER         0.2016
     81 H4        121.6056   33.0034  215.7940 H         1 SER         0.1122
     82 H5        119.5374   31.7108  216.5315 H         1 SER         0.0640
     83 H6        119.9602   33.1479  217.5228 H         1 SER         0.0640
     84 H7        119.4681   31.2896  218.7989 H         1 SER         0.2099
     85 H8        121.3345   32.5976  219.0496 H         1 SER         0.1886
     86 H9        123.8639   33.9538  219.4586 H         1 SER         0.0823
     87 H10       123.1873   34.0308  221.8270 H         1 SER         0.0474
     88 H11       121.8312   32.9056  221.4782 H         1 SER         0.0474
     89 H12       122.8768   35.6418  219.2132 H         1 SER         0.0557
     90 H13       120.0814   34.3753  222.1765 H         1 SER         0.0557
     91 H14       121.4283   37.5530  218.6598 H         1 SER         0.0599
     92 H15       118.6295   36.2852  221.6262 H         1 SER         0.0599
     93 H16       119.3035   37.8808  219.8685 H         1 SER         0.0559
     94 H17       122.7072   30.6318  219.9986 H         1 SER         0.1883
     95 H18       125.2492   30.0294  221.4083 H         1 SER         0.0797
     96 H19       124.1745   27.8596  221.9758 H         1 SER         0.0277
     97 H20       122.7229   28.3418  221.0341 H         1 SER         0.0277
     98 H21       123.1835   29.2603  222.5075 H         1 SER         0.0277
     99 H22       124.6813   30.3982  218.3578 H         1 SER         0.1886
    100 H23       125.8085   27.7641  217.5400 H         1 SER         0.0840
    101 H24       125.1412   28.8061  215.1723 H         1 SER         0.0584
    102 H25       124.0056   29.7522  216.1931 H         1 SER         0.0584
    103 H26       122.3823   28.4991  217.6683 H         1 SER         0.0703
    104 H27       124.7267   26.5127  214.7097 H         1 SER         0.0703
    105 H28       120.8589   26.5705  217.7595 H         1 SER         0.0736
    106 H29       123.2044   24.5818  214.7979 H         1 SER         0.0736
    107 H30       127.4521   27.6509  216.0358 H         1 SER         0.1884
    108 H31       129.1999   30.0656  215.9570 H         1 SER         0.0826
    109 H32       130.1141   27.1441  216.1360 H         1 SER         0.0639
    110 H33       129.1546   27.9282  218.0966 H         1 SER         0.2101
    111 H34       132.3293   28.1409  216.6085 H         1 SER         0.0257
    112 H35       131.6390   29.7845  216.3884 H         1 SER         0.0257
    113 H36       131.7153   28.6488  214.9988 H         1 SER         0.0257
    114 H37       130.2687   30.4835  214.0744 H         1 SER         0.1883
    115 H38       129.9796   28.5386  211.8305 H         1 SER         0.0803
    116 H39       128.7697   30.8381  211.6037 H         1 SER         0.0345
    117 H40       129.2425   29.1548  209.8005 H         1 SER         0.0267
    118 H41       130.7688   30.0353  209.4516 H         1 SER         0.0267
    119 H42       130.6435   32.2029  212.4565 H         1 SER         0.0235
    120 H43       130.1671   32.6769  210.7907 H         1 SER         0.0235
    121 H44       131.6457   31.6920  211.0561 H         1 SER         0.0235
    122 H45       128.9903   30.6658  207.8871 H         1 SER         0.0230
    123 H46       129.4783   32.0582  208.9117 H         1 SER         0.0230
    124 H47       127.9520   31.1776  209.2607 H         1 SER         0.0230
    125 H48       131.8426   28.4891  210.4015 H         1 SER         0.1883
    126 H49       134.3177   28.8163  211.9873 H         1 SER         0.0800
    127 H50       135.1886   27.6963  209.6865 H         1 SER         0.0315
    128 H51       133.4697   27.1771  209.6338 H         1 SER         0.0315
    129 H52       135.4967   26.6494  211.8425 H         1 SER         0.0298
    130 H53       133.7160   25.3300  212.9329 H         1 SER         0.0232
    131 H54       132.5485   25.9017  211.6933 H         1 SER         0.0232
    132 H55       133.3067   27.0755  212.8220 H         1 SER         0.0232
    133 H56       135.7588   25.2206  209.8402 H         1 SER         0.0232
    134 H57       134.0439   24.7083  209.9934 H         1 SER         0.0232
    135 H58       135.2247   24.2898  211.2807 H         1 SER         0.0232
    136 H59       135.7770   30.3141  211.6214 H         1 SER         0.1884
    137 H60       135.6580   32.0422  209.2297 H         1 SER         0.0819
    138 H61       135.5964   33.2567  212.0234 H         1 SER         0.0478
    139 H62       134.0883   32.9130  211.1100 H         1 SER         0.0478
    140 H63       140.0277   32.1743  210.3595 H         1 SER         0.0728
    141 H64       140.3209   32.2083  207.9948 H         1 SER         0.0306
    142 H65       140.8963   33.8625  208.3939 H         1 SER         0.0306
    143 H66       138.9541   33.5719  206.6265 H         1 SER         0.0286
    144 H67       138.8012   34.8381  207.8914 H         1 SER         0.0286
    145 H68       136.7960   33.6848  208.2828 H         1 SER         0.0524
    146 H69       137.4700   32.1183  207.7186 H         1 SER         0.0524
@<TRIPOS>BOND
     1    1    2 1  
     2    2    3 1  
     3    2    5 1  
     4    3    4 2  
     5    3    7 am 
     6    5    6 1  
     7    7    8 1  
     8    8    9 1  
     9    8   11 1  
    10    9   10 2  
    11    9   18 am 
    12   11   12 1  
    13   12   13 ar 
    14   12   14 ar 
    15   13   15 ar 
    16   14   16 ar 
    17   15   17 ar 
    18   16   17 ar 
    19   18   19 1  
    20   19   20 1  
    21   19   22 1  
    22   20   21 2  
    23   20   23 am 
    24   23   24 1  
    25   24   25 1  
    26   24   27 1  
    27   25   26 2  
    28   25   39 am 
    29   27   28 1  
    30   28   29 ar 
    31   28   30 ar 
    32   29   31 ar 
    33   30   32 ar 
    34   31   33 ar 
    35   32   33 ar 
    36   33   34 1  
    37   34   35 1  
    38   35   36 ar 
    39   35   37 ar 
    40   35   38 ar 
    41   39   40 1  
    42   40   41 1  
    43   40   43 1  
    44   41   42 2  
    45   41   46 am 
    46   43   44 1  
    47   43   45 1  
    48   46   47 1  
    49   47   48 1  
    50   47   50 1  
    51   48   49 2  
    52   48   54 am 
    53   50   51 1  
    54   50   52 1  
    55   51   53 1  
    56   54   55 1  
    57   55   56 1  
    58   55   58 1  
    59   56   57 2  
    60   56   62 am 
    61   58   59 1  
    62   59   60 1  
    63   59   61 1  
    64   62   63 1  
    65   63   64 1  
    66   63   66 1  
    67   64   65 2  
    68   64   70 am 
    69   66   67 1  
    70   67   68 ar 
    71   67   69 ar 
    72   70   71 1  
    73   70   76 1  
    74   71   72 1  
    75   71   74 1  
    76   72   73 ar 
    77   72   77 ar 
    78   74   75 1  
    79   75   76 1  
    80    1   78 1  
    81    1   79 1  
    82    1   80 1  
    83    2   81 1  
    84    5   82 1  
    85    5   83 1  
    86    6   84 1  
    87    7   85 1  
    88    8   86 1  
    89   11   87 1  
    90   11   88 1  
    91   13   89 1  
    92   14   90 1  
    93   15   91 1  
    94   16   92 1  
    95   17   93 1  
    96   18   94 1  
    97   19   95 1  
    98   22   96 1  
    99   22   97 1  
   100   22   98 1  
   101   23   99 1  
   102   24  100 1  
   103   27  101 1  
   104   27  102 1  
   105   29  103 1  
   106   30  104 1  
   107   31  105 1  
   108   32  106 1  
   109   39  107 1  
   110   40  108 1  
   111   43  109 1  
   112   44  110 1  
   113   45  111 1  
   114   45  112 1  
   115   45  113 1  
   116   46  114 1  
   117   47  115 1  
   118   50  116 1  
   119   51  117 1  
   120   51  118 1  
   121   52  119 1  
   122   52  120 1  
   123   52  121 1  
   124   53  122 1  
   125   53  123 1  
   126   53  124 1  
   127   54  125 1  
   128   55  126 1  
   129   58  127 1  
   130   58  128 1  
   131   59  129 1  
   132   60  130 1  
   133   60  131 1  
   134   60  132 1  
   135   61  133 1  
   136   61  134 1  
   137   61  135 1  
   138   62  136 1  
   139   63  137 1  
   140   66  138 1  
   141   66  139 1  
   142   71  140 1  
   143   74  141 1  
   144   74  142 1  
   145   75  143 1  
   146   75  144 1  
   147   76  145 1  
   148   76  146 1  
@<TRIPOS>SUBSTRUCTURE
     1 SER         1

