6i4x_ligand
  -I-interpret- 

150152  0  0  0  0  0  0  0  0999 V2000
  121.9330   30.9480  215.8710 N   0  3  0  0  0
  121.6360   32.2040  216.5490 C   0  0  0  0  0
  122.7150   32.5500  217.5700 C   0  0  0  0  0
  123.8970   32.6380  217.2340 O   0  0  0  0  0
  120.2710   32.1330  217.2340 C   0  0  0  0  0
  120.3260   31.3180  218.3920 O   0  0  0  0  0
  122.2980   32.7400  218.8230 N   0  0  0  0  0
  123.2300   33.1530  219.8670 C   0  0  0  0  0
  124.1390   32.0160  220.3160 C   0  0  0  0  0
  125.3010   32.2610  220.6610 O   0  0  0  0  0
  122.4600   33.7090  221.0670 C   0  0  0  0  0
  121.5770   34.8770  220.7320 C   0  0  0  0  0
  121.9430   35.7800  219.7460 C   0  0  0  0  0
  120.3810   35.0720  221.4020 C   0  0  0  0  0
  121.1310   36.8550  219.4340 C   0  0  0  0  0
  119.5640   36.1450  221.0950 C   0  0  0  0  0
  119.9410   37.0380  220.1100 C   0  0  0  0  0
  123.6420   30.7830  220.3200 N   0  0  0  0  0
  124.4300   29.6450  220.7830 C   0  0  0  0  0
  125.0420   28.8680  219.6230 C   0  0  0  0  0
  125.4960   27.7360  219.7960 O   0  0  0  0  0
  123.5670   28.7110  221.6350 C   0  0  0  0  0
  125.0560   29.4750  218.4430 N   0  0  0  0  0
  125.6110   28.8120  217.2700 C   0  0  0  0  0
  126.9260   29.4280  216.8150 C   0  0  0  0  0
  127.1910   30.6120  217.0200 O   0  0  0  0  0
  124.5970   28.8270  216.1280 C   0  0  0  0  0
  123.6580   27.6480  216.1760 C   0  0  0  0  0
  122.5660   27.6410  217.0320 C   0  0  0  0  0
  123.8750   26.5320  215.3800 C   0  0  0  0  0
  121.7090   26.5590  217.0870 C   0  0  0  0  0
  123.0230   25.4450  215.4280 C   0  0  0  0  0
  121.9410   25.4650  216.2820 C   0  0  0  0  0
  121.1380   24.4440  216.3300 O   0  0  0  0  0
  119.8220   24.3960  215.4030 P   0  0  0  0  0
  120.2240   23.9840  214.0410 O   0  0  0  0  0
  118.8250   23.3700  215.9730 O   0  0  0  0  0
  119.1630   25.7880  215.3510 O   0  0  0  0  0
  127.7490   28.5930  216.1920 N   0  0  0  0  0
  129.0650   28.9980  215.7290 C   0  0  0  0  0
  129.1780   28.8020  214.2210 C   0  0  0  0  0
  128.5620   27.9020  213.6510 O   0  0  0  0  0
  130.1810   28.1980  216.4440 C   0  0  0  0  0
  130.0020   28.2880  217.8620 O   0  0  0  0  0
  131.5620   28.7300  216.0850 C   0  0  0  0  0
  129.9520   29.6740  213.5800 N   0  0  0  0  0
  130.3590   29.5050  212.1940 C   0  0  0  0  0
  131.8810   29.4820  212.1600 C   0  0  0  0  0
  132.5520   29.9740  213.0700 O   0  0  0  0  0
  129.7960   30.6130  211.2780 C   0  0  0  0  0
  129.7390   30.1360  209.8250 C   0  0  0  0  0
  130.6200   31.8840  211.4040 C   0  0  0  0  0
  128.9890   31.0730  208.9090 C   0  0  0  0  0
  132.4280   28.8850  211.1090 N   0  0  0  0  0
  133.8760   28.8030  210.9800 C   0  0  0  0  0
  134.3910   30.0120  210.2100 C   0  0  0  0  0
  133.9150   30.3190  209.1140 O   0  0  0  0  0
  134.2910   27.4990  210.2910 C   0  0  0  0  0
  134.6060   26.3570  211.2670 C   0  0  0  0  0
  133.4660   26.1520  212.2460 C   0  0  0  0  0
  134.9310   25.0530  210.5450 C   0  0  0  0  0
  135.3620   30.6970  210.7960 N   0  0  0  0  0
  135.8580   31.9710  210.3090 C   0  0  0  0  0
  137.3590   32.0440  210.5440 C   0  0  0  0  0
  137.8660   31.4670  211.5130 O   0  0  0  0  0
  135.1600   33.1440  211.0200 C   0  0  0  0  0
  135.3120   34.4570  210.2750 C   0  0  0  0  0
  136.3780   35.0940  210.4040 O   0  0  0  0  0
  134.3600   34.8610  209.5760 O   0  0  0  0  0
  138.1030   32.7220  209.6580 N   0  0  0  0  0
  139.5240   33.0120  209.8550 C   0  0  0  0  0
  139.7410   34.2880  210.6620 C   0  0  0  0  0
  140.1080   34.2010  211.8330 O   0  0  0  0  0
  140.0350   33.1790  208.4260 C   0  0  0  0  0
  138.8740   33.7560  207.7080 C   0  0  0  0  0
  137.6850   33.0370  208.2840 C   0  0  0  0  0
  139.5440   35.3770  210.1250 O   0  0  0  0  0
  122.8458   31.0137  215.4205 H   0  0  0  0  0
  121.9427   30.1891  216.5525 H   0  0  0  0  0
  121.2176   30.7654  215.1673 H   0  0  0  0  0
  121.6148   32.9910  215.7952 H   0  0  0  0  0
  119.5519   31.7025  216.5371 H   0  0  0  0  0
  119.9747   33.1397  217.5286 H   0  0  0  0  0
  119.4590   31.2893  218.8032 H   0  0  0  0  0
  121.3152   32.5947  219.0541 H   0  0  0  0  0
  123.8660   33.9301  219.4431 H   0  0  0  0  0
  123.1955   34.0552  221.7932 H   0  0  0  0  0
  121.8169   32.9113  221.4386 H   0  0  0  0  0
  122.8820   35.6411  219.2102 H   0  0  0  0  0
  120.0797   34.3714  222.1808 H   0  0  0  0  0
  121.4299   37.5569  218.6555 H   0  0  0  0  0
  118.6243   36.2860  221.6291 H   0  0  0  0  0
  119.3000   37.8855  219.8671 H   0  0  0  0  0
  122.6885   30.6288  219.9921 H   0  0  0  0  0
  125.2455   30.0401  221.3887 H   0  0  0  0  0
  123.1876   29.2564  222.4991 H   0  0  0  0  0
  122.7310   28.3459  221.0384 H   0  0  0  0  0
  124.1700   27.8679  221.9720 H   0  0  0  0  0
  124.6738   30.4167  218.3561 H   0  0  0  0  0
  125.8249   27.7823  217.5563 H   0  0  0  0  0
  125.1473   28.7813  215.1883 H   0  0  0  0  0
  124.0017   29.7356  216.2180 H   0  0  0  0  0
  122.3813   28.5039  217.6719 H   0  0  0  0  0
  124.7314   26.5126  214.7060 H   0  0  0  0  0
  120.8542   26.5706  217.7633 H   0  0  0  0  0
  123.2054   24.5770  214.7944 H   0  0  0  0  0
  118.5635   23.6368  216.8573 H   0  0  0  0  0
  118.9037   26.0514  216.2370 H   0  0  0  0  0
  127.4462   27.6321  216.0327 H   0  0  0  0  0
  129.1918   30.0541  215.9671 H   0  0  0  0  0
  130.1129   27.1604  216.1172 H   0  0  0  0  0
  130.6951   27.7913  218.3031 H   0  0  0  0  0
  131.7126   28.6491  215.0085 H   0  0  0  0  0
  131.6370   29.7749  216.3861 H   0  0  0  0  0
  132.3214   28.1455  216.6043 H   0  0  0  0  0
  130.2750   30.4997  214.0843 H   0  0  0  0  0
  129.9533   28.5696  211.8086 H   0  0  0  0  0
  128.7787   30.8390  211.5977 H   0  0  0  0  0
  129.2142   29.1807  209.8154 H   0  0  0  0  0
  130.7646   30.0751  209.4610 H   0  0  0  0  0
  130.5931   32.2321  212.4366 H   0  0  0  0  0
  131.6507   31.6774  211.1156 H   0  0  0  0  0
  130.2051   32.6508  210.7498 H   0  0  0  0  0
  127.9617   31.1758  209.2586 H   0  0  0  0  0
  129.4748   32.0488  208.9126 H   0  0  0  0  0
  128.9910   30.6685  207.8968 H   0  0  0  0  0
  131.8309   28.4812  210.3873 H   0  0  0  0  0
  134.3190   28.8042  211.9759 H   0  0  0  0  0
  135.2003   27.7045  209.7262 H   0  0  0  0  0
  133.4533   27.1768  209.6726 H   0  0  0  0  0
  135.4967   26.6515  211.8221 H   0  0  0  0  0
  133.3092   27.0677  212.8160 H   0  0  0  0  0
  132.5575   25.9041  211.6971 H   0  0  0  0  0
  133.7148   25.3373  212.9260 H   0  0  0  0  0
  134.0773   24.7532  209.9372 H   0  0  0  0  0
  135.8006   25.2007  209.9046 H   0  0  0  0  0
  135.1465   24.2767  211.2791 H   0  0  0  0  0
  135.7853   30.3065  211.6379 H   0  0  0  0  0
  135.6435   32.0468  209.2430 H   0  0  0  0  0
  135.6204   33.2615  212.0010 H   0  0  0  0  0
  134.0961   32.9141  211.0778 H   0  0  0  0  0
  136.9721   34.6080  210.9806 H   0  0  0  0  0
  140.0382   32.2335  210.4187 H   0  0  0  0  0
  140.2066   33.2755  212.0683 H   0  0  0  0  0
  140.3701   32.2380  207.9897 H   0  0  0  0  0
  140.9186   33.8148  208.3701 H   0  0  0  0  0
  138.9512   33.6218  206.6290 H   0  0  0  0  0
  138.8046   34.8356  207.8415 H   0  0  0  0  0
  136.7778   33.6404  208.2525 H   0  0  0  0  0
  137.4207   32.1461  207.7143 H   0  0  0  0  0
  1  2  1  0  0  0
  2  3  1  0  0  0
  2  5  1  0  0  0
  3  4  2  0  0  0
  3  7  1  0  0  0
  5  6  1  0  0  0
  7  8  1  0  0  0
  8  9  1  0  0  0
  8 11  1  0  0  0
  9 10  2  0  0  0
  9 18  1  0  0  0
 11 12  1  0  0  0
 12 13  4  0  0  0
 12 14  4  0  0  0
 13 15  4  0  0  0
 14 16  4  0  0  0
 15 17  4  0  0  0
 16 17  4  0  0  0
 18 19  1  0  0  0
 19 20  1  0  0  0
 19 22  1  0  0  0
 20 21  2  0  0  0
 20 23  1  0  0  0
 23 24  1  0  0  0
 24 25  1  0  0  0
 24 27  1  0  0  0
 25 26  2  0  0  0
 25 39  1  0  0  0
 27 28  1  0  0  0
 28 29  4  0  0  0
 28 30  4  0  0  0
 29 31  4  0  0  0
 30 32  4  0  0  0
 31 33  4  0  0  0
 32 33  4  0  0  0
 33 34  1  0  0  0
 34 35  1  0  0  0
 35 36  2  0  0  0
 35 37  1  0  0  0
 35 38  1  0  0  0
 39 40  1  0  0  0
 40 41  1  0  0  0
 40 43  1  0  0  0
 41 42  2  0  0  0
 41 46  1  0  0  0
 43 44  1  0  0  0
 43 45  1  0  0  0
 46 47  1  0  0  0
 47 48  1  0  0  0
 47 50  1  0  0  0
 48 49  2  0  0  0
 48 54  1  0  0  0
 50 51  1  0  0  0
 50 52  1  0  0  0
 51 53  1  0  0  0
 54 55  1  0  0  0
 55 56  1  0  0  0
 55 58  1  0  0  0
 56 57  2  0  0  0
 56 62  1  0  0  0
 58 59  1  0  0  0
 59 60  1  0  0  0
 59 61  1  0  0  0
 62 63  1  0  0  0
 63 64  1  0  0  0
 63 66  1  0  0  0
 64 65  2  0  0  0
 64 70  1  0  0  0
 66 67  1  0  0  0
 67 68  1  0  0  0
 67 69  2  0  0  0
 70 71  1  0  0  0
 70 76  1  0  0  0
 71 72  1  0  0  0
 71 74  1  0  0  0
 72 73  1  0  0  0
 72 77  2  0  0  0
 74 75  1  0  0  0
 75 76  1  0  0  0
  1 78  1  0  0  0
  1 79  1  0  0  0
  1 80  1  0  0  0
  2 81  1  0  0  0
  5 82  1  0  0  0
  5 83  1  0  0  0
  6 84  1  0  0  0
  7 85  1  0  0  0
  8 86  1  0  0  0
 11 87  1  0  0  0
 11 88  1  0  0  0
 13 89  1  0  0  0
 14 90  1  0  0  0
 15 91  1  0  0  0
 16 92  1  0  0  0
 17 93  1  0  0  0
 18 94  1  0  0  0
 19 95  1  0  0  0
 22 96  1  0  0  0
 22 97  1  0  0  0
 22 98  1  0  0  0
 23 99  1  0  0  0
 24100  1  0  0  0
 27101  1  0  0  0
 27102  1  0  0  0
 29103  1  0  0  0
 30104  1  0  0  0
 31105  1  0  0  0
 32106  1  0  0  0
 37107  1  0  0  0
 38108  1  0  0  0
 39109  1  0  0  0
 40110  1  0  0  0
 43111  1  0  0  0
 44112  1  0  0  0
 45113  1  0  0  0
 45114  1  0  0  0
 45115  1  0  0  0
 46116  1  0  0  0
 47117  1  0  0  0
 50118  1  0  0  0
 51119  1  0  0  0
 51120  1  0  0  0
 52121  1  0  0  0
 52122  1  0  0  0
 52123  1  0  0  0
 53124  1  0  0  0
 53125  1  0  0  0
 53126  1  0  0  0
 54127  1  0  0  0
 55128  1  0  0  0
 58129  1  0  0  0
 58130  1  0  0  0
 59131  1  0  0  0
 60132  1  0  0  0
 60133  1  0  0  0
 60134  1  0  0  0
 61135  1  0  0  0
 61136  1  0  0  0
 61137  1  0  0  0
 62138  1  0  0  0
 63139  1  0  0  0
 66140  1  0  0  0
 66141  1  0  0  0
 68142  1  0  0  0
 71143  1  0  0  0
 73144  1  0  0  0
 74145  1  0  0  0
 74146  1  0  0  0
 75147  1  0  0  0
 75148  1  0  0  0
 76149  1  0  0  0
 76150  1  0  0  0
M  END
$$$$
