3dgo_ligand
  -I-interpret- 

 47 49  0  0  0  0  0  0  0  0999 V2000
  -24.5410   10.2270  -17.4600 P   0  0  0  0  0
  -24.2040    9.9670  -18.9220 O   0  0  0  0  0
  -25.8070    9.5150  -17.0000 O   0  0  0  0  0
  -23.3600   10.1910  -16.4730 O   0  0  0  0  0
  -23.9830   13.0730  -17.7870 P   0  0  0  0  0
  -22.6920   12.4170  -18.3050 O   0  0  0  0  0
  -24.0030   13.9840  -16.5660 O   0  0  0  0  0
  -24.9830   11.8090  -17.4580 O   0  0  0  0  0
  -25.5880   12.9030  -20.0670 P   0  0  0  0  0
  -26.8160   12.5210  -19.2410 O   0  0  0  0  0
  -24.7710   11.7890  -20.7670 O   0  0  0  0  0
  -24.6680   13.8120  -19.0690 O   0  0  0  0  0
  -26.0010   13.9390  -21.2410 O   0  0  0  0  0
  -25.4300   13.8760  -22.5460 C   0  0  0  0  0
  -25.1940   15.3450  -22.7780 C   0  0  0  0  0
  -26.4130   15.9610  -22.3530 O   0  0  0  0  0
  -24.1020   15.8210  -21.8430 C   0  0  0  0  0
  -23.3870   16.8630  -22.5000 O   0  0  0  0  0
  -24.8500   16.4910  -20.7480 C   0  0  0  0  0
  -24.0700   17.6140  -20.3730 O   0  0  0  0  0
  -26.0660   16.9940  -21.4950 C   0  0  0  0  0
  -27.1460   17.2810  -20.5920 N   0  0  0  0  0
  -27.7430   16.4510  -19.7290 C   0  0  0  0  0
  -28.7010   17.1400  -19.0200 N   0  0  0  0  0
  -28.7070   18.4230  -19.4270 C   0  0  0  0  0
  -29.4430   19.6370  -19.0930 C   0  0  0  0  0
  -30.4120   19.6120  -18.1420 N   0  0  0  0  0
  -29.1320   20.7840  -19.7490 N   0  0  0  0  0
  -28.1980   20.7670  -20.6910 C   0  0  0  0  0
  -27.4850   19.6830  -21.0640 N   0  0  0  0  0
  -27.6840   18.5080  -20.4580 C   0  0  0  0  0
  -25.9675    9.7156  -16.0750 H   0  0  0  0  0
  -23.6808   10.3663  -15.5853 H   0  0  0  0  0
  -22.8928   11.8849  -19.0784 H   0  0  0  0  0
  -24.0364   12.1834  -21.2429 H   0  0  0  0  0
  -26.0541   13.3890  -23.2953 H   0  0  0  0  0
  -24.5403   13.2515  -22.6263 H   0  0  0  0  0
  -24.9165   15.5673  -23.8084 H   0  0  0  0  0
  -23.4346   15.0191  -21.5274 H   0  0  0  0  0
  -22.6875   17.1816  -21.9248 H   0  0  0  0  0
  -25.0763   15.8812  -19.8733 H   0  0  0  0  0
  -24.5113   18.0860  -19.6631 H   0  0  0  0  0
  -25.8564   17.9217  -22.0274 H   0  0  0  0  0
  -27.5075   15.3938  -19.6064 H   0  0  0  0  0
  -30.6284   18.7411  -17.6571 H   0  0  0  0  0
  -30.9235   20.4641  -17.9125 H   0  0  0  0  0
  -27.9892   21.7048  -21.2058 H   0  0  0  0  0
  1  2  2  0  0  0
  1  3  1  0  0  0
  1  4  1  0  0  0
  8  1  1  0  0  0
  5  6  1  0  0  0
  5  7  2  0  0  0
  5  8  1  0  0  0
 12  5  1  0  0  0
  9 10  2  0  0  0
  9 11  1  0  0  0
  9 12  1  0  0  0
  9 13  1  0  0  0
 13 14  1  0  0  0
 14 15  1  0  0  0
 15 16  1  0  0  0
 15 17  1  0  0  0
 16 21  1  0  0  0
 17 18  1  0  0  0
 17 19  1  0  0  0
 19 20  1  0  0  0
 19 21  1  0  0  0
 21 22  1  0  0  0
 22 23  4  0  0  0
 22 31  4  0  0  0
 23 24  4  0  0  0
 24 25  4  0  0  0
 25 26  4  0  0  0
 25 31  4  0  0  0
 26 27  1  0  0  0
 26 28  4  0  0  0
 28 29  4  0  0  0
 29 30  4  0  0  0
 30 31  4  0  0  0
  3 32  1  0  0  0
  4 33  1  0  0  0
  6 34  1  0  0  0
 11 35  1  0  0  0
 14 36  1  0  0  0
 14 37  1  0  0  0
 15 38  1  0  0  0
 17 39  1  0  0  0
 18 40  1  0  0  0
 19 41  1  0  0  0
 20 42  1  0  0  0
 21 43  1  0  0  0
 23 44  1  0  0  0
 27 45  1  0  0  0
 27 46  1  0  0  0
 29 47  1  0  0  0
M  END
$$$$
