#	Name:			1esz_ligand
#	Creating user name:	wangrx
#	Creation time:		Wed Aug  4 16:23:07 2021

#	Modifying user name:	wangrx
#	Modification time:	Wed Aug  4 16:23:12 2021

@<TRIPOS>MOLECULE
1esz_ligand
  111   116     1     0     0
SMALL
GAST_HUCK


@<TRIPOS>ATOM
      1 C1         30.5630   -3.6230  -29.2120 C.2       1 CPO         0.2039 
      2 C2         31.2070   -4.8070  -28.4850 C.3       1 CPO         0.1311 
      3 C3         30.8310   -6.1910  -29.1440 C.3       1 CPO        -0.0074 
      4 C4         29.9240   -6.3210  -30.4170 C.3       1 CPO         0.0061 
      5 C5         29.4300   -7.6990  -30.8440 C.3       1 CPO         0.1726 
      6 N1         28.0480   -7.8310  -30.4610 N.am      1 CPO         0.0625 
      7 C6         27.6640   -8.7960  -29.6480 C.2       1 CPO         0.3875 
      8 O1         30.8700   -3.3590  -30.3560 O.2       1 CPO        -0.3944 
      9 N2         30.7580   -4.9700  -27.1530 N.am      1 CPO        -0.2637 
     10 O2         27.1290   -6.9610  -30.9260 O.3       1 CPO         0.1649 
     11 O3         26.5040   -8.8790  -29.3410 O.2       1 CPO        -0.2724 
     12 C7         29.8240   -4.2080  -26.4930 C.2       1 CPO         0.2039 
     13 C8         29.1270   -2.9930  -27.2520 C.3       1 CPO         0.1311 
     14 C9         27.7870   -3.6790  -27.5310 C.3       1 CPO        -0.0074 
     15 C10        26.6330   -3.6780  -26.5210 C.3       1 CPO         0.0061 
     16 C11        25.3710   -4.4960  -26.8910 C.3       1 CPO         0.1726 
     17 O4         29.5040   -4.4240  -25.3350 O.2       1 CPO        -0.3944 
     18 N3         29.6170   -2.8510  -28.5650 N.am      1 CPO        -0.2637 
     19 C12        27.0410  -11.2270  -27.5790 C.3       1 CPO        -0.0601 
     20 C13        28.3380  -11.1250  -28.4770 C.3       1 CPO        -0.0207 
     21 C14        29.2100  -12.3960  -28.7330 C.3       1 CPO        -0.0249 
     22 C15        30.0110  -12.6190  -27.4540 C.3       1 CPO         0.0446 
     23 O5         30.5440  -13.8690  -27.5010 O.3       1 CPO        -0.3950 
     24 C16        28.7200   -9.8420  -29.0740 C.3       1 CPO         0.0876 
     25 FE         25.3770   -7.2980  -29.9840 Fe        1 CPO         0.0000 
     26 N4         25.2990   -5.2480  -28.1620 N.am      1 CPO         0.0625 
     27 C17        24.7500   -4.7040  -29.2390 C.2       1 CPO         0.3872 
     28 C18        24.1890   -3.2340  -29.1990 C.3       1 CPO         0.0851 
     29 C19        22.9760   -2.8590  -28.7520 C.3       1 CPO        -0.0295 
     30 C20        22.3980   -1.5160  -29.1620 C.3       1 CPO        -0.0228 
     31 C21        21.3340   -1.7120  -30.2840 C.3       1 CPO         0.0770 
     32 O6         22.0220   -2.1780  -31.4810 O.3       1 CPO        -0.2751 
     33 O7         25.7840   -6.4580  -28.2360 O.3       1 CPO         0.1649 
     34 O8         24.6990   -5.3910  -30.3330 O.2       1 CPO        -0.2724 
     35 C23        21.5270   -3.5140  -31.8000 C.2       1 CPO         0.2596 
     36 C24        22.4880   -4.5710  -32.4480 C.3       1 CPO         0.1423 
     37 C25        21.7350   -5.6090  -33.2990 C.3       1 CPO        -0.0061 
     38 C26        22.6430   -6.7530  -33.8320 C.3       1 CPO         0.0062 
     39 C27        22.6400   -7.9570  -32.8640 C.3       1 CPO         0.1726 
     40 N5         23.4090   -7.9410  -31.7160 N.am      1 CPO         0.0625 
     41 C28        22.8660   -8.0690  -30.5630 C.2       1 CPO         0.3875 
     42 C29        21.2840   -8.2540  -30.4190 C.3       1 CPO         0.0876 
     43 C30        20.5400   -7.2920  -29.4560 C.3       1 CPO        -0.0207 
     44 C31        19.0520   -6.8960  -29.8840 C.3       1 CPO        -0.0249 
     45 C32        18.2760   -6.3670  -28.6250 C.3       1 CPO         0.0446 
     46 O9         18.1160   -4.9410  -28.7630 O.3       1 CPO        -0.3950 
     47 O10        20.3350   -3.8190  -31.5480 O.2       1 CPO        -0.3678 
     48 O11        24.7520   -7.7960  -31.7960 O.3       1 CPO         0.1649 
     49 O12        23.5770   -8.0570  -29.5640 O.2       1 CPO        -0.2724 
     50 C33        21.3540   -6.3020  -28.7910 C.3       1 CPO        -0.0601 
     51 N6         23.2050   -3.8590  -33.3820 N.am      1 CPO        -0.2645 
     52 C34        24.4470   -3.3050  -33.3030 C.2       1 CPO         0.1752 
     53 O13        25.4200   -3.9760  -32.7920 O.2       1 CPO        -0.3972 
     54 C35        24.6920   -1.8760  -33.8270 C.3       1 CPO         0.0258 
     55 H1         32.2974   -4.6628  -28.4983 H         1 CPO         0.0800 
     56 H2         30.3307   -6.7738  -28.3566 H         1 CPO         0.0314 
     57 H3         31.7862   -6.6704  -29.4042 H         1 CPO         0.0314 
     58 H4         30.4957   -5.9092  -31.2617 H         1 CPO         0.0320 
     59 H5         29.0326   -5.7011  -30.2405 H         1 CPO         0.0320 
     60 H6         30.0280   -8.4773  -30.3474 H         1 CPO         0.0955 
     61 H7         29.5238   -7.8046  -31.9349 H         1 CPO         0.0955 
     62 H8         31.1651   -5.7223  -26.6350 H         1 CPO         0.1883 
     63 H10        29.0989   -2.0531  -26.6813 H         1 CPO         0.0800 
     64 H11        28.0202   -4.7360  -27.7267 H         1 CPO         0.0314 
     65 H12        27.3915   -3.2151  -28.4466 H         1 CPO         0.0314 
     66 H13        26.3201   -2.6334  -26.3763 H         1 CPO         0.0320 
     67 H14        27.0217   -4.0790  -25.5733 H         1 CPO         0.0320 
     68 H15        24.5296   -3.7876  -26.8982 H         1 CPO         0.0955 
     69 H16        25.2257   -5.2297  -26.0844 H         1 CPO         0.0955 
     70 H17        29.2316   -2.0963  -29.0959 H         1 CPO         0.1883 
     71 H18        26.9212  -12.2613  -27.2241 H         1 CPO         0.0234 
     72 H19        26.1607  -10.9387  -28.1722 H         1 CPO         0.0234 
     73 H20        27.1386  -10.5522  -26.7158 H         1 CPO         0.0234 
     74 H21        28.9384  -10.8902  -27.5857 H         1 CPO         0.0325 
     75 H22        29.8868  -12.2304  -29.5842 H         1 CPO         0.0291 
     76 H23        28.5680  -13.2652  -28.9387 H         1 CPO         0.0291 
     77 H24        29.3498  -12.5285  -26.5796 H         1 CPO         0.0557 
     78 H25        30.8162  -11.8729  -27.3837 H         1 CPO         0.0557 
     79 H26        31.0478  -14.0271  -26.7112 H         1 CPO         0.2094 
     80 H27        29.2857   -9.3049  -28.2984 H         1 CPO         0.0550 
     81 H28        29.3887  -10.0866  -29.9124 H         1 CPO         0.0550 
     82 H29        24.2338   -2.8806  -30.2397 H         1 CPO         0.0547 
     83 H30        24.9080   -2.6683  -28.5883 H         1 CPO         0.0547 
     84 H31        23.0280   -2.8602  -27.6532 H         1 CPO         0.0292 
     85 H32        22.2629   -3.6270  -29.0862 H         1 CPO         0.0292 
     86 H33        23.2065   -0.8706  -29.5358 H         1 CPO         0.0292 
     87 H34        21.9241   -1.0421  -28.2898 H         1 CPO         0.0292 
     88 H35        20.8299   -0.7566  -30.4914 H         1 CPO         0.0613 
     89 H36        20.5902   -2.4578  -29.9669 H         1 CPO         0.0613 
     90 H38        23.1219   -5.0532  -31.6893 H         1 CPO         0.0816 
     91 H39        21.2849   -5.0926  -34.1597 H         1 CPO         0.0315 
     92 H40        20.9406   -6.0543  -32.6820 H         1 CPO         0.0315 
     93 H41        23.6716   -6.3774  -33.9360 H         1 CPO         0.0320 
     94 H42        22.2709   -7.0799  -34.8142 H         1 CPO         0.0320 
     95 H43        22.9654   -8.8305  -33.4480 H         1 CPO         0.0955 
     96 H44        21.5978   -8.0988  -32.5420 H         1 CPO         0.0955 
     97 H45        21.1020   -9.2801  -30.0668 H         1 CPO         0.0550 
     98 H46        20.8440   -8.1260  -31.4190 H         1 CPO         0.0550 
     99 H47        20.3287   -7.9676  -28.6140 H         1 CPO         0.0325 
    100 H48        18.5378   -7.7803  -30.2883 H         1 CPO         0.0291 
    101 H49        19.0871   -6.1092  -30.6519 H         1 CPO         0.0291 
    102 H50        18.8485   -6.5912  -27.7129 H         1 CPO         0.0557 
    103 H51        17.2889   -6.8488  -28.5660 H         1 CPO         0.0557 
    104 H52        17.6477   -4.6016  -28.0093 H         1 CPO         0.2094 
    105 H54        22.3418   -6.7306  -28.5660 H         1 CPO         0.0234 
    106 H55        20.8657   -5.9948  -27.8544 H         1 CPO         0.0234 
    107 H56        21.4747   -5.4265  -29.4459 H         1 CPO         0.0234 
    108 H57        22.7406   -3.7273  -34.2578 H         1 CPO         0.1884 
    109 H58        25.7480   -1.6066  -33.6774 H         1 CPO         0.0467 
    110 H59        24.0521   -1.1694  -33.2781 H         1 CPO         0.0467 
    111 H60        24.4509   -1.8323  -34.8993 H         1 CPO         0.0467 
@<TRIPOS>BOND
     1    2    1 1    
     2    1    8 2    
     3    1   18 am   
     4    3    2 1    
     5    2    9 1    
     6    4    3 1    
     7    5    4 1    
     8    6    5 1    
     9    7    6 am   
    10    6   10 1    
    11    7   11 2    
    12   24    7 1    
    13    9   12 am   
    14   25   10 1    
    15   11   25 1    
    16   12   13 1    
    17   12   17 2    
    18   13   14 1    
    19   18   13 1    
    20   14   15 1    
    21   15   16 1    
    22   16   26 1    
    23   20   19 1    
    24   20   21 1    
    25   20   24 1    
    26   21   22 1    
    27   22   23 1    
    28   25   33 1    
    29   25   34 1    
    30   25   48 1    
    31   25   49 1    
    32   26   27 am   
    33   26   33 1    
    34   27   28 1    
    35   27   34 2    
    36   28   29 1    
    37   29   30 1    
    38   30   31 1    
    39   31   32 1    
    40   32   35 1    
    41   35   36 1    
    42   35   47 2    
    43   36   37 1    
    44   36   51 1    
    45   37   38 1    
    46   38   39 1    
    47   39   40 1    
    48   40   41 am   
    49   40   48 1    
    50   41   42 1    
    51   41   49 2    
    52   42   43 1    
    53   43   44 1    
    54   43   50 1    
    55   44   45 1    
    56   45   46 1    
    57   51   52 am   
    58   52   53 2    
    59   52   54 1    
    60    2   55 1    
    61    3   56 1    
    62    3   57 1    
    63    4   58 1    
    64    4   59 1    
    65    5   60 1    
    66    5   61 1    
    67    9   62 1    
    68   13   63 1    
    69   14   64 1    
    70   14   65 1    
    71   15   66 1    
    72   15   67 1    
    73   16   68 1    
    74   16   69 1    
    75   18   70 1    
    76   19   71 1    
    77   19   72 1    
    78   19   73 1    
    79   20   74 1    
    80   21   75 1    
    81   21   76 1    
    82   22   77 1    
    83   22   78 1    
    84   23   79 1    
    85   24   80 1    
    86   24   81 1    
    87   28   82 1    
    88   28   83 1    
    89   29   84 1    
    90   29   85 1    
    91   30   86 1    
    92   30   87 1    
    93   31   88 1    
    94   31   89 1    
    95   36   90 1    
    96   37   91 1    
    97   37   92 1    
    98   38   93 1    
    99   38   94 1    
   100   39   95 1    
   101   39   96 1    
   102   42   97 1    
   103   42   98 1    
   104   43   99 1    
   105   44  100 1    
   106   44  101 1    
   107   45  102 1    
   108   45  103 1    
   109   46  104 1    
   110   50  105 1    
   111   50  106 1    
   112   50  107 1    
   113   51  108 1    
   114   54  109 1    
   115   54  110 1    
   116   54  111 1    
@<TRIPOS>SUBSTRUCTURE
     1 CPO         1 PERM              0 ****  ****    0 ROOT 
