1esz_ligand
  -I-interpret- 

111116  0  0  0  0  0  0  0  0999 V2000
   30.5630   -3.6230  -29.2120 C   0  0  0  0  0
   31.2070   -4.8070  -28.4850 C   0  0  0  0  0
   30.8310   -6.1910  -29.1440 C   0  0  0  0  0
   29.9240   -6.3210  -30.4170 C   0  0  0  0  0
   29.4300   -7.6990  -30.8440 C   0  0  0  0  0
   28.0480   -7.8310  -30.4610 N   0  0  0  0  0
   27.6640   -8.7960  -29.6480 C   0  0  0  0  0
   30.8700   -3.3590  -30.3560 O   0  0  0  0  0
   30.7580   -4.9700  -27.1530 N   0  0  0  0  0
   27.1290   -6.9610  -30.9260 O   0  0  0  0  0
   26.5040   -8.8790  -29.3410 O   0  0  0  0  0
   29.8240   -4.2080  -26.4930 C   0  0  0  0  0
   29.1270   -2.9930  -27.2520 C   0  0  0  0  0
   27.7870   -3.6790  -27.5310 C   0  0  0  0  0
   26.6330   -3.6780  -26.5210 C   0  0  0  0  0
   25.3710   -4.4960  -26.8910 C   0  0  0  0  0
   29.5040   -4.4240  -25.3350 O   0  0  0  0  0
   29.6170   -2.8510  -28.5650 N   0  0  0  0  0
   27.0410  -11.2270  -27.5790 C   0  0  0  0  0
   28.3380  -11.1250  -28.4770 C   0  0  0  0  0
   29.2100  -12.3960  -28.7330 C   0  0  0  0  0
   30.0110  -12.6190  -27.4540 C   0  0  0  0  0
   30.5440  -13.8690  -27.5010 O   0  0  0  0  0
   28.7200   -9.8420  -29.0740 C   0  0  0  0  0
   25.3770   -7.2980  -29.9840 Fe  0  0  0  0  0
   25.2990   -5.2480  -28.1620 N   0  0  0  0  0
   24.7500   -4.7040  -29.2390 C   0  0  0  0  0
   24.1890   -3.2340  -29.1990 C   0  0  0  0  0
   22.9760   -2.8590  -28.7520 C   0  0  0  0  0
   22.3980   -1.5160  -29.1620 C   0  0  0  0  0
   21.3340   -1.7120  -30.2840 C   0  0  0  0  0
   22.0220   -2.1780  -31.4810 O   0  0  0  0  0
   25.7840   -6.4580  -28.2360 O   0  0  0  0  0
   24.6990   -5.3910  -30.3330 O   0  0  0  0  0
   21.5270   -3.5140  -31.8000 C   0  0  0  0  0
   22.4880   -4.5710  -32.4480 C   0  0  0  0  0
   21.7350   -5.6090  -33.2990 C   0  0  0  0  0
   22.6430   -6.7530  -33.8320 C   0  0  0  0  0
   22.6400   -7.9570  -32.8640 C   0  0  0  0  0
   23.4090   -7.9410  -31.7160 N   0  0  0  0  0
   22.8660   -8.0690  -30.5630 C   0  0  0  0  0
   21.2840   -8.2540  -30.4190 C   0  0  0  0  0
   20.5400   -7.2920  -29.4560 C   0  0  0  0  0
   19.0520   -6.8960  -29.8840 C   0  0  0  0  0
   18.2760   -6.3670  -28.6250 C   0  0  0  0  0
   18.1160   -4.9410  -28.7630 O   0  0  0  0  0
   20.3350   -3.8190  -31.5480 O   0  0  0  0  0
   24.7520   -7.7960  -31.7960 O   0  0  0  0  0
   23.5770   -8.0570  -29.5640 O   0  0  0  0  0
   21.3540   -6.3020  -28.7910 C   0  0  0  0  0
   23.2050   -3.8590  -33.3820 N   0  0  0  0  0
   24.4470   -3.3050  -33.3030 C   0  0  0  0  0
   25.4200   -3.9760  -32.7920 O   0  0  0  0  0
   24.6920   -1.8760  -33.8270 C   0  0  0  0  0
   32.2974   -4.6628  -28.4983 H   0  0  0  0  0
   30.3307   -6.7738  -28.3566 H   0  0  0  0  0
   31.7862   -6.6704  -29.4042 H   0  0  0  0  0
   30.4957   -5.9092  -31.2617 H   0  0  0  0  0
   29.0326   -5.7011  -30.2405 H   0  0  0  0  0
   30.0280   -8.4773  -30.3474 H   0  0  0  0  0
   29.5238   -7.8046  -31.9349 H   0  0  0  0  0
   31.1651   -5.7223  -26.6350 H   0  0  0  0  0
   29.0989   -2.0531  -26.6813 H   0  0  0  0  0
   28.0202   -4.7360  -27.7267 H   0  0  0  0  0
   27.3915   -3.2151  -28.4466 H   0  0  0  0  0
   26.3201   -2.6334  -26.3763 H   0  0  0  0  0
   27.0217   -4.0790  -25.5733 H   0  0  0  0  0
   24.5296   -3.7876  -26.8982 H   0  0  0  0  0
   25.2257   -5.2297  -26.0844 H   0  0  0  0  0
   29.2316   -2.0963  -29.0959 H   0  0  0  0  0
   26.9212  -12.2613  -27.2241 H   0  0  0  0  0
   26.1607  -10.9387  -28.1722 H   0  0  0  0  0
   27.1386  -10.5522  -26.7158 H   0  0  0  0  0
   28.9384  -10.8902  -27.5857 H   0  0  0  0  0
   29.8868  -12.2304  -29.5842 H   0  0  0  0  0
   28.5680  -13.2652  -28.9387 H   0  0  0  0  0
   29.3498  -12.5285  -26.5796 H   0  0  0  0  0
   30.8162  -11.8729  -27.3837 H   0  0  0  0  0
   31.0478  -14.0271  -26.7112 H   0  0  0  0  0
   29.2857   -9.3049  -28.2984 H   0  0  0  0  0
   29.3887  -10.0866  -29.9124 H   0  0  0  0  0
   24.2338   -2.8806  -30.2397 H   0  0  0  0  0
   24.9080   -2.6683  -28.5883 H   0  0  0  0  0
   23.0280   -2.8602  -27.6532 H   0  0  0  0  0
   22.2629   -3.6270  -29.0862 H   0  0  0  0  0
   23.2065   -0.8706  -29.5358 H   0  0  0  0  0
   21.9241   -1.0421  -28.2898 H   0  0  0  0  0
   20.8299   -0.7566  -30.4914 H   0  0  0  0  0
   20.5902   -2.4578  -29.9669 H   0  0  0  0  0
   23.1219   -5.0532  -31.6893 H   0  0  0  0  0
   21.2849   -5.0926  -34.1597 H   0  0  0  0  0
   20.9406   -6.0543  -32.6820 H   0  0  0  0  0
   23.6716   -6.3774  -33.9360 H   0  0  0  0  0
   22.2709   -7.0799  -34.8142 H   0  0  0  0  0
   22.9654   -8.8305  -33.4480 H   0  0  0  0  0
   21.5978   -8.0988  -32.5420 H   0  0  0  0  0
   21.1020   -9.2801  -30.0668 H   0  0  0  0  0
   20.8440   -8.1260  -31.4190 H   0  0  0  0  0
   20.3287   -7.9676  -28.6140 H   0  0  0  0  0
   18.5378   -7.7803  -30.2883 H   0  0  0  0  0
   19.0871   -6.1092  -30.6519 H   0  0  0  0  0
   18.8485   -6.5912  -27.7129 H   0  0  0  0  0
   17.2889   -6.8488  -28.5660 H   0  0  0  0  0
   17.6477   -4.6016  -28.0093 H   0  0  0  0  0
   22.3418   -6.7306  -28.5660 H   0  0  0  0  0
   20.8657   -5.9948  -27.8544 H   0  0  0  0  0
   21.4747   -5.4265  -29.4459 H   0  0  0  0  0
   22.7406   -3.7273  -34.2578 H   0  0  0  0  0
   25.7480   -1.6066  -33.6774 H   0  0  0  0  0
   24.0521   -1.1694  -33.2781 H   0  0  0  0  0
   24.4509   -1.8323  -34.8993 H   0  0  0  0  0
  2  1  1  0  0  0
  1  8  2  0  0  0
  1 18  1  0  0  0
  3  2  1  0  0  0
  2  9  1  0  0  0
  4  3  1  0  0  0
  5  4  1  0  0  0
  6  5  1  0  0  0
  7  6  1  0  0  0
  6 10  1  0  0  0
  7 11  2  0  0  0
 24  7  1  0  0  0
  9 12  1  0  0  0
 25 10  1  0  0  0
 11 25  1  0  0  0
 12 13  1  0  0  0
 12 17  2  0  0  0
 13 14  1  0  0  0
 18 13  1  0  0  0
 14 15  1  0  0  0
 15 16  1  0  0  0
 16 26  1  0  0  0
 20 19  1  0  0  0
 20 21  1  0  0  0
 20 24  1  0  0  0
 21 22  1  0  0  0
 22 23  1  0  0  0
 25 33  1  0  0  0
 25 34  1  0  0  0
 25 48  1  0  0  0
 25 49  1  0  0  0
 26 27  1  0  0  0
 26 33  1  0  0  0
 27 28  1  0  0  0
 27 34  2  0  0  0
 28 29  1  0  0  0
 29 30  1  0  0  0
 30 31  1  0  0  0
 31 32  1  0  0  0
 32 35  1  0  0  0
 35 36  1  0  0  0
 35 47  2  0  0  0
 36 37  1  0  0  0
 36 51  1  0  0  0
 37 38  1  0  0  0
 38 39  1  0  0  0
 39 40  1  0  0  0
 40 41  1  0  0  0
 40 48  1  0  0  0
 41 42  1  0  0  0
 41 49  2  0  0  0
 42 43  1  0  0  0
 43 44  1  0  0  0
 43 50  1  0  0  0
 44 45  1  0  0  0
 45 46  1  0  0  0
 51 52  1  0  0  0
 52 53  2  0  0  0
 52 54  1  0  0  0
  2 55  1  0  0  0
  3 56  1  0  0  0
  3 57  1  0  0  0
  4 58  1  0  0  0
  4 59  1  0  0  0
  5 60  1  0  0  0
  5 61  1  0  0  0
  9 62  1  0  0  0
 13 63  1  0  0  0
 14 64  1  0  0  0
 14 65  1  0  0  0
 15 66  1  0  0  0
 15 67  1  0  0  0
 16 68  1  0  0  0
 16 69  1  0  0  0
 18 70  1  0  0  0
 19 71  1  0  0  0
 19 72  1  0  0  0
 19 73  1  0  0  0
 20 74  1  0  0  0
 21 75  1  0  0  0
 21 76  1  0  0  0
 22 77  1  0  0  0
 22 78  1  0  0  0
 23 79  1  0  0  0
 24 80  1  0  0  0
 24 81  1  0  0  0
 28 82  1  0  0  0
 28 83  1  0  0  0
 29 84  1  0  0  0
 29 85  1  0  0  0
 30 86  1  0  0  0
 30 87  1  0  0  0
 31 88  1  0  0  0
 31 89  1  0  0  0
 36 90  1  0  0  0
 37 91  1  0  0  0
 37 92  1  0  0  0
 38 93  1  0  0  0
 38 94  1  0  0  0
 39 95  1  0  0  0
 39 96  1  0  0  0
 42 97  1  0  0  0
 42 98  1  0  0  0
 43 99  1  0  0  0
 44100  1  0  0  0
 44101  1  0  0  0
 45102  1  0  0  0
 45103  1  0  0  0
 46104  1  0  0  0
 50105  1  0  0  0
 50106  1  0  0  0
 50107  1  0  0  0
 51108  1  0  0  0
 54109  1  0  0  0
 54110  1  0  0  0
 54111  1  0  0  0
M  END
$$$$
