5xmu_ligand
  -I-interpret- 

 55 58  0  0  0  0  0  0  0  0999 V2000
   29.6940   33.7450   94.9450 C   0  0  0  0  0
   29.4220   35.0850   94.4790 C   0  0  0  0  0
   30.8550   34.5490   98.3610 C   0  0  0  0  0
   30.0980   35.9560   96.6860 C   0  0  0  0  0
   30.3300   37.0300   97.4300 N   0  0  0  0  0
   29.5570   31.4740   93.4580 C   0  0  0  0  0
   31.7320   31.7540   97.4500 C   0  0  0  0  0
   32.4810   30.1780   99.6710 F   0  0  0  0  0
   33.2930   30.0990   98.6210 C   0  0  0  0  0
   33.3260   28.8470   98.1920 F   0  0  0  0  0
   34.5120   30.3650   99.0540 F   0  0  0  0  0
   32.9500   31.0490   97.4550 C   0  0  0  0  0
   33.8250   31.1830   96.3980 C   0  0  0  0  0
   33.5340   32.0210   95.3310 C   0  0  0  0  0
   34.5350   32.1250   94.2310 C   0  0  0  0  0
   34.1810   31.6980   92.9660 C   0  0  0  0  0
   35.0900   31.7750   91.9090 C   0  0  0  0  0
   36.3710   32.2670   92.1120 C   0  0  0  0  0
   36.7350   32.6830   93.3850 C   0  0  0  0  0
   35.8270   32.6160   94.4450 C   0  0  0  0  0
   36.2410   33.0710   95.8130 C   0  0  0  0  0
   32.3460   32.7510   95.3160 C   0  0  0  0  0
   31.4060   32.6260   96.3630 C   0  0  0  0  0
   30.1050   33.4370   96.3470 C   0  0  0  0  0
   28.9230   32.7320   97.0390 C   0  0  0  0  0
   27.5850   33.4840   96.9270 C   0  0  0  0  0
   28.7270   31.2580   96.6190 C   0  0  0  0  0
   30.3900   34.6830   97.1840 C   0  0  0  0  0
   31.2860   34.4230   99.4460 N   0  0  0  0  0
   29.4440   32.9510   93.7070 C   0  0  0  0  0
   29.1050   33.8450   92.7650 N   0  0  0  0  0
   29.0890   35.1810   93.1930 N   0  0  0  0  0
   29.5390   36.1110   95.3560 O   0  0  0  0  0
   30.7217   36.9270   98.3661 H   0  0  0  0  0
   30.5813   31.1524   93.6462 H   0  0  0  0  0
   28.8793   30.9415   94.1252 H   0  0  0  0  0
   29.2921   31.2601   92.4225 H   0  0  0  0  0
   31.0334   31.6353   98.2782 H   0  0  0  0  0
   34.7596   30.6221   96.4005 H   0  0  0  0  0
   33.1826   31.2971   92.7913 H   0  0  0  0  0
   34.7900   31.4452   90.9143 H   0  0  0  0  0
   37.0796   32.3259   91.2858 H   0  0  0  0  0
   37.7403   33.0662   93.5599 H   0  0  0  0  0
   35.5927   33.8859   96.1351 H   0  0  0  0  0
   36.1560   32.2393   96.5123 H   0  0  0  0  0
   37.2741   33.4173   95.7822 H   0  0  0  0  0
   32.1401   33.4267   94.4858 H   0  0  0  0  0
   29.2251   32.7421   98.0863 H   0  0  0  0  0
   27.6833   34.4681   97.3853 H   0  0  0  0  0
   27.3196   33.5962   95.8758 H   0  0  0  0  0
   26.8077   32.9185   97.4409 H   0  0  0  0  0
   28.5442   31.2086   95.5456 H   0  0  0  0  0
   29.6247   30.6897   96.8625 H   0  0  0  0  0
   27.8743   30.8395   97.1537 H   0  0  0  0  0
   31.2542   34.9734   96.5866 H   0  0  0  0  0
  1  2  4  0  0  0
 24  1  1  0  0  0
  1 30  4  0  0  0
  2 32  4  0  0  0
  2 33  1  0  0  0
 28  3  1  0  0  0
  3 29  3  0  0  0
  4  5  2  0  0  0
  4 28  1  0  0  0
 33  4  1  0  0  0
 30  6  1  0  0  0
  7 12  4  0  0  0
 23  7  4  0  0  0
  9  8  1  0  0  0
  9 10  1  0  0  0
  9 11  1  0  0  0
 12  9  1  0  0  0
 12 13  4  0  0  0
 14 13  4  0  0  0
 14 15  1  0  0  0
 22 14  4  0  0  0
 15 16  4  0  0  0
 15 20  4  0  0  0
 16 17  4  0  0  0
 17 18  4  0  0  0
 19 18  4  0  0  0
 20 19  4  0  0  0
 20 21  1  0  0  0
 23 22  4  0  0  0
 23 24  1  0  0  0
 24 25  1  0  0  0
 24 28  1  0  0  0
 25 26  1  0  0  0
 25 27  1  0  0  0
 30 31  4  0  0  0
 31 32  4  0  0  0
  5 34  1  0  0  0
  6 35  1  0  0  0
  6 36  1  0  0  0
  6 37  1  0  0  0
  7 38  1  0  0  0
 13 39  1  0  0  0
 16 40  1  0  0  0
 17 41  1  0  0  0
 18 42  1  0  0  0
 19 43  1  0  0  0
 21 44  1  0  0  0
 21 45  1  0  0  0
 21 46  1  0  0  0
 22 47  1  0  0  0
 25 48  1  0  0  0
 26 49  1  0  0  0
 26 50  1  0  0  0
 26 51  1  0  0  0
 27 52  1  0  0  0
 27 53  1  0  0  0
 27 54  1  0  0  0
 28 55  1  0  0  0
M  END
$$$$
