### 
### Created by X-TOOL on Mon Sep 10 21:13:34 2018
### 

@<TRIPOS>MOLECULE
5xmu_ligand
   56    59     1     0     0
SMALL
GAST_HUCK


@<TRIPOS>ATOM
      1 C5         29.6940   33.7450   94.9450 C.2       1 8A0         0.0066
      2 C6         29.4220   35.0850   94.4790 C.2       1 8A0         0.2882
      3 C8         30.8550   34.5490   98.3610 C.1       1 8A0         0.1038
      4 C2         30.0980   35.9560   96.6860 C.2       1 8A0         0.2092
      5 N7         30.3300   37.0300   97.4300 N.2       1 8A0        -0.3612
      6 C12        29.5570   31.4740   93.4580 C.3       1 8A0        -0.0237
      7 C16        31.7320   31.7540   97.4500 C.ar      1 8A0        -0.0279
      8 F48        32.4810   30.1780   99.6710 F         1 8A0        -0.2190
      9 C33        33.2930   30.0990   98.6210 C.3       1 8A0         0.3814
     10 F46        33.3260   28.8470   98.1920 F         1 8A0        -0.2190
     11 F47        34.5120   30.3650   99.0540 F         1 8A0        -0.2190
     12 C17        32.9500   31.0490   97.4550 C.ar      1 8A0         0.0645
     13 C18        33.8250   31.1830   96.3980 C.ar      1 8A0        -0.0114
     14 C19        33.5340   32.0210   95.3310 C.ar      1 8A0         0.0214
     15 C32        34.5350   32.1250   94.2310 C.ar      1 8A0        -0.0053
     16 C43        34.1810   31.6980   92.9660 C.ar      1 8A0        -0.0593
     17 C42        35.0900   31.7750   91.9090 C.ar      1 8A0        -0.0678
     18 C41        36.3710   32.2670   92.1120 C.ar      1 8A0        -0.0682
     19 C40        36.7350   32.6830   93.3850 C.ar      1 8A0        -0.0593
     20 C39        35.8270   32.6160   94.4450 C.ar      1 8A0        -0.0360
     21 C50        36.2410   33.0710   95.8130 C.3       1 8A0        -0.0297
     22 C20        32.3460   32.7510   95.3160 C.ar      1 8A0        -0.0270
     23 C15        31.4060   32.6260   96.3630 C.ar      1 8A0        -0.0566
     24 C4         30.1050   33.4370   96.3470 C.3       1 8A0        -0.0004
     25 C13        28.9230   32.7320   97.0390 C.3       1 8A0        -0.0848
     26 C34        27.5850   33.4840   96.9270 C.3       1 8A0        -0.0761
     27 C14        28.7270   31.2580   96.6190 C.3       1 8A0        -0.0761
     28 C3         30.3900   34.6830   97.1840 C.3       1 8A0         0.1422
     29 N9         31.2860   34.4230   99.4460 N.1       1 8A0        -0.3009
     30 C10        29.4440   32.9510   93.7070 C.2       1 8A0         0.0149
     31 N51        29.1050   33.8450   92.7650 N.2       1 8A0        -0.2154
     32 N11        29.0890   35.1810   93.1930 N.pl3     1 8A0        -0.1616
     33 O1         29.5390   36.1110   95.3560 O.3       1 8A0        -0.1435
     34 H1         30.1191   37.9476   97.0700 H         1 8A0         0.0744
     35 H2         29.2899   31.2568   92.4133 H         1 8A0         0.0397
     36 H3         28.8734   30.9354   94.1307 H         1 8A0         0.0397
     37 H4         30.5904   31.1482   93.6475 H         1 8A0         0.0397
     38 H5         31.0372   31.6360   98.2737 H         1 8A0         0.1002
     39 H6         34.7545   30.6252   96.4005 H         1 8A0         0.0965
     40 H7         33.1881   31.2993   92.7922 H         1 8A0         0.0606
     41 H8         34.7917   31.4470   90.9198 H         1 8A0         0.0561
     42 H9         37.0757   32.3255   91.2904 H         1 8A0         0.0601
     43 H10        37.7348   33.0641   93.5589 H         1 8A0         0.0557
     44 H11        35.4007   32.9442   96.5115 H         1 8A0         0.0397
     45 H12        36.5293   34.1319   95.7750 H         1 8A0         0.0397
     46 H13        37.0965   32.4706   96.1559 H         1 8A0         0.0397
     47 H14        32.1412   33.4229   94.4904 H         1 8A0         0.0961
     48 H15        29.1789   32.7159   98.1087 H         1 8A0         0.0121
     49 H16        26.7997   32.9142   97.4453 H         1 8A0         0.0219
     50 H17        27.3160   33.5978   95.8665 H         1 8A0         0.0219
     51 H18        27.6829   34.4774   97.3892 H         1 8A0         0.0219
     52 H19        29.6848   30.7232   96.7001 H         1 8A0         0.0219
     53 H20        28.3712   31.2173   95.5789 H         1 8A0         0.0219
     54 H21        27.9855   30.7841   97.2790 H         1 8A0         0.0219
     55 H22        31.4081   34.7438   96.7719 H         1 8A0         0.0726
     56 H23        28.8730   36.0274   92.6472 H         1 8A0         0.2635
@<TRIPOS>BOND
     1    1    2 2  
     2   24    1 1  
     3    1   30 1  
     4    2   32 1  
     5    2   33 1  
     6   28    3 1  
     7    3   29 3  
     8    4    5 2  
     9    4   28 1  
    10   33    4 1  
    11   30    6 1  
    12    7   12 ar 
    13   23    7 ar 
    14    9    8 1  
    15    9   10 1  
    16    9   11 1  
    17   12    9 1  
    18   12   13 ar 
    19   14   13 ar 
    20   14   15 1  
    21   22   14 ar 
    22   15   16 ar 
    23   15   20 ar 
    24   16   17 ar 
    25   17   18 ar 
    26   19   18 ar 
    27   20   19 ar 
    28   20   21 1  
    29   23   22 ar 
    30   23   24 1  
    31   24   25 1  
    32   24   28 1  
    33   25   26 1  
    34   25   27 1  
    35   30   31 2  
    36   31   32 1  
    37    5   34 1  
    38    6   35 1  
    39    6   36 1  
    40    6   37 1  
    41    7   38 1  
    42   13   39 1  
    43   16   40 1  
    44   17   41 1  
    45   18   42 1  
    46   19   43 1  
    47   21   44 1  
    48   21   45 1  
    49   21   46 1  
    50   22   47 1  
    51   25   48 1  
    52   26   49 1  
    53   26   50 1  
    54   26   51 1  
    55   27   52 1  
    56   27   53 1  
    57   27   54 1  
    58   28   55 1  
    59   32   56 1  
@<TRIPOS>SUBSTRUCTURE
     1 8A0         1

