6fh7_ligand
  -I-interpret- 

 44 45  0  0  0  0  0  0  0  0999 V2000
  -23.6550  -10.5910    0.6830 C   0  0  0  0  0
  -26.0530   -9.7770    0.3330 C   0  0  0  0  0
  -27.0430   -8.6230    0.2800 C   0  0  0  0  0
  -26.5810   -7.2360    0.5220 C   0  0  0  0  0
  -25.1460   -6.9680    0.8220 C   0  0  0  0  0
  -24.1580   -8.1220    0.8820 C   0  0  0  0  0
  -28.5170   -8.8660   -0.0260 C   0  0  0  0  0
  -30.4340  -10.3560   -0.6420 C   0  0  0  0  0
  -31.0070  -11.6150    0.0120 C   0  0  0  0  0
  -32.5290  -11.6900   -0.1050 C   0  0  0  0  0
  -33.4110  -13.9210    0.9620 C   0  0  0  0  0
  -33.2190  -14.8980   -0.2170 C   0  0  0  0  0
  -34.0020  -16.0460   -0.2120 C   0  0  0  0  0
  -33.9020  -16.9780   -1.2380 C   0  0  0  0  0
  -33.0110  -16.7750   -2.2860 C   0  0  0  0  0
  -32.2170  -15.6330   -2.3010 C   0  0  0  0  0
  -32.3220  -14.7040   -1.2710 C   0  0  0  0  0
  -32.9200  -17.6990   -3.2930 F   0  0  0  0  0
  -24.6190   -9.5030    0.6290 N   0  0  0  0  0
  -29.0160  -10.1900   -0.3560 N   0  0  0  0  0
  -33.1040  -12.4820    0.9800 N   0  0  0  0  0
  -23.0170   -7.9290    1.1220 O   0  0  0  0  0
  -29.2670   -7.9510    0.0160 O   0  0  0  0  0
  -33.8840  -14.3800    1.9460 O   0  0  0  0  0
  -22.8764  -10.4221   -0.0609 H   0  0  0  0  0
  -23.2080  -10.6297    1.6764 H   0  0  0  0  0
  -24.1608  -11.5336    0.4738 H   0  0  0  0  0
  -26.0528  -10.1869   -0.6770 H   0  0  0  0  0
  -26.3932  -10.3944    1.1644 H   0  0  0  0  0
  -27.2917   -6.4106    0.4805 H   0  0  0  0  0
  -25.1492   -6.5572    1.8316 H   0  0  0  0  0
  -24.8016   -6.3554   -0.0112 H   0  0  0  0  0
  -30.9657   -9.4923   -0.2426 H   0  0  0  0  0
  -30.5557  -10.4471   -1.7214 H   0  0  0  0  0
  -30.7506  -11.5918    1.0712 H   0  0  0  0  0
  -30.5861  -12.4816   -0.4978 H   0  0  0  0  0
  -32.7821  -12.1637   -1.0535 H   0  0  0  0  0
  -32.9325  -10.6789   -0.0493 H   0  0  0  0  0
  -34.7022  -16.2173    0.6056 H   0  0  0  0  0
  -34.5249  -17.8723   -1.2211 H   0  0  0  0  0
  -31.5145  -15.4665   -3.1176 H   0  0  0  0  0
  -31.6957  -13.8120   -1.2862 H   0  0  0  0  0
  -28.3836  -10.9897   -0.3868 H   0  0  0  0  0
  -33.3156  -11.9830    1.8441 H   0  0  0  0  0
 19  1  1  0  0  0
  3  2  1  0  0  0
  2 19  1  0  0  0
  3  4  2  0  0  0
  7  3  1  0  0  0
  4  5  1  0  0  0
  5  6  1  0  0  0
 19  6  1  0  0  0
  6 22  2  0  0  0
 20  7  1  0  0  0
  7 23  2  0  0  0
  9  8  1  0  0  0
  8 20  1  0  0  0
 10  9  1  0  0  0
 21 10  1  0  0  0
 11 12  1  0  0  0
 11 21  1  0  0  0
 11 24  2  0  0  0
 12 13  4  0  0  0
 12 17  4  0  0  0
 13 14  4  0  0  0
 14 15  4  0  0  0
 15 16  4  0  0  0
 15 18  1  0  0  0
 16 17  4  0  0  0
  1 25  1  0  0  0
  1 26  1  0  0  0
  1 27  1  0  0  0
  2 28  1  0  0  0
  2 29  1  0  0  0
  4 30  1  0  0  0
  5 31  1  0  0  0
  5 32  1  0  0  0
  8 33  1  0  0  0
  8 34  1  0  0  0
  9 35  1  0  0  0
  9 36  1  0  0  0
 10 37  1  0  0  0
 10 38  1  0  0  0
 13 39  1  0  0  0
 14 40  1  0  0  0
 16 41  1  0  0  0
 17 42  1  0  0  0
 20 43  1  0  0  0
 21 44  1  0  0  0
M  END
$$$$
