5dh4_ligand
  -I-interpret- 

 31 33  0  0  0  0  0  0  0  0999 V2000
    4.8640   12.3770   43.8640 C   0  0  0  0  0
    3.5630   14.4910   44.2520 C   0  0  0  0  0
    3.5280   14.7620   42.9310 N   0  0  0  0  0
    3.0510   15.1990   45.3710 C   0  0  0  0  0
    6.3170   10.4710   43.6680 C   0  0  0  0  0
    7.6740   10.9470   43.3510 C   0  0  0  0  0
    9.7870   12.1090   43.1580 C   0  0  0  0  0
    8.5890   10.3840   42.4850 C   0  0  0  0  0
   10.9190   13.0420   43.2850 C   0  0  0  0  0
    4.1390   13.8570   42.1440 C   0  0  0  0  0
    4.1860   13.3640   44.7140 N   0  0  0  0  0
    8.3420   12.3640   44.0560 S   0  0  0  0  0
    4.0680   14.2600   40.4640 Cl  0  0  0  0  0
    4.8020   12.7000   42.5200 C   0  0  0  0  0
    4.0610   13.3420   46.1480 N   0  0  0  0  0
    3.3780   14.4690   46.5130 C   0  0  0  0  0
    5.4650   11.2790   44.5110 N   0  0  0  0  0
    9.7870   11.0480   42.3860 N   0  0  0  0  0
    8.4010    9.1590   41.6850 C   0  0  0  0  0
    2.5028   16.1407   45.3426 H   0  0  0  0  0
    6.4687    9.5480   44.2276 H   0  0  0  0  0
    5.8033   10.4324   42.7074 H   0  0  0  0  0
   10.6004   14.0406   42.9861 H   0  0  0  0  0
   11.2572   13.0620   44.3210 H   0  0  0  0  0
   11.7344   12.7116   42.6415 H   0  0  0  0  0
    5.2656   12.0570   41.7719 H   0  0  0  0  0
    3.1285   14.7521   47.5356 H   0  0  0  0  0
    5.3108   11.0705   45.4975 H   0  0  0  0  0
    8.2145    8.3166   42.3511 H   0  0  0  0  0
    7.5503    9.2903   41.0163 H   0  0  0  0  0
    9.2997    8.9681   41.0985 H   0  0  0  0  0
  1 11  4  0  0  0
  1 14  4  0  0  0
 17  1  1  0  0  0
  2  3  4  0  0  0
  2  4  4  0  0  0
 11  2  4  0  0  0
  3 10  4  0  0  0
  4 16  4  0  0  0
  6  5  1  0  0  0
  5 17  1  0  0  0
  6  8  4  0  0  0
 12  6  4  0  0  0
  7  9  1  0  0  0
  7 12  4  0  0  0
  7 18  4  0  0  0
  8 18  4  0  0  0
  8 19  1  0  0  0
 10 13  1  0  0  0
 10 14  4  0  0  0
 11 15  4  0  0  0
 15 16  4  0  0  0
  4 20  1  0  0  0
  5 21  1  0  0  0
  5 22  1  0  0  0
  9 23  1  0  0  0
  9 24  1  0  0  0
  9 25  1  0  0  0
 14 26  1  0  0  0
 16 27  1  0  0  0
 17 28  1  0  0  0
 19 29  1  0  0  0
 19 30  1  0  0  0
 19 31  1  0  0  0
M  END
$$$$
