1owk_ligand
  -I-interpret- 

 56 59  0  0  0  0  0  0  0  0999 V2000
   16.8270   19.5210   33.8950 N   0  0  0  0  0
   18.1490   19.6460   34.0260 C   0  0  0  0  0
   18.6210   20.6980   34.6860 N   0  0  0  0  0
   19.0720   18.6300   33.4680 C   0  0  0  0  0
   20.3550   18.4680   34.0840 C   0  0  0  0  0
   21.3000   17.4730   33.6990 C   0  0  0  0  0
   22.5670   17.3690   34.3590 C   0  0  0  0  0
   23.5250   16.3790   33.9880 C   0  0  0  0  0
   23.2420   15.4560   32.9260 C   0  0  0  0  0
   21.9590   15.5450   32.2480 C   0  0  0  0  0
   20.9680   16.5530   32.6240 C   0  0  0  0  0
   19.6650   16.7340   31.9940 C   0  0  0  0  0
   18.7250   17.7480   32.3870 C   0  0  0  0  0
   24.3510   14.5100   32.6360 C   0  0  0  0  0
   25.1630   14.2110   33.5140 O   0  0  0  0  0
   24.4400   14.0100   31.3670 N   0  0  0  0  0
   25.5050   13.3080   30.8260 C   0  0  0  0  0
   26.3210   12.4060   31.5490 C   0  0  0  0  0
   27.3380   11.6730   30.9030 C   0  0  0  0  0
   27.4820   11.7860   29.4900 C   0  0  0  0  0
   26.6960   12.7020   28.7690 C   0  0  0  0  0
   25.7510   13.4800   29.4470 C   0  0  0  0  0
   28.4830   10.9230   28.7370 C   0  0  0  0  0
   28.9420    9.7200   29.5700 C   0  0  0  0  0
   29.4040   10.2470   30.8550 N   0  3  0  0  0
   28.3050   10.7780   31.6790 C   0  0  0  0  0
   28.9100   11.4320   32.9320 C   0  0  0  0  0
   29.9000   12.5830   32.6320 C   0  0  0  0  0
   29.4260   10.4000   33.9300 C   0  0  0  0  0
   16.2060   20.2234   34.2968 H   0  0  0  0  0
   16.4374   18.7231   33.3931 H   0  0  0  0  0
   19.6268   20.8116   34.8123 H   0  0  0  0  0
   20.6243   19.1452   34.8945 H   0  0  0  0  0
   22.8052   18.0634   35.1647 H   0  0  0  0  0
   24.4778   16.3233   34.5144 H   0  0  0  0  0
   21.7309   14.8463   31.4431 H   0  0  0  0  0
   19.3888   16.0634   31.1803 H   0  0  0  0  0
   17.7676   17.8463   31.8753 H   0  0  0  0  0
   23.6398   14.1702   30.7551 H   0  0  0  0  0
   26.1614   12.2760   32.6194 H   0  0  0  0  0
   26.8217   12.8052   27.6912 H   0  0  0  0  0
   25.1916   14.2368   28.8971 H   0  0  0  0  0
   29.3566   11.5335   28.5084 H   0  0  0  0  0
   28.0005   10.5491   27.8339 H   0  0  0  0  0
   29.7413    9.1797   29.0628 H   0  0  0  0  0
   28.1249    9.0128   29.7124 H   0  0  0  0  0
   30.0515   11.0120   30.6654 H   0  0  0  0  0
   29.8397    9.4814   31.3693 H   0  0  0  0  0
   27.6636    9.9563   31.9976 H   0  0  0  0  0
   28.0845   11.9378   33.4329 H   0  0  0  0  0
   30.7300   12.2010   32.0376 H   0  0  0  0  0
   29.3854   13.3679   32.0777 H   0  0  0  0  0
   30.2794   12.9879   33.5702 H   0  0  0  0  0
   28.6030    9.7591   34.2462 H   0  0  0  0  0
   30.1990    9.7942   33.4573 H   0  0  0  0  0
   29.8434   10.9120   34.7971 H   0  0  0  0  0
  1  2  1  0  0  0
  2  3  2  0  0  0
  2  4  1  0  0  0
  4  5  4  0  0  0
  4 13  4  0  0  0
  5  6  4  0  0  0
  6  7  4  0  0  0
  6 11  4  0  0  0
  7  8  4  0  0  0
  8  9  4  0  0  0
  9 10  4  0  0  0
  9 14  1  0  0  0
 10 11  4  0  0  0
 11 12  4  0  0  0
 12 13  4  0  0  0
 14 15  2  0  0  0
 14 16  1  0  0  0
 16 17  1  0  0  0
 17 18  4  0  0  0
 17 22  4  0  0  0
 18 19  4  0  0  0
 19 20  4  0  0  0
 19 26  1  0  0  0
 20 21  4  0  0  0
 20 23  1  0  0  0
 21 22  4  0  0  0
 23 24  1  0  0  0
 24 25  1  0  0  0
 25 26  1  0  0  0
 26 27  1  0  0  0
 27 28  1  0  0  0
 27 29  1  0  0  0
  1 30  1  0  0  0
  1 31  1  0  0  0
  3 32  1  0  0  0
  5 33  1  0  0  0
  7 34  1  0  0  0
  8 35  1  0  0  0
 10 36  1  0  0  0
 12 37  1  0  0  0
 13 38  1  0  0  0
 16 39  1  0  0  0
 18 40  1  0  0  0
 21 41  1  0  0  0
 22 42  1  0  0  0
 23 43  1  0  0  0
 23 44  1  0  0  0
 24 45  1  0  0  0
 24 46  1  0  0  0
 25 47  1  0  0  0
 25 48  1  0  0  0
 26 49  1  0  0  0
 27 50  1  0  0  0
 28 51  1  0  0  0
 28 52  1  0  0  0
 28 53  1  0  0  0
 29 54  1  0  0  0
 29 55  1  0  0  0
 29 56  1  0  0  0
M  END
$$$$
