### 
### Created by X-TOOL on Mon Sep 10 21:13:18 2018
### 

@<TRIPOS>MOLECULE
4o42_ligand
  130   129     1     0     0
SMALL
GAST_HUCK


@<TRIPOS>ATOM
      1 N         -13.5570    9.7670   19.8280 N.4       1 ARG         0.2379
      2 CA        -13.6760    8.5200   20.6360 C.3       1 ARG         0.0651
      3 C         -13.2830    7.3090   19.7780 C.2       1 ARG         0.2268
      4 O         -14.0030    6.9610   18.8370 O.2       1 ARG        -0.3907
      5 CB        -15.1110    8.3860   21.1540 C.3       1 ARG         0.0110
      6 CG        -15.2810    7.3640   22.2700 C.3       1 ARG        -0.0125
      7 CD        -16.7410    6.9930   22.5080 C.3       1 ARG         0.0629
      8 NE        -16.8590    5.7920   23.3530 N.pl3     1 ARG        -0.2723
      9 CZ        -17.5220    4.6670   23.0490 C.cat     1 ARG         0.2882
     10 NH1       -18.1890    4.5370   21.9030 N.pl3     1 ARG        -0.2849
     11 NH2       -17.5360    3.6500   23.9100 N.pl3     1 ARG        -0.2849
     12 N         -12.1410    6.6800   20.0870 N.am      1 THR        -0.2586
     13 CA        -11.6390    5.5270   19.2890 C.3       1 THR         0.1566
     14 C         -12.4210    4.2330   19.5170 C.2       1 THR         0.2065
     15 O         -12.3710    3.3390   18.6460 O.2       1 THR        -0.3943
     16 CB        -10.1360    5.2060   19.5430 C.3       1 THR         0.0924
     17 OG1        -9.3590    6.3930   19.4110 O.3       1 THR        -0.3874
     18 CG2        -9.5720    4.1180   18.5510 C.3       1 THR        -0.0346
     19 N         -13.1200    4.1050   20.6600 N.am      1 ALA        -0.2639
     20 CA        -13.8900    2.8810   20.8900 C.3       1 ALA         0.1282
     21 C         -15.2420    2.9230   20.2120 C.2       1 ALA         0.2036
     22 O         -15.9380    3.9440   20.1990 O.2       1 ALA        -0.3944
     23 CB        -14.0210    2.4810   22.3550 C.3       1 ALA        -0.0244
     24 N         -15.5630    1.7780   19.6200 N.am      1 ARG        -0.2637
     25 CA        -16.7700    1.5600   18.8440 C.3       1 ARG         0.1311
     26 C         -17.1940    0.1060   19.0860 C.2       1 ARG         0.2040
     27 O         -16.3810   -0.7010   19.5400 O.2       1 ARG        -0.3944
     28 CB        -16.4510    1.7200   17.3450 C.3       1 ARG        -0.0092
     29 CG        -15.6640    2.9610   16.9380 C.3       1 ARG        -0.0156
     30 CD        -15.1800    2.9150   15.4930 C.3       1 ARG         0.0627
     31 NE        -13.9900    2.0780   15.2960 N.pl3     1 ARG        -0.2723
     32 CZ        -13.3810    1.8650   14.1160 C.cat     1 ARG         0.2882
     33 NH1       -12.3110    1.0780   14.0430 N.pl3     1 ARG        -0.2849
     34 NH2       -13.8390    2.4130   12.9980 N.pl3     1 ARG        -0.2849
     35 N         -18.4490   -0.2340   18.7390 N.am      1 SER        -0.2616
     36 CA        -18.9320   -1.6200   18.7190 C.3       1 SER         0.1539
     37 C         -19.7270   -1.8160   17.4170 C.2       1 SER         0.2062
     38 O         -20.1340   -0.8300   16.7910 O.2       1 SER        -0.3943
     39 CB        -19.8010   -1.9210   19.9520 C.3       1 SER         0.0843
     40 OG        -18.9910   -2.1090   21.1030 O.3       1 SER        -0.3903
     41 N         -19.9140   -3.0650   17.0000 N.am      1 MLY        -0.2637
     42 CA        -20.6590   -3.3930   15.7620 C.3       1 MLY         0.1309
     43 CB        -20.2690   -4.7410   15.1880 C.3       1 MLY        -0.0122
     44 CG        -18.8080   -4.7040   14.7840 C.3       1 MLY        -0.0440
     45 CD        -18.5850   -5.3480   13.4500 C.3       1 MLY        -0.0123
     46 CE        -17.4300   -4.7080   12.7140 C.3       1 MLY        -0.0324
     47 NZ        -17.7950   -3.8540   11.5630 N.4       1 MLY         0.2309
     48 CH1       -16.5030   -3.4600   10.9880 C.3       1 MLY        -0.0433
     49 CH2       -18.5070   -4.6230   10.5210 C.3       1 MLY        -0.0433
     50 C         -22.1320   -3.4080   16.0280 C.2       1 MLY         0.2034
     51 O         -22.6270   -4.1830   16.8930 O.2       1 MLY        -0.3944
     52 N         -22.8300   -2.5790   15.2420 N.am      1 VAL        -0.2668
     53 CA        -24.2360   -2.2120   15.4590 C.3       1 VAL         0.1249
     54 C         -25.1190   -2.8130   14.3650 C.2       1 VAL         0.2152
     55 O         -24.7880   -2.6990   13.1870 O.co2     1 VAL        -0.4120
     56 CB        -24.4060   -0.6580   15.4870 C.3       1 VAL        -0.0094
     57 CG1       -23.4470   -0.0430   16.5040 C.3       1 VAL        -0.0589
     58 CG2       -24.1760   -0.0220   14.1080 C.3       1 VAL        -0.0589
     59 H         -13.8156   10.5600   20.3940 H         1 ARG         0.2015
     60 H         -14.1697    9.7099   19.0297 H         1 ARG         0.2015
     61 H         -12.6052    9.8744   19.5141 H         1 ARG         0.2015
     62 H         -12.9926    8.5813   21.4957 H         1 ARG         0.1098
     63 H         -15.7545    8.0881   20.3131 H         1 ARG         0.0347
     64 H         -15.4336    9.3669   21.5331 H         1 ARG         0.0347
     65 H         -14.8685    7.7847   23.1989 H         1 ARG         0.0302
     66 H         -14.7254    6.4534   22.0015 H         1 ARG         0.0302
     67 H         -17.2233    6.7976   21.5389 H         1 ARG         0.0689
     68 H         -17.2470    7.8327   23.0068 H         1 ARG         0.0689
     69 H         -16.3856    5.8193   24.2673 H         1 ARG         0.2642
     70 H         -18.6898    3.6613   21.6951 H         1 ARG         0.2615
     71 H         -18.2038    5.3122   21.2250 H         1 ARG         0.2615
     72 H         -17.0286    3.7244   24.8032 H         1 ARG         0.2615
     73 H         -18.0543    2.7895   23.6823 H         1 ARG         0.2615
     74 H         -11.6112    6.9933   20.8751 H         1 THR         0.1885
     75 H         -11.7505    5.8053   18.2307 H         1 THR         0.0826
     76 H         -10.0350    4.8251   20.5700 H         1 THR         0.0639
     77 H          -8.4441    6.1902   19.5670 H         1 THR         0.2101
     78 H          -8.5114    3.9318   18.7755 H         1 THR         0.0257
     79 H          -9.6699    4.4790   17.5166 H         1 THR         0.0257
     80 H         -10.1412    3.1841   18.6689 H         1 THR         0.0257
     81 H         -13.1136    4.8357   21.3427 H         1 ALA         0.1883
     82 H         -13.3221    2.0735   20.4047 H         1 ALA         0.0797
     83 H         -14.6114    1.5560   22.4311 H         1 ALA         0.0277
     84 H         -14.5257    3.2849   22.9109 H         1 ALA         0.0277
     85 H         -13.0205    2.3134   22.7802 H         1 ALA         0.0277
     86 H         -14.9278    1.0116   19.7158 H         1 ARG         0.1883
     87 H         -17.5624    2.2599   19.1477 H         1 ARG         0.0800
     88 H         -17.4072    1.7394   16.8015 H         1 ARG         0.0313
     89 H         -15.8695    0.8400   17.0328 H         1 ARG         0.0313
     90 H         -14.7885    3.0523   17.5977 H         1 ARG         0.0301
     91 H         -16.3106    3.8421   17.0627 H         1 ARG         0.0301
     92 H         -14.9403    3.9401   15.1741 H         1 ARG         0.0689
     93 H         -15.9922    2.5168   14.8671 H         1 ARG         0.0689
     94 H         -13.5903    1.6180   16.1264 H         1 ARG         0.2642
     95 H         -11.8494    0.9192   13.1360 H         1 ARG         0.2615
     96 H         -11.9441    0.6275   14.8935 H         1 ARG         0.2615
     97 H         -14.6659    3.0264   13.0263 H         1 ARG         0.2615
     98 H         -13.3676    2.2251   12.1017 H         1 ARG         0.2615
     99 H         -19.0844    0.4941   18.4819 H         1 SER         0.1884
    100 H         -18.0706   -2.3040   18.7235 H         1 SER         0.0823
    101 H         -20.3847   -2.8350   19.7680 H         1 SER         0.0606
    102 H         -20.4855   -1.0777   20.1260 H         1 SER         0.0606
    103 H         -19.5452   -2.2934   21.8522 H         1 SER         0.2097
    104 H         -19.5361   -3.8138   17.5446 H         1 MLY         0.1883
    105 H         -20.4382   -2.6171   15.0142 H         1 MLY         0.0800
    106 H         -20.8895   -4.9595   14.3064 H         1 MLY         0.0312
    107 H         -20.4217   -5.5226   15.9468 H         1 MLY         0.0312
    108 H         -18.2152   -5.2382   15.5411 H         1 MLY         0.0269
    109 H         -18.4787   -3.6557   14.7331 H         1 MLY         0.0269
    110 H         -19.4974   -5.2424   12.8447 H         1 MLY         0.0317
    111 H         -18.3660   -6.4155   13.6002 H         1 MLY         0.0317
    112 H         -16.7780   -5.5129   12.3438 H         1 MLY         0.0814
    113 H         -16.8744   -4.0871   13.4322 H         1 MLY         0.0814
    114 H         -18.3412   -3.0591   11.8560 H         1 MLY         0.2028
    115 H         -16.6724   -2.8139   10.1140 H         1 MLY         0.0777
    116 H         -15.9503   -4.3590   10.6777 H         1 MLY         0.0777
    117 H         -15.9182   -2.9118   11.7413 H         1 MLY         0.0777
    118 H         -19.4866   -4.9424   10.9061 H         1 MLY         0.0777
    119 H         -17.9136   -5.5084   10.2489 H         1 MLY         0.0777
    120 H         -18.6508   -3.9907    9.6325 H         1 MLY         0.0777
    121 H         -22.3620   -2.1820   14.4525 H         1 VAL         0.1876
    122 O1        -26.1795   -3.4214   14.6694 O.co2     1 VAL        -0.4120
    123 H         -24.5557   -2.6167   16.4306 H         1 VAL         0.0754
    124 H         -25.4368   -0.4341   15.7988 H         1 VAL         0.0336
    125 H         -23.5754    1.0494   16.5150 H         1 VAL         0.0234
    126 H         -22.4112   -0.2877   16.2259 H         1 VAL         0.0234
    127 H         -23.6636   -0.4477   17.5036 H         1 VAL         0.0234
    128 H         -24.8685   -0.4676   13.3787 H         1 VAL         0.0234
    129 H         -23.1394   -0.2045   13.7883 H         1 VAL         0.0234
    130 H         -24.3555    1.0615   14.1694 H         1 VAL         0.0234
@<TRIPOS>BOND
     1    1    2 1  
     2    2    3 1  
     3    2    5 1  
     4    3    4 2  
     5    3   12 am 
     6    5    6 1  
     7    6    7 1  
     8    7    8 1  
     9    8    9 ar 
    10    9   10 ar 
    11    9   11 ar 
    12   12   13 1  
    13   13   14 1  
    14   13   16 1  
    15   14   15 2  
    16   14   19 am 
    17   16   17 1  
    18   16   18 1  
    19   19   20 1  
    20   20   21 1  
    21   20   23 1  
    22   21   22 2  
    23   21   24 am 
    24   24   25 1  
    25   25   26 1  
    26   25   28 1  
    27   26   27 2  
    28   26   35 am 
    29   28   29 1  
    30   29   30 1  
    31   30   31 1  
    32   31   32 ar 
    33   32   33 ar 
    34   32   34 ar 
    35   35   36 1  
    36   36   37 1  
    37   36   39 1  
    38   37   38 2  
    39   37   41 am 
    40   39   40 1  
    41   41   42 1  
    42   42   43 1  
    43   42   50 1  
    44   43   44 1  
    45   44   45 1  
    46   45   46 1  
    47   46   47 1  
    48   47   48 1  
    49   47   49 1  
    50   50   51 2  
    51   50   52 am 
    52   52   53 1  
    53   53   54 1  
    54   53   56 1  
    55   54   55 ar 
    56   56   57 1  
    57   56   58 1  
    58    1   59 1  
    59    1   60 1  
    60    1   61 1  
    61    2   62 1  
    62    5   63 1  
    63    5   64 1  
    64    6   65 1  
    65    6   66 1  
    66    7   67 1  
    67    7   68 1  
    68    8   69 1  
    69   10   70 1  
    70   10   71 1  
    71   11   72 1  
    72   11   73 1  
    73   12   74 1  
    74   13   75 1  
    75   16   76 1  
    76   17   77 1  
    77   18   78 1  
    78   18   79 1  
    79   18   80 1  
    80   19   81 1  
    81   20   82 1  
    82   23   83 1  
    83   23   84 1  
    84   23   85 1  
    85   24   86 1  
    86   25   87 1  
    87   28   88 1  
    88   28   89 1  
    89   29   90 1  
    90   29   91 1  
    91   30   92 1  
    92   30   93 1  
    93   31   94 1  
    94   33   95 1  
    95   33   96 1  
    96   34   97 1  
    97   34   98 1  
    98   35   99 1  
    99   36  100 1  
   100   39  101 1  
   101   39  102 1  
   102   40  103 1  
   103   41  104 1  
   104   42  105 1  
   105   43  106 1  
   106   43  107 1  
   107   44  108 1  
   108   44  109 1  
   109   45  110 1  
   110   45  111 1  
   111   46  112 1  
   112   46  113 1  
   113   47  114 1  
   114   48  115 1  
   115   48  116 1  
   116   48  117 1  
   117   49  118 1  
   118   49  119 1  
   119   49  120 1  
   120   52  121 1  
   121   54  122 ar 
   122   53  123 1  
   123   56  124 1  
   124   57  125 1  
   125   57  126 1  
   126   57  127 1  
   127   58  128 1  
   128   58  129 1  
   129   58  130 1  
@<TRIPOS>SUBSTRUCTURE
     1 ARG         1

