4o42_ligand
  -I-interpret- 

129128  0  0  0  0  0  0  0  0999 V2000
  -13.5570    9.7670   19.8280 N   0  3  0  0  0
  -13.6760    8.5200   20.6360 C   0  0  0  0  0
  -13.2830    7.3090   19.7780 C   0  0  0  0  0
  -14.0030    6.9610   18.8370 O   0  0  0  0  0
  -15.1110    8.3860   21.1540 C   0  0  0  0  0
  -15.2810    7.3640   22.2700 C   0  0  0  0  0
  -16.7410    6.9930   22.5080 C   0  0  0  0  0
  -16.8590    5.7920   23.3530 N   0  0  0  0  0
  -17.5220    4.6670   23.0490 C   0  0  0  0  0
  -18.1890    4.5370   21.9030 N   0  0  0  0  0
  -17.5360    3.6500   23.9100 N   0  0  0  0  0
  -12.1410    6.6800   20.0870 N   0  0  0  0  0
  -11.6390    5.5270   19.2890 C   0  0  0  0  0
  -12.4210    4.2330   19.5170 C   0  0  0  0  0
  -12.3710    3.3390   18.6460 O   0  0  0  0  0
  -10.1360    5.2060   19.5430 C   0  0  0  0  0
   -9.3590    6.3930   19.4110 O   0  0  0  0  0
   -9.5720    4.1180   18.5510 C   0  0  0  0  0
  -13.1200    4.1050   20.6600 N   0  0  0  0  0
  -13.8900    2.8810   20.8900 C   0  0  0  0  0
  -15.2420    2.9230   20.2120 C   0  0  0  0  0
  -15.9380    3.9440   20.1990 O   0  0  0  0  0
  -14.0210    2.4810   22.3550 C   0  0  0  0  0
  -15.5630    1.7780   19.6200 N   0  0  0  0  0
  -16.7700    1.5600   18.8440 C   0  0  0  0  0
  -17.1940    0.1060   19.0860 C   0  0  0  0  0
  -16.3810   -0.7010   19.5400 O   0  0  0  0  0
  -16.4510    1.7200   17.3450 C   0  0  0  0  0
  -15.6640    2.9610   16.9380 C   0  0  0  0  0
  -15.1800    2.9150   15.4930 C   0  0  0  0  0
  -13.9900    2.0780   15.2960 N   0  0  0  0  0
  -13.3810    1.8650   14.1160 C   0  0  0  0  0
  -12.3110    1.0780   14.0430 N   0  0  0  0  0
  -13.8390    2.4130   12.9980 N   0  0  0  0  0
  -18.4490   -0.2340   18.7390 N   0  0  0  0  0
  -18.9320   -1.6200   18.7190 C   0  0  0  0  0
  -19.7270   -1.8160   17.4170 C   0  0  0  0  0
  -20.1340   -0.8300   16.7910 O   0  0  0  0  0
  -19.8010   -1.9210   19.9520 C   0  0  0  0  0
  -18.9910   -2.1090   21.1030 O   0  0  0  0  0
  -19.9140   -3.0650   17.0000 N   0  0  0  0  0
  -20.6590   -3.3930   15.7620 C   0  0  0  0  0
  -20.2690   -4.7410   15.1880 C   0  0  0  0  0
  -18.8080   -4.7040   14.7840 C   0  0  0  0  0
  -18.5850   -5.3480   13.4500 C   0  0  0  0  0
  -17.4300   -4.7080   12.7140 C   0  0  0  0  0
  -17.7950   -3.8540   11.5630 N   0  3  0  0  0
  -16.5030   -3.4600   10.9880 C   0  0  0  0  0
  -18.5070   -4.6230   10.5210 C   0  0  0  0  0
  -22.1320   -3.4080   16.0280 C   0  0  0  0  0
  -22.6270   -4.1830   16.8930 O   0  0  0  0  0
  -22.8300   -2.5790   15.2420 N   0  0  0  0  0
  -24.2360   -2.2120   15.4590 C   0  0  0  0  0
  -25.1190   -2.8130   14.3650 C   0  0  0  0  0
  -24.7880   -2.6990   13.1870 O   0  0  0  0  0
  -24.4060   -0.6580   15.4870 C   0  0  0  0  0
  -23.4470   -0.0430   16.5040 C   0  0  0  0  0
  -24.1760   -0.0220   14.1080 C   0  0  0  0  0
  -26.1795   -3.4214   14.6694 O   0  0  0  0  0
  -12.6015    9.8570   19.4826 H   0  0  0  0  0
  -14.2022    9.7225   19.0392 H   0  0  0  0  0
  -13.7862   10.5718   20.4112 H   0  0  0  0  0
  -13.0018    8.5645   21.4913 H   0  0  0  0  0
  -15.7244    8.0523   20.3171 H   0  0  0  0  0
  -15.3972    9.3559   21.5608 H   0  0  0  0  0
  -14.8924    7.8030   23.1889 H   0  0  0  0  0
  -14.7478    6.4587   21.9798 H   0  0  0  0  0
  -17.2072    6.7859   21.5447 H   0  0  0  0  0
  -17.2310    7.8235   23.0162 H   0  0  0  0  0
  -16.3902    5.8190   24.2585 H   0  0  0  0  0
  -18.2037    5.3047   21.2315 H   0  0  0  0  0
  -18.0492    2.7979   23.6845 H   0  0  0  0  0
  -17.0335    3.7237   24.7946 H   0  0  0  0  0
  -11.6006    6.9996   20.8909 H   0  0  0  0  0
  -11.7799    5.8639   18.2620 H   0  0  0  0  0
  -10.0653    4.8068   20.5548 H   0  0  0  0  0
   -8.4345    6.1881   19.5687 H   0  0  0  0  0
  -10.1368    3.1932   18.6687 H   0  0  0  0  0
   -9.6696    4.4769   17.5264 H   0  0  0  0  0
   -8.5211    3.9344   18.7745 H   0  0  0  0  0
  -13.1134    4.8503   21.3563 H   0  0  0  0  0
  -13.2965    2.0943   20.4243 H   0  0  0  0  0
  -13.0290    2.3153   22.7752 H   0  0  0  0  0
  -14.5212    3.2783   22.9047 H   0  0  0  0  0
  -14.6062    1.5644   22.4291 H   0  0  0  0  0
  -14.9151    0.9963   19.7177 H   0  0  0  0  0
  -17.5477    2.2681   19.1301 H   0  0  0  0  0
  -17.4142    1.7978   16.8408 H   0  0  0  0  0
  -15.8247    0.8682   17.0798 H   0  0  0  0  0
  -14.7851    3.0211   17.5799 H   0  0  0  0  0
  -16.3263    3.8209   17.0382 H   0  0  0  0  0
  -14.9143    3.9323   15.2056 H   0  0  0  0  0
  -15.9831    2.4862   14.8936 H   0  0  0  0  0
  -13.5942    1.6225   16.1183 H   0  0  0  0  0
  -11.8631    0.9084   13.1424 H   0  0  0  0  0
  -11.9384    0.6441   14.8876 H   0  0  0  0  0
  -14.6671    3.0080   13.0237 H   0  0  0  0  0
  -19.0971    0.5087   18.4767 H   0  0  0  0  0
  -18.0917   -2.3133   18.7539 H   0  0  0  0  0
  -20.3695   -2.8327   19.7684 H   0  0  0  0  0
  -20.4701   -1.0783   20.1258 H   0  0  0  0  0
  -19.5511   -2.2953   21.8601 H   0  0  0  0  0
  -19.5286   -3.8287   17.5555 H   0  0  0  0  0
  -20.4034   -2.6196   15.0377 H   0  0  0  0  0
  -20.8852   -4.9605   14.3161 H   0  0  0  0  0
  -20.4227   -5.5172   15.9377 H   0  0  0  0  0
  -18.2316   -5.2512   15.5300 H   0  0  0  0  0
  -18.4964   -3.6616   14.7183 H   0  0  0  0  0
  -19.4875   -5.2249   12.8513 H   0  0  0  0  0
  -18.3530   -6.4011   13.6087 H   0  0  0  0  0
  -16.8295   -5.5247   12.3134 H   0  0  0  0  0
  -16.9287   -4.0592   13.4322 H   0  0  0  0  0
  -18.3943   -3.0835   11.8589 H   0  0  0  0  0
  -15.9246   -2.9170   11.7354 H   0  0  0  0  0
  -15.9563   -4.3516   10.6810 H   0  0  0  0  0
  -16.6722   -2.8199   10.1221 H   0  0  0  0  0
  -17.8654   -5.4284   10.1635 H   0  0  0  0  0
  -19.4201   -5.0438   10.9420 H   0  0  0  0  0
  -18.7587   -3.9620    9.6917 H   0  0  0  0  0
  -22.3526   -2.1741   14.4367 H   0  0  0  0  0
  -24.5452   -2.6129   16.4243 H   0  0  0  0  0
  -25.4363   -0.4522   15.7773 H   0  0  0  0  0
  -23.6627   -0.4448   17.4940 H   0  0  0  0  0
  -22.4211   -0.2862   16.2273 H   0  0  0  0  0
  -23.5751    1.0394   16.5140 H   0  0  0  0  0
  -23.1640   -0.2457   13.7704 H   0  0  0  0  0
  -24.8956   -0.4284   13.3973 H   0  0  0  0  0
  -24.3057    1.0578   14.1811 H   0  0  0  0  0
  -26.2864   -3.4180   15.6234 H   0  0  0  0  0
  1  2  1  0  0  0
  2  3  1  0  0  0
  2  5  1  0  0  0
  3  4  2  0  0  0
  3 12  1  0  0  0
  5  6  1  0  0  0
  6  7  1  0  0  0
  7  8  1  0  0  0
  8  9  1  0  0  0
  9 10  2  0  0  0
  9 11  1  0  0  0
 12 13  1  0  0  0
 13 14  1  0  0  0
 13 16  1  0  0  0
 14 15  2  0  0  0
 14 19  1  0  0  0
 16 17  1  0  0  0
 16 18  1  0  0  0
 19 20  1  0  0  0
 20 21  1  0  0  0
 20 23  1  0  0  0
 21 22  2  0  0  0
 21 24  1  0  0  0
 24 25  1  0  0  0
 25 26  1  0  0  0
 25 28  1  0  0  0
 26 27  2  0  0  0
 26 35  1  0  0  0
 28 29  1  0  0  0
 29 30  1  0  0  0
 30 31  1  0  0  0
 31 32  1  0  0  0
 32 33  1  0  0  0
 32 34  2  0  0  0
 35 36  1  0  0  0
 36 37  1  0  0  0
 36 39  1  0  0  0
 37 38  2  0  0  0
 37 41  1  0  0  0
 39 40  1  0  0  0
 41 42  1  0  0  0
 42 43  1  0  0  0
 42 50  1  0  0  0
 43 44  1  0  0  0
 44 45  1  0  0  0
 45 46  1  0  0  0
 46 47  1  0  0  0
 47 48  1  0  0  0
 47 49  1  0  0  0
 50 51  2  0  0  0
 50 52  1  0  0  0
 52 53  1  0  0  0
 53 54  1  0  0  0
 53 56  1  0  0  0
 54 55  2  0  0  0
 56 57  1  0  0  0
 56 58  1  0  0  0
 54 59  1  0  0  0
  1 60  1  0  0  0
  1 61  1  0  0  0
  1 62  1  0  0  0
  2 63  1  0  0  0
  5 64  1  0  0  0
  5 65  1  0  0  0
  6 66  1  0  0  0
  6 67  1  0  0  0
  7 68  1  0  0  0
  7 69  1  0  0  0
  8 70  1  0  0  0
 10 71  1  0  0  0
 11 72  1  0  0  0
 11 73  1  0  0  0
 12 74  1  0  0  0
 13 75  1  0  0  0
 16 76  1  0  0  0
 17 77  1  0  0  0
 18 78  1  0  0  0
 18 79  1  0  0  0
 18 80  1  0  0  0
 19 81  1  0  0  0
 20 82  1  0  0  0
 23 83  1  0  0  0
 23 84  1  0  0  0
 23 85  1  0  0  0
 24 86  1  0  0  0
 25 87  1  0  0  0
 28 88  1  0  0  0
 28 89  1  0  0  0
 29 90  1  0  0  0
 29 91  1  0  0  0
 30 92  1  0  0  0
 30 93  1  0  0  0
 31 94  1  0  0  0
 33 95  1  0  0  0
 33 96  1  0  0  0
 34 97  1  0  0  0
 35 98  1  0  0  0
 36 99  1  0  0  0
 39100  1  0  0  0
 39101  1  0  0  0
 40102  1  0  0  0
 41103  1  0  0  0
 42104  1  0  0  0
 43105  1  0  0  0
 43106  1  0  0  0
 44107  1  0  0  0
 44108  1  0  0  0
 45109  1  0  0  0
 45110  1  0  0  0
 46111  1  0  0  0
 46112  1  0  0  0
 47113  1  0  0  0
 48114  1  0  0  0
 48115  1  0  0  0
 48116  1  0  0  0
 49117  1  0  0  0
 49118  1  0  0  0
 49119  1  0  0  0
 52120  1  0  0  0
 53121  1  0  0  0
 56122  1  0  0  0
 57123  1  0  0  0
 57124  1  0  0  0
 57125  1  0  0  0
 58126  1  0  0  0
 58127  1  0  0  0
 58128  1  0  0  0
 59129  1  0  0  0
M  END
$$$$
