2qm9_ligand
  -I-interpret- 

 58 61  0  0  0  0  0  0  0  0999 V2000
   -5.4800   -9.6110   17.1610 C   0  0  0  0  0
   -6.5370   -8.5080   17.0080 C   0  0  0  0  0
   -7.5730   -8.4670   18.1460 C   0  0  0  0  0
   -8.5920   -7.5150   18.1640 C   0  0  0  0  0
   -8.6660   -6.5020   17.0340 C   0  0  0  0  0
   -9.5400   -7.4610   19.1830 C   0  0  0  0  0
  -10.5190   -6.5250   19.1760 O   0  0  0  0  0
   -9.4950   -8.3640   20.2230 C   0  0  0  0  0
  -10.5390   -8.2870   21.3460 C   0  0  0  0  0
   -8.4900   -9.3170   20.2270 C   0  0  0  0  0
   -8.4560  -10.2830   21.3810 C   0  0  0  0  0
   -7.5300   -9.3750   19.2030 C   0  0  0  0  0
   -6.5310  -10.3190   19.2270 O   0  0  0  0  0
   -5.2250   -9.9290   18.6330 C   0  0  0  0  0
   -4.5540   -8.7160   19.2900 C   0  0  0  0  0
   -4.2330  -11.1250   18.7420 C   0  0  0  0  0
   -3.7030  -11.4820   20.0690 O   0  0  0  0  0
   -4.7130  -11.7980   20.9390 C   0  0  0  0  0
   -5.5630  -12.8880   20.7260 C   0  0  0  0  0
   -6.5850  -13.1650   21.6360 C   0  0  0  0  0
   -4.9180  -10.9990   22.0530 C   0  0  0  0  0
   -5.9430  -11.2650   22.9540 C   0  0  0  0  0
   -6.7930  -12.3510   22.7580 C   0  0  0  0  0
   -7.8990  -12.5990   23.8240 C   0  0  0  0  0
   -9.2120  -13.2820   23.3720 C   0  0  0  0  0
   -9.6580  -12.8760   21.6690 S   0  0  0  0  0
   -9.5970  -14.4930   21.0980 C   0  0  0  0  0
   -9.8180  -14.8010   19.9280 O   0  0  0  0  0
   -9.2740  -15.3660   22.0660 N   0  0  0  0  0
   -9.0580  -14.8170   23.2760 C   0  0  0  0  0
   -8.7610  -15.5220   24.2370 O   0  0  0  0  0
   -4.5485   -9.2656   16.7126 H   0  0  0  0  0
   -5.8431  -10.5125   16.6675 H   0  0  0  0  0
   -7.0804   -8.7083   16.0846 H   0  0  0  0  0
   -6.0105   -7.5536   17.0170 H   0  0  0  0  0
   -7.7446   -5.9203   17.0083 H   0  0  0  0  0
   -8.7933   -7.0253   16.0864 H   0  0  0  0  0
   -9.5130   -5.8362   17.1995 H   0  0  0  0  0
  -11.0753   -6.6396   19.9500 H   0  0  0  0  0
  -10.4741   -7.3148   21.8346 H   0  0  0  0  0
  -11.5354   -8.4170   20.9236 H   0  0  0  0  0
  -10.3461   -9.0747   22.0743 H   0  0  0  0  0
   -8.3348   -9.7301   22.3125 H   0  0  0  0  0
   -9.3891  -10.8457   21.4097 H   0  0  0  0  0
   -7.6196  -10.9702   21.2534 H   0  0  0  0  0
   -5.2094   -7.8492   19.2044 H   0  0  0  0  0
   -4.3688   -8.9306   20.3425 H   0  0  0  0  0
   -3.6087   -8.5093   18.7882 H   0  0  0  0  0
   -3.3619  -10.8259   18.1590 H   0  0  0  0  0
   -4.8021  -11.9968   18.4192 H   0  0  0  0  0
   -5.4276  -13.5214   19.8493 H   0  0  0  0  0
   -7.2310  -14.0274   21.4714 H   0  0  0  0  0
   -4.2627  -10.1453   22.2261 H   0  0  0  0  0
   -6.0825  -10.6186   23.8205 H   0  0  0  0  0
   -8.1945  -11.6075   24.1670 H   0  0  0  0  0
   -7.4534  -13.2832   24.5461 H   0  0  0  0  0
   -9.9386  -12.9432   24.1105 H   0  0  0  0  0
   -9.1981  -16.3691   21.8972 H   0  0  0  0  0
  1  2  1  0  0  0
  1 14  1  0  0  0
  2  3  1  0  0  0
  3  4  4  0  0  0
  3 12  4  0  0  0
  4  5  1  0  0  0
  4  6  4  0  0  0
  6  7  1  0  0  0
  6  8  4  0  0  0
  8  9  1  0  0  0
  8 10  4  0  0  0
 10 11  1  0  0  0
 10 12  4  0  0  0
 12 13  1  0  0  0
 13 14  1  0  0  0
 14 15  1  0  0  0
 14 16  1  0  0  0
 16 17  1  0  0  0
 17 18  1  0  0  0
 18 19  4  0  0  0
 18 21  4  0  0  0
 19 20  4  0  0  0
 20 23  4  0  0  0
 21 22  4  0  0  0
 22 23  4  0  0  0
 23 24  1  0  0  0
 24 25  1  0  0  0
 25 26  1  0  0  0
 25 30  1  0  0  0
 26 27  1  0  0  0
 27 28  2  0  0  0
 27 29  1  0  0  0
 29 30  1  0  0  0
 30 31  2  0  0  0
  1 32  1  0  0  0
  1 33  1  0  0  0
  2 34  1  0  0  0
  2 35  1  0  0  0
  5 36  1  0  0  0
  5 37  1  0  0  0
  5 38  1  0  0  0
  7 39  1  0  0  0
  9 40  1  0  0  0
  9 41  1  0  0  0
  9 42  1  0  0  0
 11 43  1  0  0  0
 11 44  1  0  0  0
 11 45  1  0  0  0
 15 46  1  0  0  0
 15 47  1  0  0  0
 15 48  1  0  0  0
 16 49  1  0  0  0
 16 50  1  0  0  0
 19 51  1  0  0  0
 20 52  1  0  0  0
 21 53  1  0  0  0
 22 54  1  0  0  0
 24 55  1  0  0  0
 24 56  1  0  0  0
 25 57  1  0  0  0
 29 58  1  0  0  0
M  END
$$$$
