### 
### Created by X-TOOL on Mon Aug  2 16:12:24 2021
### 

@<TRIPOS>MOLECULE
5zdc_ligand
   57    60     1     0     0
SMALL
GAST_HUCK


@<TRIPOS>ATOM
      1 N1         -7.8790   72.1880  -39.8650 N.ar      1 AR6        -0.2698
      2 C2         -6.6980   72.7780  -39.5780 C.ar      1 AR6         0.0533
      3 N3         -6.3490   73.9300  -40.1880 N.ar      1 AR6        -0.2714
      4 C4         -7.1750   74.4600  -41.1040 C.ar      1 AR6         0.1613
      5 C5         -8.3430   73.8780  -41.3930 C.ar      1 AR6         0.1045
      6 C6         -8.6890   72.7030  -40.7600 C.ar      1 AR6         0.1298
      7 N6         -9.8320   71.7920  -40.7820 N.pl3     1 AR6        -0.3152
      8 N7         -8.9640   74.6260  -42.3160 N.2       1 AR6        -0.2958
      9 C8         -8.1710   75.6660  -42.5850 C.2       1 AR6         0.1123
     10 N9         -7.0610   75.5680  -41.8390 N.pl3     1 AR6        -0.1919
     11 PA         -9.5810   79.9310  -40.7510 P.3       1 AR6         0.2972
     12 PB         -9.5840   82.4330  -39.1470 P.3       1 AR6         0.2972
     13 C1'        -5.9550   76.4720  -41.8590 C.3       1 AR6         0.2010
     14 O1A        -9.4900   80.7600  -41.9960 O.co2     1 AR6        -0.6127
     15 O1B        -8.5010   83.2570  -39.7720 O.co2     1 AR6        -0.6127
     16 C1D       -14.5000   81.0480  -40.2720 C.3       1 AR6         0.1854
     17 O1D       -15.4580   81.1270  -41.0980 O.3       1 AR6        -0.3649
     18 C2'        -5.9010   77.1730  -43.0080 C.3       1 AR6         0.1385
     19 O2'        -4.5240   77.2990  -43.5000 O.3       1 AR6        -0.3836
     20 O2A       -10.8540   79.1400  -40.7560 O.co2     1 AR6        -0.6127
     21 O2B        -9.6080   82.5170  -37.6600 O.co2     1 AR6        -0.6127
     22 C2D       -14.9820   81.4560  -38.8760 C.3       1 AR6         0.1339
     23 O2D       -16.4420   81.2600  -38.8160 O.3       1 AR6        -0.3841
     24 C3'        -6.3990   78.5750  -42.6400 C.3       1 AR6         0.1149
     25 O3'        -5.8320   79.4810  -43.4310 O.3       1 AR6        -0.3864
     26 O3A        -9.3770   80.8290  -39.3900 O.3       1 AR6        -0.1319
     27 C3D       -14.6600   82.7470  -38.7280 C.3       1 AR6         0.1144
     28 O3D       -15.6500   83.6580  -39.2200 O.3       1 AR6        -0.3864
     29 C4'        -5.9740   78.7570  -41.1240 C.3       1 AR6         0.1189
     30 O4'        -5.9830   77.5530  -40.6220 O.3       1 AR6        -0.3364
     31 C4D       -13.3460   82.9440  -39.6450 C.3       1 AR6         0.1184
     32 O4D       -13.4340   82.1280  -40.6600 O.3       1 AR6        -0.3403
     33 C5'        -7.0210   79.5750  -40.3630 C.3       1 AR6         0.1128
     34 O5'        -8.2630   78.9610  -40.5820 O.3       1 AR6        -0.2476
     35 C5D       -12.1410   82.5880  -38.8210 C.3       1 AR6         0.1128
     36 O5D       -11.0730   82.8280  -39.6970 O.3       1 AR6        -0.2476
     37 H1         -6.0288   72.3247  -38.8556 H         1 AR6         0.0996
     38 H2        -10.6242   71.9749  -41.4143 H         1 AR6         0.1820
     39 H3         -9.8451   70.9672  -40.1652 H         1 AR6         0.1820
     40 H4         -8.3898   76.4631  -43.2940 H         1 AR6         0.1349
     41 H5         -5.0373   75.8719  -41.7720 H         1 AR6         0.0996
     42 H6        -14.0713   80.0350  -40.2682 H         1 AR6         0.0935
     43 H7        -16.1171   80.4786  -40.8798 H         1 AR6         0.2126
     44 H8         -6.5365   76.7090  -43.7766 H         1 AR6         0.0676
     45 H9         -4.5223   77.7972  -44.3089 H         1 AR6         0.2101
     46 H10       -14.4913   80.8502  -38.1000 H         1 AR6         0.0671
     47 H11       -16.8602   81.7996  -39.4766 H         1 AR6         0.2101
     48 H12        -7.4924   78.6396  -42.7408 H         1 AR6         0.0648
     49 H13        -4.8886   79.4460  -43.3252 H         1 AR6         0.2100
     50 H14       -14.4512   82.9648  -37.6702 H         1 AR6         0.0648
     51 H15       -16.4665   83.5182  -38.7548 H         1 AR6         0.2100
     52 H16        -4.9821   79.2257  -41.0442 H         1 AR6         0.0651
     53 H17       -13.2733   83.9837  -39.9967 H         1 AR6         0.0651
     54 H18        -7.0393   80.6083  -40.7397 H         1 AR6         0.0648
     55 H19        -6.7872   79.5806  -39.2882 H         1 AR6         0.0648
     56 H20       -12.1704   81.5320  -38.5146 H         1 AR6         0.0648
     57 H21       -12.0705   83.2270  -37.9284 H         1 AR6         0.0648
@<TRIPOS>BOND
     1    2    1 ar 
     2    6    1 ar 
     3    3    2 ar 
     4    4    3 ar 
     5    4    5 ar 
     6   10    4 1  
     7    5    6 ar 
     8    8    5 1  
     9    6    7 1  
    10    9    8 2  
    11   10    9 1  
    12   13   10 1  
    13   11   14 ar 
    14   11   20 ar 
    15   26   11 1  
    16   11   34 1  
    17   12   15 ar 
    18   12   21 ar 
    19   12   26 1  
    20   36   12 1  
    21   13   18 1  
    22   30   13 1  
    23   16   17 1  
    24   16   22 1  
    25   32   16 1  
    26   18   19 1  
    27   24   18 1  
    28   22   23 1  
    29   27   22 1  
    30   24   25 1  
    31   29   24 1  
    32   27   28 1  
    33   31   27 1  
    34   29   30 1  
    35   33   29 1  
    36   31   32 1  
    37   35   31 1  
    38   34   33 1  
    39   35   36 1  
    40    2   37 1  
    41    7   38 1  
    42    7   39 1  
    43    9   40 1  
    44   13   41 1  
    45   16   42 1  
    46   17   43 1  
    47   18   44 1  
    48   19   45 1  
    49   22   46 1  
    50   23   47 1  
    51   24   48 1  
    52   25   49 1  
    53   27   50 1  
    54   28   51 1  
    55   29   52 1  
    56   31   53 1  
    57   33   54 1  
    58   33   55 1  
    59   35   56 1  
    60   35   57 1  
@<TRIPOS>SUBSTRUCTURE
     1 AR6         1

