5zdc_ligand
  -I-interpret- 

 59 62  0  0  0  0  0  0  0  0999 V2000
   -7.8790   72.1880  -39.8650 N   0  0  0  0  0
   -6.6980   72.7780  -39.5780 C   0  0  0  0  0
   -6.3490   73.9300  -40.1880 N   0  0  0  0  0
   -7.1750   74.4600  -41.1040 C   0  0  0  0  0
   -8.3430   73.8780  -41.3930 C   0  0  0  0  0
   -8.6890   72.7030  -40.7600 C   0  0  0  0  0
   -9.8320   71.7920  -40.7820 N   0  0  0  0  0
   -8.9640   74.6260  -42.3160 N   0  0  0  0  0
   -8.1710   75.6660  -42.5850 C   0  0  0  0  0
   -7.0610   75.5680  -41.8390 N   0  0  0  0  0
   -9.5810   79.9310  -40.7510 P   0  0  0  0  0
   -9.5840   82.4330  -39.1470 P   0  0  0  0  0
   -5.9550   76.4720  -41.8590 C   0  0  0  0  0
   -9.4900   80.7600  -41.9960 O   0  0  0  0  0
   -8.5010   83.2570  -39.7720 O   0  0  0  0  0
  -14.5000   81.0480  -40.2720 C   0  0  0  0  0
  -15.4580   81.1270  -41.0980 O   0  0  0  0  0
   -5.9010   77.1730  -43.0080 C   0  0  0  0  0
   -4.5240   77.2990  -43.5000 O   0  0  0  0  0
  -10.8540   79.1400  -40.7560 O   0  0  0  0  0
   -9.6080   82.5170  -37.6600 O   0  0  0  0  0
  -14.9820   81.4560  -38.8760 C   0  0  0  0  0
  -16.4420   81.2600  -38.8160 O   0  0  0  0  0
   -6.3990   78.5750  -42.6400 C   0  0  0  0  0
   -5.8320   79.4810  -43.4310 O   0  0  0  0  0
   -9.3770   80.8290  -39.3900 O   0  0  0  0  0
  -14.6600   82.7470  -38.7280 C   0  0  0  0  0
  -15.6500   83.6580  -39.2200 O   0  0  0  0  0
   -5.9740   78.7570  -41.1240 C   0  0  0  0  0
   -5.9830   77.5530  -40.6220 O   0  0  0  0  0
  -13.3460   82.9440  -39.6450 C   0  0  0  0  0
  -13.4340   82.1280  -40.6600 O   0  0  0  0  0
   -7.0210   79.5750  -40.3630 C   0  0  0  0  0
   -8.2630   78.9610  -40.5820 O   0  0  0  0  0
  -12.1410   82.5880  -38.8210 C   0  0  0  0  0
  -11.0730   82.8280  -39.6970 O   0  0  0  0  0
   -6.0251   72.3222  -38.8516 H   0  0  0  0  0
   -9.8450   70.9752  -40.1712 H   0  0  0  0  0
  -10.6166   71.9731  -41.4082 H   0  0  0  0  0
   -8.3900   76.4639  -43.2946 H   0  0  0  0  0
   -5.0768   75.8342  -41.7583 H   0  0  0  0  0
   -8.5380   83.1611  -40.7265 H   0  0  0  0  0
  -14.1102   80.0301  -40.2837 H   0  0  0  0  0
  -15.1492   80.8702  -41.9700 H   0  0  0  0  0
   -6.4878   76.6814  -43.7839 H   0  0  0  0  0
   -4.5223   77.8024  -44.3174 H   0  0  0  0  0
  -10.9045   78.6121  -39.9558 H   0  0  0  0  0
  -14.5268   80.8650  -38.0813 H   0  0  0  0  0
  -16.7620   81.5112  -37.9465 H   0  0  0  0  0
   -7.4742   78.7000  -42.7682 H   0  0  0  0  0
   -6.1496   80.3552  -43.1934 H   0  0  0  0  0
  -14.5377   82.9614  -37.6663 H   0  0  0  0  0
  -15.3512   84.5596  -39.0804 H   0  0  0  0  0
   -5.0113   79.2626  -41.0490 H   0  0  0  0  0
  -13.2631   83.9716  -39.9988 H   0  0  0  0  0
   -7.0342   80.6063  -40.7155 H   0  0  0  0  0
   -6.7880   79.6031  -39.2986 H   0  0  0  0  0
  -12.1666   81.5597  -38.4603 H   0  0  0  0  0
  -12.0716   83.1714  -37.9029 H   0  0  0  0  0
  2  1  4  0  0  0
  6  1  4  0  0  0
  3  2  4  0  0  0
  4  3  4  0  0  0
  4  5  4  0  0  0
 10  4  4  0  0  0
  5  6  4  0  0  0
  8  5  4  0  0  0
  6  7  1  0  0  0
  9  8  4  0  0  0
 10  9  4  0  0  0
 13 10  1  0  0  0
 11 14  2  0  0  0
 11 20  1  0  0  0
 26 11  1  0  0  0
 11 34  1  0  0  0
 12 15  1  0  0  0
 12 21  2  0  0  0
 12 26  1  0  0  0
 36 12  1  0  0  0
 13 18  1  0  0  0
 30 13  1  0  0  0
 16 17  1  0  0  0
 16 22  1  0  0  0
 32 16  1  0  0  0
 18 19  1  0  0  0
 24 18  1  0  0  0
 22 23  1  0  0  0
 27 22  1  0  0  0
 24 25  1  0  0  0
 29 24  1  0  0  0
 27 28  1  0  0  0
 31 27  1  0  0  0
 29 30  1  0  0  0
 33 29  1  0  0  0
 31 32  1  0  0  0
 35 31  1  0  0  0
 34 33  1  0  0  0
 35 36  1  0  0  0
  2 37  1  0  0  0
  7 38  1  0  0  0
  7 39  1  0  0  0
  9 40  1  0  0  0
 13 41  1  0  0  0
 15 42  1  0  0  0
 16 43  1  0  0  0
 17 44  1  0  0  0
 18 45  1  0  0  0
 19 46  1  0  0  0
 20 47  1  0  0  0
 22 48  1  0  0  0
 23 49  1  0  0  0
 24 50  1  0  0  0
 25 51  1  0  0  0
 27 52  1  0  0  0
 28 53  1  0  0  0
 29 54  1  0  0  0
 31 55  1  0  0  0
 33 56  1  0  0  0
 33 57  1  0  0  0
 35 58  1  0  0  0
 35 59  1  0  0  0
M  END
$$$$
