5mty_ligand
  -I-interpret- 

 62 66  0  0  0  0  0  0  0  0999 V2000
   19.4160   -6.5770  -16.7160 C   0  0  0  0  0
   18.8140   -7.6670  -16.1930 C   0  0  0  0  0
   17.8500   -8.1690  -16.9480 C   0  0  0  0  0
   17.7890   -7.2210  -18.2100 S   0  0  0  0  0
   18.9310   -6.2230  -17.8900 C   0  0  0  0  0
   19.3300   -5.1930  -18.6440 C   0  0  0  0  0
   18.4930   -4.5880  -19.2880 O   0  0  0  0  0
   20.6600   -4.8810  -18.6490 N   0  0  0  0  0
   21.1360   -3.8570  -19.4020 C   0  0  0  0  0
   20.4880   -2.6680  -19.7200 C   0  0  0  0  0
   22.4230   -4.0350  -19.8880 C   0  0  0  0  0
   23.0030   -5.0790  -19.6060 F   0  0  0  0  0
   23.0550   -3.0720  -20.6750 C   0  0  0  0  0
   22.3930   -1.8940  -20.9810 C   0  0  0  0  0
   22.9920   -0.9970  -21.7450 F   0  0  0  0  0
   21.0780   -1.7040  -20.5130 C   0  0  0  0  0
   20.4010   -0.5620  -20.7430 N   0  0  0  0  0
   20.2480    0.0630  -21.9390 C   0  0  0  0  0
   19.5410    1.2770  -21.9070 C   0  0  0  0  0
   20.7380   -0.3890  -23.1870 C   0  0  0  0  0
   20.5130    0.3610  -24.3300 C   0  0  0  0  0
   19.7960    1.5540  -24.2980 C   0  0  0  0  0
   19.6620    2.2330  -25.5290 C   0  0  0  0  0
   19.6660    1.6470  -26.6000 O   0  0  0  0  0
   19.2950    2.0200  -23.0720 C   0  0  0  0  0
   18.5190    3.2100  -22.8190 C   0  0  0  0  0
   17.5940    3.6330  -24.0070 C   0  0  0  0  0
   18.4690    4.2770  -24.8660 C   0  0  0  0  0
   18.3720    5.6750  -24.9250 C   0  0  0  0  0
   19.2540    6.3790  -25.7260 C   0  0  0  0  0
   19.4630    3.6080  -25.5610 C   0  0  0  0  0
   20.3640    4.3120  -26.3280 C   0  0  0  0  0
   20.2520    5.6950  -26.4250 C   0  0  0  0  0
   21.1710    6.3880  -27.2030 C   0  0  0  0  0
   21.6210    5.9270  -28.2460 O   0  0  0  0  0
   21.6450    7.5280  -26.6720 N   0  0  0  0  0
   22.6770    8.2810  -27.3690 C   0  0  0  0  0
   22.4830    9.7550  -27.0740 C   0  0  0  0  0
   21.3790   10.2090  -27.8780 O   0  0  0  0  0
   20.2238   -6.0422  -16.2165 H   0  0  0  0  0
   19.0976   -8.0962  -15.2320 H   0  0  0  0  0
   17.2335   -9.0444  -16.7438 H   0  0  0  0  0
   21.3056   -5.4263  -18.0778 H   0  0  0  0  0
   19.4848   -2.4921  -19.3317 H   0  0  0  0  0
   24.0646   -3.2455  -21.0473 H   0  0  0  0  0
   19.9581   -0.1219  -19.9364 H   0  0  0  0  0
   19.1737    1.6517  -20.9516 H   0  0  0  0  0
   21.2917   -1.3259  -23.2491 H   0  0  0  0  0
   20.9088    0.0068  -25.2818 H   0  0  0  0  0
   19.2232    4.0251  -22.6523 H   0  0  0  0  0
   17.8733    2.9990  -21.9666 H   0  0  0  0  0
   16.7652    4.2675  -23.6930 H   0  0  0  0  0
   17.0895    2.7865  -24.4729 H   0  0  0  0  0
   17.6115    6.2003  -24.3472 H   0  0  0  0  0
   19.1705    7.4625  -25.8113 H   0  0  0  0  0
   21.1607    3.7884  -26.8563 H   0  0  0  0  0
   21.2815    7.8654  -25.7807 H   0  0  0  0  0
   22.6041    8.1047  -28.4422 H   0  0  0  0  0
   23.6624    7.9613  -27.0300 H   0  0  0  0  0
   23.3868   10.3159  -27.3117 H   0  0  0  0  0
   22.2758    9.9102  -26.0152 H   0  0  0  0  0
   21.2285   11.1430  -27.7147 H   0  0  0  0  0
  1  2  4  0  0  0
  1  5  4  0  0  0
  2  3  4  0  0  0
  3  4  4  0  0  0
  4  5  4  0  0  0
  5  6  1  0  0  0
  6  7  2  0  0  0
  6  8  1  0  0  0
  8  9  1  0  0  0
  9 10  4  0  0  0
  9 11  4  0  0  0
 10 16  4  0  0  0
 11 12  1  0  0  0
 11 13  4  0  0  0
 13 14  4  0  0  0
 14 15  1  0  0  0
 14 16  4  0  0  0
 16 17  1  0  0  0
 17 18  1  0  0  0
 18 19  4  0  0  0
 18 20  4  0  0  0
 19 25  4  0  0  0
 20 21  4  0  0  0
 21 22  4  0  0  0
 22 23  1  0  0  0
 22 25  4  0  0  0
 23 24  2  0  0  0
 23 31  1  0  0  0
 25 26  1  0  0  0
 26 27  1  0  0  0
 27 28  1  0  0  0
 28 29  4  0  0  0
 28 31  4  0  0  0
 29 30  4  0  0  0
 30 33  4  0  0  0
 31 32  4  0  0  0
 32 33  4  0  0  0
 33 34  1  0  0  0
 34 35  2  0  0  0
 34 36  1  0  0  0
 36 37  1  0  0  0
 37 38  1  0  0  0
 38 39  1  0  0  0
  1 40  1  0  0  0
  2 41  1  0  0  0
  3 42  1  0  0  0
  8 43  1  0  0  0
 10 44  1  0  0  0
 13 45  1  0  0  0
 17 46  1  0  0  0
 19 47  1  0  0  0
 20 48  1  0  0  0
 21 49  1  0  0  0
 26 50  1  0  0  0
 26 51  1  0  0  0
 27 52  1  0  0  0
 27 53  1  0  0  0
 29 54  1  0  0  0
 30 55  1  0  0  0
 32 56  1  0  0  0
 36 57  1  0  0  0
 37 58  1  0  0  0
 37 59  1  0  0  0
 38 60  1  0  0  0
 38 61  1  0  0  0
 39 62  1  0  0  0
M  END
$$$$
