### 
### Created by X-TOOL on Tue Oct 16 15:17:22 2018
### 

@<TRIPOS>MOLECULE
1osv_ligand
  207   207     1     0     0
SMALL
GAST_HUCK


@<TRIPOS>ATOM
      1 N          11.4920   13.0720   14.2140 N.4       1 GLU         0.2380
      2 CA         12.5590   12.6950   13.2900 C.3       1 GLU         0.0665
      3 C          13.6290   13.7780   13.1720 C.2       1 GLU         0.2269
      4 O          14.8130   13.4630   13.1090 O.2       1 GLU        -0.3907
      5 CB         11.9880   12.4010   11.8980 C.3       1 GLU         0.0194
      6 CG         12.9980   11.8130   10.9260 C.3       1 GLU         0.0075
      7 CD         13.5110   10.4560   11.3720 C.2       1 GLU         0.0351
      8 OE1        14.0360   10.3550   12.5030 O.co2     1 GLU        -0.5690
      9 OE2        13.3890    9.4900   10.5890 O.co2     1 GLU        -0.5690
     10 N          13.2220   15.0470   13.1440 N.am      1 GLU        -0.2589
     11 CA         14.1750   16.1590   13.0320 C.3       1 GLU         0.1477
     12 C          15.2760   15.9330   11.9740 C.2       1 GLU         0.2062
     13 O          16.4640   16.1390   12.2590 O.2       1 GLU        -0.3942
     14 CB         14.8540   16.4070   14.3820 C.3       1 GLU         0.0773
     15 CG         13.9710   17.1390   15.3610 C.2       1 GLU         0.1780
     16 OD1        13.4140   16.5400   16.2810 O.2       1 GLU        -0.3970
     17 ND2        13.8390   18.4500   15.1700 N.am      1 GLU        -0.3007
     18 N          14.8940   15.5310   10.7620 N.am      1 GLU        -0.2639
     19 CA         15.8790   15.2560    9.7200 C.3       1 GLU         0.1282
     20 C          16.7050   16.4650    9.3240 C.2       1 GLU         0.2036
     21 O          17.8970   16.3400    9.0540 O.2       1 GLU        -0.3944
     22 CB         15.2060   14.6670    8.4970 C.3       1 GLU        -0.0244
     23 N          16.0870   17.6350    9.2930 N.am      1 GLU        -0.2637
     24 CA         16.8110   18.8450    8.9260 C.3       1 GLU         0.1312
     25 C          17.8190   19.2570   10.0010 C.2       1 GLU         0.2039
     26 O          18.9780   19.5720    9.6990 O.2       1 GLU        -0.3944
     27 CB         15.8300   19.9950    8.6630 C.3       1 GLU        -0.0101
     28 CG         14.8140   19.7350    7.5410 C.3       1 GLU        -0.0425
     29 CD1        14.0340   21.0120    7.2400 C.3       1 GLU        -0.0625
     30 CD2        15.5370   19.2540    6.2800 C.3       1 GLU        -0.0625
     31 N          17.3670   19.2570   11.2540 N.am      1 GLU        -0.2637
     32 CA         18.2060   19.6280   12.3850 C.3       1 GLU         0.1312
     33 C          19.4360   18.7260   12.4270 C.2       1 GLU         0.2039
     34 O          20.5740   19.1980   12.5430 O.2       1 GLU        -0.3944
     35 CB         17.4090   19.4910   13.6810 C.3       1 GLU        -0.0101
     36 CG         18.0920   19.8700   14.9980 C.3       1 GLU        -0.0425
     37 CD1        18.6220   21.2970   14.9420 C.3       1 GLU        -0.0625
     38 CD2        17.0870   19.7170   16.1260 C.3       1 GLU        -0.0625
     39 N          19.1970   17.4230   12.3360 N.am      1 GLU        -0.2637
     40 CA         20.2770   16.4570   12.3430 C.3       1 GLU         0.1311
     41 C          21.3220   16.8590   11.3070 C.2       1 GLU         0.2040
     42 O          22.5020   17.0130   11.6190 O.2       1 GLU        -0.3944
     43 CB         19.7250   15.0800   12.0100 C.3       1 GLU        -0.0092
     44 CG         20.7710   14.0000   11.9020 C.3       1 GLU        -0.0156
     45 CD         20.0990   12.6580   12.0210 C.3       1 GLU         0.0627
     46 NE         19.0560   12.7280   13.0390 N.pl3     1 GLU        -0.2723
     47 CZ         18.3790   11.6810   13.4900 C.cat     1 GLU         0.2882
     48 NH1        18.6310   10.4700   13.0080 N.pl3     1 GLU        -0.2849
     49 NH2        17.4700   11.8430   14.4430 N.pl3     1 GLU        -0.2849
     50 N          20.8680   17.0420   10.0750 N.am      1 GLU        -0.2621
     51 CA         21.7400   17.4150    8.9800 C.3       1 GLU         0.1390
     52 C          22.5710   18.6640    9.2620 C.2       1 GLU         0.2057
     53 O          23.7040   18.7660    8.8000 O.2       1 GLU        -0.3942
     54 CB         20.9030   17.6030    7.7130 C.3       1 GLU         0.0163
     55 CG         21.6190   18.2920    6.5790 C.ar      1 GLU        -0.0493
     56 CD1        22.6080   17.6350    5.8350 C.ar      1 GLU        -0.0685
     57 CD2        21.3090   19.6130    6.2460 C.ar      1 GLU        -0.0685
     58 CE1        23.2670   18.2870    4.7840 C.ar      1 GLU        -0.0398
     59 CE2        21.9580   20.2640    5.2050 C.ar      1 GLU        -0.0398
     60 CZ         22.9330   19.6000    4.4770 C.ar      1 GLU         0.0805
     61 OH         23.5620   20.2630    3.4410 O.3       1 GLU        -0.3376
     62 N          22.0170   19.6080   10.0130 N.am      1 GLU        -0.2636
     63 CA         22.7420   20.8430   10.3270 C.3       1 GLU         0.1312
     64 C          23.7760   20.6510   11.4400 C.2       1 GLU         0.2039
     65 O          24.6840   21.4730   11.6000 O.2       1 GLU        -0.3944
     66 CB         21.7740   21.9580   10.7530 C.3       1 GLU        -0.0101
     67 CG         20.9410   22.7230    9.7160 C.3       1 GLU        -0.0425
     68 CD1        20.0330   23.7080   10.4390 C.3       1 GLU        -0.0625
     69 CD2        21.8410   23.4740    8.7450 C.3       1 GLU        -0.0625
     70 N          23.6260   19.5680   12.2000 N.am      1 GLU        -0.2637
     71 CA         24.5040   19.2610   13.3150 C.3       1 GLU         0.1312
     72 C          25.7170   18.4960   12.8140 C.2       1 GLU         0.2040
     73 O          26.8440   18.7370   13.2630 O.2       1 GLU        -0.3944
     74 CB         23.7490   18.4230   14.3340 C.3       1 GLU        -0.0101
     75 CG         24.5410   17.9730   15.5510 C.3       1 GLU        -0.0425
     76 CD1        24.9570   19.1950   16.3670 C.3       1 GLU        -0.0625
     77 CD2        23.6790   17.0210   16.3740 C.3       1 GLU        -0.0625
     78 N          25.4760   17.5470   11.9110 N.am      1 GLU        -0.2622
     79 CA         26.5600   16.7880   11.3090 C.3       1 GLU         0.1423
     80 C          27.0050   17.8100   10.2680 C.2       1 GLU         0.2056
     81 O          26.3820   18.8670   10.1930 O.2       1 GLU        -0.3943
     82 CB         26.0130   15.5010   10.6980 C.3       1 GLU         0.0406
     83 CG         25.3070   14.6280   11.7370 C.2       1 GLU         0.0393
     84 OD1        25.6900   14.6970   12.9250 O.co2     1 GLU        -0.5688
     85 OD2        24.3840   13.8680   11.3770 O.co2     1 GLU        -0.5688
     86 N          28.0490   17.5550    9.4870 N.am      1 GLU        -0.2636
     87 CA         28.4980   18.5730    8.5250 C.3       1 GLU         0.1309
     88 C          27.4050   19.5830    8.1770 C.2       1 GLU         0.2033
     89 O          26.3690   19.2280    7.6120 O.2       1 GLU        -0.3944
     90 CB         29.0450   17.9260    7.2480 C.3       1 GLU        -0.0122
     91 CG         30.5530   17.6900    7.2830 C.3       1 GLU        -0.0440
     92 CD         31.3080   18.9980    7.5250 C.3       1 GLU        -0.0124
     93 CE         32.8150   18.8090    7.4050 C.3       1 GLU        -0.0354
     94 NZ         33.5560   20.1000    7.5070 N.4       1 GLU         0.2185
     95 N          27.6480   20.8410    8.5420 N.am      1 GLU        -0.2698
     96 CA         26.7070   21.9420    8.3200 C.3       1 GLU         0.0916
     97 C          26.3870   22.2490    6.8530 C.2       1 GLU         0.0598
     98 O          25.2830   22.7790    6.5940 O.co2     1 GLU        -0.5666
     99 CB         27.2210   23.2040    9.0170 C.3       1 GLU        -0.0300
    100 OXT        27.2450   21.9840    5.9820 O.co2     1 GLU        -0.5666
    101 H1         10.8105   12.3308   14.2607 H         1 GLU         0.2015
    102 H2         11.0482   13.9164   13.8883 H         1 GLU         0.2015
    103 H3         11.8811   13.2289   15.1306 H         1 GLU         0.2015
    104 H4         13.0343   11.7806   13.6747 H         1 GLU         0.1099
    105 H5         11.6080   13.3423   11.4743 H         1 GLU         0.0363
    106 H6         11.1584   11.6872   12.0083 H         1 GLU         0.0363
    107 H7         13.8508   12.5028   10.8430 H         1 GLU         0.0434
    108 H8         12.5183   11.7030    9.9422 H         1 GLU         0.0434
    109 H9         12.2438   15.2468   13.2006 H         1 GLU         0.1886
    110 H10        13.6084   17.0583   12.7486 H         1 GLU         0.0826
    111 H11        15.7613   17.0056   14.2132 H         1 GLU         0.0551
    112 H12        15.1312   15.4361   14.8184 H         1 GLU         0.0551
    113 H13        13.2662   18.9900   15.7867 H         1 GLU         0.1814
    114 H14        14.3126   18.8947   14.4098 H         1 GLU         0.1814
    115 H15        13.9206   15.4163   10.5639 H         1 GLU         0.1883
    116 H16        16.5735   14.5027   10.1202 H         1 GLU         0.0797
    117 H17        15.9619   14.4664    7.7234 H         1 GLU         0.0277
    118 H18        14.4636   15.3794    8.1082 H         1 GLU         0.0277
    119 H19        14.7040   13.7275    8.7714 H         1 GLU         0.0277
    120 H20        15.1154   17.6890    9.5233 H         1 GLU         0.1883
    121 H21        17.3651   18.6415    7.9978 H         1 GLU         0.0800
    122 H22        16.4141   20.8877    8.3948 H         1 GLU         0.0315
    123 H23        15.2720   20.1871    9.5913 H         1 GLU         0.0315
    124 H24        14.1108   18.9553    7.8690 H         1 GLU         0.0298
    125 H25        13.3089   20.8178    6.4360 H         1 GLU         0.0232
    126 H26        14.7312   21.8012    6.9222 H         1 GLU         0.0232
    127 H27        13.4997   21.3372    8.1448 H         1 GLU         0.0232
    128 H28        16.0960   18.3340    6.5063 H         1 GLU         0.0232
    129 H29        16.2350   20.0324    5.9380 H         1 GLU         0.0232
    130 H30        14.7995   19.0499    5.4898 H         1 GLU         0.0232
    131 H31        16.4176   18.9928   11.4241 H         1 GLU         0.1883
    132 H32        18.5291   20.6731   12.2693 H         1 GLU         0.0800
    133 H33        17.1023   18.4379   13.7647 H         1 GLU         0.0315
    134 H34        16.5163   20.1262   13.5828 H         1 GLU         0.0315
    135 H35        18.9367   19.1877   15.1738 H         1 GLU         0.0298
    136 H36        19.1073   21.5456   15.8974 H         1 GLU         0.0232
    137 H37        17.7878   21.9912   14.7629 H         1 GLU         0.0232
    138 H38        19.3537   21.3846   14.1254 H         1 GLU         0.0232
    139 H39        16.7169   18.6814   16.1494 H         1 GLU         0.0232
    140 H40        16.2438   20.4040   15.9616 H         1 GLU         0.0232
    141 H41        17.5722   19.9547   17.0842 H         1 GLU         0.0232
    142 H42        18.2529   17.1020   12.2611 H         1 GLU         0.1883
    143 H43        20.7412   16.4330   13.3399 H         1 GLU         0.0800
    144 H44        19.1964   15.1446   11.0475 H         1 GLU         0.0313
    145 H45        19.0149   14.7936   12.7998 H         1 GLU         0.0313
    146 H46        21.5078   14.1171   12.7103 H         1 GLU         0.0301
    147 H47        21.2791   14.0737   10.9292 H         1 GLU         0.0301
    148 H48        20.8420   11.8994   12.3082 H         1 GLU         0.0689
    149 H49        19.6508   12.3848   11.0543 H         1 GLU         0.0689
    150 H50        18.8307   13.6524   13.4335 H         1 GLU         0.2642
    151 H51        18.1051    9.6566   13.3583 H         1 GLU         0.2615
    152 H52        19.3524   10.3438   12.2837 H         1 GLU         0.2615
    153 H53        17.2762   12.7836   14.8154 H         1 GLU         0.2615
    154 H54        16.9582   11.0282   14.8104 H         1 GLU         0.2615
    155 H55        19.8920   16.9186    9.8957 H         1 GLU         0.1885
    156 H56        22.4403   16.5837    8.8115 H         1 GLU         0.0821
    157 H57        20.0180   18.2022    7.9732 H         1 GLU         0.0453
    158 H58        20.5838   16.6102    7.3632 H         1 GLU         0.0453
    159 H59        22.8665   16.6101    6.0753 H         1 GLU         0.0530
    160 H60        20.5479   20.1394    6.8105 H         1 GLU         0.0530
    161 H61        24.0316   17.7707    4.2149 H         1 GLU         0.0525
    162 H62        21.7027   21.2892    4.9623 H         1 GLU         0.0525
    163 H63        24.2002   19.6859    3.0384 H         1 GLU         0.2458
    164 H64        21.0922   19.4749   10.3696 H         1 GLU         0.1883
    165 H65        23.2693   21.1642    9.4166 H         1 GLU         0.0800
    166 H66        22.3770   22.7089   11.2846 H         1 GLU         0.0315
    167 H67        21.0586   21.5003   11.4521 H         1 GLU         0.0315
    168 H68        20.3251   22.0077    9.1513 H         1 GLU         0.0298
    169 H69        19.4318   24.2611    9.7024 H         1 GLU         0.0232
    170 H70        20.6458   24.4151   11.0173 H         1 GLU         0.0232
    171 H71        19.3653   23.1596   11.1197 H         1 GLU         0.0232
    172 H72        22.4956   22.7595    8.2244 H         1 GLU         0.0232
    173 H73        22.4561   24.1976    9.3000 H         1 GLU         0.0232
    174 H74        21.2218   24.0075    8.0088 H         1 GLU         0.0232
    175 H75        22.8764   18.9390   11.9940 H         1 GLU         0.1883
    176 H76        24.8352   20.1975   13.7875 H         1 GLU         0.0800
    177 H77        23.3808   17.5222   13.8212 H         1 GLU         0.0315
    178 H78        22.8946   19.0171   14.6904 H         1 GLU         0.0315
    179 H79        25.4457   17.4413   15.2212 H         1 GLU         0.0298
    180 H80        25.5302   18.8699   17.2478 H         1 GLU         0.0232
    181 H81        24.0595   19.7402   16.6944 H         1 GLU         0.0232
    182 H82        25.5811   19.8551   15.7467 H         1 GLU         0.0232
    183 H83        23.3982   16.1546   15.7572 H         1 GLU         0.0232
    184 H84        22.7704   17.5440   16.7069 H         1 GLU         0.0232
    185 H85        24.2468   16.6778   17.2514 H         1 GLU         0.0232
    186 H86        24.5325   17.3531   11.6423 H         1 GLU         0.1884
    187 H87        27.3622   16.5509   12.0233 H         1 GLU         0.0819
    188 H88        26.8478   14.9313   10.2638 H         1 GLU         0.0478
    189 H89        25.2953   15.7610    9.9060 H         1 GLU         0.0478
    190 H90        28.5256   16.6783    9.5526 H         1 GLU         0.1883
    191 H91        29.3210   19.1282    8.9986 H         1 GLU         0.0800
    192 H92        28.8154   18.5851    6.3978 H         1 GLU         0.0312
    193 H93        28.5441   16.9569    7.1065 H         1 GLU         0.0312
    194 H94        30.8726   17.2632    6.3209 H         1 GLU         0.0269
    195 H95        30.7878   16.9842    8.0934 H         1 GLU         0.0269
    196 H96        31.0739   19.3630    8.5359 H         1 GLU         0.0317
    197 H97        30.9816   19.7408    6.7822 H         1 GLU         0.0317
    198 H98        33.0377   18.3491    6.4309 H         1 GLU         0.0813
    199 H99        33.1535   18.1419    8.2115 H         1 GLU         0.0813
    200 H100       34.5455   19.9270    7.4225 H         1 GLU         0.1994
    201 H101       33.3647   20.5276    8.3995 H         1 GLU         0.1994
    202 H102       33.2586   20.7175    6.7679 H         1 GLU         0.1994
    203 H103       28.5181   21.0445    8.9909 H         1 GLU         0.1875
    204 H104       25.7594   21.6529    8.7980 H         1 GLU         0.0723
    205 H105       26.5135   24.0294    8.8493 H         1 GLU         0.0270
    206 H106       28.2047   23.4751    8.6060 H         1 GLU         0.0270
    207 H107       27.3142   23.0146   10.0965 H         1 GLU         0.0270
@<TRIPOS>BOND
     1    1    2 1  
     2    2    3 1  
     3    2    5 1  
     4    3    4 2  
     5    3   10 am 
     6    5    6 1  
     7    6    7 1  
     8    7    8 ar 
     9    7    9 ar 
    10   10   11 1  
    11   11   12 1  
    12   11   14 1  
    13   12   13 2  
    14   12   18 am 
    15   14   15 1  
    16   15   16 2  
    17   15   17 am 
    18   18   19 1  
    19   19   20 1  
    20   19   22 1  
    21   20   21 2  
    22   20   23 am 
    23   23   24 1  
    24   24   25 1  
    25   24   27 1  
    26   25   26 2  
    27   25   31 am 
    28   27   28 1  
    29   28   29 1  
    30   28   30 1  
    31   31   32 1  
    32   32   33 1  
    33   32   35 1  
    34   33   34 2  
    35   33   39 am 
    36   35   36 1  
    37   36   37 1  
    38   36   38 1  
    39   39   40 1  
    40   40   41 1  
    41   40   43 1  
    42   41   42 2  
    43   41   50 am 
    44   43   44 1  
    45   44   45 1  
    46   45   46 1  
    47   46   47 ar 
    48   47   48 ar 
    49   47   49 ar 
    50   50   51 1  
    51   51   52 1  
    52   51   54 1  
    53   52   53 2  
    54   52   62 am 
    55   54   55 1  
    56   55   56 ar 
    57   55   57 ar 
    58   56   58 ar 
    59   57   59 ar 
    60   58   60 ar 
    61   59   60 ar 
    62   60   61 1  
    63   62   63 1  
    64   63   64 1  
    65   63   66 1  
    66   64   65 2  
    67   64   70 am 
    68   66   67 1  
    69   67   68 1  
    70   67   69 1  
    71   70   71 1  
    72   71   72 1  
    73   71   74 1  
    74   72   73 2  
    75   72   78 am 
    76   74   75 1  
    77   75   76 1  
    78   75   77 1  
    79   78   79 1  
    80   79   80 1  
    81   79   82 1  
    82   80   81 2  
    83   80   86 am 
    84   82   83 1  
    85   83   84 ar 
    86   83   85 ar 
    87   86   87 1  
    88   87   88 1  
    89   87   90 1  
    90   88   89 2  
    91   88   95 am 
    92   90   91 1  
    93   91   92 1  
    94   92   93 1  
    95   93   94 1  
    96   95   96 1  
    97   96   97 1  
    98   96   99 1  
    99   97   98 ar 
   100   97  100 ar 
   101    1  101 1  
   102    1  102 1  
   103    1  103 1  
   104    2  104 1  
   105    5  105 1  
   106    5  106 1  
   107    6  107 1  
   108    6  108 1  
   109   10  109 1  
   110   11  110 1  
   111   14  111 1  
   112   14  112 1  
   113   17  113 1  
   114   17  114 1  
   115   18  115 1  
   116   19  116 1  
   117   22  117 1  
   118   22  118 1  
   119   22  119 1  
   120   23  120 1  
   121   24  121 1  
   122   27  122 1  
   123   27  123 1  
   124   28  124 1  
   125   29  125 1  
   126   29  126 1  
   127   29  127 1  
   128   30  128 1  
   129   30  129 1  
   130   30  130 1  
   131   31  131 1  
   132   32  132 1  
   133   35  133 1  
   134   35  134 1  
   135   36  135 1  
   136   37  136 1  
   137   37  137 1  
   138   37  138 1  
   139   38  139 1  
   140   38  140 1  
   141   38  141 1  
   142   39  142 1  
   143   40  143 1  
   144   43  144 1  
   145   43  145 1  
   146   44  146 1  
   147   44  147 1  
   148   45  148 1  
   149   45  149 1  
   150   46  150 1  
   151   48  151 1  
   152   48  152 1  
   153   49  153 1  
   154   49  154 1  
   155   50  155 1  
   156   51  156 1  
   157   54  157 1  
   158   54  158 1  
   159   56  159 1  
   160   57  160 1  
   161   58  161 1  
   162   59  162 1  
   163   61  163 1  
   164   62  164 1  
   165   63  165 1  
   166   66  166 1  
   167   66  167 1  
   168   67  168 1  
   169   68  169 1  
   170   68  170 1  
   171   68  171 1  
   172   69  172 1  
   173   69  173 1  
   174   69  174 1  
   175   70  175 1  
   176   71  176 1  
   177   74  177 1  
   178   74  178 1  
   179   75  179 1  
   180   76  180 1  
   181   76  181 1  
   182   76  182 1  
   183   77  183 1  
   184   77  184 1  
   185   77  185 1  
   186   78  186 1  
   187   79  187 1  
   188   82  188 1  
   189   82  189 1  
   190   86  190 1  
   191   87  191 1  
   192   90  192 1  
   193   90  193 1  
   194   91  194 1  
   195   91  195 1  
   196   92  196 1  
   197   92  197 1  
   198   93  198 1  
   199   93  199 1  
   200   94  200 1  
   201   94  201 1  
   202   94  202 1  
   203   95  203 1  
   204   96  204 1  
   205   99  205 1  
   206   99  206 1  
   207   99  207 1  
@<TRIPOS>SUBSTRUCTURE
     1 GLU         1

