1osv_ligand
  -I-interpret- 

209209  0  0  0  0  0  0  0  0999 V2000
   11.4920   13.0720   14.2140 N   0  3  0  0  0
   12.5590   12.6950   13.2900 C   0  0  0  0  0
   13.6290   13.7780   13.1720 C   0  0  0  0  0
   14.8130   13.4630   13.1090 O   0  0  0  0  0
   11.9880   12.4010   11.8980 C   0  0  0  0  0
   12.9980   11.8130   10.9260 C   0  0  0  0  0
   13.5110   10.4560   11.3720 C   0  0  0  0  0
   14.0360   10.3550   12.5030 O   0  0  0  0  0
   13.3890    9.4900   10.5890 O   0  0  0  0  0
   13.2220   15.0470   13.1440 N   0  0  0  0  0
   14.1750   16.1590   13.0320 C   0  0  0  0  0
   15.2760   15.9330   11.9740 C   0  0  0  0  0
   16.4640   16.1390   12.2590 O   0  0  0  0  0
   14.8540   16.4070   14.3820 C   0  0  0  0  0
   13.9710   17.1390   15.3610 C   0  0  0  0  0
   13.4140   16.5400   16.2810 O   0  0  0  0  0
   13.8390   18.4500   15.1700 N   0  0  0  0  0
   14.8940   15.5310   10.7620 N   0  0  0  0  0
   15.8790   15.2560    9.7200 C   0  0  0  0  0
   16.7050   16.4650    9.3240 C   0  0  0  0  0
   17.8970   16.3400    9.0540 O   0  0  0  0  0
   15.2060   14.6670    8.4970 C   0  0  0  0  0
   16.0870   17.6350    9.2930 N   0  0  0  0  0
   16.8110   18.8450    8.9260 C   0  0  0  0  0
   17.8190   19.2570   10.0010 C   0  0  0  0  0
   18.9780   19.5720    9.6990 O   0  0  0  0  0
   15.8300   19.9950    8.6630 C   0  0  0  0  0
   14.8140   19.7350    7.5410 C   0  0  0  0  0
   14.0340   21.0120    7.2400 C   0  0  0  0  0
   15.5370   19.2540    6.2800 C   0  0  0  0  0
   17.3670   19.2570   11.2540 N   0  0  0  0  0
   18.2060   19.6280   12.3850 C   0  0  0  0  0
   19.4360   18.7260   12.4270 C   0  0  0  0  0
   20.5740   19.1980   12.5430 O   0  0  0  0  0
   17.4090   19.4910   13.6810 C   0  0  0  0  0
   18.0920   19.8700   14.9980 C   0  0  0  0  0
   18.6220   21.2970   14.9420 C   0  0  0  0  0
   17.0870   19.7170   16.1260 C   0  0  0  0  0
   19.1970   17.4230   12.3360 N   0  0  0  0  0
   20.2770   16.4570   12.3430 C   0  0  0  0  0
   21.3220   16.8590   11.3070 C   0  0  0  0  0
   22.5020   17.0130   11.6190 O   0  0  0  0  0
   19.7250   15.0800   12.0100 C   0  0  0  0  0
   20.7710   14.0000   11.9020 C   0  0  0  0  0
   20.0990   12.6580   12.0210 C   0  0  0  0  0
   19.0560   12.7280   13.0390 N   0  0  0  0  0
   18.3790   11.6810   13.4900 C   0  0  0  0  0
   18.6310   10.4700   13.0080 N   0  0  0  0  0
   17.4700   11.8430   14.4430 N   0  0  0  0  0
   20.8680   17.0420   10.0750 N   0  0  0  0  0
   21.7400   17.4150    8.9800 C   0  0  0  0  0
   22.5710   18.6640    9.2620 C   0  0  0  0  0
   23.7040   18.7660    8.8000 O   0  0  0  0  0
   20.9030   17.6030    7.7130 C   0  0  0  0  0
   21.6190   18.2920    6.5790 C   0  0  0  0  0
   22.6080   17.6350    5.8350 C   0  0  0  0  0
   21.3090   19.6130    6.2460 C   0  0  0  0  0
   23.2670   18.2870    4.7840 C   0  0  0  0  0
   21.9580   20.2640    5.2050 C   0  0  0  0  0
   22.9330   19.6000    4.4770 C   0  0  0  0  0
   23.5620   20.2630    3.4410 O   0  0  0  0  0
   22.0170   19.6080   10.0130 N   0  0  0  0  0
   22.7420   20.8430   10.3270 C   0  0  0  0  0
   23.7760   20.6510   11.4400 C   0  0  0  0  0
   24.6840   21.4730   11.6000 O   0  0  0  0  0
   21.7740   21.9580   10.7530 C   0  0  0  0  0
   20.9410   22.7230    9.7160 C   0  0  0  0  0
   20.0330   23.7080   10.4390 C   0  0  0  0  0
   21.8410   23.4740    8.7450 C   0  0  0  0  0
   23.6260   19.5680   12.2000 N   0  0  0  0  0
   24.5040   19.2610   13.3150 C   0  0  0  0  0
   25.7170   18.4960   12.8140 C   0  0  0  0  0
   26.8440   18.7370   13.2630 O   0  0  0  0  0
   23.7490   18.4230   14.3340 C   0  0  0  0  0
   24.5410   17.9730   15.5510 C   0  0  0  0  0
   24.9570   19.1950   16.3670 C   0  0  0  0  0
   23.6790   17.0210   16.3740 C   0  0  0  0  0
   25.4760   17.5470   11.9110 N   0  0  0  0  0
   26.5600   16.7880   11.3090 C   0  0  0  0  0
   27.0050   17.8100   10.2680 C   0  0  0  0  0
   26.3820   18.8670   10.1930 O   0  0  0  0  0
   26.0130   15.5010   10.6980 C   0  0  0  0  0
   25.3070   14.6280   11.7370 C   0  0  0  0  0
   25.6900   14.6970   12.9250 O   0  0  0  0  0
   24.3840   13.8680   11.3770 O   0  0  0  0  0
   28.0490   17.5550    9.4870 N   0  0  0  0  0
   28.4980   18.5730    8.5250 C   0  0  0  0  0
   27.4050   19.5830    8.1770 C   0  0  0  0  0
   26.3690   19.2280    7.6120 O   0  0  0  0  0
   29.0450   17.9260    7.2480 C   0  0  0  0  0
   30.5530   17.6900    7.2830 C   0  0  0  0  0
   31.3080   18.9980    7.5250 C   0  0  0  0  0
   32.8150   18.8090    7.4050 C   0  0  0  0  0
   33.5560   20.1000    7.5070 N   0  3  0  0  0
   27.6480   20.8410    8.5420 N   0  0  0  0  0
   26.7070   21.9420    8.3200 C   0  0  0  0  0
   26.3870   22.2490    6.8530 C   0  0  0  0  0
   25.2830   22.7790    6.5940 O   0  0  0  0  0
   27.2210   23.2040    9.0170 C   0  0  0  0  0
   27.2450   21.9840    5.9820 O   0  0  0  0  0
   11.8914   13.2632   15.1329 H   0  0  0  0  0
   11.0217   13.9075   13.8658 H   0  0  0  0  0
   10.8205   12.3076   14.2862 H   0  0  0  0  0
   13.0242   11.7978   13.6982 H   0  0  0  0  0
   11.6518   13.3498   11.4798 H   0  0  0  0  0
   11.1940   11.6648   12.0234 H   0  0  0  0  0
   13.8482   12.4930   10.8718 H   0  0  0  0  0
   12.5036   11.6860    9.9629 H   0  0  0  0  0
   14.0282   11.2118   12.9358 H   0  0  0  0  0
   12.2242   15.2508   13.2018 H   0  0  0  0  0
   13.5856   17.0197   12.7158 H   0  0  0  0  0
   15.7337   17.0251   14.2023 H   0  0  0  0  0
   15.0959   15.4364   14.8149 H   0  0  0  0  0
   13.2566   19.0011   15.8005 H   0  0  0  0  0
   14.3203   18.9032   14.3932 H   0  0  0  0  0
   13.9011   15.4140   10.5599 H   0  0  0  0  0
   16.5739   14.5341   10.1490 H   0  0  0  0  0
   14.7090   13.7362    8.7703 H   0  0  0  0  0
   14.4706   15.3738    8.1127 H   0  0  0  0  0
   15.9560   14.4687    7.7313 H   0  0  0  0  0
   15.0959   17.6900    9.5279 H   0  0  0  0  0
   17.3669   18.6257    8.0144 H   0  0  0  0  0
   16.4263   20.8541    8.3557 H   0  0  0  0  0
   15.2579   20.1374    9.5798 H   0  0  0  0  0
   14.1178   18.9616    7.8655 H   0  0  0  0  0
   13.5051   21.3332    8.1373 H   0  0  0  0  0
   14.7259   21.7932    6.9253 H   0  0  0  0  0
   13.3159   20.8183    6.4432 H   0  0  0  0  0
   16.2438   20.0173    5.9545 H   0  0  0  0  0
   16.0730   18.3307    6.4999 H   0  0  0  0  0
   14.8071   19.0727    5.4910 H   0  0  0  0  0
   16.3987   18.9875   11.4275 H   0  0  0  0  0
   18.5288   20.6633   12.2752 H   0  0  0  0  0
   17.1869   18.4275   13.7694 H   0  0  0  0  0
   16.5762   20.1869   13.5798 H   0  0  0  0  0
   18.9429   19.2110   15.1705 H   0  0  0  0  0
   19.3469   21.3825   14.1325 H   0  0  0  0  0
   17.7945   21.9839   14.7645 H   0  0  0  0  0
   19.1026   21.5422   15.8891 H   0  0  0  0  0
   16.2369   20.3749   15.9452 H   0  0  0  0  0
   16.7452   18.6829   16.1686 H   0  0  0  0  0
   17.5600   19.9838   17.0711 H   0  0  0  0  0
   18.2340   17.0956   12.2597 H   0  0  0  0  0
   20.7395   16.4302   13.3296 H   0  0  0  0  0
   19.2415   15.1559   11.0361 H   0  0  0  0  0
   19.0564   14.7979   12.8233 H   0  0  0  0  0
   21.5053   14.1167   12.6990 H   0  0  0  0  0
   21.2796   14.0739   10.9407 H   0  0  0  0  0
   20.8351   11.9058   12.3046 H   0  0  0  0  0
   19.6555   12.3863   11.0631 H   0  0  0  0  0
   18.8328   13.6434   13.4297 H   0  0  0  0  0
   18.1254    9.6615   13.3702 H   0  0  0  0  0
   19.3302   10.3480   12.2754 H   0  0  0  0  0
   17.2934   12.7714   14.8269 H   0  0  0  0  0
   19.8725   16.9161    9.8922 H   0  0  0  0  0
   22.4567   16.6046    8.8466 H   0  0  0  0  0
   20.0568   18.2347    7.9834 H   0  0  0  0  0
   20.6353   16.6072    7.3598 H   0  0  0  0  0
   22.8679   16.6044    6.0766 H   0  0  0  0  0
   20.5437   20.1424    6.8137 H   0  0  0  0  0
   24.0358   17.7678    4.2118 H   0  0  0  0  0
   21.7013   21.2948    4.9609 H   0  0  0  0  0
   23.2098   21.1534    3.3717 H   0  0  0  0  0
   21.0738   19.4723   10.3767 H   0  0  0  0  0
   23.2626   21.1238    9.4114 H   0  0  0  0  0
   22.4231   22.7202   11.1839 H   0  0  0  0  0
   21.0300   21.4432   11.3609 H   0  0  0  0  0
   20.3441   22.0104    9.1467 H   0  0  0  0  0
   19.3719   23.1633   11.1131 H   0  0  0  0  0
   20.6414   24.4080   11.0116 H   0  0  0  0  0
   19.4378   24.2554    9.7081 H   0  0  0  0  0
   22.4549   24.1858    9.2969 H   0  0  0  0  0
   22.4842   22.7643    8.2247 H   0  0  0  0  0
   21.2261   24.0078    8.0204 H   0  0  0  0  0
   22.8614   18.9264   11.9899 H   0  0  0  0  0
   24.8365   20.1870   13.7842 H   0  0  0  0  0
   23.4448   17.5139   13.8153 H   0  0  0  0  0
   22.9439   19.0539   14.7107 H   0  0  0  0  0
   25.4464   17.4477   15.2469 H   0  0  0  0  0
   25.5752   19.8482   15.7512 H   0  0  0  0  0
   24.0668   19.7343   16.6907 H   0  0  0  0  0
   25.5248   18.8716   17.2394 H   0  0  0  0  0
   22.7728   17.5365   16.6922 H   0  0  0  0  0
   23.4123   16.1566   15.7659 H   0  0  0  0  0
   24.2380   16.6920   17.2500 H   0  0  0  0  0
   24.5136   17.3492   11.6369 H   0  0  0  0  0
   27.3587   16.4450   11.9666 H   0  0  0  0  0
   26.8502   14.9350   10.2896 H   0  0  0  0  0
   25.2881   15.7698    9.9296 H   0  0  0  0  0
   26.4041   15.3349   12.9933 H   0  0  0  0  0
   28.5351   16.6608    9.5539 H   0  0  0  0  0
   29.3008   19.1217    9.0174 H   0  0  0  0  0
   28.8389   18.6064    6.4217 H   0  0  0  0  0
   28.5636   16.9539    7.1410 H   0  0  0  0  0
   30.8647   17.2792    6.3227 H   0  0  0  0  0
   30.7799   17.0001    8.0959 H   0  0  0  0  0
   31.0843   19.3420    8.5348 H   0  0  0  0  0
   30.9916   19.7214    6.7735 H   0  0  0  0  0
   33.0251   18.3742    6.4278 H   0  0  0  0  0
   33.1418   18.1655    8.2218 H   0  0  0  0  0
   34.5570   19.9238    7.4214 H   0  0  0  0  0
   33.2542   20.7239    6.7587 H   0  0  0  0  0
   33.3616   20.5318    8.4104 H   0  0  0  0  0
   28.5355   21.0486    8.9999 H   0  0  0  0  0
   25.7632   21.6065    8.7498 H   0  0  0  0  0
   24.7845   22.8909    7.4068 H   0  0  0  0  0
   27.3129   23.0150   10.0865 H   0  0  0  0  0
   28.1957   23.4715    8.6089 H   0  0  0  0  0
   26.5191   24.0211    8.8502 H   0  0  0  0  0
  1  2  1  0  0  0
  2  3  1  0  0  0
  2  5  1  0  0  0
  3  4  2  0  0  0
  3 10  1  0  0  0
  5  6  1  0  0  0
  6  7  1  0  0  0
  7  8  1  0  0  0
  7  9  2  0  0  0
 10 11  1  0  0  0
 11 12  1  0  0  0
 11 14  1  0  0  0
 12 13  2  0  0  0
 12 18  1  0  0  0
 14 15  1  0  0  0
 15 16  2  0  0  0
 15 17  1  0  0  0
 18 19  1  0  0  0
 19 20  1  0  0  0
 19 22  1  0  0  0
 20 21  2  0  0  0
 20 23  1  0  0  0
 23 24  1  0  0  0
 24 25  1  0  0  0
 24 27  1  0  0  0
 25 26  2  0  0  0
 25 31  1  0  0  0
 27 28  1  0  0  0
 28 29  1  0  0  0
 28 30  1  0  0  0
 31 32  1  0  0  0
 32 33  1  0  0  0
 32 35  1  0  0  0
 33 34  2  0  0  0
 33 39  1  0  0  0
 35 36  1  0  0  0
 36 37  1  0  0  0
 36 38  1  0  0  0
 39 40  1  0  0  0
 40 41  1  0  0  0
 40 43  1  0  0  0
 41 42  2  0  0  0
 41 50  1  0  0  0
 43 44  1  0  0  0
 44 45  1  0  0  0
 45 46  1  0  0  0
 46 47  1  0  0  0
 47 48  1  0  0  0
 47 49  2  0  0  0
 50 51  1  0  0  0
 51 52  1  0  0  0
 51 54  1  0  0  0
 52 53  2  0  0  0
 52 62  1  0  0  0
 54 55  1  0  0  0
 55 56  4  0  0  0
 55 57  4  0  0  0
 56 58  4  0  0  0
 57 59  4  0  0  0
 58 60  4  0  0  0
 59 60  4  0  0  0
 60 61  1  0  0  0
 62 63  1  0  0  0
 63 64  1  0  0  0
 63 66  1  0  0  0
 64 65  2  0  0  0
 64 70  1  0  0  0
 66 67  1  0  0  0
 67 68  1  0  0  0
 67 69  1  0  0  0
 70 71  1  0  0  0
 71 72  1  0  0  0
 71 74  1  0  0  0
 72 73  2  0  0  0
 72 78  1  0  0  0
 74 75  1  0  0  0
 75 76  1  0  0  0
 75 77  1  0  0  0
 78 79  1  0  0  0
 79 80  1  0  0  0
 79 82  1  0  0  0
 80 81  2  0  0  0
 80 86  1  0  0  0
 82 83  1  0  0  0
 83 84  1  0  0  0
 83 85  2  0  0  0
 86 87  1  0  0  0
 87 88  1  0  0  0
 87 90  1  0  0  0
 88 89  2  0  0  0
 88 95  1  0  0  0
 90 91  1  0  0  0
 91 92  1  0  0  0
 92 93  1  0  0  0
 93 94  1  0  0  0
 95 96  1  0  0  0
 96 97  1  0  0  0
 96 99  1  0  0  0
 97 98  1  0  0  0
 97100  2  0  0  0
  1101  1  0  0  0
  1102  1  0  0  0
  1103  1  0  0  0
  2104  1  0  0  0
  5105  1  0  0  0
  5106  1  0  0  0
  6107  1  0  0  0
  6108  1  0  0  0
  8109  1  0  0  0
 10110  1  0  0  0
 11111  1  0  0  0
 14112  1  0  0  0
 14113  1  0  0  0
 17114  1  0  0  0
 17115  1  0  0  0
 18116  1  0  0  0
 19117  1  0  0  0
 22118  1  0  0  0
 22119  1  0  0  0
 22120  1  0  0  0
 23121  1  0  0  0
 24122  1  0  0  0
 27123  1  0  0  0
 27124  1  0  0  0
 28125  1  0  0  0
 29126  1  0  0  0
 29127  1  0  0  0
 29128  1  0  0  0
 30129  1  0  0  0
 30130  1  0  0  0
 30131  1  0  0  0
 31132  1  0  0  0
 32133  1  0  0  0
 35134  1  0  0  0
 35135  1  0  0  0
 36136  1  0  0  0
 37137  1  0  0  0
 37138  1  0  0  0
 37139  1  0  0  0
 38140  1  0  0  0
 38141  1  0  0  0
 38142  1  0  0  0
 39143  1  0  0  0
 40144  1  0  0  0
 43145  1  0  0  0
 43146  1  0  0  0
 44147  1  0  0  0
 44148  1  0  0  0
 45149  1  0  0  0
 45150  1  0  0  0
 46151  1  0  0  0
 48152  1  0  0  0
 48153  1  0  0  0
 49154  1  0  0  0
 50155  1  0  0  0
 51156  1  0  0  0
 54157  1  0  0  0
 54158  1  0  0  0
 56159  1  0  0  0
 57160  1  0  0  0
 58161  1  0  0  0
 59162  1  0  0  0
 61163  1  0  0  0
 62164  1  0  0  0
 63165  1  0  0  0
 66166  1  0  0  0
 66167  1  0  0  0
 67168  1  0  0  0
 68169  1  0  0  0
 68170  1  0  0  0
 68171  1  0  0  0
 69172  1  0  0  0
 69173  1  0  0  0
 69174  1  0  0  0
 70175  1  0  0  0
 71176  1  0  0  0
 74177  1  0  0  0
 74178  1  0  0  0
 75179  1  0  0  0
 76180  1  0  0  0
 76181  1  0  0  0
 76182  1  0  0  0
 77183  1  0  0  0
 77184  1  0  0  0
 77185  1  0  0  0
 78186  1  0  0  0
 79187  1  0  0  0
 82188  1  0  0  0
 82189  1  0  0  0
 84190  1  0  0  0
 86191  1  0  0  0
 87192  1  0  0  0
 90193  1  0  0  0
 90194  1  0  0  0
 91195  1  0  0  0
 91196  1  0  0  0
 92197  1  0  0  0
 92198  1  0  0  0
 93199  1  0  0  0
 93200  1  0  0  0
 94201  1  0  0  0
 94202  1  0  0  0
 94203  1  0  0  0
 95204  1  0  0  0
 96205  1  0  0  0
 98206  1  0  0  0
 99207  1  0  0  0
 99208  1  0  0  0
 99209  1  0  0  0
M  END
$$$$
