1o2h_ligand
  -I-interpret- 

 45 48  0  0  0  0  0  0  0  0999 V2000
   44.1400   -3.1040   25.9440 C   0  0  0  0  0
   44.5190   -1.7550   25.9650 C   0  0  0  0  0
   44.4780   -1.0230   27.1310 C   0  0  0  0  0
   44.0620   -1.6440   28.2700 C   0  0  0  0  0
   43.6940   -2.9320   28.3020 C   0  0  0  0  0
   43.7190   -3.7100   27.1470 C   0  0  0  0  0
   44.1870   -3.7960   24.7220 C   0  0  0  0  0
   43.7630   -5.0340   24.6370 N   0  0  0  0  0
   44.6520   -3.1710   23.6660 N   0  0  0  0  0
   43.9310   -1.1950   29.4660 N   0  0  0  0  0
   43.3260   -3.2990   29.5100 C   0  0  0  0  0
   43.4970   -2.1720   30.2060 C   0  0  0  0  0
   43.2730   -2.0230   31.5870 C   0  0  0  0  0
   42.9380   -3.1330   32.3600 C   0  0  0  0  0
   42.7530   -3.0090   33.7340 C   0  0  0  0  0
   42.9010   -1.7850   34.3510 C   0  0  0  0  0
   43.2380   -0.6650   33.6030 C   0  0  0  0  0
   43.4200    0.5850   34.1790 O   0  0  0  0  0
   43.4190   -0.7770   32.2330 C   0  0  0  0  0
   43.7230    0.3890   31.5520 O   0  0  0  0  0
   43.2820    2.3340   35.7960 C   0  0  0  0  0
   43.6090    0.8510   35.5750 C   0  0  0  0  0
   45.1250    0.7100   35.8680 C   0  0  0  0  0
   45.5920    2.0560   36.4380 C   0  0  0  0  0
   44.3290    2.8400   36.7720 C   0  0  0  0  0
   44.8517   -1.2772   25.0435 H   0  0  0  0  0
   44.7710    0.0268   27.1422 H   0  0  0  0  0
   43.4215   -4.7583   27.1716 H   0  0  0  0  0
   43.7923   -5.5228   23.7422 H   0  0  0  0  0
   44.6868   -3.6482   22.7652 H   0  0  0  0  0
   44.9786   -2.2080   23.7460 H   0  0  0  0  0
   42.9729   -4.2711   29.8541 H   0  0  0  0  0
   42.8198   -4.1067   31.8846 H   0  0  0  0  0
   42.4894   -3.8854   34.3261 H   0  0  0  0  0
   42.7533   -1.6965   35.4273 H   0  0  0  0  0
   43.7764    1.1174   32.1750 H   0  0  0  0  0
   43.3063    2.8919   34.8599 H   0  0  0  0  0
   42.2737    2.4662   36.1883 H   0  0  0  0  0
   43.0010    0.1882   36.1907 H   0  0  0  0  0
   45.6743    0.4616   34.9599 H   0  0  0  0  0
   45.3098   -0.0968   36.5772 H   0  0  0  0  0
   46.2086    2.5940   35.7180 H   0  0  0  0  0
   46.2107    1.9132   37.3240 H   0  0  0  0  0
   44.4839    3.9147   36.6766 H   0  0  0  0  0
   44.0223    2.6895   37.8071 H   0  0  0  0  0
  1  2  4  0  0  0
  1  6  4  0  0  0
  1  7  1  0  0  0
  2  3  4  0  0  0
  3  4  4  0  0  0
  4  5  4  0  0  0
  4 10  4  0  0  0
  5  6  4  0  0  0
  5 11  4  0  0  0
  7  8  2  0  0  0
  7  9  1  0  0  0
 10 12  4  0  0  0
 12 11  4  0  0  0
 12 13  1  0  0  0
 13 14  4  0  0  0
 13 19  4  0  0  0
 14 15  4  0  0  0
 15 16  4  0  0  0
 16 17  4  0  0  0
 17 18  1  0  0  0
 17 19  4  0  0  0
 18 22  1  0  0  0
 19 20  1  0  0  0
 22 23  1  0  0  0
 23 24  1  0  0  0
 24 25  1  0  0  0
 25 21  1  0  0  0
 22 21  1  0  0  0
  2 26  1  0  0  0
  3 27  1  0  0  0
  6 28  1  0  0  0
  8 29  1  0  0  0
  9 30  1  0  0  0
  9 31  1  0  0  0
 11 32  1  0  0  0
 14 33  1  0  0  0
 15 34  1  0  0  0
 16 35  1  0  0  0
 20 36  1  0  0  0
 21 37  1  0  0  0
 21 38  1  0  0  0
 22 39  1  0  0  0
 23 40  1  0  0  0
 23 41  1  0  0  0
 24 42  1  0  0  0
 24 43  1  0  0  0
 25 44  1  0  0  0
 25 45  1  0  0  0
M  END
$$$$
