3djo_ligand
  -I-interpret- 

 34 35  0  0  0  0  0  0  0  0999 V2000
   29.5560   42.9480    8.5150 O   0  0  0  0  0
   29.9580   44.1320    7.8140 C   0  0  0  0  0
   29.7720   43.9900    6.2870 C   0  0  0  0  0
   30.8190   43.1020    5.7800 O   0  0  0  0  0
   30.2830   42.3440    4.6760 C   0  0  0  0  0
   30.2060   40.9060    5.0540 N   0  0  0  0  0
   30.2830   40.4680    6.4010 C   0  0  0  0  0
   30.1960   39.1110    6.7030 C   0  0  0  0  0
   30.0460   38.1860    5.6650 C   0  0  0  0  0
   29.9740   36.9820    5.8920 O   0  0  0  0  0
   29.9590   38.6210    4.3440 N   0  0  0  0  0
   30.0550   39.9750    4.0280 C   0  0  0  0  0
   29.9900   40.3510    2.8550 O   0  0  0  0  0
   28.8880   42.8990    4.4080 C   0  0  0  0  0
   29.0380   44.0040    3.5050 O   0  0  0  0  0
   27.8270   44.3730    2.5090 P   0  0  0  0  0
   26.5810   44.6030    3.2610 O   0  0  0  0  0
   28.3320   45.6690    1.6570 O   0  0  0  0  0
   27.7220   43.1760    1.4520 O   0  0  0  0  0
   28.4680   43.3410    5.8050 C   0  0  0  0  0
   27.4020   44.2980    5.7440 O   0  0  0  0  0
   29.6864   43.0757    9.4575 H   0  0  0  0  0
   31.0154   44.3049    8.0144 H   0  0  0  0  0
   29.3376   44.9596    8.1579 H   0  0  0  0  0
   29.7875   45.0188    5.9273 H   0  0  0  0  0
   30.9095   42.4245    3.7876 H   0  0  0  0  0
   30.4107   41.1957    7.2024 H   0  0  0  0  0
   30.2444   38.7734    7.7383 H   0  0  0  0  0
   29.8232   37.9389    3.5979 H   0  0  0  0  0
   28.1635   42.2209    3.9570 H   0  0  0  0  0
   29.1440   45.4497    1.1943 H   0  0  0  0  0
   28.5617   43.0775    0.9973 H   0  0  0  0  0
   28.0883   42.5454    6.4460 H   0  0  0  0  0
   27.1568   44.5594    6.6346 H   0  0  0  0  0
  1  2  1  0  0  0
  2  3  1  0  0  0
  3  4  1  0  0  0
  3 20  1  0  0  0
  4  5  1  0  0  0
  5  6  1  0  0  0
  5 14  1  0  0  0
  6  7  1  0  0  0
  6 12  1  0  0  0
  7  8  2  0  0  0
  8  9  1  0  0  0
  9 10  2  0  0  0
  9 11  1  0  0  0
 11 12  1  0  0  0
 12 13  2  0  0  0
 14 15  1  0  0  0
 14 20  1  0  0  0
 15 16  1  0  0  0
 16 17  2  0  0  0
 16 18  1  0  0  0
 16 19  1  0  0  0
 20 21  1  0  0  0
  1 22  1  0  0  0
  2 23  1  0  0  0
  2 24  1  0  0  0
  3 25  1  0  0  0
  5 26  1  0  0  0
  7 27  1  0  0  0
  8 28  1  0  0  0
 11 29  1  0  0  0
 14 30  1  0  0  0
 18 31  1  0  0  0
 19 32  1  0  0  0
 20 33  1  0  0  0
 21 34  1  0  0  0
M  END
$$$$
