2asu_ligand
  -I-interpret- 

 55 54  0  0  0  0  0  0  0  0999 V2000
   61.7140   49.4090    5.4320 N   0  3  0  0  0
   62.1450   50.8680    5.5070 C   0  0  0  0  0
   61.1570   51.7600    6.2430 C   0  0  0  0  0
   59.9520   51.5170    6.2730 O   0  0  0  0  0
   62.3710   51.4280    4.1020 C   0  0  0  0  0
   60.8800   51.7320    3.1200 S   0  0  0  0  0
   61.6690   52.8270    6.8320 N   0  0  0  0  0
   60.8250   53.9360    7.2450 C   0  0  0  0  0
   60.0620   53.6540    8.5200 C   0  0  0  0  0
   58.9850   54.1720    8.7290 O   0  0  0  0  0
   60.6230   52.8010    9.3700 N   0  0  0  0  0
   60.0690   52.5870   10.6960 C   0  0  0  0  0
   61.0970   53.0670   11.7340 C   0  0  0  0  0
   62.3290   52.8440   11.6100 O   0  0  0  0  0
   59.6940   51.1060   10.8840 C   0  0  0  0  0
   60.6040   53.7520   12.7470 N   0  0  0  0  0
   61.4450   54.2110   13.8500 C   0  0  0  0  0
   60.9120   53.6470   15.1560 C   0  0  0  0  0
   59.8030   53.1250   15.1560 O   0  0  0  0  0
   61.4490   55.7260   13.9270 C   0  0  0  0  0
   62.4250   56.2530   14.9280 C   0  0  0  0  0
   62.9700   57.5950   14.5740 C   0  0  0  0  0
   61.9440   58.6280   14.6430 N   0  0  0  0  0
   62.1670   59.9150   14.4240 C   0  0  0  0  0
   63.3890   60.3260   14.1140 N   0  0  0  0  0
   61.1680   60.7930   14.5350 N   0  0  0  0  0
   61.6314   53.7179   16.2724 O   0  0  0  0  0
   62.4200   48.8727    4.9277 H   0  0  0  0  0
   61.6126   49.0367    6.3762 H   0  0  0  0  0
   60.8218   49.3441    4.9420 H   0  0  0  0  0
   63.0727   50.8742    6.0793 H   0  0  0  0  0
   62.9458   50.6761    3.5614 H   0  0  0  0  0
   62.8546   52.3961    4.2323 H   0  0  0  0  0
   61.2257   52.2146    1.9298 H   0  0  0  0  0
   62.6741   52.8729    6.9996 H   0  0  0  0  0
   60.0964   54.1118    6.4536 H   0  0  0  0  0
   61.4706   54.7951    7.4272 H   0  0  0  0  0
   61.4574   52.2872    9.0867 H   0  0  0  0  0
   59.1508   53.1595   10.8275 H   0  0  0  0  0
   58.9523   50.8227   10.1372 H   0  0  0  0  0
   60.5848   50.4891   10.7654 H   0  0  0  0  0
   59.2803   50.9611   11.8820 H   0  0  0  0  0
   59.6071   53.9676   12.7610 H   0  0  0  0  0
   62.4644   53.8653   13.6784 H   0  0  0  0  0
   60.4528   56.0471   14.2314 H   0  0  0  0  0
   61.7360   56.1090   12.9477 H   0  0  0  0  0
   63.2635   55.5577   14.9669 H   0  0  0  0  0
   61.9001   56.3518   15.8782 H   0  0  0  0  0
   63.3482   57.5539   13.5525 H   0  0  0  0  0
   63.7575   57.8447   15.2851 H   0  0  0  0  0
   60.9930   58.3412   14.8749 H   0  0  0  0  0
   64.1516   59.6521   14.0452 H   0  0  0  0  0
   61.3424   61.7861   14.3811 H   0  0  0  0  0
   60.2301   60.4709   14.7737 H   0  0  0  0  0
   62.4657   54.1551   16.0869 H   0  0  0  0  0
  2  1  1  0  0  0
  2  5  1  0  0  0
  3  2  1  0  0  0
  3  4  2  0  0  0
  5  6  1  0  0  0
  8  7  1  0  0  0
  9  8  1  0  0  0
  9 10  2  0  0  0
  7  3  1  0  0  0
 12 11  1  0  0  0
 12 15  1  0  0  0
 13 12  1  0  0  0
 13 14  2  0  0  0
 11  9  1  0  0  0
 16 17  1  0  0  0
 17 20  1  0  0  0
 17 18  1  0  0  0
 18 19  2  0  0  0
 20 21  1  0  0  0
 21 22  1  0  0  0
 22 23  1  0  0  0
 23 24  1  0  0  0
 24 26  1  0  0  0
 24 25  2  0  0  0
 13 16  1  0  0  0
 18 27  1  0  0  0
  1 28  1  0  0  0
  1 29  1  0  0  0
  1 30  1  0  0  0
  2 31  1  0  0  0
  5 32  1  0  0  0
  5 33  1  0  0  0
  6 34  1  0  0  0
  7 35  1  0  0  0
  8 36  1  0  0  0
  8 37  1  0  0  0
 11 38  1  0  0  0
 12 39  1  0  0  0
 15 40  1  0  0  0
 15 41  1  0  0  0
 15 42  1  0  0  0
 16 43  1  0  0  0
 17 44  1  0  0  0
 20 45  1  0  0  0
 20 46  1  0  0  0
 21 47  1  0  0  0
 21 48  1  0  0  0
 22 49  1  0  0  0
 22 50  1  0  0  0
 23 51  1  0  0  0
 25 52  1  0  0  0
 26 53  1  0  0  0
 26 54  1  0  0  0
 27 55  1  0  0  0
M  END
$$$$
