4v05_ligand
  -I-interpret- 

 67 70  0  0  0  0  0  0  0  0999 V2000
   79.1170    2.5080    2.1840 C   0  0  0  0  0
   81.9550    0.7140    3.9420 N   0  0  0  0  0
   85.7280    2.6210    8.7860 O   0  0  0  0  0
   79.9480    1.3960    2.8060 C   0  0  0  0  0
   80.2020    0.3580    1.7900 N   0  3  0  0  0
   91.8050    3.6390   16.3710 O   0  0  0  0  0
   81.2200    1.8520    3.3960 C   0  0  0  0  0
   86.6080    0.5580    8.3700 N   0  0  0  0  0
   88.7910    0.2910   18.0050 O   0  0  0  0  0
   82.2490   -0.3680    3.0070 C   0  0  0  0  0
   89.0970   -0.4620   10.6940 N   0  0  0  0  0
   80.9660   -0.7980    2.2940 C   0  0  0  0  0
   88.3710   -0.5600    9.5440 N   0  0  0  0  0
   81.2060   -1.7740    1.1550 C   0  0  0  0  0
   82.9100    1.0030    4.9220 C   0  0  0  0  0
   84.1890    0.4410    4.8620 C   0  0  0  0  0
   85.0960    0.6400    5.8840 C   0  0  0  0  0
   84.7490    1.3680    7.0190 C   0  0  0  0  0
   83.4640    1.8940    7.1030 C   0  0  0  0  0
   82.5500    1.6970    6.0840 C   0  0  0  0  0
   85.7270    1.5830    8.1300 C   0  0  0  0  0
   87.4900    0.4690    9.4270 C   0  0  0  0  0
   87.6910    1.2880   10.5060 C   0  0  0  0  0
   88.6950    0.6620   11.2640 C   0  0  0  0  0
   89.3150    1.1320   12.5520 C   0  0  0  0  0
   88.3700    1.9620   13.4400 C   0  0  0  0  0
   88.9590    2.0570   14.8290 C   0  0  0  0  0
   88.4690    1.2600   15.8610 C   0  0  0  0  0
   89.0560    1.3100   17.1190 C   0  0  0  0  0
   90.1610    2.1130   17.3520 C   0  0  0  0  0
   90.6660    2.8780   16.3110 C   0  0  0  0  0
   90.0780    2.8510   15.0570 C   0  0  0  0  0
   92.6160    3.5680   17.5520 C   0  0  0  0  0
   89.0220    0.5180   19.4070 C   0  0  0  0  0
   78.8706    3.2461    2.9473 H   0  0  0  0  0
   79.6881    2.9843    1.3871 H   0  0  0  0  0
   78.1989    2.0876    1.7735 H   0  0  0  0  0
   79.3664    0.9957    3.6365 H   0  0  0  0  0
   80.7561    0.7879    1.0494 H   0  0  0  0  0
   79.2951    0.0097    1.4792 H   0  0  0  0  0
   81.8222    2.3300    2.6234 H   0  0  0  0  0
   81.0096    2.5603    4.1973 H   0  0  0  0  0
   86.6108   -0.2127    7.7019 H   0  0  0  0  0
   82.6592   -1.2165    3.5546 H   0  0  0  0  0
   82.9726   -0.0209    2.2695 H   0  0  0  0  0
   80.3823   -1.3134    3.0567 H   0  0  0  0  0
   81.8545   -1.3104    0.4115 H   0  0  0  0  0
   81.6823   -2.6741    1.5438 H   0  0  0  0  0
   80.2529   -2.0354    0.6953 H   0  0  0  0  0
   84.4732   -0.1609    3.9988 H   0  0  0  0  0
   86.0987    0.2208    5.8009 H   0  0  0  0  0
   83.1739    2.4685    7.9827 H   0  0  0  0  0
   81.5372    2.0866    6.1865 H   0  0  0  0  0
   87.1811    2.2252   10.7291 H   0  0  0  0  0
   90.1561    1.7735   12.2892 H   0  0  0  0  0
   89.5920    0.2433   13.1191 H   0  0  0  0  0
   87.3926    1.4819   13.4867 H   0  0  0  0  0
   88.2537    2.9613   13.0204 H   0  0  0  0  0
   87.6235    0.5960   15.6811 H   0  0  0  0  0
   90.6259    2.1430   18.3374 H   0  0  0  0  0
   90.4927    3.4526   14.2482 H   0  0  0  0  0
   92.0273    3.8797   18.4148 H   0  0  0  0  0
   92.9582    2.5431   17.6951 H   0  0  0  0  0
   93.4766    4.2275   17.4404 H   0  0  0  0  0
   90.0732    0.7580   19.5665 H   0  0  0  0  0
   88.4029    1.3485   19.7461 H   0  0  0  0  0
   88.7643   -0.3812   19.9666 H   0  0  0  0  0
  4  1  1  0  0  0
  2  7  1  0  0  0
  2 10  1  0  0  0
 15  2  1  0  0  0
 21  3  2  0  0  0
  4  5  1  0  0  0
  7  4  1  0  0  0
 12  5  1  0  0  0
 31  6  1  0  0  0
  6 33  1  0  0  0
  8 21  1  0  0  0
 22  8  1  0  0  0
 29  9  1  0  0  0
  9 34  1  0  0  0
 10 12  1  0  0  0
 11 13  4  0  0  0
 24 11  4  0  0  0
 12 14  1  0  0  0
 22 13  4  0  0  0
 16 15  4  0  0  0
 20 15  4  0  0  0
 17 16  4  0  0  0
 18 17  4  0  0  0
 18 19  4  0  0  0
 21 18  1  0  0  0
 19 20  4  0  0  0
 23 22  4  0  0  0
 24 23  4  0  0  0
 25 24  1  0  0  0
 26 25  1  0  0  0
 27 26  1  0  0  0
 28 27  4  0  0  0
 27 32  4  0  0  0
 29 28  4  0  0  0
 30 29  4  0  0  0
 30 31  4  0  0  0
 31 32  4  0  0  0
  1 35  1  0  0  0
  1 36  1  0  0  0
  1 37  1  0  0  0
  4 38  1  0  0  0
  5 39  1  0  0  0
  5 40  1  0  0  0
  7 41  1  0  0  0
  7 42  1  0  0  0
  8 43  1  0  0  0
 10 44  1  0  0  0
 10 45  1  0  0  0
 12 46  1  0  0  0
 14 47  1  0  0  0
 14 48  1  0  0  0
 14 49  1  0  0  0
 16 50  1  0  0  0
 17 51  1  0  0  0
 19 52  1  0  0  0
 20 53  1  0  0  0
 23 54  1  0  0  0
 25 55  1  0  0  0
 25 56  1  0  0  0
 26 57  1  0  0  0
 26 58  1  0  0  0
 28 59  1  0  0  0
 30 60  1  0  0  0
 32 61  1  0  0  0
 33 62  1  0  0  0
 33 63  1  0  0  0
 33 64  1  0  0  0
 34 65  1  0  0  0
 34 66  1  0  0  0
 34 67  1  0  0  0
M  END
$$$$
