3bi6_ligand
  -I-interpret- 

 63 68  0  0  0  0  0  0  0  0999 V2000
    9.2390   55.1870   16.1260 C   0  0  0  0  0
   10.0350   53.8930   16.1360 C   0  0  0  0  0
   10.2710   53.8660   17.6270 C   0  0  0  0  0
    8.8180   54.1060   18.1520 C   0  0  0  0  0
    8.1880   54.9940   17.1540 N   0  3  0  0  0
    7.8490   56.3400   17.6940 C   0  0  0  0  0
    6.4920   56.3350   18.3560 C   0  0  0  0  0
    6.4820   55.8060   19.7640 N   0  0  0  0  0
    5.7830   54.7200   20.0250 C   0  0  0  0  0
    5.1090   54.1820   19.1670 O   0  0  0  0  0
    5.5670   54.4700   21.5220 C   0  0  0  0  0
    4.2680   54.0990   21.8720 C   0  0  0  0  0
    6.5760   54.6950   22.4680 C   0  0  0  0  0
    7.8770   55.0460   22.1050 O   0  0  0  0  0
    6.2730   54.4770   23.8150 C   0  0  0  0  0
    4.9770   54.1120   24.2190 C   0  0  0  0  0
    3.9860   53.8990   23.2380 C   0  0  0  0  0
    2.8740   53.5520   23.8590 N   0  0  0  0  0
    1.6110   53.2530   23.1430 C   0  0  0  0  0
    3.0630   53.5730   25.1990 C   0  0  0  0  0
    2.2070   53.2390   26.2690 C   0  0  0  0  0
    4.4070   53.8820   25.4720 C   0  0  0  0  0
    4.8480   53.9420   26.8300 C   0  0  0  0  0
    6.0590   54.2060   27.5050 C   0  0  0  0  0
    7.0940   54.6210   26.9820 O   0  0  0  0  0
    5.9220   54.1090   28.8470 N   0  0  0  0  0
    4.6770   53.7350   29.0600 C   0  0  0  0  0
    4.2240   53.5150   30.1690 O   0  0  0  0  0
    3.9400   53.6360   27.8620 C   0  0  0  0  0
    2.6030   53.2880   27.5900 C   0  0  0  0  0
    1.6330   53.0010   28.6100 C   0  0  0  0  0
    0.9820   51.7630   28.6500 C   0  0  0  0  0
    0.0110   51.5480   29.6430 C   0  0  0  0  0
   -0.3350   52.4840   30.6170 C   0  0  0  0  0
    0.2630   53.7550   30.5640 C   0  0  0  0  0
    1.2410   53.9970   29.5670 C   0  0  0  0  0
    1.8480   55.6100   29.6150 Cl  0  0  0  0  0
    8.8129   55.3934   15.1442 H   0  0  0  0  0
    9.8666   56.0509   16.3449 H   0  0  0  0  0
   10.9200   53.8589   15.5006 H   0  0  0  0  0
    9.5507   53.0182   15.7021 H   0  0  0  0  0
   10.9971   54.6002   17.9759 H   0  0  0  0  0
   10.7282   52.9449   17.9885 H   0  0  0  0  0
    8.8181   54.5538   19.1458 H   0  0  0  0  0
    8.2698   53.1702   18.2608 H   0  0  0  0  0
    7.3171   54.5789   16.8230 H   0  0  0  0  0
    7.8317   57.0522   16.8691 H   0  0  0  0  0
    8.5978   56.6165   18.4362 H   0  0  0  0  0
    5.8532   55.6782   17.7656 H   0  0  0  0  0
    6.1584   57.3716   18.4040 H   0  0  0  0  0
    7.0054   56.2781   20.5013 H   0  0  0  0  0
    3.4965   53.9682   21.1132 H   0  0  0  0  0
    8.4106   55.1538   22.8957 H   0  0  0  0  0
    7.0553   54.5920   24.5653 H   0  0  0  0  0
    1.2994   54.1306   22.5766 H   0  0  0  0  0
    1.7701   52.4170   22.4619 H   0  0  0  0  0
    0.8380   52.9923   23.8659 H   0  0  0  0  0
    1.1871   52.9283   26.0424 H   0  0  0  0  0
    6.6375   54.2889   29.5513 H   0  0  0  0  0
    1.2225   50.9831   27.9274 H   0  0  0  0  0
   -0.5048   50.5878   29.6524 H   0  0  0  0  0
   -1.0515   52.2362   31.4001 H   0  0  0  0  0
   -0.0183   54.5348   31.2717 H   0  0  0  0  0
  1  2  1  0  0  0
  1  5  1  0  0  0
  2  3  1  0  0  0
  3  4  1  0  0  0
  4  5  1  0  0  0
  5  6  1  0  0  0
  6  7  1  0  0  0
  7  8  1  0  0  0
  8  9  1  0  0  0
  9 10  2  0  0  0
  9 11  1  0  0  0
 11 12  4  0  0  0
 11 13  4  0  0  0
 12 17  4  0  0  0
 13 14  1  0  0  0
 13 15  4  0  0  0
 15 16  4  0  0  0
 16 17  4  0  0  0
 16 22  4  0  0  0
 17 18  4  0  0  0
 18 19  1  0  0  0
 18 20  4  0  0  0
 20 21  4  0  0  0
 20 22  4  0  0  0
 21 30  4  0  0  0
 22 23  4  0  0  0
 23 24  1  0  0  0
 23 29  4  0  0  0
 24 25  2  0  0  0
 24 26  1  0  0  0
 26 27  1  0  0  0
 27 28  2  0  0  0
 27 29  1  0  0  0
 29 30  4  0  0  0
 30 31  1  0  0  0
 31 32  4  0  0  0
 31 36  4  0  0  0
 32 33  4  0  0  0
 33 34  4  0  0  0
 34 35  4  0  0  0
 35 36  4  0  0  0
 36 37  1  0  0  0
  1 38  1  0  0  0
  1 39  1  0  0  0
  2 40  1  0  0  0
  2 41  1  0  0  0
  3 42  1  0  0  0
  3 43  1  0  0  0
  4 44  1  0  0  0
  4 45  1  0  0  0
  5 46  1  0  0  0
  6 47  1  0  0  0
  6 48  1  0  0  0
  7 49  1  0  0  0
  7 50  1  0  0  0
  8 51  1  0  0  0
 12 52  1  0  0  0
 14 53  1  0  0  0
 15 54  1  0  0  0
 19 55  1  0  0  0
 19 56  1  0  0  0
 19 57  1  0  0  0
 21 58  1  0  0  0
 26 59  1  0  0  0
 32 60  1  0  0  0
 33 61  1  0  0  0
 34 62  1  0  0  0
 35 63  1  0  0  0
M  END
$$$$
