4b7r_ligand
  -I-interpret- 

 47 47  0  0  0  0  0  0  0  0999 V2000
   27.0270   20.3980  -40.1150 C   0  0  0  0  0
   27.5070   19.3260  -39.6700 O   0  0  0  0  0
   27.7320   21.4370  -40.1840 O   0  0  0  0  0
   25.5640   20.5020  -40.5190 C   0  0  0  0  0
   24.8320   19.1930  -40.7580 C   0  0  0  0  0
   23.3380   19.5090  -40.7110 C   0  0  0  0  0
   22.9970   20.5060  -41.8100 C   0  0  0  0  0
   21.5730   20.8630  -41.7760 N   0  0  0  0  0
   20.6540   20.4060  -42.7900 C   0  0  0  0  0
   21.0420   19.7080  -43.7070 O   0  0  0  0  0
   19.1970   20.8140  -42.6960 C   0  0  0  0  0
   23.8240   21.7860  -41.7060 C   0  0  0  0  0
   25.3280   21.5740  -41.5380 C   0  0  0  0  0
   23.6060   22.6250  -42.7950 O   0  0  0  0  0
   22.8620   23.8000  -42.5890 C   0  0  0  0  0
   22.4630   24.4490  -43.9160 C   0  0  0  0  0
   23.4020   24.7720  -41.5140 C   0  0  0  0  0
   24.7280   25.4780  -41.8200 C   0  0  0  0  0
   21.8290   23.5090  -44.9240 C   0  0  0  0  0
   22.5170   18.3160  -40.7060 N   0  3  0  0  0
   27.2071   22.1551  -40.5451 H   0  0  0  0  0
   25.0557   20.8405  -39.6161 H   0  0  0  0  0
   25.0968   18.4564  -39.9994 H   0  0  0  0  0
   25.1078   18.7647  -41.7216 H   0  0  0  0  0
   23.1006   19.9860  -39.7601 H   0  0  0  0  0
   23.2338   20.0120  -42.7523 H   0  0  0  0  0
   21.2250   21.4485  -41.0168 H   0  0  0  0  0
   18.9211   21.3792  -43.5863 H   0  0  0  0  0
   18.5751   19.9218  -42.6233 H   0  0  0  0  0
   19.0508   21.4334  -41.8111 H   0  0  0  0  0
   23.4686   22.2505  -40.7862 H   0  0  0  0  0
   25.7637   21.2746  -42.4912 H   0  0  0  0  0
   25.7933   22.5023  -41.2065 H   0  0  0  0  0
   21.9373   23.4753  -42.1118 H   0  0  0  0  0
   23.3794   24.8260  -44.3701 H   0  0  0  0  0
   21.7179   25.2097  -43.6829 H   0  0  0  0  0
   23.5851   24.1646  -40.6276 H   0  0  0  0  0
   22.6568   25.5625  -41.4252 H   0  0  0  0  0
   25.5105   24.7327  -41.9628 H   0  0  0  0  0
   24.6207   26.0725  -42.7273 H   0  0  0  0  0
   24.9923   26.1290  -40.9867 H   0  0  0  0  0
   22.5301   22.7099  -45.1647 H   0  0  0  0  0
   20.9208   23.0815  -44.4991 H   0  0  0  0  0
   21.5821   24.0626  -45.8299 H   0  0  0  0  0
   22.8105   17.7059  -39.9431 H   0  0  0  0  0
   21.5397   18.5778  -40.5768 H   0  0  0  0  0
   22.6246   17.8269  -41.5946 H   0  0  0  0  0
  1  2  2  0  0  0
  1  3  1  0  0  0
  1  4  1  0  0  0
  4  5  1  0  0  0
  4 13  1  0  0  0
  5  6  1  0  0  0
  6  7  1  0  0  0
  6 20  1  0  0  0
  7  8  1  0  0  0
  7 12  1  0  0  0
  8  9  1  0  0  0
  9 10  2  0  0  0
  9 11  1  0  0  0
 12 13  1  0  0  0
 12 14  1  0  0  0
 14 15  1  0  0  0
 15 16  1  0  0  0
 15 17  1  0  0  0
 16 19  1  0  0  0
 17 18  1  0  0  0
  3 21  1  0  0  0
  4 22  1  0  0  0
  5 23  1  0  0  0
  5 24  1  0  0  0
  6 25  1  0  0  0
  7 26  1  0  0  0
  8 27  1  0  0  0
 11 28  1  0  0  0
 11 29  1  0  0  0
 11 30  1  0  0  0
 12 31  1  0  0  0
 13 32  1  0  0  0
 13 33  1  0  0  0
 15 34  1  0  0  0
 16 35  1  0  0  0
 16 36  1  0  0  0
 17 37  1  0  0  0
 17 38  1  0  0  0
 18 39  1  0  0  0
 18 40  1  0  0  0
 18 41  1  0  0  0
 19 42  1  0  0  0
 19 43  1  0  0  0
 19 44  1  0  0  0
 20 45  1  0  0  0
 20 46  1  0  0  0
 20 47  1  0  0  0
M  END
$$$$
