3zxz_ligand
  -I-interpret- 

 44 48  0  0  0  0  0  0  0  0999 V2000
   16.3110   78.7530   -1.1750 O   0  0  0  0  0
   16.4420   79.6810   -0.1180 C   0  0  0  0  0
   17.9130   80.0570    0.0670 C   0  0  0  0  0
   18.0880   81.0210    1.1560 N   0  0  0  0  0
   17.8610   80.7280    2.5060 C   0  0  0  0  0
   18.4760   82.2330    0.9630 N   0  0  0  0  0
   18.5500   82.8410    2.0990 C   0  0  0  0  0
   18.1620   81.9200    3.1640 C   0  0  0  0  0
   18.1100   82.2210    4.6320 C   0  0  0  0  0
   18.4760   83.4880    5.0310 N   0  0  0  0  0
   18.4140   83.6950    6.3690 C   0  0  0  0  0
   18.7100   84.8240    7.1140 N   0  0  0  0  0
   18.5060   84.5780    8.3670 N   0  0  0  0  0
   18.0910   83.3650    8.5540 N   0  0  0  0  0
   18.0220   82.7610    7.2720 C   0  0  0  0  0
   17.6500   81.5030    6.9290 N   0  0  0  0  0
   17.7020   81.2420    5.5810 C   0  0  0  0  0
   19.1850   86.1050    6.5720 C   0  0  0  0  0
   20.6520   85.9880    6.1520 C   0  0  0  0  0
   21.0080   85.7660    4.7750 C   0  0  0  0  0
   22.3790   85.6550    4.3760 C   0  0  0  0  0
   22.7600   85.4320    3.0160 C   0  0  0  0  0
   24.1460   85.3300    2.6870 C   0  0  0  0  0
   25.1060   85.4560    3.7370 C   0  0  0  0  0
   24.7620   85.6690    5.0460 N   0  0  0  0  0
   23.4380   85.7660    5.3640 C   0  0  0  0  0
   23.0740   85.9860    6.7340 C   0  0  0  0  0
   21.6990   86.0960    7.1240 C   0  0  0  0  0
   15.3855   78.5226   -1.2842 H   0  0  0  0  0
   16.0676   79.2324    0.8021 H   0  0  0  0  0
   15.8692   80.5777   -0.3544 H   0  0  0  0  0
   18.2721   80.5107   -0.8567 H   0  0  0  0  0
   18.4719   79.1539    0.3122 H   0  0  0  0  0
   17.5266   79.7865    2.9417 H   0  0  0  0  0
   18.8540   83.8780    2.2411 H   0  0  0  0  0
   17.4209   80.2505    5.2260 H   0  0  0  0  0
   19.0932   86.8737    7.3393 H   0  0  0  0  0
   18.5842   86.3696    5.7019 H   0  0  0  0  0
   20.2221   85.6811    4.0245 H   0  0  0  0  0
   22.0010   85.3409    2.2390 H   0  0  0  0  0
   24.4639   85.1599    1.6583 H   0  0  0  0  0
   26.1636   85.3790    3.4847 H   0  0  0  0  0
   23.8548   86.0708    7.4899 H   0  0  0  0  0
   21.4473   86.2636    8.1712 H   0  0  0  0  0
  1  2  1  0  0  0
  2  3  1  0  0  0
  3  4  1  0  0  0
  4  5  4  0  0  0
  4  6  4  0  0  0
  5  8  4  0  0  0
  6  7  4  0  0  0
  7  8  4  0  0  0
  8  9  1  0  0  0
  9 10  4  0  0  0
  9 17  4  0  0  0
 10 11  4  0  0  0
 11 12  4  0  0  0
 11 15  4  0  0  0
 12 13  4  0  0  0
 12 18  1  0  0  0
 13 14  4  0  0  0
 14 15  4  0  0  0
 15 16  4  0  0  0
 16 17  4  0  0  0
 18 19  1  0  0  0
 19 20  4  0  0  0
 19 28  4  0  0  0
 20 21  4  0  0  0
 21 22  4  0  0  0
 21 26  4  0  0  0
 22 23  4  0  0  0
 23 24  4  0  0  0
 24 25  4  0  0  0
 25 26  4  0  0  0
 26 27  4  0  0  0
 27 28  4  0  0  0
  1 29  1  0  0  0
  2 30  1  0  0  0
  2 31  1  0  0  0
  3 32  1  0  0  0
  3 33  1  0  0  0
  5 34  1  0  0  0
  7 35  1  0  0  0
 17 36  1  0  0  0
 18 37  1  0  0  0
 18 38  1  0  0  0
 20 39  1  0  0  0
 22 40  1  0  0  0
 23 41  1  0  0  0
 24 42  1  0  0  0
 27 43  1  0  0  0
 28 44  1  0  0  0
M  END
$$$$
