6g3o_ligand
  -I-interpret- 

 49 50  0  0  0  0  0  0  0  0999 V2000
  -26.9980  -13.0110    0.0210 C   0  0  0  0  0
  -27.6340  -16.2520    0.4550 C   0  0  0  0  0
  -26.2410  -16.2370    1.1960 C   0  0  0  0  0
  -26.8310  -10.9040   -1.3070 O   0  0  0  0  0
  -25.1710  -16.9060    0.2930 C   0  0  0  0  0
  -26.7270  -12.9540    1.1450 O   0  0  0  0  0
  -23.8060  -16.9640    0.9540 C   0  0  0  0  0
  -22.9430  -17.9700    0.1920 C   0  0  0  0  0
  -21.5400  -17.9680    0.7190 C   0  0  0  0  0
  -27.0970  -12.0560   -1.1540 C   0  0  0  0  0
  -27.5390  -13.2280   -1.9530 C   0  0  0  0  0
  -27.4370  -14.1080   -0.9090 C   0  0  0  0  0
  -27.5830  -15.4660   -0.8200 N   0  0  0  0  0
  -21.0490  -19.2520    1.0770 N   0  0  0  0  0
  -20.8250  -16.9890    0.8540 O   0  0  0  0  0
  -20.0310  -19.2270    1.9560 O   0  0  0  0  0
  -28.7940  -15.7370    1.3370 C   0  0  0  0  0
  -27.9000  -13.4740   -3.2500 N   0  0  0  0  0
  -28.0890  -12.5850   -4.2980 C   0  0  0  0  0
  -28.0040  -11.1620   -4.1890 C   0  0  0  0  0
  -28.0540  -10.3770   -5.3420 C   0  0  0  0  0
  -28.1790  -11.0390   -6.5720 C   0  0  0  0  0
  -28.2770  -12.4430   -6.6920 C   0  0  0  0  0
  -28.2490  -13.2100   -5.5550 C   0  0  0  0  0
  -28.1910  -10.1910   -7.6500 O   0  0  0  0  0
  -29.3220  -10.1300   -8.4620 C   0  0  0  0  0
  -29.3120   -9.1230   -9.3520 F   0  0  0  0  0
  -30.3700   -9.9980   -7.6330 F   0  0  0  0  0
  -29.4610  -11.2700   -9.1570 F   0  0  0  0  0
  -27.8347  -17.2987    0.2262 H   0  0  0  0  0
  -26.3213  -16.7863    2.1340 H   0  0  0  0  0
  -25.9500  -15.2074    1.4042 H   0  0  0  0  0
  -25.0793  -16.3118   -0.6162 H   0  0  0  0  0
  -25.4914  -17.9285    0.0932 H   0  0  0  0  0
  -23.9082  -17.2729    1.9943 H   0  0  0  0  0
  -23.3387  -15.9795    0.9317 H   0  0  0  0  0
  -22.9246  -17.6924   -0.8619 H   0  0  0  0  0
  -23.3665  -18.9663    0.3194 H   0  0  0  0  0
  -27.6638  -15.9861   -1.6937 H   0  0  0  0  0
  -21.4348  -20.1178    0.7003 H   0  0  0  0  0
  -19.7542  -20.1257    2.1490 H   0  0  0  0  0
  -28.6340  -14.6836    1.5669 H   0  0  0  0  0
  -29.7359  -15.8542    0.8011 H   0  0  0  0  0
  -28.8274  -16.3112    2.2629 H   0  0  0  0  0
  -28.0526  -14.4559   -3.4800 H   0  0  0  0  0
  -27.9007  -10.6926   -3.2107 H   0  0  0  0  0
  -27.9980   -9.2898   -5.2884 H   0  0  0  0  0
  -28.3733  -12.9095   -7.6724 H   0  0  0  0  0
  -28.3494  -14.2934   -5.6208 H   0  0  0  0  0
  1  6  2  0  0  0
  1 10  1  0  0  0
 12  1  1  0  0  0
  2  3  1  0  0  0
 13  2  1  0  0  0
  2 17  1  0  0  0
  3  5  1  0  0  0
 10  4  2  0  0  0
  5  7  1  0  0  0
  7  8  1  0  0  0
  8  9  1  0  0  0
  9 14  1  0  0  0
  9 15  2  0  0  0
 11 10  1  0  0  0
 12 11  2  0  0  0
 11 18  1  0  0  0
 12 13  1  0  0  0
 14 16  1  0  0  0
 18 19  1  0  0  0
 19 20  4  0  0  0
 19 24  4  0  0  0
 20 21  4  0  0  0
 21 22  4  0  0  0
 22 23  4  0  0  0
 22 25  1  0  0  0
 23 24  4  0  0  0
 25 26  1  0  0  0
 26 27  1  0  0  0
 26 28  1  0  0  0
 26 29  1  0  0  0
  2 30  1  0  0  0
  3 31  1  0  0  0
  3 32  1  0  0  0
  5 33  1  0  0  0
  5 34  1  0  0  0
  7 35  1  0  0  0
  7 36  1  0  0  0
  8 37  1  0  0  0
  8 38  1  0  0  0
 13 39  1  0  0  0
 14 40  1  0  0  0
 16 41  1  0  0  0
 17 42  1  0  0  0
 17 43  1  0  0  0
 17 44  1  0  0  0
 18 45  1  0  0  0
 20 46  1  0  0  0
 21 47  1  0  0  0
 23 48  1  0  0  0
 24 49  1  0  0  0
M  END
$$$$
