2ym7_ligand
  -I-interpret- 

 42 44  0  0  0  0  0  0  0  0999 V2000
   18.4680   -2.6320   12.8770 C   0  0  0  0  0
   18.1130   -2.5210   14.3330 C   0  0  0  0  0
   17.4430   -3.7140   14.8150 N   0  3  0  0  0
   16.2640   -4.0430   14.0080 C   0  0  0  0  0
   16.5820   -4.1300   12.5420 C   0  0  0  0  0
   17.2890   -2.9440   12.0570 C   0  0  0  0  0
   17.7380   -3.1580   10.5620 C   0  0  0  0  0
   18.5570   -2.1370    9.9390 N   0  0  0  0  0
   17.9950   -0.8370    9.4810 C   0  0  0  0  0
   16.5890   -0.4980    9.7230 C   0  0  0  0  0
   18.7800    0.0120    8.8110 N   0  0  0  0  0
   18.2820    1.1880    8.3480 C   0  0  0  0  0
   16.9250    1.5520    8.5670 N   0  0  0  0  0
   16.1070    0.7530    9.2300 C   0  0  0  0  0
   14.8090    1.1580    9.4230 N   0  0  0  0  0
   13.8640    0.5370   10.3700 C   0  0  0  0  0
   12.7430    1.2820   10.8050 C   0  0  0  0  0
   11.8460    0.7270   11.6580 N   0  0  0  0  0
   12.0330   -0.5250   12.0800 C   0  0  0  0  0
   11.0470   -1.1710   12.9890 C   0  0  0  0  0
   10.2720   -1.6600   13.6530 N   0  0  0  0  0
   13.1680   -1.2860   11.6330 C   0  0  0  0  0
   14.0500   -0.7370   10.7950 N   0  0  0  0  0
   19.1933   -3.4371   12.7590 H   0  0  0  0  0
   18.8747   -1.6760   12.5471 H   0  0  0  0  0
   17.4382   -1.6742   14.4581 H   0  0  0  0  0
   19.0337   -2.3909   14.9018 H   0  0  0  0  0
   17.1373   -3.5440   15.7732 H   0  0  0  0  0
   18.0978   -4.4939   14.7572 H   0  0  0  0  0
   15.5273   -3.2519   14.1477 H   0  0  0  0  0
   15.8935   -5.0156   14.3318 H   0  0  0  0  0
   15.6422   -4.2109   11.9958 H   0  0  0  0  0
   17.2259   -4.9955   12.3859 H   0  0  0  0  0
   16.5976   -2.1041   12.1251 H   0  0  0  0  0
   16.8138   -3.1767    9.9845 H   0  0  0  0  0
   18.3570   -4.0551   10.5737 H   0  0  0  0  0
   19.5529   -2.3156    9.8100 H   0  0  0  0  0
   15.9317   -1.1798   10.2626 H   0  0  0  0  0
   18.9351    1.8656    7.7981 H   0  0  0  0  0
   14.4735    1.9469    8.8703 H   0  0  0  0  0
   12.5997    2.3040   10.4541 H   0  0  0  0  0
   13.3081   -2.3104   11.9782 H   0  0  0  0  0
  1  2  1  0  0  0
  1  6  1  0  0  0
  2  3  1  0  0  0
  3  4  1  0  0  0
  4  5  1  0  0  0
  5  6  1  0  0  0
  6  7  1  0  0  0
  7  8  1  0  0  0
  8  9  1  0  0  0
  9 10  4  0  0  0
  9 11  4  0  0  0
 10 14  4  0  0  0
 11 12  4  0  0  0
 12 13  4  0  0  0
 13 14  4  0  0  0
 14 15  1  0  0  0
 15 16  1  0  0  0
 16 17  4  0  0  0
 16 23  4  0  0  0
 17 18  4  0  0  0
 18 19  4  0  0  0
 19 20  1  0  0  0
 19 22  4  0  0  0
 20 21  3  0  0  0
 22 23  4  0  0  0
  1 24  1  0  0  0
  1 25  1  0  0  0
  2 26  1  0  0  0
  2 27  1  0  0  0
  3 28  1  0  0  0
  3 29  1  0  0  0
  4 30  1  0  0  0
  4 31  1  0  0  0
  5 32  1  0  0  0
  5 33  1  0  0  0
  6 34  1  0  0  0
  7 35  1  0  0  0
  7 36  1  0  0  0
  8 37  1  0  0  0
 10 38  1  0  0  0
 12 39  1  0  0  0
 15 40  1  0  0  0
 17 41  1  0  0  0
 22 42  1  0  0  0
M  END
$$$$
