4i5m_ligand
  -I-interpret- 

 78 82  0  0  0  0  0  0  0  0999 V2000
    7.7260    4.7640   10.1320 N   0  0  0  0  0
   11.2980    6.8590   10.6660 N   0  0  0  0  0
    8.8630    4.0640    9.9880 C   0  0  0  0  0
   12.6150    6.1830   10.5120 C   0  0  0  0  0
   12.5520    4.7250   10.2100 C   0  0  0  0  0
    6.2180    7.9830   10.8810 C   0  0  0  0  0
   11.1610    8.2950   11.0310 C   0  0  0  0  0
   12.7550    6.5100    7.9810 C   0  0  0  0  0
   12.5750   10.2340   11.6210 C   0  0  0  0  0
   11.1030    9.2870    9.8750 C   0  0  0  0  0
    4.5000    9.7790   10.9460 C   0  0  0  0  0
    7.1320    8.8750   11.4580 C   0  0  0  0  0
    5.0200   12.0380   11.8530 C   0  0  0  0  0
    5.1490   14.4400   11.4380 C   0  0  0  0  0
    4.2150   16.4250   10.2000 C   0  0  0  0  0
    5.5600   16.7450   12.3440 C   0  0  0  0  0
    4.0820   12.1810   12.6220 O   0  0  0  0  0
    5.6590   13.0830   11.3210 N   0  0  0  0  0
    6.1500   15.3460   12.1510 C   0  0  0  0  0
    5.1230   17.2180   11.0290 N   0  3  0  0  0
    5.5870   18.5100   10.5400 C   0  0  0  0  0
    4.8400   15.0350   10.0650 C   0  0  0  0  0
    5.4420   10.6350   11.5130 C   0  0  0  0  0
    4.8330    8.4660   10.6180 C   0  0  0  0  0
    3.9060    7.6240   10.0530 O   0  0  0  0  0
    2.5080    7.9190   10.0930 C   0  0  0  0  0
    6.7430   10.1830   11.7680 C   0  0  0  0  0
    6.5070    6.6910   10.5570 N   0  0  0  0  0
    7.7180    6.0890   10.4380 C   0  0  0  0  0
    8.8830    6.7630   10.6130 N   0  0  0  0  0
   10.0840    6.1460   10.4900 C   0  0  0  0  0
   11.6410   10.6020   10.4410 C   0  0  0  0  0
   12.2400    8.7830   12.0050 C   0  0  0  0  0
   13.3960    6.7900    9.3310 C   0  0  0  0  0
   13.6410    4.1110   10.0740 O   0  0  0  0  0
   11.3270    4.0300   10.0150 N   0  0  0  0  0
   11.3470    2.5970    9.6830 C   0  0  0  0  0
   10.0930    4.7020   10.1540 C   0  0  0  0  0
    8.8253    3.0026    9.7426 H   0  0  0  0  0
   13.0866    6.3290   11.4838 H   0  0  0  0  0
   10.1807    8.2899   11.5076 H   0  0  0  0  0
   12.7015    5.4330    7.8220 H   0  0  0  0  0
   11.7500    6.9316    7.9630 H   0  0  0  0  0
   13.3556    6.9654    7.1936 H   0  0  0  0  0
   12.4222   10.9068   12.4649 H   0  0  0  0  0
   13.6224   10.3307   11.3352 H   0  0  0  0  0
   10.0876    9.4003    9.4953 H   0  0  0  0  0
   11.6935    8.9458    9.0247 H   0  0  0  0  0
    3.4895   10.1410   10.7565 H   0  0  0  0  0
    8.1508    8.5484   11.6663 H   0  0  0  0  0
    4.2309   14.3832   12.0227 H   0  0  0  0  0
    4.0809   16.8863    9.2216 H   0  0  0  0  0
    3.2274   16.3631   10.6570 H   0  0  0  0  0
    6.3047   17.4200   12.7659 H   0  0  0  0  0
    4.7205   16.7142   13.0385 H   0  0  0  0  0
    6.5316   12.9246   10.8171 H   0  0  0  0  0
    7.0536   15.4221   11.5461 H   0  0  0  0  0
    6.3812   14.9204   13.1275 H   0  0  0  0  0
    5.2956   16.2303   11.2163 H   0  0  0  0  0
    6.1263   18.3701    9.6031 H   0  0  0  0  0
    4.7303   19.1631   10.3736 H   0  0  0  0  0
    6.2503   18.9598   11.2788 H   0  0  0  0  0
    4.1347   14.3821    9.5509 H   0  0  0  0  0
    5.7702   15.1221    9.5035 H   0  0  0  0  0
    2.1822    7.9884   11.1308 H   0  0  0  0  0
    2.3236    8.8676    9.5887 H   0  0  0  0  0
    1.9559    7.1252    9.5898 H   0  0  0  0  0
    7.4667   10.8635   12.2167 H   0  0  0  0  0
    5.7004    6.0926   10.3790 H   0  0  0  0  0
   12.1835   11.1591    9.6771 H   0  0  0  0  0
   10.8248   11.2410   10.7781 H   0  0  0  0  0
   13.1279    8.1539   11.9415 H   0  0  0  0  0
   11.8817    8.7305   13.0331 H   0  0  0  0  0
   14.3884    6.3392    9.3250 H   0  0  0  0  0
   13.4157    7.8710    9.4691 H   0  0  0  0  0
   10.8261    2.0380   10.4603 H   0  0  0  0  0
   10.8498    2.4402    8.7258 H   0  0  0  0  0
   12.3798    2.2549    9.6177 H   0  0  0  0  0
  1  3  4  0  0  0
 29  1  4  0  0  0
  2  4  1  0  0  0
  2  7  1  0  0  0
 31  2  1  0  0  0
  3 38  4  0  0  0
  4  5  1  0  0  0
  4 34  1  0  0  0
  5 35  2  0  0  0
  5 36  1  0  0  0
  6 12  4  0  0  0
  6 24  4  0  0  0
 28  6  1  0  0  0
  7 10  1  0  0  0
  7 33  1  0  0  0
 34  8  1  0  0  0
  9 32  1  0  0  0
 33  9  1  0  0  0
 10 32  1  0  0  0
 11 23  4  0  0  0
 24 11  4  0  0  0
 12 27  4  0  0  0
 13 17  2  0  0  0
 13 18  1  0  0  0
 23 13  1  0  0  0
 18 14  1  0  0  0
 14 19  1  0  0  0
 14 22  1  0  0  0
 15 20  1  0  0  0
 22 15  1  0  0  0
 19 16  1  0  0  0
 16 20  1  0  0  0
 20 21  1  0  0  0
 27 23  4  0  0  0
 24 25  1  0  0  0
 25 26  1  0  0  0
 29 28  1  0  0  0
 30 29  4  0  0  0
 30 31  4  0  0  0
 31 38  4  0  0  0
 36 37  1  0  0  0
 36 38  1  0  0  0
  3 39  1  0  0  0
  4 40  1  0  0  0
  7 41  1  0  0  0
  8 42  1  0  0  0
  8 43  1  0  0  0
  8 44  1  0  0  0
  9 45  1  0  0  0
  9 46  1  0  0  0
 10 47  1  0  0  0
 10 48  1  0  0  0
 11 49  1  0  0  0
 12 50  1  0  0  0
 14 51  1  0  0  0
 15 52  1  0  0  0
 15 53  1  0  0  0
 16 54  1  0  0  0
 16 55  1  0  0  0
 18 56  1  0  0  0
 19 57  1  0  0  0
 19 58  1  0  0  0
 20 59  1  0  0  0
 21 60  1  0  0  0
 21 61  1  0  0  0
 21 62  1  0  0  0
 22 63  1  0  0  0
 22 64  1  0  0  0
 26 65  1  0  0  0
 26 66  1  0  0  0
 26 67  1  0  0  0
 27 68  1  0  0  0
 28 69  1  0  0  0
 32 70  1  0  0  0
 32 71  1  0  0  0
 33 72  1  0  0  0
 33 73  1  0  0  0
 34 74  1  0  0  0
 34 75  1  0  0  0
 37 76  1  0  0  0
 37 77  1  0  0  0
 37 78  1  0  0  0
M  END
$$$$
