1ceb_ligand
  -I-interpret- 

 27 27  0  0  0  0  0  0  0  0999 V2000
   21.9090   -3.5670   40.8230 C   0  0  0  0  0
   22.0520   -2.2980   40.0920 C   0  0  0  0  0
   20.7430   -1.6000   39.9020 C   0  0  0  0  0
   19.8410   -1.6570   41.0620 C   0  0  0  0  0
   19.7300   -2.9920   41.7890 C   0  0  0  0  0
   21.0410   -3.6860   42.0220 C   0  0  0  0  0
   18.3710   -1.0160   40.8590 C   0  0  0  0  0
   23.0010   -4.6150   40.7470 C   0  0  0  0  0
   18.1280   -0.5020   42.1640 N   0  3  0  0  0
   24.2000   -4.4640   40.9570 O   0  0  0  0  0
   22.5780   -5.7630   40.3660 O   0  0  0  0  0
   21.2052   -3.8408   40.0370 H   0  0  0  0  0
   22.4622   -2.5202   39.1069 H   0  0  0  0  0
   22.7017   -1.6444   40.6741 H   0  0  0  0  0
   20.2331   -2.1011   39.0792 H   0  0  0  0  0
   20.9674   -0.5479   39.7265 H   0  0  0  0  0
   20.3977   -0.9920   41.7223 H   0  0  0  0  0
   19.1293   -3.6486   41.1597 H   0  0  0  0  0
   19.2997   -2.7863   42.7691 H   0  0  0  0  0
   21.5426   -3.2221   42.8713 H   0  0  0  0  0
   20.8539   -4.7410   42.2219 H   0  0  0  0  0
   17.6197   -1.7260   40.5132 H   0  0  0  0  0
   18.3171   -0.2674   40.0686 H   0  0  0  0  0
   17.2108   -0.0564   42.1872 H   0  0  0  0  0
   18.1533   -1.2661   42.8392 H   0  0  0  0  0
   18.8464    0.1835   42.3974 H   0  0  0  0  0
   21.6266   -5.7275   40.2429 H   0  0  0  0  0
  1  8  1  0  0  0
  1  6  1  0  0  0
  1  2  1  0  0  0
  2  3  1  0  0  0
  3  4  1  0  0  0
  4  7  1  0  0  0
  4  5  1  0  0  0
  5  6  1  0  0  0
  7  9  1  0  0  0
  8 11  1  0  0  0
  8 10  2  0  0  0
  1 12  1  0  0  0
  2 13  1  0  0  0
  2 14  1  0  0  0
  3 15  1  0  0  0
  3 16  1  0  0  0
  4 17  1  0  0  0
  5 18  1  0  0  0
  5 19  1  0  0  0
  6 20  1  0  0  0
  6 21  1  0  0  0
  7 22  1  0  0  0
  7 23  1  0  0  0
  9 24  1  0  0  0
  9 25  1  0  0  0
  9 26  1  0  0  0
 11 27  1  0  0  0
M  END
$$$$
