### 
### Created by X-TOOL on Mon Sep 10 21:12:48 2018
### 

@<TRIPOS>MOLECULE
1hiy_ligand
   41    43     1     0     0
SMALL
GAST_HUCK


@<TRIPOS>ATOM
      1 PB         66.5580   29.0320    0.2740 P.3       1 3AN         0.2069
      2 O1B        67.2840   29.8220    1.2780 O.co2     1 3AN        -0.5891
      3 O2B        67.3810   27.9470   -0.3620 O.co2     1 3AN        -0.5891
      4 O3B        65.1940   28.5920    0.6330 O.co2     1 3AN        -0.5891
      5 PA         67.1250   30.3870   -2.2140 P.3       1 3AN         0.3276
      6 O1A        67.5610   29.0140   -2.6840 O.co2     1 3AN        -0.5556
      7 O2A        66.3490   31.2950   -3.0720 O.co2     1 3AN        -0.5556
      8 O3A        66.3150   30.1500   -0.8530 O.3       1 3AN        -0.1548
      9 O5         68.3810   31.2170   -1.7210 O.3       1 3AN        -0.2434
     10 C5         68.2160   32.5920   -1.5790 C.3       1 3AN         0.1160
     11 C4         68.5720   33.2060   -0.1860 C.3       1 3AN         0.1352
     12 O4         68.9770   34.5750   -0.3230 O.3       1 3AN        -0.3332
     13 C3         67.3240   33.2810    0.6740 C.3       1 3AN         0.0369
     14 N3         67.4270   32.4320    1.6810 N.4       1 3AN         0.2246
     15 C2         67.1610   34.7530    1.0500 C.3       1 3AN         0.1551
     16 O2         67.9140   35.2830    2.1980 O.3       1 3AN        -0.3808
     17 C1         67.8070   35.4070   -0.1610 C.3       1 3AN         0.2040
     18 N9         66.9920   35.7140   -1.4080 N.pl3     1 3AN        -0.1918
     19 C8         66.3430   34.8820   -2.3230 C.2       1 3AN         0.1123
     20 N7         65.5100   35.4630   -3.1230 N.2       1 3AN        -0.2958
     21 C5         65.5930   36.8020   -2.7420 C.ar      1 3AN         0.1045
     22 C6         64.9120   37.9340   -3.2190 C.ar      1 3AN         0.1298
     23 N6         63.7790   37.7310   -3.8620 N.pl3     1 3AN        -0.3152
     24 N1         65.2020   39.1680   -2.6830 N.ar      1 3AN        -0.2698
     25 C2         66.1000   39.2190   -1.6620 C.ar      1 3AN         0.0533
     26 N3         66.7920   38.1950   -1.0750 N.ar      1 3AN        -0.2714
     27 C4         66.4810   36.9830   -1.7000 C.ar      1 3AN         0.1613
     28 H1         67.1603   32.8232   -1.7842 H         1 3AN         0.0649
     29 H2         68.8517   33.0826   -2.3308 H         1 3AN         0.0649
     30 H3         69.3569   32.6070    0.2990 H         1 3AN         0.0682
     31 H4         66.4495   32.9809    0.0780 H         1 3AN         0.0904
     32 H5         66.5969   32.4839    2.2505 H         1 3AN         0.1999
     33 H6         68.2325   32.6686    2.2389 H         1 3AN         0.1999
     34 H7         67.5301   31.4958    1.3220 H         1 3AN         0.1999
     35 H8         66.0956   35.0015    1.1645 H         1 3AN         0.0708
     36 H9         67.6691   34.8072    2.9829 H         1 3AN         0.2103
     37 H10        68.1544   36.3977    0.1672 H         1 3AN         0.0997
     38 H11        66.5274   33.8094   -2.3603 H         1 3AN         0.1349
     39 H12        63.2450   38.5313   -4.2297 H         1 3AN         0.1820
     40 H13        63.4279   36.7721   -3.9966 H         1 3AN         0.1820
     41 H14        66.2937   40.2062   -1.2584 H         1 3AN         0.0996
@<TRIPOS>BOND
     1    1    2 ar 
     2    1    3 ar 
     3    1    4 ar 
     4    8    1 1  
     5    5    6 ar 
     6    5    7 ar 
     7    5    8 1  
     8    5    9 1  
     9    9   10 1  
    10   10   11 1  
    11   11   12 1  
    12   11   13 1  
    13   12   17 1  
    14   13   14 1  
    15   13   15 1  
    16   15   16 1  
    17   15   17 1  
    18   17   18 1  
    19   18   19 1  
    20   18   27 1  
    21   19   20 2  
    22   20   21 1  
    23   21   22 ar 
    24   21   27 ar 
    25   22   23 1  
    26   22   24 ar 
    27   24   25 ar 
    28   25   26 ar 
    29   26   27 ar 
    30   10   28 1  
    31   10   29 1  
    32   11   30 1  
    33   13   31 1  
    34   14   32 1  
    35   14   33 1  
    36   14   34 1  
    37   15   35 1  
    38   16   36 1  
    39   17   37 1  
    40   19   38 1  
    41   23   39 1  
    42   23   40 1  
    43   25   41 1  
@<TRIPOS>SUBSTRUCTURE
     1 3AN         1

