1hiy_ligand
  -I-interpret- 

 44 46  0  0  0  0  0  0  0  0999 V2000
   66.5580   29.0320    0.2740 P   0  0  0  0  0
   67.2840   29.8220    1.2780 O   0  0  0  0  0
   67.3810   27.9470   -0.3620 O   0  0  0  0  0
   65.1940   28.5920    0.6330 O   0  0  0  0  0
   67.1250   30.3870   -2.2140 P   0  0  0  0  0
   67.5610   29.0140   -2.6840 O   0  0  0  0  0
   66.3490   31.2950   -3.0720 O   0  0  0  0  0
   66.3150   30.1500   -0.8530 O   0  0  0  0  0
   68.3810   31.2170   -1.7210 O   0  0  0  0  0
   68.2160   32.5920   -1.5790 C   0  0  0  0  0
   68.5720   33.2060   -0.1860 C   0  0  0  0  0
   68.9770   34.5750   -0.3230 O   0  0  0  0  0
   67.3240   33.2810    0.6740 C   0  0  0  0  0
   67.4270   32.4320    1.6810 N   0  3  0  0  0
   67.1610   34.7530    1.0500 C   0  0  0  0  0
   67.9140   35.2830    2.1980 O   0  0  0  0  0
   67.8070   35.4070   -0.1610 C   0  0  0  0  0
   66.9920   35.7140   -1.4080 N   0  0  0  0  0
   66.3430   34.8820   -2.3230 C   0  0  0  0  0
   65.5100   35.4630   -3.1230 N   0  0  0  0  0
   65.5930   36.8020   -2.7420 C   0  0  0  0  0
   64.9120   37.9340   -3.2190 C   0  0  0  0  0
   63.7790   37.7310   -3.8620 N   0  0  0  0  0
   65.2020   39.1680   -2.6830 N   0  0  0  0  0
   66.1000   39.2190   -1.6620 C   0  0  0  0  0
   66.7920   38.1950   -1.0750 N   0  0  0  0  0
   66.4810   36.9830   -1.7000 C   0  0  0  0  0
   66.8452   27.4749   -1.0036 H   0  0  0  0  0
   64.8201   28.0878   -0.0933 H   0  0  0  0  0
   68.0533   28.5788   -1.9841 H   0  0  0  0  0
   67.1529   32.7821   -1.7264 H   0  0  0  0  0
   68.9017   33.0504   -2.2916 H   0  0  0  0  0
   69.3560   32.5818    0.2427 H   0  0  0  0  0
   66.4113   32.9690    0.1663 H   0  0  0  0  0
   66.5865   32.4854    2.2565 H   0  0  0  0  0
   67.5313   31.4851    1.3165 H   0  0  0  0  0
   68.2424   32.6724    2.2448 H   0  0  0  0  0
   66.1174   34.9261    1.3126 H   0  0  0  0  0
   67.7103   36.2144    2.3104 H   0  0  0  0  0
   68.0053   36.4639    0.0170 H   0  0  0  0  0
   66.5275   33.8084   -2.3603 H   0  0  0  0  0
   63.4313   36.7814   -3.9953 H   0  0  0  0  0
   63.2502   38.5236   -4.2262 H   0  0  0  0  0
   66.2948   40.2117   -1.2561 H   0  0  0  0  0
  1  2  2  0  0  0
  1  3  1  0  0  0
  1  4  1  0  0  0
  8  1  1  0  0  0
  5  6  1  0  0  0
  5  7  2  0  0  0
  5  8  1  0  0  0
  5  9  1  0  0  0
  9 10  1  0  0  0
 10 11  1  0  0  0
 11 12  1  0  0  0
 11 13  1  0  0  0
 12 17  1  0  0  0
 13 14  1  0  0  0
 13 15  1  0  0  0
 15 16  1  0  0  0
 15 17  1  0  0  0
 17 18  1  0  0  0
 18 19  4  0  0  0
 18 27  4  0  0  0
 19 20  4  0  0  0
 20 21  4  0  0  0
 21 22  4  0  0  0
 21 27  4  0  0  0
 22 23  1  0  0  0
 22 24  4  0  0  0
 24 25  4  0  0  0
 25 26  4  0  0  0
 26 27  4  0  0  0
  3 28  1  0  0  0
  4 29  1  0  0  0
  6 30  1  0  0  0
 10 31  1  0  0  0
 10 32  1  0  0  0
 11 33  1  0  0  0
 13 34  1  0  0  0
 14 35  1  0  0  0
 14 36  1  0  0  0
 14 37  1  0  0  0
 15 38  1  0  0  0
 16 39  1  0  0  0
 17 40  1  0  0  0
 19 41  1  0  0  0
 23 42  1  0  0  0
 23 43  1  0  0  0
 25 44  1  0  0  0
M  END
$$$$
