### 
### Created by X-TOOL on Mon Sep 10 21:12:45 2018
### 

@<TRIPOS>MOLECULE
1thr_ligand
  201   202     1     0     0
SMALL
GAST_HUCK


@<TRIPOS>ATOM
      1 N           9.1840  -11.5090   -1.5760 N.4       1 SER         0.2396
      2 CA          8.4670  -12.7190   -1.0980 C.3       1 SER         0.0885
      3 C           7.5990  -12.2540    0.0740 C.2       1 SER         0.2291
      4 O           8.1800  -11.4740    0.8570 O.2       1 SER        -0.3906
      5 CB          9.4320  -13.7750   -0.5830 C.3       1 SER         0.1041
      6 OG          9.6340  -13.6160    0.8170 O.3       1 SER        -0.3870
      7 N           6.3450  -12.6680    0.1170 N.am      1 ASP        -0.2594
      8 CA          5.5670  -12.1200    1.2830 C.3       1 ASP         0.1424
      9 C           5.5280  -10.6270    0.9490 C.2       1 ASP         0.2057
     10 O           4.5360   -9.9920    0.6010 O.2       1 ASP        -0.3943
     11 CB          6.3850  -12.6120    2.4680 C.3       1 ASP         0.0406
     12 CG          5.8560  -12.4080    3.8810 C.2       1 ASP         0.0393
     13 OD1         4.6070  -12.3110    3.9720 O.co2     1 ASP        -0.5688
     14 OD2         6.6470  -12.3680    4.8720 O.co2     1 ASP        -0.5688
     15 N           6.6930  -10.0380    0.9560 N.am      1 PHE        -0.2618
     16 CA          7.0230   -8.6510    0.7100 C.3       1 PHE         0.1404
     17 C           6.7020   -8.2140   -0.7130 C.2       1 PHE         0.2060
     18 O           7.1170   -8.8960   -1.6610 O.2       1 PHE        -0.3942
     19 CB          8.4930   -8.3770    1.0600 C.3       1 PHE         0.0214
     20 CG          8.6070   -8.3390    2.5520 C.ar      1 PHE        -0.0386
     21 CD1         8.4140   -7.1360    3.2340 C.ar      1 PHE        -0.0601
     22 CD2         8.8590   -9.5290    3.2420 C.ar      1 PHE        -0.0601
     23 CE1         8.4850   -7.1170    4.6360 C.ar      1 PHE        -0.0686
     24 CE2         8.9100   -9.5190    4.6260 C.ar      1 PHE        -0.0686
     25 CZ          8.7150   -8.3230    5.3170 C.ar      1 PHE        -0.0687
     26 N           6.0390   -7.0780   -0.8020 N.am      1 GLU        -0.2635
     27 CA          5.6790   -6.4430   -2.0790 C.3       1 GLU         0.1325
     28 C           6.9230   -5.6920   -2.5630 C.2       1 GLU         0.2040
     29 O           7.5950   -5.0210   -1.7480 O.2       1 GLU        -0.3944
     30 CB          4.5140   -5.4790   -1.9210 C.3       1 GLU        -0.0008
     31 CG          4.2860   -4.5170   -3.0670 C.3       1 GLU         0.0044
     32 CD          3.2090   -3.4820   -2.9580 C.2       1 GLU         0.0350
     33 OE1         2.4010   -3.3470   -2.0560 O.co2     1 GLU        -0.5690
     34 OE2         3.1960   -2.6930   -3.9340 O.co2     1 GLU        -0.5690
     35 N           7.2650   -5.7950   -3.8370 N.am      1 GLU        -0.2636
     36 CA          8.4460   -5.1580   -4.4190 C.3       1 GLU         0.1325
     37 C           8.3700   -3.6300   -4.5440 C.2       1 GLU         0.2041
     38 O           7.3360   -2.9630   -4.7490 O.2       1 GLU        -0.3944
     39 CB          8.7830   -5.6960   -5.8090 C.3       1 GLU        -0.0008
     40 CG          8.0500   -5.1140   -7.0120 C.3       1 GLU         0.0044
     41 CD          8.6060   -5.4900   -8.3540 C.2       1 GLU         0.0350
     42 OE1         9.6700   -6.0630   -8.5160 O.co2     1 GLU        -0.5690
     43 OE2         7.8530   -5.1470   -9.2910 O.co2     1 GLU        -0.5690
     44 N           9.5820   -3.0860   -4.4270 N.am      1 PHE        -0.2619
     45 CA          9.7980   -1.6400   -4.5510 C.3       1 PHE         0.1404
     46 C          11.0320   -1.5930   -5.4750 C.2       1 PHE         0.2060
     47 O          11.7300   -2.6200   -5.5430 O.2       1 PHE        -0.3942
     48 CB         10.0120   -0.8280   -3.2910 C.3       1 PHE         0.0214
     49 CG         11.1120   -1.3890   -2.4260 C.ar      1 PHE        -0.0386
     50 CD1        10.7810   -2.3570   -1.4680 C.ar      1 PHE        -0.0601
     51 CD2        12.4310   -0.9600   -2.5920 C.ar      1 PHE        -0.0601
     52 CE1        11.7710   -2.8820   -0.6530 C.ar      1 PHE        -0.0686
     53 CE2        13.4400   -1.5230   -1.7880 C.ar      1 PHE        -0.0686
     54 CZ         13.1000   -2.4970   -0.8170 C.ar      1 PHE        -0.0687
     55 N          11.1320   -0.4340   -6.0990 N.am      1 SER        -0.2614
     56 CA         12.2210   -0.1810   -7.0480 C.3       1 SER         0.1539
     57 C          13.3700    0.5040   -6.3200 C.2       1 SER         0.2062
     58 O          13.3080    1.1310   -5.2470 O.2       1 SER        -0.3943
     59 CB         11.7430    0.5400   -8.3050 C.3       1 SER         0.0843
     60 OG         12.7760    1.3270   -8.8860 O.3       1 SER        -0.3903
     61 N          14.4890    0.3380   -6.9920 N.am      1 LEU        -0.2636
     62 CA         15.7500    0.9160   -6.4810 C.3       1 LEU         0.1312
     63 C          15.6570    2.4140   -6.7410 C.2       1 LEU         0.2040
     64 O          16.6200    3.1570   -6.4890 O.2       1 LEU        -0.3944
     65 CB         16.8990    0.1030   -7.0780 C.3       1 LEU        -0.0101
     66 CG         18.2250    0.7930   -7.3720 C.3       1 LEU        -0.0425
     67 CD1        18.9260    1.2090   -6.0860 C.3       1 LEU        -0.0625
     68 CD2        19.1030   -0.1720   -8.1650 C.3       1 LEU        -0.0625
     69 N          14.4960    2.7870   -7.2600 N.am      1 ASP        -0.2622
     70 CA         14.1970    4.1950   -7.5640 C.3       1 ASP         0.1423
     71 C          13.3340    4.7730   -6.4410 C.2       1 ASP         0.2057
     72 O          12.9980    5.9610   -6.4460 O.2       1 ASP        -0.3943
     73 CB         13.5920    4.4040   -8.9440 C.3       1 ASP         0.0406
     74 CG         14.5410    5.0550   -9.9320 C.2       1 ASP         0.0393
     75 OD1        15.7530    5.0540   -9.6260 O.co2     1 ASP        -0.5688
     76 OD2        14.1110    5.5590  -10.9810 O.co2     1 ASP        -0.5688
     77 N          12.9760    3.9360   -5.5080 N.am      1 ASP        -0.2621
     78 CA         12.1610    4.2420   -4.3260 C.3       1 ASP         0.1423
     79 C          13.0530    4.5110   -3.1080 C.2       1 ASP         0.2056
     80 O          12.5890    4.9930   -2.0590 O.2       1 ASP        -0.3943
     81 CB         11.2830    2.9910   -4.1110 C.3       1 ASP         0.0406
     82 CG         10.4030    2.8870   -5.3630 C.2       1 ASP         0.0393
     83 OD1        10.7190    3.8390   -6.1300 O.co2     1 ASP        -0.5688
     84 OD2         9.5070    2.0570   -5.5940 O.co2     1 ASP        -0.5688
     85 N          14.3060    4.1440   -3.3280 N.am      1 ILE        -0.2634
     86 CA         15.4120    4.1820   -2.3630 C.3       1 ILE         0.1335
     87 C          15.9450    5.5760   -2.1060 C.2       1 ILE         0.2042
     88 O          15.3740    6.5030   -2.7050 O.2       1 ILE        -0.3944
     89 CB         16.4320    3.0540   -2.7330 C.3       1 ILE        -0.0037
     90 CG1        15.6380    1.7090   -2.7060 C.3       1 ILE        -0.0491
     91 CG2        17.6930    2.9950   -1.8660 C.3       1 ILE        -0.0582
     92 CD1        16.5240    0.4470   -2.9540 C.3       1 ILE        -0.0648
     93 N          16.9000    5.7010   -1.2100 N.am      1 GLU        -0.2636
     94 CA         17.5330    6.9130   -0.6940 C.3       1 GLU         0.1324
     95 C          16.5110    8.0400   -0.5370 C.2       1 GLU         0.2035
     96 O          16.5230    8.9770   -1.3670 O.2       1 GLU        -0.3944
     97 CB         18.6990    7.4710   -1.4930 C.3       1 GLU        -0.0008
     98 CG         19.2550    8.8110   -0.9920 C.3       1 GLU         0.0044
     99 CD         20.7560    8.9060   -0.9660 C.2       1 GLU         0.0350
    100 OE1        21.3340    8.7800   -2.0780 O.co2     1 GLU        -0.5690
    101 OE2        21.4130    9.0900    0.0400 O.co2     1 GLU        -0.5690
    102 N          15.6760    7.9490    0.4720 N.am      1 GLN        -0.2693
    103 CA         14.6040    8.9060    0.7780 C.3       1 GLN         0.0964
    104 C          13.3070    8.5190    0.0380 C.2       1 GLN         0.0602
    105 O          12.4290    9.4110   -0.1540 O.co2     1 GLN        -0.5666
    106 CB         14.8990   10.3840    0.4830 C.3       1 GLN        -0.0010
    107 CG         14.5890   11.2680    1.7180 C.3       1 GLN         0.0407
    108 CD         15.3120   10.5560    2.8600 C.2       1 GLN         0.1737
    109 OE1        14.6240    9.7180    3.4880 O.2       1 GLN        -0.3973
    110 NE2        16.6200   10.7730    3.0240 N.am      1 GLN        -0.3009
    111 OXT        13.1500    7.3360   -0.3390 O.co2     1 GLN        -0.5666
    112 H1          9.7763  -11.7547   -2.3537 H         1 SER         0.2016
    113 H2          9.7483  -11.1357   -0.8288 H         1 SER         0.2016
    114 H3          8.5140  -10.8156   -1.8699 H         1 SER         0.2016
    115 H4          7.8485  -13.1398   -1.9045 H         1 SER         0.1122
    116 H5         10.3957  -13.6711   -1.1031 H         1 SER         0.0640
    117 H6          9.0155  -14.7741   -0.7787 H         1 SER         0.0640
    118 H7          9.9954  -12.7542    0.9878 H         1 SER         0.2099
    119 H8          5.9499  -13.2873   -0.5615 H         1 ASP         0.1886
    120 H9          4.5418  -12.5128    1.3519 H         1 ASP         0.0819
    121 H10         7.3604  -12.1061    2.4155 H         1 ASP         0.0478
    122 H11         6.5256  -13.6945    2.3323 H         1 ASP         0.0478
    123 H12         7.4707  -10.6321    1.1613 H         1 PHE         0.1885
    124 H13         6.4022   -8.0425    1.3840 H         1 PHE         0.0823
    125 H14         8.8052   -7.4113    0.6359 H         1 PHE         0.0474
    126 H15         9.1297   -9.1779    0.6561 H         1 PHE         0.0474
    127 H16         8.2109   -6.2236    2.6851 H         1 PHE         0.0557
    128 H17         9.0134  -10.4533    2.6971 H         1 PHE         0.0557
    129 H18         8.3645   -6.1886    5.1825 H         1 PHE         0.0599
    130 H19         9.1007  -10.4369    5.1701 H         1 PHE         0.0599
    131 H20         8.7416   -8.3248    6.4007 H         1 PHE         0.0559
    132 H21         5.7657   -6.6229    0.0455 H         1 GLU         0.1883
    133 H22         5.4025   -7.2175   -2.8095 H         1 GLU         0.0801
    134 H23         4.6908   -4.8840   -1.0129 H         1 GLU         0.0330
    135 H24         3.5985   -6.0758   -1.7959 H         1 GLU         0.0330
    136 H25         4.0566   -5.1251   -3.9544 H         1 GLU         0.0433
    137 H26         5.2320   -3.9787   -3.2259 H         1 GLU         0.0433
    138 H27         6.6811   -6.3410   -4.4379 H         1 GLU         0.1883
    139 H28         9.2866   -5.3940   -3.7499 H         1 GLU         0.0801
    140 H29         8.5797   -6.7770   -5.7968 H         1 GLU         0.0330
    141 H30         9.8578   -5.5268   -5.9708 H         1 GLU         0.0330
    142 H31         8.0797   -4.0176   -6.9285 H         1 GLU         0.0433
    143 H32         7.0056   -5.4568   -6.9703 H         1 GLU         0.0433
    144 H33        10.3662   -3.6807   -4.2497 H         1 PHE         0.1885
    145 H34         8.9292   -1.2007   -5.0630 H         1 PHE         0.0823
    146 H35         9.0766   -0.8206   -2.7123 H         1 PHE         0.0474
    147 H36        10.2759    0.2015   -3.5747 H         1 PHE         0.0474
    148 H37         9.7556   -2.6933   -1.3652 H         1 PHE         0.0557
    149 H38        12.6742   -0.2040   -3.3298 H         1 PHE         0.0557
    150 H39        11.5096   -3.5977    0.1180 H         1 PHE         0.0599
    151 H40        14.4714   -1.2130   -1.9111 H         1 PHE         0.0599
    152 H41        13.8735   -2.9425   -0.2019 H         1 PHE         0.0559
    153 H42        10.4559    0.2813   -5.9221 H         1 SER         0.1884
    154 H43        12.5957   -1.1600   -7.3815 H         1 SER         0.0823
    155 H44        10.9008    1.1964   -8.0408 H         1 SER         0.0606
    156 H45        11.4089   -0.2077   -9.0394 H         1 SER         0.0606
    157 H46        12.4435    1.7597   -9.6636 H         1 SER         0.2097
    158 H47        14.4864   -0.1789   -7.8480 H         1 LEU         0.1883
    159 H48        15.8017    0.7822   -5.3904 H         1 LEU         0.0800
    160 H49        16.5367   -0.3148   -8.0289 H         1 LEU         0.0315
    161 H50        17.1121   -0.7159   -6.3752 H         1 LEU         0.0315
    162 H51        18.0360    1.6920   -7.9770 H         1 LEU         0.0298
    163 H52        19.8778    1.7031   -6.3306 H         1 LEU         0.0232
    164 H53        19.1226    0.3185   -5.4710 H         1 LEU         0.0232
    165 H54        18.2840    1.9060   -5.5274 H         1 LEU         0.0232
    166 H55        18.5844   -0.4636   -9.0902 H         1 LEU         0.0232
    167 H56        19.3033   -1.0679   -7.5590 H         1 LEU         0.0232
    168 H57        20.0538    0.3202   -8.4172 H         1 LEU         0.0232
    169 H58        13.8033    2.0914   -7.4504 H         1 ASP         0.1884
    170 H59        15.1525    4.7399   -7.5571 H         1 ASP         0.0819
    171 H60        12.7042    5.0452   -8.8408 H         1 ASP         0.0478
    172 H61        13.2922    3.4242   -9.3441 H         1 ASP         0.0478
    173 H62        13.2877    2.9910   -5.6074 H         1 ASP         0.1884
    174 H63        11.5298    5.1232   -4.5131 H         1 ASP         0.0819
    175 H64        10.6600    3.1086   -3.2121 H         1 ASP         0.0478
    176 H65        11.9110    2.0939   -4.0071 H         1 ASP         0.0478
    177 H66        14.5209    3.8067   -4.2445 H         1 ILE         0.1883
    178 H67        14.9837    3.8757   -1.3972 H         1 ILE         0.0803
    179 H68        16.7691    3.2355   -3.7642 H         1 ILE         0.0345
    180 H69        14.8640    1.7478   -3.4867 H         1 ILE         0.0267
    181 H70        15.1600    1.6085   -1.7204 H         1 ILE         0.0267
    182 H71        18.2176    3.9606   -1.9157 H         1 ILE         0.0235
    183 H72        18.3553    2.1984   -2.2358 H         1 ILE         0.0235
    184 H73        17.4119    2.7837   -0.8237 H         1 ILE         0.0235
    185 H74        15.8952   -0.4549   -2.9197 H         1 ILE         0.0230
    186 H75        17.2984    0.3838   -2.1753 H         1 ILE         0.0230
    187 H76        17.0024    0.5231   -3.9416 H         1 ILE         0.0230
    188 H77        17.2422    4.8431   -0.8267 H         1 GLU         0.1883
    189 H78        17.9195    6.6584    0.3039 H         1 GLU         0.0801
    190 H79        18.3643    7.6089   -2.5317 H         1 GLU         0.0330
    191 H80        19.5142    6.7330   -1.4653 H         1 GLU         0.0330
    192 H81        18.8850    8.9730    0.0312 H         1 GLU         0.0433
    193 H82        18.8741    9.6060   -1.6499 H         1 GLU         0.0433
    194 H83        15.7780    7.1636    1.0826 H         1 GLN         0.1875
    195 H84        14.4167    8.8276    1.8591 H         1 GLN         0.0727
    196 H85        14.2759   10.7139   -0.3613 H         1 GLN         0.0330
    197 H86        15.9613   10.4935    0.2195 H         1 GLN         0.0330
    198 H87        13.5063   11.3136    1.9066 H         1 GLN         0.0504
    199 H88        14.9804   12.2867    1.5800 H         1 GLN         0.0504
    200 H89        17.1134   10.3174    3.7650 H         1 GLN         0.1814
    201 H90        17.1057   11.3910    2.4058 H         1 GLN         0.1814
@<TRIPOS>BOND
     1    1    2 1  
     2    2    3 1  
     3    2    5 1  
     4    3    4 2  
     5    3    7 am 
     6    5    6 1  
     7    7    8 1  
     8    8    9 1  
     9    8   11 1  
    10    9   10 2  
    11    9   15 am 
    12   11   12 1  
    13   12   13 ar 
    14   12   14 ar 
    15   15   16 1  
    16   16   17 1  
    17   16   19 1  
    18   17   18 2  
    19   17   26 am 
    20   19   20 1  
    21   20   21 ar 
    22   20   22 ar 
    23   21   23 ar 
    24   22   24 ar 
    25   23   25 ar 
    26   24   25 ar 
    27   26   27 1  
    28   27   28 1  
    29   27   30 1  
    30   28   29 2  
    31   28   35 am 
    32   30   31 1  
    33   31   32 1  
    34   32   33 ar 
    35   32   34 ar 
    36   35   36 1  
    37   36   37 1  
    38   36   39 1  
    39   37   38 2  
    40   37   44 am 
    41   39   40 1  
    42   40   41 1  
    43   41   42 ar 
    44   41   43 ar 
    45   44   45 1  
    46   45   46 1  
    47   45   48 1  
    48   46   47 2  
    49   46   55 am 
    50   48   49 1  
    51   49   50 ar 
    52   49   51 ar 
    53   50   52 ar 
    54   51   53 ar 
    55   52   54 ar 
    56   53   54 ar 
    57   55   56 1  
    58   56   57 1  
    59   56   59 1  
    60   57   58 2  
    61   57   61 am 
    62   59   60 1  
    63   61   62 1  
    64   62   63 1  
    65   62   65 1  
    66   63   64 2  
    67   63   69 am 
    68   65   66 1  
    69   66   67 1  
    70   66   68 1  
    71   69   70 1  
    72   70   71 1  
    73   70   73 1  
    74   71   72 2  
    75   71   77 am 
    76   73   74 1  
    77   74   75 ar 
    78   74   76 ar 
    79   77   78 1  
    80   78   79 1  
    81   78   81 1  
    82   79   80 2  
    83   79   85 am 
    84   81   82 1  
    85   82   83 ar 
    86   82   84 ar 
    87   85   86 1  
    88   86   87 1  
    89   86   89 1  
    90   87   88 2  
    91   87   93 am 
    92   89   90 1  
    93   89   91 1  
    94   90   92 1  
    95   93   94 1  
    96   94   95 1  
    97   94   97 1  
    98   95   96 2  
    99   95  102 am 
   100   97   98 1  
   101   98   99 1  
   102   99  100 ar 
   103   99  101 ar 
   104  102  103 1  
   105  103  104 1  
   106  103  106 1  
   107  104  105 ar 
   108  104  111 ar 
   109  106  107 1  
   110  107  108 1  
   111  108  109 2  
   112  108  110 am 
   113    1  112 1  
   114    1  113 1  
   115    1  114 1  
   116    2  115 1  
   117    5  116 1  
   118    5  117 1  
   119    6  118 1  
   120    7  119 1  
   121    8  120 1  
   122   11  121 1  
   123   11  122 1  
   124   15  123 1  
   125   16  124 1  
   126   19  125 1  
   127   19  126 1  
   128   21  127 1  
   129   22  128 1  
   130   23  129 1  
   131   24  130 1  
   132   25  131 1  
   133   26  132 1  
   134   27  133 1  
   135   30  134 1  
   136   30  135 1  
   137   31  136 1  
   138   31  137 1  
   139   35  138 1  
   140   36  139 1  
   141   39  140 1  
   142   39  141 1  
   143   40  142 1  
   144   40  143 1  
   145   44  144 1  
   146   45  145 1  
   147   48  146 1  
   148   48  147 1  
   149   50  148 1  
   150   51  149 1  
   151   52  150 1  
   152   53  151 1  
   153   54  152 1  
   154   55  153 1  
   155   56  154 1  
   156   59  155 1  
   157   59  156 1  
   158   60  157 1  
   159   61  158 1  
   160   62  159 1  
   161   65  160 1  
   162   65  161 1  
   163   66  162 1  
   164   67  163 1  
   165   67  164 1  
   166   67  165 1  
   167   68  166 1  
   168   68  167 1  
   169   68  168 1  
   170   69  169 1  
   171   70  170 1  
   172   73  171 1  
   173   73  172 1  
   174   77  173 1  
   175   78  174 1  
   176   81  175 1  
   177   81  176 1  
   178   85  177 1  
   179   86  178 1  
   180   89  179 1  
   181   90  180 1  
   182   90  181 1  
   183   91  182 1  
   184   91  183 1  
   185   91  184 1  
   186   92  185 1  
   187   92  186 1  
   188   92  187 1  
   189   93  188 1  
   190   94  189 1  
   191   97  190 1  
   192   97  191 1  
   193   98  192 1  
   194   98  193 1  
   195  102  194 1  
   196  103  195 1  
   197  106  196 1  
   198  106  197 1  
   199  107  198 1  
   200  107  199 1  
   201  110  200 1  
   202  110  201 1  
@<TRIPOS>SUBSTRUCTURE
     1 SER         1

