1thr_ligand
  -I-interpret- 

208209  0  0  0  0  0  0  0  0999 V2000
    9.1840  -11.5090   -1.5760 N   0  3  0  0  0
    8.4670  -12.7190   -1.0980 C   0  0  0  0  0
    7.5990  -12.2540    0.0740 C   0  0  0  0  0
    8.1800  -11.4740    0.8570 O   0  0  0  0  0
    9.4320  -13.7750   -0.5830 C   0  0  0  0  0
    9.6340  -13.6160    0.8170 O   0  0  0  0  0
    6.3450  -12.6680    0.1170 N   0  0  0  0  0
    5.5670  -12.1200    1.2830 C   0  0  0  0  0
    5.5280  -10.6270    0.9490 C   0  0  0  0  0
    4.5360   -9.9920    0.6010 O   0  0  0  0  0
    6.3850  -12.6120    2.4680 C   0  0  0  0  0
    5.8560  -12.4080    3.8810 C   0  0  0  0  0
    4.6070  -12.3110    3.9720 O   0  0  0  0  0
    6.6470  -12.3680    4.8720 O   0  0  0  0  0
    6.6930  -10.0380    0.9560 N   0  0  0  0  0
    7.0230   -8.6510    0.7100 C   0  0  0  0  0
    6.7020   -8.2140   -0.7130 C   0  0  0  0  0
    7.1170   -8.8960   -1.6610 O   0  0  0  0  0
    8.4930   -8.3770    1.0600 C   0  0  0  0  0
    8.6070   -8.3390    2.5520 C   0  0  0  0  0
    8.4140   -7.1360    3.2340 C   0  0  0  0  0
    8.8590   -9.5290    3.2420 C   0  0  0  0  0
    8.4850   -7.1170    4.6360 C   0  0  0  0  0
    8.9100   -9.5190    4.6260 C   0  0  0  0  0
    8.7150   -8.3230    5.3170 C   0  0  0  0  0
    6.0390   -7.0780   -0.8020 N   0  0  0  0  0
    5.6790   -6.4430   -2.0790 C   0  0  0  0  0
    6.9230   -5.6920   -2.5630 C   0  0  0  0  0
    7.5950   -5.0210   -1.7480 O   0  0  0  0  0
    4.5140   -5.4790   -1.9210 C   0  0  0  0  0
    4.2860   -4.5170   -3.0670 C   0  0  0  0  0
    3.2090   -3.4820   -2.9580 C   0  0  0  0  0
    2.4010   -3.3470   -2.0560 O   0  0  0  0  0
    3.1960   -2.6930   -3.9340 O   0  0  0  0  0
    7.2650   -5.7950   -3.8370 N   0  0  0  0  0
    8.4460   -5.1580   -4.4190 C   0  0  0  0  0
    8.3700   -3.6300   -4.5440 C   0  0  0  0  0
    7.3360   -2.9630   -4.7490 O   0  0  0  0  0
    8.7830   -5.6960   -5.8090 C   0  0  0  0  0
    8.0500   -5.1140   -7.0120 C   0  0  0  0  0
    8.6060   -5.4900   -8.3540 C   0  0  0  0  0
    9.6700   -6.0630   -8.5160 O   0  0  0  0  0
    7.8530   -5.1470   -9.2910 O   0  0  0  0  0
    9.5820   -3.0860   -4.4270 N   0  0  0  0  0
    9.7980   -1.6400   -4.5510 C   0  0  0  0  0
   11.0320   -1.5930   -5.4750 C   0  0  0  0  0
   11.7300   -2.6200   -5.5430 O   0  0  0  0  0
   10.0120   -0.8280   -3.2910 C   0  0  0  0  0
   11.1120   -1.3890   -2.4260 C   0  0  0  0  0
   10.7810   -2.3570   -1.4680 C   0  0  0  0  0
   12.4310   -0.9600   -2.5920 C   0  0  0  0  0
   11.7710   -2.8820   -0.6530 C   0  0  0  0  0
   13.4400   -1.5230   -1.7880 C   0  0  0  0  0
   13.1000   -2.4970   -0.8170 C   0  0  0  0  0
   11.1320   -0.4340   -6.0990 N   0  0  0  0  0
   12.2210   -0.1810   -7.0480 C   0  0  0  0  0
   13.3700    0.5040   -6.3200 C   0  0  0  0  0
   13.3080    1.1310   -5.2470 O   0  0  0  0  0
   11.7430    0.5400   -8.3050 C   0  0  0  0  0
   12.7760    1.3270   -8.8860 O   0  0  0  0  0
   14.4890    0.3380   -6.9920 N   0  0  0  0  0
   15.7500    0.9160   -6.4810 C   0  0  0  0  0
   15.6570    2.4140   -6.7410 C   0  0  0  0  0
   16.6200    3.1570   -6.4890 O   0  0  0  0  0
   16.8990    0.1030   -7.0780 C   0  0  0  0  0
   18.2250    0.7930   -7.3720 C   0  0  0  0  0
   18.9260    1.2090   -6.0860 C   0  0  0  0  0
   19.1030   -0.1720   -8.1650 C   0  0  0  0  0
   14.4960    2.7870   -7.2600 N   0  0  0  0  0
   14.1970    4.1950   -7.5640 C   0  0  0  0  0
   13.3340    4.7730   -6.4410 C   0  0  0  0  0
   12.9980    5.9610   -6.4460 O   0  0  0  0  0
   13.5920    4.4040   -8.9440 C   0  0  0  0  0
   14.5410    5.0550   -9.9320 C   0  0  0  0  0
   15.7530    5.0540   -9.6260 O   0  0  0  0  0
   14.1110    5.5590  -10.9810 O   0  0  0  0  0
   12.9760    3.9360   -5.5080 N   0  0  0  0  0
   12.1610    4.2420   -4.3260 C   0  0  0  0  0
   13.0530    4.5110   -3.1080 C   0  0  0  0  0
   12.5890    4.9930   -2.0590 O   0  0  0  0  0
   11.2830    2.9910   -4.1110 C   0  0  0  0  0
   10.4030    2.8870   -5.3630 C   0  0  0  0  0
   10.7190    3.8390   -6.1300 O   0  0  0  0  0
    9.5070    2.0570   -5.5940 O   0  0  0  0  0
   14.3060    4.1440   -3.3280 N   0  0  0  0  0
   15.4120    4.1820   -2.3630 C   0  0  0  0  0
   15.9450    5.5760   -2.1060 C   0  0  0  0  0
   15.3740    6.5030   -2.7050 O   0  0  0  0  0
   16.4320    3.0540   -2.7330 C   0  0  0  0  0
   15.6380    1.7090   -2.7060 C   0  0  0  0  0
   17.6930    2.9950   -1.8660 C   0  0  0  0  0
   16.5240    0.4470   -2.9540 C   0  0  0  0  0
   16.9000    5.7010   -1.2100 N   0  0  0  0  0
   17.5330    6.9130   -0.6940 C   0  0  0  0  0
   16.5110    8.0400   -0.5370 C   0  0  0  0  0
   16.5230    8.9770   -1.3670 O   0  0  0  0  0
   18.6990    7.4710   -1.4930 C   0  0  0  0  0
   19.2550    8.8110   -0.9920 C   0  0  0  0  0
   20.7560    8.9060   -0.9660 C   0  0  0  0  0
   21.3340    8.7800   -2.0780 O   0  0  0  0  0
   21.4130    9.0900    0.0400 O   0  0  0  0  0
   15.6760    7.9490    0.4720 N   0  0  0  0  0
   14.6040    8.9060    0.7780 C   0  0  0  0  0
   13.3070    8.5190    0.0380 C   0  0  0  0  0
   12.4290    9.4110   -0.1540 O   0  0  0  0  0
   14.8990   10.3840    0.4830 C   0  0  0  0  0
   14.5890   11.2680    1.7180 C   0  0  0  0  0
   15.3120   10.5560    2.8600 C   0  0  0  0  0
   14.6240    9.7180    3.4880 O   0  0  0  0  0
   16.6200   10.7730    3.0240 N   0  0  0  0  0
   13.1500    7.3360   -0.3390 O   0  0  0  0  0
    8.5067  -10.8248   -1.9129 H   0  0  0  0  0
    9.7210  -11.1076   -0.8073 H   0  0  0  0  0
    9.8149  -11.7667   -2.3349 H   0  0  0  0  0
    7.8937  -13.1604   -1.9132 H   0  0  0  0  0
   10.3875  -13.6654   -1.0959 H   0  0  0  0  0
    9.0136  -14.7634   -0.7730 H   0  0  0  0  0
   10.2444  -14.2879    1.1294 H   0  0  0  0  0
    5.9420  -13.2997   -0.5751 H   0  0  0  0  0
    4.5378  -12.4082    1.4972 H   0  0  0  0  0
    7.3050  -12.0286    2.4302 H   0  0  0  0  0
    6.4297  -13.6939    2.3430 H   0  0  0  0  0
    7.5509  -12.4618    4.5625 H   0  0  0  0  0
    7.4863  -10.6440    1.1654 H   0  0  0  0  0
    6.3913   -8.0498    1.3639 H   0  0  0  0  0
    8.8141   -7.4278    0.6311 H   0  0  0  0  0
    9.1322   -9.1594    0.6509 H   0  0  0  0  0
    8.2097   -6.2185    2.6821 H   0  0  0  0  0
    9.0143  -10.4584    2.6941 H   0  0  0  0  0
    8.3638   -6.1835    5.1855 H   0  0  0  0  0
    9.1018  -10.4420    5.1731 H   0  0  0  0  0
    8.7417   -8.3248    6.4067 H   0  0  0  0  0
    5.7603   -6.6138    0.0624 H   0  0  0  0  0
    5.3613   -7.2000   -2.7960 H   0  0  0  0  0
    4.7409   -4.8663   -1.0485 H   0  0  0  0  0
    3.6161   -6.0934   -1.8549 H   0  0  0  0  0
    3.9797   -5.1482   -3.9012 H   0  0  0  0  0
    5.2120   -3.9463   -3.1375 H   0  0  0  0  0
    3.8910   -2.9362   -4.5499 H   0  0  0  0  0
    6.6695   -6.3519   -4.4499 H   0  0  0  0  0
    9.2216   -5.4113   -3.6962 H   0  0  0  0  0
    8.4987   -6.7480   -5.7839 H   0  0  0  0  0
    9.8319   -5.4440   -5.9653 H   0  0  0  0  0
    8.1375   -4.0304   -6.9333 H   0  0  0  0  0
    7.0344   -5.5083   -6.9762 H   0  0  0  0  0
    7.0749   -4.7137   -8.9325 H   0  0  0  0  0
   10.3818   -3.6926   -4.2461 H   0  0  0  0  0
    8.8890   -1.1607   -4.9144 H   0  0  0  0  0
    9.0866   -0.8483   -2.7154 H   0  0  0  0  0
   10.2961    0.1824   -3.5850 H   0  0  0  0  0
    9.7499   -2.6951   -1.3646 H   0  0  0  0  0
   12.6755   -0.1998   -3.3339 H   0  0  0  0  0
   11.5081   -3.6016    0.1223 H   0  0  0  0  0
   14.4771   -1.2113   -1.9118 H   0  0  0  0  0
   13.8777   -2.9450   -0.1985 H   0  0  0  0  0
   10.4424    0.2956   -5.9186 H   0  0  0  0  0
   12.6019   -1.1286   -7.4289 H   0  0  0  0  0
   10.9214    1.2013   -8.0298 H   0  0  0  0  0
   11.4317   -0.2092   -9.0329 H   0  0  0  0  0
   12.4400    1.7643   -9.6718 H   0  0  0  0  0
   14.4864   -0.1893   -7.8651 H   0  0  0  0  0
   15.9419    0.8444   -5.4104 H   0  0  0  0  0
   16.5330   -0.2236   -8.0514 H   0  0  0  0  0
   17.1354   -0.6437   -6.3199 H   0  0  0  0  0
   18.0409    1.6986   -7.9501 H   0  0  0  0  0
   18.2889    1.8995   -5.5334 H   0  0  0  0  0
   19.1202    0.3258   -5.4775 H   0  0  0  0  0
   19.8690    1.6984   -6.3297 H   0  0  0  0  0
   19.2729   -1.0737   -7.5767 H   0  0  0  0  0
   18.6027   -0.4338   -9.0973 H   0  0  0  0  0
   20.0580    0.3050   -8.3851 H   0  0  0  0  0
   13.7894    2.0775   -7.4543 H   0  0  0  0  0
   15.1382    4.7432   -7.6057 H   0  0  0  0  0
   12.7356    5.0682   -8.8278 H   0  0  0  0  0
   13.3329    3.4217   -9.3390 H   0  0  0  0  0
   15.8678    4.6161   -8.7795 H   0  0  0  0  0
   13.2939    2.9721   -5.6094 H   0  0  0  0  0
   11.5570    5.1390   -4.4625 H   0  0  0  0  0
   10.6813    3.0764   -3.2062 H   0  0  0  0  0
   11.8900    2.0960   -3.9743 H   0  0  0  0  0
   11.4362    4.3411   -5.7362 H   0  0  0  0  0
   14.5252    3.7999   -4.2628 H   0  0  0  0  0
   15.0645    3.9407   -1.3585 H   0  0  0  0  0
   16.8378    3.2696   -3.7214 H   0  0  0  0  0
   14.9013    1.7510   -3.5082 H   0  0  0  0  0
   15.2023    1.6093   -1.7118 H   0  0  0  0  0
   18.2333    3.9381   -1.9482 H   0  0  0  0  0
   17.4104    2.8261   -0.8269 H   0  0  0  0  0
   18.3296    2.1790   -2.2080 H   0  0  0  0  0
   16.9974    0.5237   -3.9328 H   0  0  0  0  0
   17.2909    0.3856   -2.1818 H   0  0  0  0  0
   15.8999   -0.4460   -2.9198 H   0  0  0  0  0
   17.2490    4.8259   -0.8190 H   0  0  0  0  0
   17.9428    6.5760    0.2582 H   0  0  0  0  0
   18.3304    7.6442   -2.5040 H   0  0  0  0  0
   19.5091    6.7464   -1.4109 H   0  0  0  0  0
   18.9142    8.9285    0.0367 H   0  0  0  0  0
   18.9030    9.5763   -1.6837 H   0  0  0  0  0
   20.6776    8.6421   -2.7648 H   0  0  0  0  0
   15.7801    7.1479    1.0948 H   0  0  0  0  0
   14.5044    8.8320    1.8609 H   0  0  0  0  0
   12.7379   10.2453    0.2066 H   0  0  0  0  0
   14.2701   10.7079   -0.3463 H   0  0  0  0  0
   15.9552   10.4875    0.2345 H   0  0  0  0  0
   13.5191   11.3688    1.9005 H   0  0  0  0  0
   14.9250   12.2969    1.5891 H   0  0  0  0  0
   17.1448   10.2310    3.7105 H   0  0  0  0  0
   17.0939   11.4807    2.4627 H   0  0  0  0  0
  1  2  1  0  0  0
  2  3  1  0  0  0
  2  5  1  0  0  0
  3  4  2  0  0  0
  3  7  1  0  0  0
  5  6  1  0  0  0
  7  8  1  0  0  0
  8  9  1  0  0  0
  8 11  1  0  0  0
  9 10  2  0  0  0
  9 15  1  0  0  0
 11 12  1  0  0  0
 12 13  2  0  0  0
 12 14  1  0  0  0
 15 16  1  0  0  0
 16 17  1  0  0  0
 16 19  1  0  0  0
 17 18  2  0  0  0
 17 26  1  0  0  0
 19 20  1  0  0  0
 20 21  4  0  0  0
 20 22  4  0  0  0
 21 23  4  0  0  0
 22 24  4  0  0  0
 23 25  4  0  0  0
 24 25  4  0  0  0
 26 27  1  0  0  0
 27 28  1  0  0  0
 27 30  1  0  0  0
 28 29  2  0  0  0
 28 35  1  0  0  0
 30 31  1  0  0  0
 31 32  1  0  0  0
 32 33  2  0  0  0
 32 34  1  0  0  0
 35 36  1  0  0  0
 36 37  1  0  0  0
 36 39  1  0  0  0
 37 38  2  0  0  0
 37 44  1  0  0  0
 39 40  1  0  0  0
 40 41  1  0  0  0
 41 42  2  0  0  0
 41 43  1  0  0  0
 44 45  1  0  0  0
 45 46  1  0  0  0
 45 48  1  0  0  0
 46 47  2  0  0  0
 46 55  1  0  0  0
 48 49  1  0  0  0
 49 50  4  0  0  0
 49 51  4  0  0  0
 50 52  4  0  0  0
 51 53  4  0  0  0
 52 54  4  0  0  0
 53 54  4  0  0  0
 55 56  1  0  0  0
 56 57  1  0  0  0
 56 59  1  0  0  0
 57 58  2  0  0  0
 57 61  1  0  0  0
 59 60  1  0  0  0
 61 62  1  0  0  0
 62 63  1  0  0  0
 62 65  1  0  0  0
 63 64  2  0  0  0
 63 69  1  0  0  0
 65 66  1  0  0  0
 66 67  1  0  0  0
 66 68  1  0  0  0
 69 70  1  0  0  0
 70 71  1  0  0  0
 70 73  1  0  0  0
 71 72  2  0  0  0
 71 77  1  0  0  0
 73 74  1  0  0  0
 74 75  1  0  0  0
 74 76  2  0  0  0
 77 78  1  0  0  0
 78 79  1  0  0  0
 78 81  1  0  0  0
 79 80  2  0  0  0
 79 85  1  0  0  0
 81 82  1  0  0  0
 82 83  1  0  0  0
 82 84  2  0  0  0
 85 86  1  0  0  0
 86 87  1  0  0  0
 86 89  1  0  0  0
 87 88  2  0  0  0
 87 93  1  0  0  0
 89 90  1  0  0  0
 89 91  1  0  0  0
 90 92  1  0  0  0
 93 94  1  0  0  0
 94 95  1  0  0  0
 94 97  1  0  0  0
 95 96  2  0  0  0
 95102  1  0  0  0
 97 98  1  0  0  0
 98 99  1  0  0  0
 99100  1  0  0  0
 99101  2  0  0  0
102103  1  0  0  0
103104  1  0  0  0
103106  1  0  0  0
104105  1  0  0  0
104111  2  0  0  0
106107  1  0  0  0
107108  1  0  0  0
108109  2  0  0  0
108110  1  0  0  0
  1112  1  0  0  0
  1113  1  0  0  0
  1114  1  0  0  0
  2115  1  0  0  0
  5116  1  0  0  0
  5117  1  0  0  0
  6118  1  0  0  0
  7119  1  0  0  0
  8120  1  0  0  0
 11121  1  0  0  0
 11122  1  0  0  0
 14123  1  0  0  0
 15124  1  0  0  0
 16125  1  0  0  0
 19126  1  0  0  0
 19127  1  0  0  0
 21128  1  0  0  0
 22129  1  0  0  0
 23130  1  0  0  0
 24131  1  0  0  0
 25132  1  0  0  0
 26133  1  0  0  0
 27134  1  0  0  0
 30135  1  0  0  0
 30136  1  0  0  0
 31137  1  0  0  0
 31138  1  0  0  0
 34139  1  0  0  0
 35140  1  0  0  0
 36141  1  0  0  0
 39142  1  0  0  0
 39143  1  0  0  0
 40144  1  0  0  0
 40145  1  0  0  0
 43146  1  0  0  0
 44147  1  0  0  0
 45148  1  0  0  0
 48149  1  0  0  0
 48150  1  0  0  0
 50151  1  0  0  0
 51152  1  0  0  0
 52153  1  0  0  0
 53154  1  0  0  0
 54155  1  0  0  0
 55156  1  0  0  0
 56157  1  0  0  0
 59158  1  0  0  0
 59159  1  0  0  0
 60160  1  0  0  0
 61161  1  0  0  0
 62162  1  0  0  0
 65163  1  0  0  0
 65164  1  0  0  0
 66165  1  0  0  0
 67166  1  0  0  0
 67167  1  0  0  0
 67168  1  0  0  0
 68169  1  0  0  0
 68170  1  0  0  0
 68171  1  0  0  0
 69172  1  0  0  0
 70173  1  0  0  0
 73174  1  0  0  0
 73175  1  0  0  0
 75176  1  0  0  0
 77177  1  0  0  0
 78178  1  0  0  0
 81179  1  0  0  0
 81180  1  0  0  0
 83181  1  0  0  0
 85182  1  0  0  0
 86183  1  0  0  0
 89184  1  0  0  0
 90185  1  0  0  0
 90186  1  0  0  0
 91187  1  0  0  0
 91188  1  0  0  0
 91189  1  0  0  0
 92190  1  0  0  0
 92191  1  0  0  0
 92192  1  0  0  0
 93193  1  0  0  0
 94194  1  0  0  0
 97195  1  0  0  0
 97196  1  0  0  0
 98197  1  0  0  0
 98198  1  0  0  0
100199  1  0  0  0
102200  1  0  0  0
103201  1  0  0  0
105202  1  0  0  0
106203  1  0  0  0
106204  1  0  0  0
107205  1  0  0  0
107206  1  0  0  0
110207  1  0  0  0
110208  1  0  0  0
M  END
$$$$
