5qar_ligand
  -I-interpret- 

 38 39  0  0  0  0  0  0  0  0999 V2000
  100.6300  245.0630    7.5250 N   0  0  0  0  0
   99.9720  243.8330    9.4870 C   0  0  0  0  0
   94.2310  253.2380    4.8620 O   0  0  0  0  0
  100.4350  245.1080    8.8440 C   0  0  0  0  0
   94.1670  248.2600    5.3650 C   0  0  0  0  0
   93.1640  249.2120    5.3020 C   0  0  0  0  0
   93.4810  250.5540    5.1850 C   0  0  0  0  0
   94.8100  250.9550    5.1310 C   0  0  0  0  0
   95.1690  252.4130    4.9790 C   0  0  0  0  0
   95.8130  249.9920    5.1990 C   0  0  0  0  0
   97.8160  247.9120    5.9580 C   0  0  0  0  0
  101.1510  246.1860    6.7540 C   0  0  0  0  0
  100.1630  247.3440    6.6740 C   0  0  0  0  0
   98.8700  247.0050    5.9670 C   0  0  0  0  0
   98.6910  245.7810    5.3410 C   0  0  0  0  0
   97.4880  245.4680    4.7360 C   0  0  0  0  0
   96.4480  246.3790    4.7400 C   0  0  0  0  0
   96.5980  247.6210    5.3460 C   0  0  0  0  0
   95.5090  248.6350    5.3130 C   0  0  0  0  0
   96.3840  252.7200    4.9790 O   0  0  0  0  0
  100.6260  246.1320    9.4960 O   0  0  0  0  0
  100.4033  244.1999    7.0310 H   0  0  0  0  0
  100.7027  243.5168   10.2315 H   0  0  0  0  0
   99.0088  243.9997    9.9693 H   0  0  0  0  0
   99.8695  243.0599    8.7255 H   0  0  0  0  0
   93.3918  252.7727    4.8899 H   0  0  0  0  0
   93.9049  247.2059    5.4562 H   0  0  0  0  0
   92.1196  248.9031    5.3448 H   0  0  0  0  0
   92.6861  251.2981    5.1351 H   0  0  0  0  0
   96.8567  250.3043    5.1625 H   0  0  0  0  0
   97.9461  248.8790    6.4439 H   0  0  0  0  0
  101.3450  245.8375    5.7396 H   0  0  0  0  0
  102.0528  246.5457    7.2494 H   0  0  0  0  0
  100.6435  248.1389    6.1036 H   0  0  0  0  0
   99.9080  247.6215    7.6968 H   0  0  0  0  0
   99.5068  245.0583    5.3257 H   0  0  0  0  0
   97.3589  244.4990    4.2538 H   0  0  0  0  0
   95.5021  246.1210    4.2638 H   0  0  0  0  0
  1  4  1  0  0  0
 12  1  1  0  0  0
  4  2  1  0  0  0
  9  3  1  0  0  0
  4 21  2  0  0  0
  5  6  4  0  0  0
 19  5  4  0  0  0
  6  7  4  0  0  0
  8  7  4  0  0  0
  8  9  1  0  0  0
 10  8  4  0  0  0
  9 20  2  0  0  0
 19 10  4  0  0  0
 11 14  4  0  0  0
 18 11  4  0  0  0
 13 12  1  0  0  0
 14 13  1  0  0  0
 14 15  4  0  0  0
 16 15  4  0  0  0
 17 16  4  0  0  0
 18 17  4  0  0  0
 18 19  1  0  0  0
  1 22  1  0  0  0
  2 23  1  0  0  0
  2 24  1  0  0  0
  2 25  1  0  0  0
  3 26  1  0  0  0
  5 27  1  0  0  0
  6 28  1  0  0  0
  7 29  1  0  0  0
 10 30  1  0  0  0
 11 31  1  0  0  0
 12 32  1  0  0  0
 12 33  1  0  0  0
 13 34  1  0  0  0
 13 35  1  0  0  0
 15 36  1  0  0  0
 16 37  1  0  0  0
 17 38  1  0  0  0
M  END
$$$$
