4mm6_ligand
  -I-interpret- 

 41 43  0  0  0  0  0  0  0  0999 V2000
  179.0310  -12.1730  183.0910 C   0  0  0  0  0
  177.9270  -11.2860  183.4050 N   0  3  0  0  0
  176.7320  -11.2960  182.5720 C   0  0  0  0  0
  176.6940  -12.5740  181.7420 C   0  0  0  0  0
  176.0650  -12.3230  180.3920 C   0  0  0  0  0
  175.7120  -13.6440  179.8340 C   0  0  0  0  0
  176.0280  -14.1370  178.2160 S   0  0  0  0  0
  175.3360  -15.7160  178.4410 C   0  0  0  0  0
  174.8920  -15.7860  179.7680 C   0  0  0  0  0
  175.0950  -14.6420  180.5620 C   0  0  0  0  0
  174.8880  -11.5790  180.6630 O   0  0  0  0  0
  174.2890  -10.8780  179.6630 C   0  0  0  0  0
  172.8070  -10.7990  179.5820 C   0  0  0  0  0
  171.9700  -11.4250  180.4950 C   0  0  0  0  0
  170.5930  -11.2900  180.3190 C   0  0  0  0  0
  170.0340  -10.5520  179.2710 C   0  0  0  0  0
  170.8390   -9.9140  178.3350 C   0  0  0  0  0
  172.2170  -10.0180  178.4650 C   0  0  0  0  0
  173.0670   -9.4020  177.5560 C   0  0  0  0  0
  174.4550   -9.5060  177.6780 C   0  0  0  0  0
  175.0630  -10.2270  178.7090 C   0  0  0  0  0
  178.6874  -13.2067  183.1302 H   0  0  0  0  0
  179.4016  -11.9497  182.0906 H   0  0  0  0  0
  179.8307  -12.0268  183.8171 H   0  0  0  0  0
  178.3111  -10.3479  183.2919 H   0  0  0  0  0
  177.6034  -11.5934  184.3221 H   0  0  0  0  0
  176.7490  -10.4333  181.9060 H   0  0  0  0  0
  175.8480  -11.2523  183.2082 H   0  0  0  0  0
  176.0996  -13.3182  182.2722 H   0  0  0  0  0
  177.7151  -12.9248  181.5926 H   0  0  0  0  0
  176.7106  -11.7923  179.6922 H   0  0  0  0  0
  175.2616  -16.5033  177.6909 H   0  0  0  0  0
  174.4136  -16.6812  180.1653 H   0  0  0  0  0
  174.8047  -14.5555  181.6091 H   0  0  0  0  0
  172.3762  -12.0043  181.3241 H   0  0  0  0  0
  169.9251  -11.7799  181.0275 H   0  0  0  0  0
  168.9499  -10.4760  179.1870 H   0  0  0  0  0
  170.3980   -9.3445  177.5169 H   0  0  0  0  0
  172.6438   -8.8269  176.7324 H   0  0  0  0  0
  175.0861   -9.0069  176.9427 H   0  0  0  0  0
  176.1503  -10.2794  178.7656 H   0  0  0  0  0
  1  2  1  0  0  0
  2  3  1  0  0  0
  3  4  1  0  0  0
  4  5  1  0  0  0
  5  6  1  0  0  0
  5 11  1  0  0  0
  6  7  4  0  0  0
  6 10  4  0  0  0
  7  8  4  0  0  0
  8  9  4  0  0  0
  9 10  4  0  0  0
 11 12  1  0  0  0
 12 13  4  0  0  0
 12 21  4  0  0  0
 13 14  4  0  0  0
 13 18  4  0  0  0
 14 15  4  0  0  0
 15 16  4  0  0  0
 16 17  4  0  0  0
 17 18  4  0  0  0
 18 19  4  0  0  0
 19 20  4  0  0  0
 20 21  4  0  0  0
  1 22  1  0  0  0
  1 23  1  0  0  0
  1 24  1  0  0  0
  2 25  1  0  0  0
  2 26  1  0  0  0
  3 27  1  0  0  0
  3 28  1  0  0  0
  4 29  1  0  0  0
  4 30  1  0  0  0
  5 31  1  0  0  0
  8 32  1  0  0  0
  9 33  1  0  0  0
 10 34  1  0  0  0
 14 35  1  0  0  0
 15 36  1  0  0  0
 16 37  1  0  0  0
 17 38  1  0  0  0
 19 39  1  0  0  0
 20 40  1  0  0  0
 21 41  1  0  0  0
M  END
$$$$
