3cjf_ligand
  -I-interpret- 

 51 54  0  0  0  0  0  0  0  0999 V2000
   15.3790   18.8480   17.9850 N   0  0  0  0  0
   17.9870   15.1760   16.3690 N   0  0  0  0  0
   16.3980   19.3970   18.7970 C   0  0  0  0  0
   15.5220   17.6990   17.1860 C   0  0  0  0  0
   14.5950   16.2570   15.7250 C   0  0  0  0  0
   15.7470   15.5170   15.6700 C   0  0  0  0  0
   16.8080   15.9380   16.4310 C   0  0  0  0  0
   19.7310   16.5750   17.3190 C   0  0  0  0  0
   22.2400   15.5990   19.9220 C   0  0  0  0  0
   20.5610   14.5650   18.8780 C   0  0  0  0  0
   16.4030   20.7610   19.0040 C   0  0  0  0  0
   18.3630   20.6010   20.3790 C   0  0  0  0  0
   18.7170   21.7510   22.2890 C   0  0  0  0  0
   18.6690   17.6660   21.7500 C   0  0  0  0  0
   19.3400   18.4480   20.7550 O   0  0  0  0  0
   18.3530   19.2350   20.1760 C   0  0  0  0  0
   17.3840   18.6370   19.3980 C   0  0  0  0  0
   14.4490   17.3490   16.4680 N   0  0  0  0  0
   19.0810   15.3590   17.2550 C   0  0  0  0  0
   20.7980   16.8180   18.1540 C   0  0  0  0  0
   21.2180   15.7770   18.9510 C   0  0  0  0  0
   23.2350   16.5840   20.3940 C   0  0  0  0  0
   22.2240   14.3570   20.4270 N   0  0  0  0  0
   21.2020   13.7550   19.7780 N   0  0  0  0  0
   19.4950   14.3120   18.0490 C   0  0  0  0  0
   16.6880   17.0350   17.1810 N   0  0  0  0  0
   17.3710   21.3620   19.7860 C   0  0  0  0  0
   17.3500   22.7350   19.9620 O   0  0  0  0  0
   16.0040   23.1410   20.1480 C   0  0  0  0  0
   19.3740   21.1590   21.1630 O   0  0  0  0  0
   14.4744   19.3193   17.9780 H   0  0  0  0  0
   18.0605   14.4550   15.6512 H   0  0  0  0  0
   13.7472   15.9302   15.1229 H   0  0  0  0  0
   15.8177   14.6269   15.0448 H   0  0  0  0  0
   19.3820   17.3832   16.6763 H   0  0  0  0  0
   15.6299   21.3754   18.5426 H   0  0  0  0  0
   18.0202   22.5138   21.9417 H   0  0  0  0  0
   18.1723   20.9815   22.8361 H   0  0  0  0  0
   19.4601   22.2067   22.9434 H   0  0  0  0  0
   18.2073   18.3294   22.4813 H   0  0  0  0  0
   17.9006   17.0567   21.2742 H   0  0  0  0  0
   19.3903   17.0189   22.2490 H   0  0  0  0  0
   17.3957   17.5564   19.2558 H   0  0  0  0  0
   21.2884   17.7910   18.1829 H   0  0  0  0  0
   23.8429   16.9163   19.5525 H   0  0  0  0  0
   22.7190   17.4389   20.8311 H   0  0  0  0  0
   23.8746   16.1209   21.1454 H   0  0  0  0  0
   19.0049   13.3388   18.0211 H   0  0  0  0  0
   15.4188   22.8677   19.2700 H   0  0  0  0  0
   15.5945   22.6450   21.0280 H   0  0  0  0  0
   15.9678   24.2213   20.2884 H   0  0  0  0  0
  1  3  1  0  0  0
  4  1  1  0  0  0
  2  7  1  0  0  0
 19  2  1  0  0  0
  3 11  4  0  0  0
  3 17  4  0  0  0
  4 18  4  0  0  0
 26  4  4  0  0  0
  6  5  4  0  0  0
  5 18  4  0  0  0
  7  6  4  0  0  0
  7 26  4  0  0  0
 19  8  4  0  0  0
  8 20  4  0  0  0
 21  9  4  0  0  0
  9 22  1  0  0  0
  9 23  4  0  0  0
 10 21  4  0  0  0
 10 24  4  0  0  0
 25 10  4  0  0  0
 11 27  4  0  0  0
 16 12  4  0  0  0
 27 12  4  0  0  0
 12 30  1  0  0  0
 30 13  1  0  0  0
 15 14  1  0  0  0
 16 15  1  0  0  0
 17 16  4  0  0  0
 19 25  4  0  0  0
 20 21  4  0  0  0
 23 24  4  0  0  0
 27 28  1  0  0  0
 28 29  1  0  0  0
  1 31  1  0  0  0
  2 32  1  0  0  0
  5 33  1  0  0  0
  6 34  1  0  0  0
  8 35  1  0  0  0
 11 36  1  0  0  0
 13 37  1  0  0  0
 13 38  1  0  0  0
 13 39  1  0  0  0
 14 40  1  0  0  0
 14 41  1  0  0  0
 14 42  1  0  0  0
 17 43  1  0  0  0
 20 44  1  0  0  0
 22 45  1  0  0  0
 22 46  1  0  0  0
 22 47  1  0  0  0
 25 48  1  0  0  0
 29 49  1  0  0  0
 29 50  1  0  0  0
 29 51  1  0  0  0
M  END
$$$$
