### 
### Created by X-TOOL on Mon Sep 10 21:13:27 2018
### 

@<TRIPOS>MOLECULE
5hey_ligand
  140   140     1     0     0
SMALL
GAST_HUCK


@<TRIPOS>ATOM
      1 N          40.8660   43.2760   25.7900 N.4       1 LYS         0.2379
      2 CA         40.0100   42.5670   24.8340 C.3       1 LYS         0.0650
      3 C          38.6180   43.1710   24.9860 C.2       1 LYS         0.2268
      4 O          38.1540   43.3990   26.1060 O.2       1 LYS        -0.3907
      5 CB         39.9740   41.0560   25.0590 C.3       1 LYS         0.0080
      6 CG         39.3760   40.2910   23.8940 C.3       1 LYS        -0.0410
      7 CD         40.4400   39.9610   22.8660 C.3       1 LYS        -0.0123
      8 CE         40.9970   38.5690   23.0860 C.3       1 LYS        -0.0354
      9 NZ         40.0110   37.5300   22.6870 N.4       1 LYS         0.2185
     10 N          37.9610   43.4440   23.8620 N.am      1 ASN        -0.2589
     11 CA         36.7760   44.2980   23.8520 C.3       1 ASN         0.1477
     12 C          37.1870   45.6950   24.3020 C.2       1 ASN         0.2064
     13 O          36.3630   46.5120   24.7120 O.2       1 ASN        -0.3942
     14 CB         35.6780   43.7330   24.7480 C.3       1 ASN         0.0773
     15 CG         35.3800   42.2770   24.4470 C.2       1 ASN         0.1780
     16 OD1        35.2810   41.4490   25.3530 O.2       1 ASN        -0.3970
     17 ND2        35.2500   41.9550   23.1620 N.am      1 ASN        -0.3007
     18 N          38.4840   45.9510   24.2070 N.am      1 TYR        -0.2620
     19 CA         39.0610   47.2250   24.5810 C.3       1 TYR         0.1390
     20 C          38.8140   48.2510   23.4840 C.2       1 TYR         0.2057
     21 O          38.8600   47.9290   22.2950 O.2       1 TYR        -0.3942
     22 CB         40.5540   47.0450   24.8490 C.3       1 TYR         0.0163
     23 CG         41.4180   48.1660   24.3430 C.ar      1 TYR        -0.0493
     24 CD1        41.7980   48.2190   23.0140 C.ar      1 TYR        -0.0685
     25 CD2        41.8700   49.1570   25.2000 C.ar      1 TYR        -0.0685
     26 CE1        42.5740   49.2390   22.5400 C.ar      1 TYR        -0.0398
     27 CE2        42.6600   50.1860   24.7390 C.ar      1 TYR        -0.0398
     28 CZ         43.0100   50.2110   23.4010 C.ar      1 TYR         0.0805
     29 OH         43.7920   51.2070   22.9150 O.3       1 TYR        -0.3376
     30 N          38.5430   49.4860   23.8890 N.am      1 LYS        -0.2636
     31 CA         38.3150   50.5770   22.9490 C.3       1 LYS         0.1310
     32 C          38.9720   51.8220   23.4680 C.2       1 LYS         0.2039
     33 O          39.0100   52.0250   24.6790 O.2       1 LYS        -0.3944
     34 CB         36.8220   50.8320   22.7560 C.3       1 LYS        -0.0122
     35 CG         36.0310   49.5690   22.4940 C.3       1 LYS        -0.0440
     36 CD         34.5570   49.8600   22.3120 C.3       1 LYS        -0.0124
     37 CE         33.6840   48.7880   22.9730 C.3       1 LYS        -0.0354
     38 NZ         34.0190   47.3950   22.5560 N.4       1 LYS         0.2185
     39 N          39.4550   52.6560   22.5480 N.am      1 GLN        -0.2636
     40 CA         40.0780   53.9320   22.8800 C.3       1 GLN         0.1330
     41 C          39.5890   55.0110   21.9050 C.2       1 GLN         0.2041
     42 O          39.3940   54.7350   20.7190 O.2       1 GLN        -0.3944
     43 CB         41.6040   53.7900   22.8440 C.3       1 GLN         0.0045
     44 CG         42.3690   55.0170   23.2980 C.3       1 GLN         0.0412
     45 CD         43.6900   54.7030   24.0040 C.2       1 GLN         0.1737
     46 OE1        44.3580   55.6230   24.4780 O.2       1 GLN        -0.3973
     47 NE2        44.0710   53.4110   24.0780 N.am      1 GLN        -0.3009
     48 N          39.3420   56.2190   22.4150 N.am      1 THR        -0.2613
     49 CA         38.8140   57.3290   21.6260 C.3       1 THR         0.1565
     50 C          39.3610   58.6530   22.1240 C.2       1 THR         0.2065
     51 O          39.4560   58.8670   23.3240 O.2       1 THR        -0.3943
     52 CB         37.2600   57.4060   21.7040 C.3       1 THR         0.0924
     53 OG1        36.6900   56.1700   21.2610 O.3       1 THR        -0.3874
     54 CG2        36.7160   58.5470   20.8640 C.3       1 THR        -0.0346
     55 N          39.7000   59.5460   21.1980 N.am      1 SER        -0.2615
     56 CA         40.0750   60.9140   21.5390 C.3       1 SER         0.1539
     57 C          38.8420   61.7760   21.6920 C.2       1 SER         0.2056
     58 O          37.9370   61.7010   20.8530 O.2       1 SER        -0.3943
     59 CB         40.9700   61.5310   20.4620 C.3       1 SER         0.0843
     60 OG         42.0920   60.7110   20.2050 O.3       1 SER        -0.3903
     61 N          38.8220   62.6020   22.7420 N.am      1 VAL        -0.2692
     62 CA         37.7150   63.5210   22.9700 C.3       1 VAL         0.0967
     63 C          38.2550   64.9330   23.1760 C.2       1 VAL         0.0603
     64 O          37.4490   65.8710   23.2380 O.co2     1 VAL        -0.5666
     65 CB         36.8480   63.0830   24.1880 C.3       1 VAL        -0.0118
     66 CG1        36.1990   61.7490   23.9190 C.3       1 VAL        -0.0590
     67 CG2        37.6690   62.9870   25.4370 C.3       1 VAL        -0.0590
     68 OXT        39.4730   65.1630   23.2890 O.co2     1 VAL        -0.5666
     69 H1         41.8052   42.9146   25.7323 H         1 LYS         0.2015
     70 H2         40.5108   43.1408   26.7236 H         1 LYS         0.2015
     71 H3         40.8706   44.2600   25.5714 H         1 LYS         0.2015
     72 H4         40.3814   42.7515   23.8152 H         1 LYS         0.1098
     73 H5         39.3728   40.8508   25.9570 H         1 LYS         0.0346
     74 H6         41.0032   40.7019   25.2179 H         1 LYS         0.0346
     75 H7         38.5956   40.9054   23.4212 H         1 LYS         0.0270
     76 H8         38.9315   39.3562   24.2661 H         1 LYS         0.0270
     77 H9         41.2577   40.6923   22.9476 H         1 LYS         0.0317
     78 H10        39.9976   40.0162   21.8604 H         1 LYS         0.0317
     79 H11        41.2403   38.4434   24.1514 H         1 LYS         0.0813
     80 H12        41.9100   38.4479   22.4846 H         1 LYS         0.0813
     81 H13        40.4051   36.6154   22.8428 H         1 LYS         0.1994
     82 H14        39.7866   37.6372   21.7102 H         1 LYS         0.1994
     83 H15        39.1729   37.6330   23.2375 H         1 LYS         0.1994
     84 H16        38.2871   43.0541   23.0008 H         1 ASN         0.1886
     85 H17        36.3879   44.3549   22.8243 H         1 ASN         0.0826
     86 H18        34.7605   44.3203   24.5959 H         1 ASN         0.0551
     87 H19        35.9986   43.8187   25.7968 H         1 ASN         0.0551
     88 H20        35.0531   41.0100   22.9008 H         1 ASN         0.1814
     89 H21        35.3492   42.6581   22.4578 H         1 ASN         0.1814
     90 H22        39.0896   45.2338   23.8624 H         1 TYR         0.1885
     91 H23        38.5782   47.5778   25.5042 H         1 TYR         0.0821
     92 H24        40.8804   46.1136   24.3632 H         1 TYR         0.0453
     93 H25        40.7004   46.9624   25.9361 H         1 TYR         0.0453
     94 H26        41.4744   47.4373   22.3363 H         1 TYR         0.0530
     95 H27        41.5975   49.1214   26.2486 H         1 TYR         0.0530
     96 H28        42.8425   49.2786   21.4905 H         1 TYR         0.0525
     97 H29        43.0018   50.9632   25.4129 H         1 TYR         0.0525
     98 H30        43.9339   51.0718   21.9854 H         1 TYR         0.2458
     99 H31        38.4937   49.6739   24.8700 H         1 LYS         0.1883
    100 H32        38.7589   50.3104   21.9785 H         1 LYS         0.0800
    101 H33        36.6909   51.5105   21.9002 H         1 LYS         0.0312
    102 H34        36.4282   51.3088   23.6657 H         1 LYS         0.0312
    103 H35        36.1569   48.8860   23.3470 H         1 LYS         0.0269
    104 H36        36.4153   49.0904   21.5812 H         1 LYS         0.0269
    105 H37        34.3297   49.8919   21.2362 H         1 LYS         0.0317
    106 H38        34.3274   50.8360   22.7644 H         1 LYS         0.0317
    107 H39        32.6343   48.9854   22.7101 H         1 LYS         0.0813
    108 H40        33.8093   48.8629   24.0633 H         1 LYS         0.0813
    109 H41        33.4080   46.7469   23.0279 H         1 LYS         0.1994
    110 H42        34.9760   47.1924   22.7992 H         1 LYS         0.1994
    111 H43        33.8993   47.3046   21.5592 H         1 LYS         0.1994
    112 H44        39.3871   52.3948   21.5851 H         1 GLN         0.1883
    113 H45        39.7787   54.2198   23.8986 H         1 GLN         0.0801
    114 H46        41.9021   53.5647   21.8094 H         1 GLN         0.0337
    115 H47        41.8848   52.9509   23.4975 H         1 GLN         0.0337
    116 H48        41.7320   55.5839   23.9929 H         1 GLN         0.0504
    117 H49        42.5877   55.6345   22.4143 H         1 GLN         0.0504
    118 H50        44.9282   53.1677   24.5319 H         1 GLN         0.1814
    119 H51        43.4962   52.6966   23.6790 H         1 GLN         0.1814
    120 H52        39.5276   56.3720   23.3856 H         1 THR         0.1884
    121 H53        39.1143   57.1837   20.5778 H         1 THR         0.0826
    122 H54        36.9716   57.5753   22.7519 H         1 THR         0.0639
    123 H55        36.9982   55.4634   21.8163 H         1 THR         0.2101
    124 H56        35.6191   58.5701   20.9434 H         1 THR         0.0257
    125 H57        37.0045   58.3985   19.8130 H         1 THR         0.0257
    126 H58        37.1300   59.4993   21.2269 H         1 THR         0.0257
    127 H59        39.6977   59.2705   20.2367 H         1 SER         0.1884
    128 H60        40.6237   60.8988   22.4922 H         1 SER         0.0823
    129 H61        41.3163   62.5175   20.8038 H         1 SER         0.0606
    130 H62        40.3895   61.6471   19.5349 H         1 SER         0.0606
    131 H63        42.5987   60.6107   21.0022 H         1 SER         0.2097
    132 H64        39.5858   62.5890   23.3873 H         1 VAL         0.1875
    133 H65        37.0744   63.5191   22.0758 H         1 VAL         0.0729
    134 H66        36.0610   63.8359   24.3420 H         1 VAL         0.0336
    135 H67        35.5915   61.4550   24.7876 H         1 VAL         0.0234
    136 H68        36.9770   60.9917   23.7425 H         1 VAL         0.0234
    137 H69        35.5550   61.8270   23.0307 H         1 VAL         0.0234
    138 H70        38.1451   63.9580   25.6383 H         1 VAL         0.0234
    139 H71        38.4448   62.2180   25.3077 H         1 VAL         0.0234
    140 H72        37.0200   62.7146   26.2824 H         1 VAL         0.0234
@<TRIPOS>BOND
     1    1    2 1  
     2    2    3 1  
     3    2    5 1  
     4    3    4 2  
     5    3   10 am 
     6    5    6 1  
     7    6    7 1  
     8    7    8 1  
     9    8    9 1  
    10   10   11 1  
    11   11   12 1  
    12   11   14 1  
    13   12   13 2  
    14   12   18 am 
    15   14   15 1  
    16   15   16 2  
    17   15   17 am 
    18   18   19 1  
    19   19   20 1  
    20   19   22 1  
    21   20   21 2  
    22   20   30 am 
    23   22   23 1  
    24   23   24 ar 
    25   23   25 ar 
    26   24   26 ar 
    27   25   27 ar 
    28   26   28 ar 
    29   27   28 ar 
    30   28   29 1  
    31   30   31 1  
    32   31   32 1  
    33   31   34 1  
    34   32   33 2  
    35   32   39 am 
    36   34   35 1  
    37   35   36 1  
    38   36   37 1  
    39   37   38 1  
    40   39   40 1  
    41   40   41 1  
    42   40   43 1  
    43   41   42 2  
    44   41   48 am 
    45   43   44 1  
    46   44   45 1  
    47   45   46 2  
    48   45   47 am 
    49   48   49 1  
    50   49   50 1  
    51   49   52 1  
    52   50   51 2  
    53   50   55 am 
    54   52   53 1  
    55   52   54 1  
    56   55   56 1  
    57   56   57 1  
    58   56   59 1  
    59   57   58 2  
    60   57   61 am 
    61   59   60 1  
    62   61   62 1  
    63   62   63 1  
    64   62   65 1  
    65   63   64 ar 
    66   63   68 ar 
    67   65   66 1  
    68   65   67 1  
    69    1   69 1  
    70    1   70 1  
    71    1   71 1  
    72    2   72 1  
    73    5   73 1  
    74    5   74 1  
    75    6   75 1  
    76    6   76 1  
    77    7   77 1  
    78    7   78 1  
    79    8   79 1  
    80    8   80 1  
    81    9   81 1  
    82    9   82 1  
    83    9   83 1  
    84   10   84 1  
    85   11   85 1  
    86   14   86 1  
    87   14   87 1  
    88   17   88 1  
    89   17   89 1  
    90   18   90 1  
    91   19   91 1  
    92   22   92 1  
    93   22   93 1  
    94   24   94 1  
    95   25   95 1  
    96   26   96 1  
    97   27   97 1  
    98   29   98 1  
    99   30   99 1  
   100   31  100 1  
   101   34  101 1  
   102   34  102 1  
   103   35  103 1  
   104   35  104 1  
   105   36  105 1  
   106   36  106 1  
   107   37  107 1  
   108   37  108 1  
   109   38  109 1  
   110   38  110 1  
   111   38  111 1  
   112   39  112 1  
   113   40  113 1  
   114   43  114 1  
   115   43  115 1  
   116   44  116 1  
   117   44  117 1  
   118   47  118 1  
   119   47  119 1  
   120   48  120 1  
   121   49  121 1  
   122   52  122 1  
   123   53  123 1  
   124   54  124 1  
   125   54  125 1  
   126   54  126 1  
   127   55  127 1  
   128   56  128 1  
   129   59  129 1  
   130   59  130 1  
   131   60  131 1  
   132   61  132 1  
   133   62  133 1  
   134   65  134 1  
   135   66  135 1  
   136   66  136 1  
   137   66  137 1  
   138   67  138 1  
   139   67  139 1  
   140   67  140 1  
@<TRIPOS>SUBSTRUCTURE
     1 LYS         1

