5hey_ligand
  -I-interpret- 

141141  0  0  0  0  0  0  0  0999 V2000
   40.8660   43.2760   25.7900 N   0  3  0  0  0
   40.0100   42.5670   24.8340 C   0  0  0  0  0
   38.6180   43.1710   24.9860 C   0  0  0  0  0
   38.1540   43.3990   26.1060 O   0  0  0  0  0
   39.9740   41.0560   25.0590 C   0  0  0  0  0
   39.3760   40.2910   23.8940 C   0  0  0  0  0
   40.4400   39.9610   22.8660 C   0  0  0  0  0
   40.9970   38.5690   23.0860 C   0  0  0  0  0
   40.0110   37.5300   22.6870 N   0  3  0  0  0
   37.9610   43.4440   23.8620 N   0  0  0  0  0
   36.7760   44.2980   23.8520 C   0  0  0  0  0
   37.1870   45.6950   24.3020 C   0  0  0  0  0
   36.3630   46.5120   24.7120 O   0  0  0  0  0
   35.6780   43.7330   24.7480 C   0  0  0  0  0
   35.3800   42.2770   24.4470 C   0  0  0  0  0
   35.2810   41.4490   25.3530 O   0  0  0  0  0
   35.2500   41.9550   23.1620 N   0  0  0  0  0
   38.4840   45.9510   24.2070 N   0  0  0  0  0
   39.0610   47.2250   24.5810 C   0  0  0  0  0
   38.8140   48.2510   23.4840 C   0  0  0  0  0
   38.8600   47.9290   22.2950 O   0  0  0  0  0
   40.5540   47.0450   24.8490 C   0  0  0  0  0
   41.4180   48.1660   24.3430 C   0  0  0  0  0
   41.7980   48.2190   23.0140 C   0  0  0  0  0
   41.8700   49.1570   25.2000 C   0  0  0  0  0
   42.5740   49.2390   22.5400 C   0  0  0  0  0
   42.6600   50.1860   24.7390 C   0  0  0  0  0
   43.0100   50.2110   23.4010 C   0  0  0  0  0
   43.7920   51.2070   22.9150 O   0  0  0  0  0
   38.5430   49.4860   23.8890 N   0  0  0  0  0
   38.3150   50.5770   22.9490 C   0  0  0  0  0
   38.9720   51.8220   23.4680 C   0  0  0  0  0
   39.0100   52.0250   24.6790 O   0  0  0  0  0
   36.8220   50.8320   22.7560 C   0  0  0  0  0
   36.0310   49.5690   22.4940 C   0  0  0  0  0
   34.5570   49.8600   22.3120 C   0  0  0  0  0
   33.6840   48.7880   22.9730 C   0  0  0  0  0
   34.0190   47.3950   22.5560 N   0  3  0  0  0
   39.4550   52.6560   22.5480 N   0  0  0  0  0
   40.0780   53.9320   22.8800 C   0  0  0  0  0
   39.5890   55.0110   21.9050 C   0  0  0  0  0
   39.3940   54.7350   20.7190 O   0  0  0  0  0
   41.6040   53.7900   22.8440 C   0  0  0  0  0
   42.3690   55.0170   23.2980 C   0  0  0  0  0
   43.6900   54.7030   24.0040 C   0  0  0  0  0
   44.3580   55.6230   24.4780 O   0  0  0  0  0
   44.0710   53.4110   24.0780 N   0  0  0  0  0
   39.3420   56.2190   22.4150 N   0  0  0  0  0
   38.8140   57.3290   21.6260 C   0  0  0  0  0
   39.3610   58.6530   22.1240 C   0  0  0  0  0
   39.4560   58.8670   23.3240 O   0  0  0  0  0
   37.2600   57.4060   21.7040 C   0  0  0  0  0
   36.6900   56.1700   21.2610 O   0  0  0  0  0
   36.7160   58.5470   20.8640 C   0  0  0  0  0
   39.7000   59.5460   21.1980 N   0  0  0  0  0
   40.0750   60.9140   21.5390 C   0  0  0  0  0
   38.8420   61.7760   21.6920 C   0  0  0  0  0
   37.9370   61.7010   20.8530 O   0  0  0  0  0
   40.9700   61.5310   20.4620 C   0  0  0  0  0
   42.0920   60.7110   20.2050 O   0  0  0  0  0
   38.8220   62.6020   22.7420 N   0  0  0  0  0
   37.7150   63.5210   22.9700 C   0  0  0  0  0
   38.2550   64.9330   23.1760 C   0  0  0  0  0
   37.4490   65.8710   23.2380 O   0  0  0  0  0
   36.8480   63.0830   24.1880 C   0  0  0  0  0
   36.1990   61.7490   23.9190 C   0  0  0  0  0
   37.6690   62.9870   25.4370 C   0  0  0  0  0
   39.4730   65.1630   23.2890 O   0  0  0  0  0
   40.8463   44.2752   25.5862 H   0  0  0  0  0
   40.5229   43.1141   26.7368 H   0  0  0  0  0
   41.8222   42.9302   25.7098 H   0  0  0  0  0
   40.4054   42.6894   23.8256 H   0  0  0  0  0
   39.3498   40.8675   25.9325 H   0  0  0  0  0
   41.0023   40.7165   25.1833 H   0  0  0  0  0
   38.6109   40.9082   23.4231 H   0  0  0  0  0
   38.9462   39.3613   24.2668 H   0  0  0  0  0
   41.2526   40.6812   22.9612 H   0  0  0  0  0
   39.9918   40.0048   21.8734 H   0  0  0  0  0
   41.2237   38.4469   24.1451 H   0  0  0  0  0
   41.8937   38.4515   22.4776 H   0  0  0  0  0
   40.4108   36.6050   22.8451 H   0  0  0  0  0
   39.1635   37.6353   23.2447 H   0  0  0  0  0
   39.7847   37.6395   21.6985 H   0  0  0  0  0
   38.2936   43.0463   22.9836 H   0  0  0  0  0
   36.3662   44.3416   22.8429 H   0  0  0  0  0
   34.7687   44.3074   24.5709 H   0  0  0  0  0
   36.0170   43.8016   25.7817 H   0  0  0  0  0
   35.0605   40.9890   22.8949 H   0  0  0  0  0
   35.3399   42.6743   22.4444 H   0  0  0  0  0
   39.1018   45.2194   23.8555 H   0  0  0  0  0
   38.5886   47.5922   25.4921 H   0  0  0  0  0
   40.8653   46.1411   24.3253 H   0  0  0  0  0
   40.6815   47.0075   25.9309 H   0  0  0  0  0
   41.4726   47.4330   22.3326 H   0  0  0  0  0
   41.5960   49.1212   26.2544 H   0  0  0  0  0
   42.8440   49.2788   21.4847 H   0  0  0  0  0
   43.0037   50.9675   25.4167 H   0  0  0  0  0
   44.0191   51.8101   23.6265 H   0  0  0  0  0
   38.4927   49.6777   24.8896 H   0  0  0  0  0
   38.7426   50.2999   21.9854 H   0  0  0  0  0
   36.7071   51.4801   21.8872 H   0  0  0  0  0
   36.4409   51.2758   23.6758 H   0  0  0  0  0
   36.1471   48.9066   23.3518 H   0  0  0  0  0
   36.4066   49.1120   21.5785 H   0  0  0  0  0
   34.3378   49.8722   21.2443 H   0  0  0  0  0
   34.3355   50.8200   22.7784 H   0  0  0  0  0
   32.6536   48.9778   22.6723 H   0  0  0  0  0
   33.8487   48.8532   24.0485 H   0  0  0  0  0
   33.4001   46.7401   23.0341 H   0  0  0  0  0
   33.8975   47.3048   21.5473 H   0  0  0  0  0
   34.9875   47.1912   22.8026 H   0  0  0  0  0
   39.3858   52.3896   21.5658 H   0  0  0  0  0
   39.7942   54.2327   23.8885 H   0  0  0  0  0
   41.8803   53.6122   21.8047 H   0  0  0  0  0
   41.8626   52.9844   23.5312 H   0  0  0  0  0
   41.7380   55.5443   24.0135 H   0  0  0  0  0
   42.6093   55.5958   22.4062 H   0  0  0  0  0
   44.9451   53.1628   24.5413 H   0  0  0  0  0
   43.4849   52.6823   23.6706 H   0  0  0  0  0
   39.5313   56.3751   23.4051 H   0  0  0  0  0
   39.1226   57.1469   20.5966 H   0  0  0  0  0
   36.9859   57.5894   22.7429 H   0  0  0  0  0
   35.7329   56.2240   21.3115 H   0  0  0  0  0
   37.1270   59.4900   21.2245 H   0  0  0  0  0
   37.0026   58.3987   19.8228 H   0  0  0  0  0
   35.6291   58.5689   20.9434 H   0  0  0  0  0
   39.6977   59.2650   20.2175 H   0  0  0  0  0
   40.6236   60.8740   22.4801 H   0  0  0  0  0
   41.3196   62.5023   20.8121 H   0  0  0  0  0
   40.3926   61.6317   19.5430 H   0  0  0  0  0
   42.6365   61.1187   19.5276 H   0  0  0  0  0
   39.6011   62.5888   23.4002 H   0  0  0  0  0
   37.0706   63.5054   22.0910 H   0  0  0  0  0
   36.0803   63.8433   24.3318 H   0  0  0  0  0
   35.5612   61.8276   23.0386 H   0  0  0  0  0
   36.9709   60.9995   23.7443 H   0  0  0  0  0
   35.5974   61.4588   24.7804 H   0  0  0  0  0
   38.4615   62.2524   25.2938 H   0  0  0  0  0
   38.1089   63.9598   25.6568 H   0  0  0  0  0
   37.0320   62.6792   26.2662 H   0  0  0  0  0
   39.9609   64.3392   23.2193 H   0  0  0  0  0
  1  2  1  0  0  0
  2  3  1  0  0  0
  2  5  1  0  0  0
  3  4  2  0  0  0
  3 10  1  0  0  0
  5  6  1  0  0  0
  6  7  1  0  0  0
  7  8  1  0  0  0
  8  9  1  0  0  0
 10 11  1  0  0  0
 11 12  1  0  0  0
 11 14  1  0  0  0
 12 13  2  0  0  0
 12 18  1  0  0  0
 14 15  1  0  0  0
 15 16  2  0  0  0
 15 17  1  0  0  0
 18 19  1  0  0  0
 19 20  1  0  0  0
 19 22  1  0  0  0
 20 21  2  0  0  0
 20 30  1  0  0  0
 22 23  1  0  0  0
 23 24  4  0  0  0
 23 25  4  0  0  0
 24 26  4  0  0  0
 25 27  4  0  0  0
 26 28  4  0  0  0
 27 28  4  0  0  0
 28 29  1  0  0  0
 30 31  1  0  0  0
 31 32  1  0  0  0
 31 34  1  0  0  0
 32 33  2  0  0  0
 32 39  1  0  0  0
 34 35  1  0  0  0
 35 36  1  0  0  0
 36 37  1  0  0  0
 37 38  1  0  0  0
 39 40  1  0  0  0
 40 41  1  0  0  0
 40 43  1  0  0  0
 41 42  2  0  0  0
 41 48  1  0  0  0
 43 44  1  0  0  0
 44 45  1  0  0  0
 45 46  2  0  0  0
 45 47  1  0  0  0
 48 49  1  0  0  0
 49 50  1  0  0  0
 49 52  1  0  0  0
 50 51  2  0  0  0
 50 55  1  0  0  0
 52 53  1  0  0  0
 52 54  1  0  0  0
 55 56  1  0  0  0
 56 57  1  0  0  0
 56 59  1  0  0  0
 57 58  2  0  0  0
 57 61  1  0  0  0
 59 60  1  0  0  0
 61 62  1  0  0  0
 62 63  1  0  0  0
 62 65  1  0  0  0
 63 64  2  0  0  0
 63 68  1  0  0  0
 65 66  1  0  0  0
 65 67  1  0  0  0
  1 69  1  0  0  0
  1 70  1  0  0  0
  1 71  1  0  0  0
  2 72  1  0  0  0
  5 73  1  0  0  0
  5 74  1  0  0  0
  6 75  1  0  0  0
  6 76  1  0  0  0
  7 77  1  0  0  0
  7 78  1  0  0  0
  8 79  1  0  0  0
  8 80  1  0  0  0
  9 81  1  0  0  0
  9 82  1  0  0  0
  9 83  1  0  0  0
 10 84  1  0  0  0
 11 85  1  0  0  0
 14 86  1  0  0  0
 14 87  1  0  0  0
 17 88  1  0  0  0
 17 89  1  0  0  0
 18 90  1  0  0  0
 19 91  1  0  0  0
 22 92  1  0  0  0
 22 93  1  0  0  0
 24 94  1  0  0  0
 25 95  1  0  0  0
 26 96  1  0  0  0
 27 97  1  0  0  0
 29 98  1  0  0  0
 30 99  1  0  0  0
 31100  1  0  0  0
 34101  1  0  0  0
 34102  1  0  0  0
 35103  1  0  0  0
 35104  1  0  0  0
 36105  1  0  0  0
 36106  1  0  0  0
 37107  1  0  0  0
 37108  1  0  0  0
 38109  1  0  0  0
 38110  1  0  0  0
 38111  1  0  0  0
 39112  1  0  0  0
 40113  1  0  0  0
 43114  1  0  0  0
 43115  1  0  0  0
 44116  1  0  0  0
 44117  1  0  0  0
 47118  1  0  0  0
 47119  1  0  0  0
 48120  1  0  0  0
 49121  1  0  0  0
 52122  1  0  0  0
 53123  1  0  0  0
 54124  1  0  0  0
 54125  1  0  0  0
 54126  1  0  0  0
 55127  1  0  0  0
 56128  1  0  0  0
 59129  1  0  0  0
 59130  1  0  0  0
 60131  1  0  0  0
 61132  1  0  0  0
 62133  1  0  0  0
 65134  1  0  0  0
 66135  1  0  0  0
 66136  1  0  0  0
 66137  1  0  0  0
 67138  1  0  0  0
 67139  1  0  0  0
 67140  1  0  0  0
 68141  1  0  0  0
M  END
$$$$
