3fuh_ligand
  -I-interpret- 

 16 17  0  0  0  0  0  0  0  0999 V2000
   27.0100   86.7500    0.3160 O   0  0  0  0  0
   26.1960   86.8480   -0.7710 C   0  0  0  0  0
   26.3050   87.9610   -1.6140 C   0  0  0  0  0
   25.4650   88.0660   -2.7250 C   0  0  0  0  0
   24.5400   87.0550   -2.9880 C   0  0  0  0  0
   23.6070   86.8500   -3.9570 N   0  0  0  0  0
   25.2550   85.8390   -1.0310 C   0  0  0  0  0
   24.4270   85.9560   -2.1450 C   0  0  0  0  0
   23.4190   85.0500   -2.5970 C   0  0  0  0  0
   22.9370   85.6760   -3.7400 C   0  0  0  0  0
   26.8144   85.9376    0.7886 H   0  0  0  0  0
   27.0393   88.7389   -1.4048 H   0  0  0  0  0
   25.5317   88.9326   -3.3827 H   0  0  0  0  0
   25.1735   84.9760   -0.3702 H   0  0  0  0  0
   23.1062   84.1038   -2.1554 H   0  0  0  0  0
   22.1394   85.2878   -4.3734 H   0  0  0  0  0
  1  2  1  0  0  0
  2  3  4  0  0  0
  2  7  4  0  0  0
  3  4  4  0  0  0
  4  5  4  0  0  0
  5  6  4  0  0  0
  5  8  4  0  0  0
  6 10  4  0  0  0
  7  8  4  0  0  0
  8  9  4  0  0  0
  9 10  4  0  0  0
  1 11  1  0  0  0
  3 12  1  0  0  0
  4 13  1  0  0  0
  7 14  1  0  0  0
  9 15  1  0  0  0
 10 16  1  0  0  0
M  END
$$$$
