#	Name:			6q92_ligand
#	Creating user name:	wangrx
#	Creation time:		Thu Aug  5 18:05:56 2021

#	Modifying user name:	wangrx
#	Modification time:	Thu Aug  5 18:06:20 2021

@<TRIPOS>MOLECULE
6q92_ligand
   31    30     1     0     0
SMALL
GAST_HUCK


@<TRIPOS>ATOM
      1 N          -4.5410   25.0780  -13.8800 N.4       1 ABH         0.2327 
      2 CA         -4.3610   25.1600  -12.3970 C.3       1 ABH         0.0282 
      3 C          -3.9960   26.5950  -12.0510 C.2       1 ABH         0.0844 
      4 O          -3.9350   27.4680  -12.9660 O.co2     1 ABH        -0.5643 
      5 OT         -3.7680   26.8700  -10.8420 O.co2     1 ABH        -0.5643 
      6 CB         -3.2420   24.2020  -11.9390 C.3       1 ABH         0.0001 
      7 CG         -1.8110   24.6410  -12.2480 C.3       1 ABH        -0.0736 
      8 CD         -0.7960   23.5290  -11.9960 C.3       1 ABH        -0.1824 
      9 CE          0.6350   23.9880  -12.2370 C.3       1 ABH        -0.3457 
     10 B           1.7850   22.9210  -12.4350 B         1 ABH         4.0000 
     11 O2          3.0840   23.5700  -12.7250 O.3       1 ABH        -0.4105 
     12 O1          1.5290   22.0510  -13.6100 O.3       1 ABH        -0.4105 
     13 O3          1.8700   22.0620  -11.2290 O.3       1 ABH        -0.4105 
     14 H1         -4.7843   24.1342  -14.1372 H         1 ABH         0.2010 
     15 H2         -3.6821   25.3402  -14.3378 H         1 ABH         0.2010 
     16 H3         -5.2780   25.7042  -14.1642 H         1 ABH         0.2010 
     17 H4         -5.3002   24.8851  -11.8947 H         1 ABH         0.1024 
     18 H5         -3.4089   23.2317  -12.4296 H         1 ABH         0.0338 
     19 H6         -3.3283   24.0815  -10.8490 H         1 ABH         0.0338 
     20 H7         -1.5592   25.5008  -11.6098 H         1 ABH         0.0244 
     21 H8         -1.7532   24.9396  -13.3051 H         1 ABH         0.0244 
     22 H9         -1.0165   22.6890  -12.6711 H         1 ABH        -0.0084 
     23 H10        -0.8892   23.1947  -10.9522 H         1 ABH        -0.0084 
     24 H12         0.8686   24.8277  -11.5659 H         1 ABH        -0.2101 
     25 H13         0.7448   24.3125  -13.2823 H         1 ABH        -0.2101 
     26 H14         2.9996   24.1124  -13.5004 H         1 ABH         0.2052 
     27 H15         2.9996   24.1123  -13.5004 H         1 ABH         0.2052 
     28 H16         1.4902   22.5844  -14.3951 H         1 ABH         0.2052 
     29 H17         1.4902   22.5844  -14.3951 H         1 ABH         0.2052 
     30 H18         1.0246   21.6599  -11.0678 H         1 ABH         0.2052 
     31 H19         1.0246   21.6599  -11.0678 H         1 ABH         0.2052 
@<TRIPOS>BOND
     1    1    2 1    
     2    2    3 1    
     3    2    6 1    
     4    3    4 ar   
     5    3    5 ar   
     6    6    7 1    
     7    7    8 1    
     8    8    9 1    
     9    9   10 1    
    10   10   11 1    
    11   10   13 1    
    12   10   12 1    
    13    1   14 1    
    14    1   15 1    
    15    1   16 1    
    16    2   17 1    
    17    6   18 1    
    18    6   19 1    
    19    7   20 1    
    20    7   21 1    
    21    8   22 1    
    22    8   23 1    
    23    9   24 1    
    24    9   25 1    
    25   11   26 1    
    26   11   27 1    
    27   12   28 1    
    28   12   29 1    
    29   13   30 1    
    30   13   31 1    
@<TRIPOS>SUBSTRUCTURE
     1 ABH         1 PERM              0 ****  ****    0 ROOT 
