6q92_ligand

Created by X-TOOL on Mon Aug  2 16:17:19 2021
 32 31  0  0  0  0  0  0  0  0999 V2000
   -4.5410   25.0780  -13.8800  N 0  3  0  4  0  4
   -4.3610   25.1600  -12.3970  C 0  0  0  2  0  4
   -3.9960   26.5950  -12.0510  C 0  5  0  1  0  3
   -3.9350   27.4680  -12.9660  O 0  0  0  1  0  1
   -3.7680   26.8700  -10.8420  O 0  0  0  1  0  1
   -3.2420   24.2020  -11.9390  C 0  0  0  3  0  4
   -1.8110   24.6410  -12.2480  C 0  0  0  3  0  4
   -0.7960   23.5290  -11.9960  C 0  0  0  3  0  4
    0.6350   23.9880  -12.2370  C 0  0  0  4  0  5
    1.7850   22.9210  -12.4350  B 0  0  0  1  0  4
    3.0840   23.5700  -12.7250  O 0  0  0  3  0  3
    1.5290   22.0510  -13.6100  O 0  0  0  3  0  3
    1.8700   22.0620  -11.2290  O 0  0  0  3  0  3
   -4.7843   24.1342  -14.1372  H 0  0  0  1  0  1
   -3.6821   25.3402  -14.3378  H 0  0  0  1  0  1
   -5.2780   25.7042  -14.1642  H 0  0  0  1  0  1
   -5.3002   24.8851  -11.8947  H 0  0  0  1  0  1
   -3.4089   23.2317  -12.4296  H 0  0  0  1  0  1
   -3.3283   24.0815  -10.8490  H 0  0  0  1  0  1
   -1.5592   25.5008  -11.6098  H 0  0  0  1  0  1
   -1.7532   24.9396  -13.3051  H 0  0  0  1  0  1
   -1.0165   22.6890  -12.6711  H 0  0  0  1  0  1
   -0.8892   23.1947  -10.9522  H 0  0  0  1  0  1
    1.3257   23.1556  -12.0369  H 0  0  0  1  0  1
    0.8686   24.8277  -11.5659  H 0  0  0  1  0  1
    0.7448   24.3125  -13.2823  H 0  0  0  1  0  1
    2.9996   24.1124  -13.5004  H 0  0  0  1  0  1
    2.9996   24.1123  -13.5004  H 0  0  0  1  0  1
    1.4902   22.5844  -14.3951  H 0  0  0  1  0  1
    1.4902   22.5844  -14.3951  H 0  0  0  1  0  1
    1.0246   21.6599  -11.0678  H 0  0  0  1  0  1
    1.0246   21.6599  -11.0678  H 0  0  0  1  0  1
  1  2  1  0  0  2
  2  3  1  0  0  2
  2  6  1  0  0  2
  3  4  2  0  0  2
  3  5  2  0  0  2
  6  7  1  0  0  2
  7  8  1  0  0  2
  8  9  1  0  0  2
  9 10  1  0  0  2
 10 11  1  0  0  2
 10 13  1  0  0  2
 10 12  1  0  0  2
  1 14  1  0  0  2
  1 15  1  0  0  2
  1 16  1  0  0  2
  2 17  1  0  0  2
  6 18  1  0  0  2
  6 19  1  0  0  2
  7 20  1  0  0  2
  7 21  1  0  0  2
  8 22  1  0  0  2
  8 23  1  0  0  2
  9 24  1  0  0  2
  9 25  1  0  0  2
  9 26  1  0  0  2
 11 27  1  0  0  2
 11 28  1  0  0  2
 12 29  1  0  0  2
 12 30  1  0  0  2
 13 31  1  0  0  2
 13 32  1  0  0  2
M  END
> <MOLECULAR_FORMULA>
C6H19NO5B

> <MOLECULAR_WEIGHT>
195.9

> <NUM_HB_ATOMS>
6  

> <NUM_ROTOR>
5  

> <XLOGP2>
-3.57

$$$$
