4l34_ligand
  -I-interpret- 

 31 34  0  0  0  0  0  0  0  0999 V2000
    7.6310   38.2080   12.7630 C   0  0  0  0  0
    7.5280   37.9310   14.1150 C   0  0  0  0  0
    8.3070   38.4990   14.9150 O   0  0  0  0  0
    6.6660   36.8970   14.5200 C   0  0  0  0  0
    6.4770   36.6160   15.8550 C   0  0  0  0  0
    5.6210   35.5670   16.2230 C   0  0  0  0  0
    4.9460   34.8120   15.2470 C   0  0  0  0  0
    5.0990   35.1150   13.8920 C   0  0  0  0  0
    5.9620   36.1600   13.5610 C   0  0  0  0  0
    6.1210   36.4810   12.2460 O   0  0  0  0  0
    6.8010   37.5760   11.8510 C   0  0  0  0  0
    6.8510   37.7250   10.4620 C   0  0  0  0  0
    7.7000   38.6400    9.8520 C   0  0  0  0  0
    7.7680   38.7100    8.4650 C   0  0  0  0  0
    6.0660   36.8750    9.6560 C   0  0  0  0  0
    6.1320   36.9550    8.2660 C   0  0  0  0  0
    6.9590   37.9040    7.6740 C   0  0  0  0  0
    7.1020   37.8900    6.3670 C   0  0  0  0  0
    8.3000   37.5870    5.8370 N   0  0  0  0  0
    8.1750   37.5640    4.7330 N   0  0  0  0  0
    6.8470   37.7920    4.4290 N   0  0  0  0  0
    6.2140   37.9690    5.4040 N   0  0  0  0  0
    8.3703   38.9285   12.4130 H   0  0  0  0  0
    6.9876   37.2030   16.6184 H   0  0  0  0  0
    5.4773   35.3343   17.2781 H   0  0  0  0  0
    4.3008   33.9871   15.5492 H   0  0  0  0  0
    4.5649   34.5567   13.1232 H   0  0  0  0  0
    8.3134   39.3037   10.4614 H   0  0  0  0  0
    8.4633   39.4045    7.9935 H   0  0  0  0  0
    5.4015   36.1488   10.1242 H   0  0  0  0  0
    5.5405   36.2795    7.6480 H   0  0  0  0  0
  1  2  1  0  0  0
  1 11  2  0  0  0
  2  3  2  0  0  0
  2  4  1  0  0  0
  4  5  4  0  0  0
  4  9  4  0  0  0
  5  6  4  0  0  0
  6  7  4  0  0  0
  7  8  4  0  0  0
  8  9  4  0  0  0
  9 10  1  0  0  0
 10 11  1  0  0  0
 11 12  1  0  0  0
 12 13  4  0  0  0
 12 15  4  0  0  0
 13 14  4  0  0  0
 14 17  4  0  0  0
 15 16  4  0  0  0
 16 17  4  0  0  0
 17 18  1  0  0  0
 18 19  4  0  0  0
 18 22  4  0  0  0
 19 20  4  0  0  0
 20 21  4  0  0  0
 21 22  4  0  0  0
  1 23  1  0  0  0
  5 24  1  0  0  0
  6 25  1  0  0  0
  7 26  1  0  0  0
  8 27  1  0  0  0
 13 28  1  0  0  0
 14 29  1  0  0  0
 15 30  1  0  0  0
 16 31  1  0  0  0
M  END
$$$$
