1q66_ligand
  -I-interpret- 

 39 41  0  0  0  0  0  0  0  0999 V2000
   19.2550   17.8470   17.4810 C   0  0  0  0  0
   19.0780   19.4040   17.2740 N   0  3  0  0  0
   18.3020   17.5100   18.6160 C   0  0  0  0  0
   16.9980   17.0170   18.3200 C   0  0  0  0  0
   16.0950   16.7000   19.3720 C   0  0  0  0  0
   16.4940   16.8800   20.7290 C   0  0  0  0  0
   15.6510   16.5910   21.7690 N   0  0  0  0  0
   15.9740   16.7410   23.0140 C   0  0  0  0  0
   15.1410   16.4560   23.9720 N   0  0  0  0  0
   17.1700   17.1930   23.3860 N   0  0  0  0  0
   18.1220   17.5250   22.5120 C   0  0  0  0  0
   19.2130   17.9370   22.8710 O   0  0  0  0  0
   17.8090   17.3760   21.0200 C   0  0  0  0  0
   18.7170   17.6910   19.9680 C   0  0  0  0  0
   14.7080   16.1680   19.0400 C   0  0  0  0  0
   13.5890   17.5870   18.7890 S   0  0  0  0  0
   12.0330   16.7370   18.5970 C   0  0  0  0  0
   11.9860   15.4150   18.0460 C   0  0  0  0  0
   10.7420   14.7420   17.8980 C   0  0  0  0  0
    9.5400   15.3860   18.2950 C   0  0  0  0  0
    9.5790   16.7020   18.8410 C   0  0  0  0  0
   10.8240   17.3750   18.9920 C   0  0  0  0  0
   20.2849   17.5781   17.7157 H   0  0  0  0  0
   19.0306   17.2839   16.5751 H   0  0  0  0  0
   19.6898   19.7173   16.5204 H   0  0  0  0  0
   18.1078   19.6055   17.0320 H   0  0  0  0  0
   19.3226   19.8904   18.1365 H   0  0  0  0  0
   16.6914   16.8823   17.2827 H   0  0  0  0  0
   14.2091   16.1056   23.7501 H   0  0  0  0  0
   15.4198   16.5830   24.9449 H   0  0  0  0  0
   17.3669   17.2896   24.3821 H   0  0  0  0  0
   19.7155   18.0653   20.1938 H   0  0  0  0  0
   14.3426   15.5458   19.8570 H   0  0  0  0  0
   14.7487   15.5615   18.1352 H   0  0  0  0  0
   12.9086   14.9227   17.7387 H   0  0  0  0  0
   10.7111   13.7353   17.4813 H   0  0  0  0  0
    8.5852   14.8725   18.1818 H   0  0  0  0  0
    8.6543   17.1936   19.1433 H   0  0  0  0  0
   10.8514   18.3809   19.4110 H   0  0  0  0  0
  1  2  1  0  0  0
  1  3  1  0  0  0
  3  4  4  0  0  0
  3 14  4  0  0  0
  4  5  4  0  0  0
  5  6  4  0  0  0
  5 15  1  0  0  0
  6  7  1  0  0  0
  6 13  4  0  0  0
  7  8  2  0  0  0
  8  9  1  0  0  0
  8 10  1  0  0  0
 10 11  1  0  0  0
 11 12  2  0  0  0
 11 13  1  0  0  0
 13 14  4  0  0  0
 15 16  1  0  0  0
 16 17  1  0  0  0
 17 18  4  0  0  0
 17 22  4  0  0  0
 18 19  4  0  0  0
 19 20  4  0  0  0
 20 21  4  0  0  0
 21 22  4  0  0  0
  1 23  1  0  0  0
  1 24  1  0  0  0
  2 25  1  0  0  0
  2 26  1  0  0  0
  2 27  1  0  0  0
  4 28  1  0  0  0
  9 29  1  0  0  0
  9 30  1  0  0  0
 10 31  1  0  0  0
 14 32  1  0  0  0
 15 33  1  0  0  0
 15 34  1  0  0  0
 18 35  1  0  0  0
 19 36  1  0  0  0
 20 37  1  0  0  0
 21 38  1  0  0  0
 22 39  1  0  0  0
M  END
$$$$
