6ccs_ligand
  -I-interpret- 

 18 19  0  0  0  0  0  0  0  0999 V2000
   31.5750   -9.6280   32.7910 C   0  0  0  0  0
   31.3880  -10.5740   31.7910 C   0  0  0  0  0
   30.1880  -10.6320   31.0960 C   0  0  0  0  0
   25.1950   -8.5890   32.6290 F   0  0  0  0  0
   25.8810   -8.1570   31.5730 C   0  0  0  0  0
   25.7110   -6.8490   31.5120 F   0  0  0  0  0
   25.3270   -8.6680   30.4810 F   0  0  0  0  0
   27.3300   -8.5510   31.6800 C   0  0  0  0  0
   28.1460   -8.0030   32.5420 N   0  0  0  0  0
   29.3200   -8.7340   32.4280 C   0  0  0  0  0
   29.1760   -9.7260   31.4270 C   0  0  0  0  0
   27.8820   -9.5930   30.9490 N   0  0  0  0  0
   30.5570   -8.7220   33.1040 C   0  0  0  0  0
   30.7090   -7.8120   34.1010 O   0  0  0  0  0
   32.5194   -9.5919   33.3340 H   0  0  0  0  0
   32.1879  -11.2744   31.5509 H   0  0  0  0  0
   30.0376  -11.3695   30.3076 H   0  0  0  0  0
   29.9134   -7.2793   34.1705 H   0  0  0  0  0
  2  1  4  0  0  0
  1 13  4  0  0  0
  3  2  4  0  0  0
 11  3  4  0  0  0
  5  4  1  0  0  0
  5  6  1  0  0  0
  5  7  1  0  0  0
  8  5  1  0  0  0
  9  8  4  0  0  0
  8 12  4  0  0  0
 10  9  4  0  0  0
 10 11  4  0  0  0
 10 13  4  0  0  0
 11 12  4  0  0  0
 13 14  1  0  0  0
  1 15  1  0  0  0
  2 16  1  0  0  0
  3 17  1  0  0  0
 14 18  1  0  0  0
M  END
$$$$
