### 
### Created by X-TOOL on Mon Sep 10 21:13:07 2018
### 

@<TRIPOS>MOLECULE
3lrh_ligand
  243   244     1     0     0
SMALL
GAST_HUCK


@<TRIPOS>ATOM
      1 N          23.5880  -31.4880  -37.8930 N.4       1 GLU         0.2380
      2 CA         23.8280  -31.5950  -39.3640 C.3       1 GLU         0.0665
      3 C          22.5880  -31.2320  -40.1860 C.2       1 GLU         0.2268
      4 O          22.5800  -31.4050  -41.4070 O.2       1 GLU        -0.3907
      5 CB         24.3140  -33.0030  -39.7310 C.3       1 GLU         0.0194
      6 CG         25.7450  -33.3110  -39.2980 C.3       1 GLU         0.0075
      7 CD         26.2000  -34.7040  -39.7060 C.2       1 GLU         0.0351
      8 OE1        26.2890  -34.9790  -40.9220 O.co2     1 GLU        -0.5690
      9 OE2        26.4790  -35.5240  -38.8060 O.co2     1 GLU        -0.5690
     10 N          21.5530  -30.7280  -39.5130 N.am      1 LYS        -0.2610
     11 CA         20.2910  -30.3500  -40.1610 C.3       1 LYS         0.1311
     12 C          20.4780  -29.3480  -41.2960 C.2       1 LYS         0.2039
     13 O          19.9830  -29.5640  -42.4060 O.2       1 LYS        -0.3944
     14 CB         19.2890  -29.7950  -39.1380 C.3       1 LYS        -0.0122
     15 CG         18.4970  -30.8510  -38.3790 C.3       1 LYS        -0.0440
     16 CD         17.4340  -31.4930  -39.2580 C.3       1 LYS        -0.0124
     17 CE         16.8060  -32.7000  -38.5810 C.3       1 LYS        -0.0354
     18 NZ         15.9890  -33.4810  -39.5460 N.4       1 LYS         0.2185
     19 N          21.1950  -28.2620  -41.0090 N.am      1 LEU        -0.2637
     20 CA         21.4370  -27.1990  -41.9820 C.3       1 LEU         0.1312
     21 C          22.2570  -27.6860  -43.1750 C.2       1 LEU         0.2039
     22 O          21.9480  -27.3450  -44.3200 O.2       1 LEU        -0.3944
     23 CB         22.1140  -25.9970  -41.3100 C.3       1 LEU        -0.0101
     24 CG         22.4360  -24.7470  -42.1400 C.3       1 LEU        -0.0425
     25 CD1        21.2000  -24.1710  -42.8260 C.3       1 LEU        -0.0625
     26 CD2        23.1010  -23.6950  -41.2680 C.3       1 LEU        -0.0625
     27 N          23.2940  -28.4780  -42.8990 N.am      1 MET        -0.2637
     28 CA         24.1430  -29.0570  -43.9430 C.3       1 MET         0.1317
     29 C          23.3320  -29.9610  -44.8740 C.2       1 MET         0.2039
     30 O          23.4170  -29.8360  -46.0990 O.2       1 MET        -0.3944
     31 CB         25.3060  -29.8430  -43.3240 C.3       1 MET        -0.0034
     32 CG         26.3660  -30.2790  -44.3270 C.3       1 MET        -0.0024
     33 SD         27.2440  -31.7770  -43.8430 S.3       1 MET        -0.1639
     34 CE         28.2560  -32.0580  -45.2960 C.3       1 MET        -0.0181
     35 N          22.5460  -30.8570  -44.2790 N.am      1 LYS        -0.2637
     36 CA         21.6940  -31.7900  -45.0190 C.3       1 LYS         0.1310
     37 C          20.6920  -31.0360  -45.8900 C.2       1 LYS         0.2039
     38 O          20.3650  -31.4760  -46.9920 O.2       1 LYS        -0.3944
     39 CB         20.9630  -32.7280  -44.0510 C.3       1 LYS        -0.0122
     40 CG         20.4500  -34.0170  -44.6840 C.3       1 LYS        -0.0440
     41 CD         19.5720  -34.8070  -43.7170 C.3       1 LYS        -0.0124
     42 CE         19.0910  -36.1100  -44.3460 C.3       1 LYS        -0.0354
     43 NZ         18.2280  -36.8940  -43.4200 N.4       1 LYS         0.2185
     44 N          20.2240  -29.8980  -45.3830 N.am      1 ALA        -0.2640
     45 CA         19.3200  -29.0060  -46.1160 C.3       1 ALA         0.1282
     46 C          19.9930  -28.3240  -47.3130 C.2       1 ALA         0.2037
     47 O          19.3530  -28.0990  -48.3370 O.2       1 ALA        -0.3944
     48 CB         18.7210  -27.9670  -45.1760 C.3       1 ALA        -0.0244
     49 N          21.2740  -27.9870  -47.1750 N.am      1 PHE        -0.2619
     50 CA         22.0520  -27.4630  -48.2980 C.3       1 PHE         0.1404
     51 C          22.2660  -28.5350  -49.3650 C.2       1 PHE         0.2060
     52 O          22.2960  -28.2330  -50.5580 O.2       1 PHE        -0.3942
     53 CB         23.4010  -26.8980  -47.8370 C.3       1 PHE         0.0214
     54 CG         23.3270  -25.4860  -47.3100 C.ar      1 PHE        -0.0386
     55 CD1        23.7670  -25.1870  -46.0230 C.ar      1 PHE        -0.0601
     56 CD2        22.8230  -24.4550  -48.1030 C.ar      1 PHE        -0.0601
     57 CE1        23.7030  -23.8820  -45.5310 C.ar      1 PHE        -0.0686
     58 CE2        22.7540  -23.1500  -47.6230 C.ar      1 PHE        -0.0686
     59 CZ         23.1940  -22.8610  -46.3340 C.ar      1 PHE        -0.0687
     60 N          22.4040  -29.7840  -48.9250 N.am      1 GLU        -0.2635
     61 CA         22.5770  -30.9200  -49.8320 C.3       1 GLU         0.1325
     62 C          21.3060  -31.2180  -50.6320 C.2       1 GLU         0.2041
     63 O          21.3760  -31.7480  -51.7430 O.2       1 GLU        -0.3944
     64 CB         23.0310  -32.1600  -49.0610 C.3       1 GLU        -0.0008
     65 CG         24.4390  -32.0520  -48.4850 C.3       1 GLU         0.0044
     66 CD         24.7330  -33.1230  -47.4520 C.2       1 GLU         0.0350
     67 OE1        24.6400  -34.3230  -47.7860 O.co2     1 GLU        -0.5690
     68 OE2        25.0630  -32.7640  -46.3020 O.co2     1 GLU        -0.5690
     69 N          20.1510  -30.8740  -50.0640 N.am      1 SER        -0.2616
     70 CA         18.8780  -31.0070  -50.7650 C.3       1 SER         0.1539
     71 C          18.7280  -29.9260  -51.8350 C.2       1 SER         0.2062
     72 O          18.1050  -30.1590  -52.8700 O.2       1 SER        -0.3943
     73 CB         17.6990  -30.9850  -49.7860 C.3       1 SER         0.0843
     74 OG         17.5390  -29.7160  -49.1760 O.3       1 SER        -0.3903
     75 N          19.3050  -28.7510  -51.5810 N.am      1 LEU        -0.2636
     76 CA         19.3540  -27.6780  -52.5750 C.3       1 LEU         0.1312
     77 C          20.2900  -28.0510  -53.7260 C.2       1 LEU         0.2039
     78 O          19.9630  -27.8250  -54.8940 O.2       1 LEU        -0.3944
     79 CB         19.7950  -26.3530  -51.9410 C.3       1 LEU        -0.0101
     80 CG         19.7900  -25.1140  -52.8510 C.3       1 LEU        -0.0425
     81 CD1        18.4360  -24.4170  -52.8290 C.3       1 LEU        -0.0625
     82 CD2        20.8850  -24.1420  -52.4570 C.3       1 LEU        -0.0625
     83 N          21.4460  -28.6220  -53.3850 N.am      1 LYS        -0.2637
     84 CA         22.4090  -29.1080  -54.3710 C.3       1 LYS         0.1310
     85 C          21.7630  -30.1360  -55.2990 C.2       1 LYS         0.2040
     86 O          21.9530  -30.0900  -56.5140 O.2       1 LYS        -0.3944
     87 CB         23.6280  -29.7230  -53.6750 C.3       1 LYS        -0.0122
     88 CG         24.7830  -30.0480  -54.6100 C.3       1 LYS        -0.0440
     89 CD         25.7330  -31.0600  -53.9910 C.3       1 LYS        -0.0124
     90 CE         26.6660  -31.6440  -55.0410 C.3       1 LYS        -0.0354
     91 NZ         27.4360  -32.8030  -54.5170 N.4       1 LYS         0.2185
     92 N          21.0000  -31.0550  -54.7100 N.am      1 SER        -0.2616
     93 CA         20.2430  -32.0520  -55.4580 C.3       1 SER         0.1539
     94 C          19.1200  -31.4150  -56.2790 C.2       1 SER         0.2063
     95 O          18.8300  -31.8660  -57.3900 O.2       1 SER        -0.3943
     96 CB         19.6680  -33.1030  -54.5040 C.3       1 SER         0.0843
     97 OG         18.8410  -34.0280  -55.1890 O.3       1 SER        -0.3903
     98 N          18.4990  -30.3720  -55.7280 N.am      1 PHE        -0.2619
     99 CA         17.4000  -29.6700  -56.3970 C.3       1 PHE         0.1404
    100 C          17.8650  -28.9140  -57.6390 C.2       1 PHE         0.2054
    101 O          17.3620  -29.1530  -58.7370 O.2       1 PHE        -0.3942
    102 CB         16.6740  -28.7230  -55.4290 C.3       1 PHE         0.0214
    103 CG         15.5450  -27.9440  -56.0610 C.ar      1 PHE        -0.0386
    104 CD1        15.5710  -26.5490  -56.0790 C.ar      1 PHE        -0.0601
    105 CD2        14.4630  -28.6010  -56.6440 C.ar      1 PHE        -0.0601
    106 CE1        14.5330  -25.8200  -56.6590 C.ar      1 PHE        -0.0686
    107 CE2        13.4210  -27.8820  -57.2310 C.ar      1 PHE        -0.0686
    108 CZ         13.4560  -26.4880  -57.2380 C.ar      1 PHE        -0.0687
    109 N          18.8210  -28.0060  -57.4600 N.am      1 GLN        -0.2692
    110 CA         19.3170  -27.2000  -58.5720 C.3       1 GLN         0.0964
    111 C          20.3630  -27.9540  -59.3880 C.2       1 GLN         0.0602
    112 O          20.7830  -27.5040  -60.4530 O.co2     1 GLN        -0.5666
    113 CB         19.8550  -25.8470  -58.0830 C.3       1 GLN        -0.0010
    114 CG         21.1140  -25.9010  -57.2270 C.3       1 GLN         0.0407
    115 CD         21.8010  -24.5500  -57.1050 C.2       1 GLN         0.1737
    116 OE1        21.1590  -23.5010  -57.1400 O.2       1 GLN        -0.3973
    117 NE2        23.1180  -24.5730  -56.9580 N.am      1 GLN        -0.3009
    118 OXT        20.8030  -29.0380  -59.0030 O.co2     1 GLN        -0.5666
    119 H          23.2661  -30.5462  -37.6699 H         1 GLU         0.2015
    120 H          22.8783  -32.1659  -37.6153 H         1 GLU         0.2015
    121 H          24.4564  -31.6791  -37.3932 H         1 GLU         0.2015
    122 H          24.6045  -30.8712  -39.6116 H         1 GLU         0.1099
    123 H          24.2866  -33.0769  -40.8181 H         1 GLU         0.0363
    124 H          23.6649  -33.7096  -39.2138 H         1 GLU         0.0363
    125 H          25.7834  -33.2535  -38.2102 H         1 GLU         0.0434
    126 H          26.4024  -32.5903  -39.7843 H         1 GLU         0.0434
    127 H          21.6419  -30.5996  -38.5050 H         1 LYS         0.1884
    128 H          19.8940  -31.2659  -40.5986 H         1 LYS         0.0800
    129 H          18.5666  -29.1986  -39.6952 H         1 LYS         0.0312
    130 H          19.8672  -29.2416  -38.3980 H         1 LYS         0.0312
    131 H          18.0019  -30.3700  -37.5355 H         1 LYS         0.0269
    132 H          19.1867  -31.6280  -38.0495 H         1 LYS         0.0269
    133 H          17.9048  -31.8227  -40.1841 H         1 LYS         0.0317
    134 H          16.6521  -30.7575  -39.4472 H         1 LYS         0.0317
    135 H          16.1606  -32.3538  -37.7737 H         1 LYS         0.0813
    136 H          17.6001  -33.3391  -38.1950 H         1 LYS         0.0813
    137 H          15.5785  -34.2843  -39.0701 H         1 LYS         0.1994
    138 H          15.2465  -32.8890  -39.9184 H         1 LYS         0.1994
    139 H          16.5832  -33.8039  -40.3096 H         1 LYS         0.1994
    140 H          21.5904  -28.1691  -40.0734 H         1 LEU         0.1883
    141 H          20.4669  -26.8850  -42.3673 H         1 LEU         0.0800
    142 H          23.0854  -26.3720  -40.9878 H         1 LEU         0.0315
    143 H          21.3948  -25.6560  -40.5653 H         1 LEU         0.0315
    144 H          23.1255  -25.0492  -42.9282 H         1 LEU         0.0298
    145 H          20.7749  -24.9198  -43.4944 H         1 LEU         0.0232
    146 H          20.4630  -23.8949  -42.0719 H         1 LEU         0.0232
    147 H          21.4827  -23.2885  -43.3999 H         1 LEU         0.0232
    148 H          22.4286  -23.4208  -40.4551 H         1 LEU         0.0232
    149 H          24.0259  -24.0983  -40.8558 H         1 LEU         0.0232
    150 H          23.3237  -22.8139  -41.8698 H         1 LEU         0.0232
    151 H          23.5040  -28.6887  -41.9233 H         1 MET         0.1883
    152 H          24.5508  -28.2356  -44.5322 H         1 MET         0.0800
    153 H          24.8860  -30.7480  -42.8851 H         1 MET         0.0320
    154 H          25.7938  -29.1844  -42.6053 H         1 MET         0.0320
    155 H          27.1009  -29.4769  -44.3955 H         1 MET         0.0378
    156 H          25.8588  -30.4872  -45.2690 H         1 MET         0.0378
    157 H          27.6122  -32.1904  -46.1655 H         1 MET         0.0340
    158 H          28.9095  -31.2000  -45.4535 H         1 MET         0.0340
    159 H          28.8594  -32.9538  -45.1492 H         1 MET         0.0340
    160 H          22.5373  -30.8949  -43.2597 H         1 LYS         0.1883
    161 H          22.3293  -32.3887  -45.6717 H         1 LYS         0.0800
    162 H          20.0926  -32.1871  -43.6795 H         1 LYS         0.0312
    163 H          21.6804  -33.0143  -43.2819 H         1 LYS         0.0312
    164 H          21.3076  -34.6337  -44.9529 H         1 LYS         0.0269
    165 H          19.8527  -33.7575  -45.5581 H         1 LYS         0.0269
    166 H          18.7018  -34.2014  -43.4638 H         1 LYS         0.0317
    167 H          20.1591  -35.0452  -42.8301 H         1 LYS         0.0317
    168 H          19.9656  -36.7136  -44.5885 H         1 LYS         0.0813
    169 H          18.5043  -35.8640  -45.2311 H         1 LYS         0.0813
    170 H          17.9305  -37.7541  -43.8807 H         1 LYS         0.1994
    171 H          18.7555  -37.1230  -42.5776 H         1 LYS         0.1994
    172 H          17.4089  -36.3401  -43.1697 H         1 LYS         0.1994
    173 H          20.5077  -29.6337  -44.4396 H         1 ALA         0.1883
    174 H          18.5229  -29.6298  -46.5205 H         1 ALA         0.0797
    175 H          18.1613  -28.4713  -44.3883 H         1 ALA         0.0277
    176 H          19.5219  -27.3754  -44.7326 H         1 ALA         0.0277
    177 H          18.0528  -27.3137  -45.7370 H         1 ALA         0.0277
    178 H          21.7230  -28.0967  -46.2657 H         1 PHE         0.1885
    179 H          21.4759  -26.6469  -48.7342 H         1 PHE         0.0823
    180 H          24.0599  -26.8850  -48.7052 H         1 PHE         0.0474
    181 H          23.7544  -27.5293  -47.0218 H         1 PHE         0.0474
    182 H          24.1661  -25.9813  -45.3922 H         1 PHE         0.0557
    183 H          22.4781  -24.6744  -49.1135 H         1 PHE         0.0557
    184 H          24.0500  -23.6613  -44.5216 H         1 PHE         0.0599
    185 H          22.3563  -22.3560  -48.2551 H         1 PHE         0.0599
    186 H          23.1410  -21.8409  -45.9537 H         1 PHE         0.0559
    187 H          22.3886  -29.9555  -47.9196 H         1 GLU         0.1883
    188 H          23.3524  -30.6467  -50.5477 H         1 GLU         0.0801
    189 H          23.0320  -32.9943  -49.7625 H         1 GLU         0.0330
    190 H          22.3473  -32.2868  -48.2216 H         1 GLU         0.0330
    191 H          24.5267  -31.0820  -47.9955 H         1 GLU         0.0433
    192 H          25.1463  -32.1751  -49.3052 H         1 GLU         0.0433
    193 H          20.1567  -30.5073  -49.1122 H         1 SER         0.1884
    194 H          18.8721  -31.9758  -51.2645 H         1 SER         0.0823
    195 H          17.8928  -31.7177  -49.0026 H         1 SER         0.0606
    196 H          16.7898  -31.2128  -50.3423 H         1 SER         0.0606
    197 H          18.3366  -29.4927  -48.6906 H         1 SER         0.2097
    198 H          19.7255  -28.5951  -50.6649 H         1 LEU         0.1883
    199 H          18.3469  -27.5465  -52.9706 H         1 LEU         0.0800
    200 H          20.8318  -26.4970  -51.6370 H         1 LEU         0.0315
    201 H          19.0752  -26.1458  -51.1492 H         1 LEU         0.0315
    202 H          19.9820  -25.4575  -53.8675 H         1 LEU         0.0298
    203 H          17.6678  -25.1072  -53.1776 H         1 LEU         0.0232
    204 H          18.2078  -24.1013  -51.8110 H         1 LEU         0.0232
    205 H          18.4668  -23.5454  -53.4828 H         1 LEU         0.0232
    206 H          20.7296  -23.8195  -51.4275 H         1 LEU         0.0232
    207 H          21.8539  -24.6340  -52.5426 H         1 LEU         0.0232
    208 H          20.8559  -23.2763  -53.1186 H         1 LEU         0.0232
    209 H          21.6673  -28.7238  -52.3945 H         1 LYS         0.1883
    210 H          22.7372  -28.2579  -54.9690 H         1 LYS         0.0800
    211 H          23.3027  -30.6623  -53.2278 H         1 LYS         0.0312
    212 H          23.9927  -28.9883  -52.9572 H         1 LYS         0.0312
    213 H          25.3368  -29.1300  -54.8067 H         1 LYS         0.0269
    214 H          24.3755  -30.4731  -55.5273 H         1 LYS         0.0269
    215 H          25.1469  -31.8689  -53.5548 H         1 LYS         0.0317
    216 H          26.3319  -30.5584  -53.2308 H         1 LYS         0.0317
    217 H          27.3738  -30.8698  -55.3373 H         1 LYS         0.0813
    218 H          26.0623  -31.9870  -55.8812 H         1 LYS         0.0813
    219 H          28.0469  -33.1632  -55.2501 H         1 LYS         0.1994
    220 H          27.9985  -32.5038  -53.7205 H         1 LYS         0.1994
    221 H          26.7889  -33.5343  -54.2222 H         1 LYS         0.1994
    222 H          20.9426  -31.0618  -53.6916 H         1 SER         0.1884
    223 H          20.9294  -32.5331  -56.1548 H         1 SER         0.0823
    224 H          19.0668  -32.5939  -53.7507 H         1 SER         0.0606
    225 H          20.4959  -33.6488  -54.0515 H         1 SER         0.0606
    226 H          18.1117  -33.5593  -55.6012 H         1 SER         0.2097
    227 H          18.7995  -30.0509  -54.8077 H         1 PHE         0.1885
    228 H          16.6966  -30.4346  -56.7268 H         1 PHE         0.0823
    229 H          17.4075  -27.9987  -55.0749 H         1 PHE         0.0474
    230 H          16.2403  -29.3378  -54.6403 H         1 PHE         0.0474
    231 H          16.4144  -26.0215  -55.6335 H         1 PHE         0.0557
    232 H          14.4302  -29.6905  -56.6414 H         1 PHE         0.0557
    233 H          14.5642  -24.7304  -56.6593 H         1 PHE         0.0599
    234 H          12.5810  -28.4092  -57.6833 H         1 PHE         0.0599
    235 H          12.6436  -25.9229  -57.6949 H         1 PHE         0.0559
    236 H          19.2146  -27.8705  -56.5288 H         1 GLN         0.1875
    237 H          18.4735  -26.9998  -59.2326 H         1 GLN         0.0727
    238 H          19.0754  -25.4157  -57.4551 H         1 GLN         0.0330
    239 H          20.1156  -25.2795  -58.9764 H         1 GLN         0.0330
    240 H          21.8124  -26.5892  -57.7031 H         1 GLN         0.0504
    241 H          20.8239  -26.2199  -56.2259 H         1 GLN         0.0504
    242 H          23.6366  -23.6992  -56.8689 H         1 GLN         0.1814
    243 H          23.6130  -25.4645  -56.9339 H         1 GLN         0.1814
@<TRIPOS>BOND
     1    1    2 1  
     2    2    3 1  
     3    2    5 1  
     4    3    4 2  
     5    3   10 am 
     6    5    6 1  
     7    6    7 1  
     8    7    8 ar 
     9    7    9 ar 
    10   10   11 1  
    11   11   12 1  
    12   11   14 1  
    13   12   13 2  
    14   12   19 am 
    15   14   15 1  
    16   15   16 1  
    17   16   17 1  
    18   17   18 1  
    19   19   20 1  
    20   20   21 1  
    21   20   23 1  
    22   21   22 2  
    23   21   27 am 
    24   23   24 1  
    25   24   25 1  
    26   24   26 1  
    27   27   28 1  
    28   28   29 1  
    29   28   31 1  
    30   29   30 2  
    31   29   35 am 
    32   31   32 1  
    33   32   33 1  
    34   33   34 1  
    35   35   36 1  
    36   36   37 1  
    37   36   39 1  
    38   37   38 2  
    39   37   44 am 
    40   39   40 1  
    41   40   41 1  
    42   41   42 1  
    43   42   43 1  
    44   44   45 1  
    45   45   46 1  
    46   45   48 1  
    47   46   47 2  
    48   46   49 am 
    49   49   50 1  
    50   50   51 1  
    51   50   53 1  
    52   51   52 2  
    53   51   60 am 
    54   53   54 1  
    55   54   55 ar 
    56   54   56 ar 
    57   55   57 ar 
    58   56   58 ar 
    59   57   59 ar 
    60   58   59 ar 
    61   60   61 1  
    62   61   62 1  
    63   61   64 1  
    64   62   63 2  
    65   62   69 am 
    66   64   65 1  
    67   65   66 1  
    68   66   67 ar 
    69   66   68 ar 
    70   69   70 1  
    71   70   71 1  
    72   70   73 1  
    73   71   72 2  
    74   71   75 am 
    75   73   74 1  
    76   75   76 1  
    77   76   77 1  
    78   76   79 1  
    79   77   78 2  
    80   77   83 am 
    81   79   80 1  
    82   80   81 1  
    83   80   82 1  
    84   83   84 1  
    85   84   85 1  
    86   84   87 1  
    87   85   86 2  
    88   85   92 am 
    89   87   88 1  
    90   88   89 1  
    91   89   90 1  
    92   90   91 1  
    93   92   93 1  
    94   93   94 1  
    95   93   96 1  
    96   94   95 2  
    97   94   98 am 
    98   96   97 1  
    99   98   99 1  
   100   99  100 1  
   101   99  102 1  
   102  100  101 2  
   103  100  109 am 
   104  102  103 1  
   105  103  104 ar 
   106  103  105 ar 
   107  104  106 ar 
   108  105  107 ar 
   109  106  108 ar 
   110  107  108 ar 
   111  109  110 1  
   112  110  111 1  
   113  110  113 1  
   114  111  112 ar 
   115  111  118 ar 
   116  113  114 1  
   117  114  115 1  
   118  115  116 2  
   119  115  117 am 
   120    1  119 1  
   121    1  120 1  
   122    1  121 1  
   123    2  122 1  
   124    5  123 1  
   125    5  124 1  
   126    6  125 1  
   127    6  126 1  
   128   10  127 1  
   129   11  128 1  
   130   14  129 1  
   131   14  130 1  
   132   15  131 1  
   133   15  132 1  
   134   16  133 1  
   135   16  134 1  
   136   17  135 1  
   137   17  136 1  
   138   18  137 1  
   139   18  138 1  
   140   18  139 1  
   141   19  140 1  
   142   20  141 1  
   143   23  142 1  
   144   23  143 1  
   145   24  144 1  
   146   25  145 1  
   147   25  146 1  
   148   25  147 1  
   149   26  148 1  
   150   26  149 1  
   151   26  150 1  
   152   27  151 1  
   153   28  152 1  
   154   31  153 1  
   155   31  154 1  
   156   32  155 1  
   157   32  156 1  
   158   34  157 1  
   159   34  158 1  
   160   34  159 1  
   161   35  160 1  
   162   36  161 1  
   163   39  162 1  
   164   39  163 1  
   165   40  164 1  
   166   40  165 1  
   167   41  166 1  
   168   41  167 1  
   169   42  168 1  
   170   42  169 1  
   171   43  170 1  
   172   43  171 1  
   173   43  172 1  
   174   44  173 1  
   175   45  174 1  
   176   48  175 1  
   177   48  176 1  
   178   48  177 1  
   179   49  178 1  
   180   50  179 1  
   181   53  180 1  
   182   53  181 1  
   183   55  182 1  
   184   56  183 1  
   185   57  184 1  
   186   58  185 1  
   187   59  186 1  
   188   60  187 1  
   189   61  188 1  
   190   64  189 1  
   191   64  190 1  
   192   65  191 1  
   193   65  192 1  
   194   69  193 1  
   195   70  194 1  
   196   73  195 1  
   197   73  196 1  
   198   74  197 1  
   199   75  198 1  
   200   76  199 1  
   201   79  200 1  
   202   79  201 1  
   203   80  202 1  
   204   81  203 1  
   205   81  204 1  
   206   81  205 1  
   207   82  206 1  
   208   82  207 1  
   209   82  208 1  
   210   83  209 1  
   211   84  210 1  
   212   87  211 1  
   213   87  212 1  
   214   88  213 1  
   215   88  214 1  
   216   89  215 1  
   217   89  216 1  
   218   90  217 1  
   219   90  218 1  
   220   91  219 1  
   221   91  220 1  
   222   91  221 1  
   223   92  222 1  
   224   93  223 1  
   225   96  224 1  
   226   96  225 1  
   227   97  226 1  
   228   98  227 1  
   229   99  228 1  
   230  102  229 1  
   231  102  230 1  
   232  104  231 1  
   233  105  232 1  
   234  106  233 1  
   235  107  234 1  
   236  108  235 1  
   237  109  236 1  
   238  110  237 1  
   239  113  238 1  
   240  113  239 1  
   241  114  240 1  
   242  114  241 1  
   243  117  242 1  
   244  117  243 1  
@<TRIPOS>SUBSTRUCTURE
     1 GLU         1

