3lrh_ligand
  -I-interpret- 

246247  0  0  0  0  0  0  0  0999 V2000
   23.5880  -31.4880  -37.8930 N   0  3  0  0  0
   23.8280  -31.5950  -39.3640 C   0  0  0  0  0
   22.5880  -31.2320  -40.1860 C   0  0  0  0  0
   22.5800  -31.4050  -41.4070 O   0  0  0  0  0
   24.3140  -33.0030  -39.7310 C   0  0  0  0  0
   25.7450  -33.3110  -39.2980 C   0  0  0  0  0
   26.2000  -34.7040  -39.7060 C   0  0  0  0  0
   26.2890  -34.9790  -40.9220 O   0  0  0  0  0
   26.4790  -35.5240  -38.8060 O   0  0  0  0  0
   21.5530  -30.7280  -39.5130 N   0  0  0  0  0
   20.2910  -30.3500  -40.1610 C   0  0  0  0  0
   20.4780  -29.3480  -41.2960 C   0  0  0  0  0
   19.9830  -29.5640  -42.4060 O   0  0  0  0  0
   19.2890  -29.7950  -39.1380 C   0  0  0  0  0
   18.4970  -30.8510  -38.3790 C   0  0  0  0  0
   17.4340  -31.4930  -39.2580 C   0  0  0  0  0
   16.8060  -32.7000  -38.5810 C   0  0  0  0  0
   15.9890  -33.4810  -39.5460 N   0  3  0  0  0
   21.1950  -28.2620  -41.0090 N   0  0  0  0  0
   21.4370  -27.1990  -41.9820 C   0  0  0  0  0
   22.2570  -27.6860  -43.1750 C   0  0  0  0  0
   21.9480  -27.3450  -44.3200 O   0  0  0  0  0
   22.1140  -25.9970  -41.3100 C   0  0  0  0  0
   22.4360  -24.7470  -42.1400 C   0  0  0  0  0
   21.2000  -24.1710  -42.8260 C   0  0  0  0  0
   23.1010  -23.6950  -41.2680 C   0  0  0  0  0
   23.2940  -28.4780  -42.8990 N   0  0  0  0  0
   24.1430  -29.0570  -43.9430 C   0  0  0  0  0
   23.3320  -29.9610  -44.8740 C   0  0  0  0  0
   23.4170  -29.8360  -46.0990 O   0  0  0  0  0
   25.3060  -29.8430  -43.3240 C   0  0  0  0  0
   26.3660  -30.2790  -44.3270 C   0  0  0  0  0
   27.2440  -31.7770  -43.8430 S   0  0  0  0  0
   28.2560  -32.0580  -45.2960 C   0  0  0  0  0
   22.5460  -30.8570  -44.2790 N   0  0  0  0  0
   21.6940  -31.7900  -45.0190 C   0  0  0  0  0
   20.6920  -31.0360  -45.8900 C   0  0  0  0  0
   20.3650  -31.4760  -46.9920 O   0  0  0  0  0
   20.9630  -32.7280  -44.0510 C   0  0  0  0  0
   20.4500  -34.0170  -44.6840 C   0  0  0  0  0
   19.5720  -34.8070  -43.7170 C   0  0  0  0  0
   19.0910  -36.1100  -44.3460 C   0  0  0  0  0
   18.2280  -36.8940  -43.4200 N   0  3  0  0  0
   20.2240  -29.8980  -45.3830 N   0  0  0  0  0
   19.3200  -29.0060  -46.1160 C   0  0  0  0  0
   19.9930  -28.3240  -47.3130 C   0  0  0  0  0
   19.3530  -28.0990  -48.3370 O   0  0  0  0  0
   18.7210  -27.9670  -45.1760 C   0  0  0  0  0
   21.2740  -27.9870  -47.1750 N   0  0  0  0  0
   22.0520  -27.4630  -48.2980 C   0  0  0  0  0
   22.2660  -28.5350  -49.3650 C   0  0  0  0  0
   22.2960  -28.2330  -50.5580 O   0  0  0  0  0
   23.4010  -26.8980  -47.8370 C   0  0  0  0  0
   23.3270  -25.4860  -47.3100 C   0  0  0  0  0
   23.7670  -25.1870  -46.0230 C   0  0  0  0  0
   22.8230  -24.4550  -48.1030 C   0  0  0  0  0
   23.7030  -23.8820  -45.5310 C   0  0  0  0  0
   22.7540  -23.1500  -47.6230 C   0  0  0  0  0
   23.1940  -22.8610  -46.3340 C   0  0  0  0  0
   22.4040  -29.7840  -48.9250 N   0  0  0  0  0
   22.5770  -30.9200  -49.8320 C   0  0  0  0  0
   21.3060  -31.2180  -50.6320 C   0  0  0  0  0
   21.3760  -31.7480  -51.7430 O   0  0  0  0  0
   23.0310  -32.1600  -49.0610 C   0  0  0  0  0
   24.4390  -32.0520  -48.4850 C   0  0  0  0  0
   24.7330  -33.1230  -47.4520 C   0  0  0  0  0
   24.6400  -34.3230  -47.7860 O   0  0  0  0  0
   25.0630  -32.7640  -46.3020 O   0  0  0  0  0
   20.1510  -30.8740  -50.0640 N   0  0  0  0  0
   18.8780  -31.0070  -50.7650 C   0  0  0  0  0
   18.7280  -29.9260  -51.8350 C   0  0  0  0  0
   18.1050  -30.1590  -52.8700 O   0  0  0  0  0
   17.6990  -30.9850  -49.7860 C   0  0  0  0  0
   17.5390  -29.7160  -49.1760 O   0  0  0  0  0
   19.3050  -28.7510  -51.5810 N   0  0  0  0  0
   19.3540  -27.6780  -52.5750 C   0  0  0  0  0
   20.2900  -28.0510  -53.7260 C   0  0  0  0  0
   19.9630  -27.8250  -54.8940 O   0  0  0  0  0
   19.7950  -26.3530  -51.9410 C   0  0  0  0  0
   19.7900  -25.1140  -52.8510 C   0  0  0  0  0
   18.4360  -24.4170  -52.8290 C   0  0  0  0  0
   20.8850  -24.1420  -52.4570 C   0  0  0  0  0
   21.4460  -28.6220  -53.3850 N   0  0  0  0  0
   22.4090  -29.1080  -54.3710 C   0  0  0  0  0
   21.7630  -30.1360  -55.2990 C   0  0  0  0  0
   21.9530  -30.0900  -56.5140 O   0  0  0  0  0
   23.6280  -29.7230  -53.6750 C   0  0  0  0  0
   24.7830  -30.0480  -54.6100 C   0  0  0  0  0
   25.7330  -31.0600  -53.9910 C   0  0  0  0  0
   26.6660  -31.6440  -55.0410 C   0  0  0  0  0
   27.4360  -32.8030  -54.5170 N   0  3  0  0  0
   21.0000  -31.0550  -54.7100 N   0  0  0  0  0
   20.2430  -32.0520  -55.4580 C   0  0  0  0  0
   19.1200  -31.4150  -56.2790 C   0  0  0  0  0
   18.8300  -31.8660  -57.3900 O   0  0  0  0  0
   19.6680  -33.1030  -54.5040 C   0  0  0  0  0
   18.8410  -34.0280  -55.1890 O   0  0  0  0  0
   18.4990  -30.3720  -55.7280 N   0  0  0  0  0
   17.4000  -29.6700  -56.3970 C   0  0  0  0  0
   17.8650  -28.9140  -57.6390 C   0  0  0  0  0
   17.3620  -29.1530  -58.7370 O   0  0  0  0  0
   16.6740  -28.7230  -55.4290 C   0  0  0  0  0
   15.5450  -27.9440  -56.0610 C   0  0  0  0  0
   15.5710  -26.5490  -56.0790 C   0  0  0  0  0
   14.4630  -28.6010  -56.6440 C   0  0  0  0  0
   14.5330  -25.8200  -56.6590 C   0  0  0  0  0
   13.4210  -27.8820  -57.2310 C   0  0  0  0  0
   13.4560  -26.4880  -57.2380 C   0  0  0  0  0
   18.8210  -28.0060  -57.4600 N   0  0  0  0  0
   19.3170  -27.2000  -58.5720 C   0  0  0  0  0
   20.3630  -27.9540  -59.3880 C   0  0  0  0  0
   20.7830  -27.5040  -60.4530 O   0  0  0  0  0
   19.8550  -25.8470  -58.0830 C   0  0  0  0  0
   21.1140  -25.9010  -57.2270 C   0  0  0  0  0
   21.8010  -24.5500  -57.1050 C   0  0  0  0  0
   21.1590  -23.5010  -57.1400 O   0  0  0  0  0
   23.1180  -24.5730  -56.9580 N   0  0  0  0  0
   20.8030  -29.0380  -59.0030 O   0  0  0  0  0
   23.2661  -30.5462  -37.6699 H   0  0  0  0  0
   22.8783  -32.1659  -37.6153 H   0  0  0  0  0
   24.4564  -31.6791  -37.3932 H   0  0  0  0  0
   24.6045  -30.8712  -39.6116 H   0  0  0  0  0
   24.2866  -33.0769  -40.8181 H   0  0  0  0  0
   23.6649  -33.7096  -39.2138 H   0  0  0  0  0
   25.7834  -33.2535  -38.2102 H   0  0  0  0  0
   26.4024  -32.5903  -39.7843 H   0  0  0  0  0
   26.0298  -34.2145  -41.4416 H   0  0  0  0  0
   21.6419  -30.5996  -38.5050 H   0  0  0  0  0
   19.8940  -31.2659  -40.5986 H   0  0  0  0  0
   18.5666  -29.1986  -39.6952 H   0  0  0  0  0
   19.8672  -29.2416  -38.3980 H   0  0  0  0  0
   18.0019  -30.3700  -37.5355 H   0  0  0  0  0
   19.1867  -31.6280  -38.0495 H   0  0  0  0  0
   17.9048  -31.8227  -40.1841 H   0  0  0  0  0
   16.6521  -30.7575  -39.4472 H   0  0  0  0  0
   16.1606  -32.3538  -37.7737 H   0  0  0  0  0
   17.6001  -33.3391  -38.1950 H   0  0  0  0  0
   15.5785  -34.2843  -39.0701 H   0  0  0  0  0
   15.2465  -32.8890  -39.9184 H   0  0  0  0  0
   16.5832  -33.8039  -40.3096 H   0  0  0  0  0
   21.5904  -28.1691  -40.0734 H   0  0  0  0  0
   20.4669  -26.8850  -42.3673 H   0  0  0  0  0
   23.0854  -26.3720  -40.9878 H   0  0  0  0  0
   21.3948  -25.6560  -40.5653 H   0  0  0  0  0
   23.1255  -25.0492  -42.9282 H   0  0  0  0  0
   20.7749  -24.9198  -43.4944 H   0  0  0  0  0
   20.4630  -23.8949  -42.0719 H   0  0  0  0  0
   21.4827  -23.2885  -43.3999 H   0  0  0  0  0
   22.4286  -23.4208  -40.4551 H   0  0  0  0  0
   24.0259  -24.0983  -40.8558 H   0  0  0  0  0
   23.3237  -22.8139  -41.8698 H   0  0  0  0  0
   23.5040  -28.6887  -41.9233 H   0  0  0  0  0
   24.5508  -28.2356  -44.5322 H   0  0  0  0  0
   24.8860  -30.7480  -42.8851 H   0  0  0  0  0
   25.7938  -29.1844  -42.6053 H   0  0  0  0  0
   27.1009  -29.4769  -44.3955 H   0  0  0  0  0
   25.8588  -30.4872  -45.2690 H   0  0  0  0  0
   27.6122  -32.1904  -46.1655 H   0  0  0  0  0
   28.9095  -31.2000  -45.4535 H   0  0  0  0  0
   28.8594  -32.9538  -45.1492 H   0  0  0  0  0
   22.5373  -30.8949  -43.2597 H   0  0  0  0  0
   22.3293  -32.3887  -45.6717 H   0  0  0  0  0
   20.0926  -32.1871  -43.6795 H   0  0  0  0  0
   21.6804  -33.0143  -43.2819 H   0  0  0  0  0
   21.3076  -34.6337  -44.9529 H   0  0  0  0  0
   19.8527  -33.7575  -45.5581 H   0  0  0  0  0
   18.7018  -34.2014  -43.4638 H   0  0  0  0  0
   20.1591  -35.0452  -42.8301 H   0  0  0  0  0
   19.9656  -36.7136  -44.5885 H   0  0  0  0  0
   18.5043  -35.8640  -45.2311 H   0  0  0  0  0
   17.9305  -37.7541  -43.8807 H   0  0  0  0  0
   18.7555  -37.1230  -42.5776 H   0  0  0  0  0
   17.4089  -36.3401  -43.1697 H   0  0  0  0  0
   20.5077  -29.6337  -44.4396 H   0  0  0  0  0
   18.5229  -29.6298  -46.5205 H   0  0  0  0  0
   18.1613  -28.4713  -44.3883 H   0  0  0  0  0
   19.5219  -27.3754  -44.7326 H   0  0  0  0  0
   18.0528  -27.3137  -45.7370 H   0  0  0  0  0
   21.7230  -28.0967  -46.2657 H   0  0  0  0  0
   21.4759  -26.6469  -48.7342 H   0  0  0  0  0
   24.0599  -26.8850  -48.7052 H   0  0  0  0  0
   23.7544  -27.5293  -47.0218 H   0  0  0  0  0
   24.1661  -25.9813  -45.3922 H   0  0  0  0  0
   22.4781  -24.6744  -49.1135 H   0  0  0  0  0
   24.0500  -23.6613  -44.5216 H   0  0  0  0  0
   22.3563  -22.3560  -48.2551 H   0  0  0  0  0
   23.1410  -21.8409  -45.9537 H   0  0  0  0  0
   22.3886  -29.9555  -47.9196 H   0  0  0  0  0
   23.3524  -30.6467  -50.5477 H   0  0  0  0  0
   23.0320  -32.9943  -49.7625 H   0  0  0  0  0
   22.3473  -32.2868  -48.2216 H   0  0  0  0  0
   24.5267  -31.0820  -47.9955 H   0  0  0  0  0
   25.1463  -32.1751  -49.3052 H   0  0  0  0  0
   25.0732  -31.8051  -46.2579 H   0  0  0  0  0
   20.1567  -30.5073  -49.1122 H   0  0  0  0  0
   18.8721  -31.9758  -51.2645 H   0  0  0  0  0
   17.8928  -31.7177  -49.0026 H   0  0  0  0  0
   16.7898  -31.2128  -50.3423 H   0  0  0  0  0
   16.7930  -29.7441  -48.5724 H   0  0  0  0  0
   19.7255  -28.5951  -50.6649 H   0  0  0  0  0
   18.3469  -27.5465  -52.9706 H   0  0  0  0  0
   20.8318  -26.4970  -51.6370 H   0  0  0  0  0
   19.0752  -26.1458  -51.1492 H   0  0  0  0  0
   19.9820  -25.4575  -53.8675 H   0  0  0  0  0
   17.6678  -25.1072  -53.1776 H   0  0  0  0  0
   18.2078  -24.1013  -51.8110 H   0  0  0  0  0
   18.4668  -23.5454  -53.4828 H   0  0  0  0  0
   20.7296  -23.8195  -51.4275 H   0  0  0  0  0
   21.8539  -24.6340  -52.5426 H   0  0  0  0  0
   20.8559  -23.2763  -53.1186 H   0  0  0  0  0
   21.6673  -28.7238  -52.3945 H   0  0  0  0  0
   22.7372  -28.2579  -54.9690 H   0  0  0  0  0
   23.3027  -30.6623  -53.2278 H   0  0  0  0  0
   23.9927  -28.9883  -52.9572 H   0  0  0  0  0
   25.3368  -29.1300  -54.8067 H   0  0  0  0  0
   24.3755  -30.4731  -55.5273 H   0  0  0  0  0
   25.1469  -31.8689  -53.5548 H   0  0  0  0  0
   26.3319  -30.5584  -53.2308 H   0  0  0  0  0
   27.3738  -30.8698  -55.3373 H   0  0  0  0  0
   26.0623  -31.9870  -55.8812 H   0  0  0  0  0
   28.0469  -33.1632  -55.2501 H   0  0  0  0  0
   27.9985  -32.5038  -53.7205 H   0  0  0  0  0
   26.7889  -33.5343  -54.2222 H   0  0  0  0  0
   20.9426  -31.0618  -53.6916 H   0  0  0  0  0
   20.9294  -32.5331  -56.1548 H   0  0  0  0  0
   19.0668  -32.5939  -53.7507 H   0  0  0  0  0
   20.4959  -33.6488  -54.0515 H   0  0  0  0  0
   18.4974  -34.6715  -54.5650 H   0  0  0  0  0
   18.7995  -30.0509  -54.8077 H   0  0  0  0  0
   16.6966  -30.4346  -56.7268 H   0  0  0  0  0
   17.4075  -27.9987  -55.0749 H   0  0  0  0  0
   16.2403  -29.3378  -54.6403 H   0  0  0  0  0
   16.4144  -26.0215  -55.6335 H   0  0  0  0  0
   14.4302  -29.6905  -56.6414 H   0  0  0  0  0
   14.5642  -24.7304  -56.6593 H   0  0  0  0  0
   12.5810  -28.4092  -57.6833 H   0  0  0  0  0
   12.6436  -25.9229  -57.6949 H   0  0  0  0  0
   19.2146  -27.8705  -56.5288 H   0  0  0  0  0
   18.4735  -26.9998  -59.2326 H   0  0  0  0  0
   19.0754  -25.4157  -57.4551 H   0  0  0  0  0
   20.1156  -25.2795  -58.9764 H   0  0  0  0  0
   21.8124  -26.5892  -57.7031 H   0  0  0  0  0
   20.8239  -26.2199  -56.2259 H   0  0  0  0  0
   23.6366  -23.6992  -56.8689 H   0  0  0  0  0
   23.6130  -25.4645  -56.9339 H   0  0  0  0  0
   20.3940  -29.2690  -58.1658 H   0  0  0  0  0
  1  2  1  0  0  0
  2  3  1  0  0  0
  2  5  1  0  0  0
  3  4  2  0  0  0
  3 10  1  0  0  0
  5  6  1  0  0  0
  6  7  1  0  0  0
  7  8  1  0  0  0
  7  9  2  0  0  0
 10 11  1  0  0  0
 11 12  1  0  0  0
 11 14  1  0  0  0
 12 13  2  0  0  0
 12 19  1  0  0  0
 14 15  1  0  0  0
 15 16  1  0  0  0
 16 17  1  0  0  0
 17 18  1  0  0  0
 19 20  1  0  0  0
 20 21  1  0  0  0
 20 23  1  0  0  0
 21 22  2  0  0  0
 21 27  1  0  0  0
 23 24  1  0  0  0
 24 25  1  0  0  0
 24 26  1  0  0  0
 27 28  1  0  0  0
 28 29  1  0  0  0
 28 31  1  0  0  0
 29 30  2  0  0  0
 29 35  1  0  0  0
 31 32  1  0  0  0
 32 33  1  0  0  0
 33 34  1  0  0  0
 35 36  1  0  0  0
 36 37  1  0  0  0
 36 39  1  0  0  0
 37 38  2  0  0  0
 37 44  1  0  0  0
 39 40  1  0  0  0
 40 41  1  0  0  0
 41 42  1  0  0  0
 42 43  1  0  0  0
 44 45  1  0  0  0
 45 46  1  0  0  0
 45 48  1  0  0  0
 46 47  2  0  0  0
 46 49  1  0  0  0
 49 50  1  0  0  0
 50 51  1  0  0  0
 50 53  1  0  0  0
 51 52  2  0  0  0
 51 60  1  0  0  0
 53 54  1  0  0  0
 54 55  4  0  0  0
 54 56  4  0  0  0
 55 57  4  0  0  0
 56 58  4  0  0  0
 57 59  4  0  0  0
 58 59  4  0  0  0
 60 61  1  0  0  0
 61 62  1  0  0  0
 61 64  1  0  0  0
 62 63  2  0  0  0
 62 69  1  0  0  0
 64 65  1  0  0  0
 65 66  1  0  0  0
 66 67  2  0  0  0
 66 68  1  0  0  0
 69 70  1  0  0  0
 70 71  1  0  0  0
 70 73  1  0  0  0
 71 72  2  0  0  0
 71 75  1  0  0  0
 73 74  1  0  0  0
 75 76  1  0  0  0
 76 77  1  0  0  0
 76 79  1  0  0  0
 77 78  2  0  0  0
 77 83  1  0  0  0
 79 80  1  0  0  0
 80 81  1  0  0  0
 80 82  1  0  0  0
 83 84  1  0  0  0
 84 85  1  0  0  0
 84 87  1  0  0  0
 85 86  2  0  0  0
 85 92  1  0  0  0
 87 88  1  0  0  0
 88 89  1  0  0  0
 89 90  1  0  0  0
 90 91  1  0  0  0
 92 93  1  0  0  0
 93 94  1  0  0  0
 93 96  1  0  0  0
 94 95  2  0  0  0
 94 98  1  0  0  0
 96 97  1  0  0  0
 98 99  1  0  0  0
 99100  1  0  0  0
 99102  1  0  0  0
100101  2  0  0  0
100109  1  0  0  0
102103  1  0  0  0
103104  4  0  0  0
103105  4  0  0  0
104106  4  0  0  0
105107  4  0  0  0
106108  4  0  0  0
107108  4  0  0  0
109110  1  0  0  0
110111  1  0  0  0
110113  1  0  0  0
111112  2  0  0  0
111118  1  0  0  0
113114  1  0  0  0
114115  1  0  0  0
115116  2  0  0  0
115117  1  0  0  0
  1119  1  0  0  0
  1120  1  0  0  0
  1121  1  0  0  0
  2122  1  0  0  0
  5123  1  0  0  0
  5124  1  0  0  0
  6125  1  0  0  0
  6126  1  0  0  0
  8127  1  0  0  0
 10128  1  0  0  0
 11129  1  0  0  0
 14130  1  0  0  0
 14131  1  0  0  0
 15132  1  0  0  0
 15133  1  0  0  0
 16134  1  0  0  0
 16135  1  0  0  0
 17136  1  0  0  0
 17137  1  0  0  0
 18138  1  0  0  0
 18139  1  0  0  0
 18140  1  0  0  0
 19141  1  0  0  0
 20142  1  0  0  0
 23143  1  0  0  0
 23144  1  0  0  0
 24145  1  0  0  0
 25146  1  0  0  0
 25147  1  0  0  0
 25148  1  0  0  0
 26149  1  0  0  0
 26150  1  0  0  0
 26151  1  0  0  0
 27152  1  0  0  0
 28153  1  0  0  0
 31154  1  0  0  0
 31155  1  0  0  0
 32156  1  0  0  0
 32157  1  0  0  0
 34158  1  0  0  0
 34159  1  0  0  0
 34160  1  0  0  0
 35161  1  0  0  0
 36162  1  0  0  0
 39163  1  0  0  0
 39164  1  0  0  0
 40165  1  0  0  0
 40166  1  0  0  0
 41167  1  0  0  0
 41168  1  0  0  0
 42169  1  0  0  0
 42170  1  0  0  0
 43171  1  0  0  0
 43172  1  0  0  0
 43173  1  0  0  0
 44174  1  0  0  0
 45175  1  0  0  0
 48176  1  0  0  0
 48177  1  0  0  0
 48178  1  0  0  0
 49179  1  0  0  0
 50180  1  0  0  0
 53181  1  0  0  0
 53182  1  0  0  0
 55183  1  0  0  0
 56184  1  0  0  0
 57185  1  0  0  0
 58186  1  0  0  0
 59187  1  0  0  0
 60188  1  0  0  0
 61189  1  0  0  0
 64190  1  0  0  0
 64191  1  0  0  0
 65192  1  0  0  0
 65193  1  0  0  0
 68194  1  0  0  0
 69195  1  0  0  0
 70196  1  0  0  0
 73197  1  0  0  0
 73198  1  0  0  0
 74199  1  0  0  0
 75200  1  0  0  0
 76201  1  0  0  0
 79202  1  0  0  0
 79203  1  0  0  0
 80204  1  0  0  0
 81205  1  0  0  0
 81206  1  0  0  0
 81207  1  0  0  0
 82208  1  0  0  0
 82209  1  0  0  0
 82210  1  0  0  0
 83211  1  0  0  0
 84212  1  0  0  0
 87213  1  0  0  0
 87214  1  0  0  0
 88215  1  0  0  0
 88216  1  0  0  0
 89217  1  0  0  0
 89218  1  0  0  0
 90219  1  0  0  0
 90220  1  0  0  0
 91221  1  0  0  0
 91222  1  0  0  0
 91223  1  0  0  0
 92224  1  0  0  0
 93225  1  0  0  0
 96226  1  0  0  0
 96227  1  0  0  0
 97228  1  0  0  0
 98229  1  0  0  0
 99230  1  0  0  0
102231  1  0  0  0
102232  1  0  0  0
104233  1  0  0  0
105234  1  0  0  0
106235  1  0  0  0
107236  1  0  0  0
108237  1  0  0  0
109238  1  0  0  0
110239  1  0  0  0
113240  1  0  0  0
113241  1  0  0  0
114242  1  0  0  0
114243  1  0  0  0
117244  1  0  0  0
117245  1  0  0  0
118246  1  0  0  0
M  END
$$$$
