2pu1_ligand
  -I-interpret- 

 15 14  0  0  0  0  0  0  0  0999 V2000
   26.6900   24.4750  -16.8690 O   0  0  0  0  0
   26.4250   25.8380  -16.3870 P   0  0  0  0  0
   27.6630   26.5850  -16.1440 O   0  0  0  0  0
   25.4870   25.9090  -15.2800 O   0  0  0  0  0
   25.6410   26.7240  -17.7910 C   0  0  0  0  0
   25.8300   28.0530  -17.6240 F   0  0  0  0  0
   24.1600   26.5140  -17.8150 C   0  0  0  0  0
   23.4380   27.1010  -17.0480 O   0  0  0  0  0
   23.7290   25.6730  -18.7300 N   0  0  0  0  0
   22.4060   25.3770  -18.8540 O   0  0  0  0  0
   27.3153   24.5100  -17.5966 H   0  0  0  0  0
   28.2406   26.5015  -16.9062 H   0  0  0  0  0
   26.0872   26.3450  -18.7104 H   0  0  0  0  0
   24.4001   25.2334  -19.3599 H   0  0  0  0  0
   22.2854   24.7496  -19.5706 H   0  0  0  0  0
  1  2  1  0  0  0
  2  3  1  0  0  0
  2  4  2  0  0  0
  2  5  1  0  0  0
  5  6  1  0  0  0
  5  7  1  0  0  0
  7  8  2  0  0  0
  7  9  1  0  0  0
  9 10  1  0  0  0
  1 11  1  0  0  0
  3 12  1  0  0  0
  5 13  1  0  0  0
  9 14  1  0  0  0
 10 15  1  0  0  0
M  END
$$$$
