4kfq_ligand
  -I-interpret- 

 21 23  0  0  0  0  0  0  0  0999 V2000
   26.2830   35.7100   49.9170 O   0  0  0  0  0
   26.5270   35.3740   48.7300 C   0  0  0  0  0
   26.6270   33.9680   48.3660 C   0  0  0  0  0
   26.4860   32.9380   49.1940 N   0  0  0  0  0
   26.6680   31.8120   48.4640 N   0  0  0  0  0
   26.9030   32.1760   47.2150 C   0  0  0  0  0
   27.1610   31.0040   45.9380 S   0  0  0  0  0
   26.8840   33.5470   47.0930 N   0  0  0  0  0
   27.0890   34.4600   46.0210 C   0  0  0  0  0
   27.3530   34.0760   44.6950 C   0  0  0  0  0
   27.5250   35.0490   43.7260 C   0  0  0  0  0
   27.4250   36.4090   44.0770 C   0  0  0  0  0
   27.1520   36.7990   45.3800 C   0  0  0  0  0
   26.9780   35.8230   46.3660 C   0  0  0  0  0
   26.7070   36.2160   47.6880 N   0  0  0  0  0
   27.3735   31.6411   44.7900 H   0  0  0  0  0
   27.4217   33.0204   44.4320 H   0  0  0  0  0
   27.7370   34.7638   42.6955 H   0  0  0  0  0
   27.5649   37.1704   43.3097 H   0  0  0  0  0
   27.0739   37.8564   45.6328 H   0  0  0  0  0
   26.6409   37.2163   47.8761 H   0  0  0  0  0
  1  2  2  0  0  0
  2  3  1  0  0  0
  2 15  1  0  0  0
  3  4  4  0  0  0
  3  8  4  0  0  0
  4  5  4  0  0  0
  5  6  4  0  0  0
  6  7  1  0  0  0
  6  8  4  0  0  0
  8  9  1  0  0  0
  9 10  4  0  0  0
  9 14  4  0  0  0
 10 11  4  0  0  0
 11 12  4  0  0  0
 12 13  4  0  0  0
 13 14  4  0  0  0
 14 15  1  0  0  0
  7 16  1  0  0  0
 10 17  1  0  0  0
 11 18  1  0  0  0
 12 19  1  0  0  0
 13 20  1  0  0  0
 15 21  1  0  0  0
M  END
$$$$
