3cj2_ligand
  -I-interpret- 

 37 38  0  0  0  0  0  0  0  0999 V2000
  -19.2830    9.2300  -14.4060 Br  0  0  0  0  0
  -20.8160    8.5870  -15.3110 C   0  0  0  0  0
  -21.8210    9.5080  -15.6250 C   0  0  0  0  0
  -20.9370    7.2320  -15.6400 C   0  0  0  0  0
  -22.1080    6.8040  -16.2950 C   0  0  0  0  0
  -23.1370    7.7080  -16.6380 C   0  0  0  0  0
  -24.2690    7.2190  -17.3100 N   0  0  0  0  0
  -22.9800    9.0760  -16.2840 C   0  0  0  0  0
  -23.9740   10.1270  -16.6150 C   0  0  0  0  0
  -23.5970   10.9450  -17.4540 O   0  0  0  0  0
  -25.2720   10.2250  -16.0880 N   0  0  0  0  0
  -25.6520    9.3820  -14.9480 C   0  0  0  0  0
  -26.1280   10.1760  -13.7390 C   0  0  0  0  0
  -26.5810    9.2090  -12.6660 C   0  0  0  0  0
  -27.2440   11.1310  -14.1370 C   0  0  0  0  0
  -26.2000   11.3270  -16.4140 C   0  0  0  0  0
  -26.7800   12.0800  -15.2340 C   0  0  0  0  0
  -27.9560   12.9430  -15.6860 C   0  0  0  0  0
  -21.7031   10.5582  -15.3580 H   0  0  0  0  0
  -20.1442    6.5252  -15.3952 H   0  0  0  0  0
  -22.2228    5.7489  -16.5433 H   0  0  0  0  0
  -24.3363    6.2278  -17.5411 H   0  0  0  0  0
  -25.0239    7.8550  -17.5670 H   0  0  0  0  0
  -24.7674    8.8218  -14.6450 H   0  0  0  0  0
  -26.4780    8.7478  -15.2699 H   0  0  0  0  0
  -25.3108   10.7806  -13.3455 H   0  0  0  0  0
  -27.3970    8.5974  -13.0509 H   0  0  0  0  0
  -25.7471    8.5672  -12.3815 H   0  0  0  0  0
  -26.9239    9.7685  -11.7957 H   0  0  0  0  0
  -27.5321   11.7173  -13.2644 H   0  0  0  0  0
  -28.0873   10.5495  -14.5095 H   0  0  0  0  0
  -27.0448   10.8721  -16.9313 H   0  0  0  0  0
  -25.6228   12.0534  -16.9861 H   0  0  0  0  0
  -25.9904   12.7133  -14.8296 H   0  0  0  0  0
  -28.7495   12.3016  -16.0693 H   0  0  0  0  0
  -28.3295   13.5184  -14.8389 H   0  0  0  0  0
  -27.6254   13.6229  -16.4713 H   0  0  0  0  0
  1  2  1  0  0  0
  2  3  4  0  0  0
  2  4  4  0  0  0
  3  8  4  0  0  0
  4  5  4  0  0  0
  5  6  4  0  0  0
  6  7  1  0  0  0
  6  8  4  0  0  0
  8  9  1  0  0  0
  9 10  2  0  0  0
  9 11  1  0  0  0
 11 12  1  0  0  0
 11 16  1  0  0  0
 12 13  1  0  0  0
 13 14  1  0  0  0
 13 15  1  0  0  0
 15 17  1  0  0  0
 16 17  1  0  0  0
 17 18  1  0  0  0
  3 19  1  0  0  0
  4 20  1  0  0  0
  5 21  1  0  0  0
  7 22  1  0  0  0
  7 23  1  0  0  0
 12 24  1  0  0  0
 12 25  1  0  0  0
 13 26  1  0  0  0
 14 27  1  0  0  0
 14 28  1  0  0  0
 14 29  1  0  0  0
 15 30  1  0  0  0
 15 31  1  0  0  0
 16 32  1  0  0  0
 16 33  1  0  0  0
 17 34  1  0  0  0
 18 35  1  0  0  0
 18 36  1  0  0  0
 18 37  1  0  0  0
M  END
$$$$
