3vp1_ligand
  -I-interpret- 

 29 30  0  0  0  0  0  0  0  0999 V2000
    1.5630  -10.0170   -0.4480 O   0  0  0  0  0
   -2.9230   -7.2310   -0.5400 C   0  0  0  0  0
   -2.8220   -8.6310   -0.2040 C   0  0  0  0  0
   -1.9380   -6.6400   -1.4980 C   0  0  0  0  0
   -1.8170   -9.4630   -0.7570 C   0  0  0  0  0
   -0.9070   -7.5160   -2.0620 C   0  0  0  0  0
    7.6240   -8.9110    0.5390 C   0  0  0  0  0
    7.3940  -10.4340    0.2140 C   0  0  0  0  0
    0.2190   -9.8940   -2.2540 C   0  0  0  0  0
    5.1090  -10.2910    0.4910 N   0  0  0  0  0
    3.9300  -10.1970    0.0000 N   0  0  0  0  0
    2.8150  -10.0730   -2.3510 N   0  0  0  0  0
    7.8500   -7.8500    0.0000 S   0  0  0  0  0
    5.4590  -10.2710   -1.9700 S   0  0  0  0  0
    1.6020  -10.0010   -1.6710 C   0  0  0  0  0
   -0.8330   -8.9000   -1.7100 C   0  0  0  0  0
    6.0760  -10.3500   -0.4670 C   0  0  0  0  0
    3.8450  -10.1680   -1.3920 C   0  0  0  0  0
   -3.7064   -6.6128   -0.1016 H   0  0  0  0  0
   -3.5394   -9.0607    0.4952 H   0  0  0  0  0
   -1.9857   -5.5855   -1.7696 H   0  0  0  0  0
   -1.7682  -10.5164   -0.4812 H   0  0  0  0  0
   -0.1820   -7.1041   -2.7640 H   0  0  0  0  0
    7.5571   -8.7595    1.6163 H   0  0  0  0  0
    7.4129  -11.0903    1.0840 H   0  0  0  0  0
    8.1827  -10.8938   -0.3815 H   0  0  0  0  0
   -0.2209  -10.8689   -2.0439 H   0  0  0  0  0
    0.3986   -9.5423   -3.2699 H   0  0  0  0  0
    2.9371  -10.0594   -3.3636 H   0  0  0  0  0
 15  1  2  0  0  0
  3  2  4  0  0  0
  4  2  4  0  0  0
  5  3  4  0  0  0
  6  4  4  0  0  0
 16  5  4  0  0  0
 16  6  4  0  0  0
  8  7  1  0  0  0
  7 13  2  0  0  0
 17  8  1  0  0  0
 15  9  1  0  0  0
  9 16  1  0  0  0
 11 10  4  0  0  0
 10 17  4  0  0  0
 18 11  4  0  0  0
 12 15  1  0  0  0
 12 18  1  0  0  0
 17 14  4  0  0  0
 14 18  4  0  0  0
  2 19  1  0  0  0
  3 20  1  0  0  0
  4 21  1  0  0  0
  5 22  1  0  0  0
  6 23  1  0  0  0
  7 24  1  0  0  0
  8 25  1  0  0  0
  8 26  1  0  0  0
  9 27  1  0  0  0
  9 28  1  0  0  0
 12 29  1  0  0  0
M  END
$$$$
