4j93_ligand
  -I-interpret- 

 32 35  0  0  0  0  0  0  0  0999 V2000
   -3.1110    8.1750   10.4200 C   0  0  0  0  0
   -3.6170    7.5050   11.5330 C   0  0  0  0  0
   -2.6190    7.4470    9.3350 C   0  0  0  0  0
   -3.9550    5.1760    5.4670 C   0  0  0  0  0
   -3.6330    6.1060   11.5540 C   0  0  0  0  0
   -2.6290    6.0490    9.3570 C   0  0  0  0  0
   -3.0810    4.5250    6.3330 C   0  0  0  0  0
   -5.2710    4.7500    5.4150 C   0  0  0  0  0
   -4.8840    3.1180    6.9870 C   0  0  0  0  0
   -3.1440    5.3640   10.4680 C   0  0  0  0  0
   -3.5430    3.4730    7.1350 C   0  0  0  0  0
   -2.9420    2.9530    9.4910 C   0  0  0  0  0
   -3.1640    3.9040   10.5110 C   0  0  0  0  0
   -3.0790    1.7350   10.1030 C   0  0  0  0  0
   -2.8870    0.6500    9.2130 C   0  0  0  0  0
   -2.6010    2.7510    8.0580 C   0  0  0  0  0
   -5.7590    3.7350    6.1580 N   0  0  0  0  0
   -3.4260    3.2700   11.6800 N   0  0  0  0  0
   -3.3710    1.9470   11.3960 N   0  0  0  0  0
   -2.7510    1.2810    7.9760 N   0  0  0  0  0
   -2.8730   -0.5450    9.4450 O   0  0  0  0  0
   -3.0995    9.2647   10.3969 H   0  0  0  0  0
   -3.9989    8.0691   12.3839 H   0  0  0  0  0
   -2.2245    7.9720    8.4650 H   0  0  0  0  0
   -3.6111    6.0019    4.8444 H   0  0  0  0  0
   -4.0305    5.5857   12.4254 H   0  0  0  0  0
   -2.2355    5.4895    8.5084 H   0  0  0  0  0
   -2.0370    4.8336    6.3873 H   0  0  0  0  0
   -5.9513    5.2634    4.7356 H   0  0  0  0  0
   -5.2544    2.2832    7.5820 H   0  0  0  0  0
   -1.6261    3.1352    7.7580 H   0  0  0  0  0
   -2.7546    0.7730    7.0915 H   0  0  0  0  0
  2  1  4  0  0  0
  3  1  4  0  0  0
  5  2  4  0  0  0
  6  3  4  0  0  0
  7  4  4  0  0  0
  4  8  4  0  0  0
 10  5  4  0  0  0
 10  6  4  0  0  0
 11  7  4  0  0  0
 17  8  4  0  0  0
 11  9  4  0  0  0
  9 17  4  0  0  0
 13 10  1  0  0  0
 16 11  1  0  0  0
 12 13  4  0  0  0
 12 14  4  0  0  0
 12 16  1  0  0  0
 13 18  4  0  0  0
 14 15  1  0  0  0
 14 19  4  0  0  0
 15 20  1  0  0  0
 15 21  2  0  0  0
 16 20  1  0  0  0
 18 19  4  0  0  0
  1 22  1  0  0  0
  2 23  1  0  0  0
  3 24  1  0  0  0
  4 25  1  0  0  0
  5 26  1  0  0  0
  6 27  1  0  0  0
  7 28  1  0  0  0
  8 29  1  0  0  0
  9 30  1  0  0  0
 16 31  1  0  0  0
 20 32  1  0  0  0
M  END
$$$$
