3s3r_ligand
  -I-interpret- 

 82 85  0  0  0  0  0  0  0  0999 V2000
    0.8360  -14.5110  -22.7020 N   0  0  0  0  0
    1.6460  -14.6220  -21.6330 C   0  0  0  0  0
    2.6330  -15.3620  -21.6570 O   0  0  0  0  0
   -0.3400  -13.6360  -22.7040 C   0  0  0  0  0
   -0.8730  -13.4730  -24.1180 C   0  0  0  0  0
   -1.1280  -14.8020  -24.6500 N   0  3  0  0  0
   -2.3170  -15.0370  -25.4610 C   0  0  0  0  0
   -0.2010  -15.9020  -24.3970 C   0  0  0  0  0
    1.1090  -15.2790  -23.9230 C   0  0  0  0  0
    1.3630  -13.9180  -20.5330 N   0  0  0  0  0
    2.1910  -13.9920  -19.3270 C   0  0  0  0  0
    2.0430  -15.3480  -18.6960 C   0  0  0  0  0
    0.9370  -15.7740  -18.4520 O   0  0  0  0  0
    1.6870  -12.8920  -18.3810 C   0  0  0  0  0
    2.2090  -11.5380  -18.8160 C   0  0  0  0  0
    3.3930  -11.0360  -18.2660 C   0  0  0  0  0
    1.5100  -10.7870  -19.7600 C   0  0  0  0  0
    3.8670   -9.7850  -18.6700 C   0  0  0  0  0
    1.9780   -9.5370  -20.1610 C   0  0  0  0  0
    3.1570   -9.0340  -19.6120 C   0  0  0  0  0
    5.1690  -16.9180  -16.3090 C   0  0  0  0  0
    3.7030  -17.3150  -16.4480 C   0  0  0  0  0
    3.1000  -17.3700  -17.8600 C   0  0  0  0  0
    3.1480  -16.0380  -18.4480 N   0  0  0  0  0
    3.9490  -18.2510  -18.7700 C   0  0  0  0  0
    3.4030  -18.3410  -20.1880 C   0  0  0  0  0
    4.0910  -19.5040  -20.8540 C   0  0  0  0  0
    3.5010  -20.7740  -20.8030 C   0  0  0  0  0
    4.1500  -21.8470  -21.4020 C   0  0  0  0  0
    5.3650  -21.6430  -22.0570 C   0  0  0  0  0
    5.9520  -20.3730  -22.1050 C   0  0  0  0  0
    5.3120  -19.2950  -21.4970 C   0  0  0  0  0
    6.3640  -21.8570  -17.6970 C   0  0  0  0  0
    5.5550  -21.7690  -16.5480 C   0  0  0  0  0
    5.4460  -20.5640  -15.8230 C   0  0  0  0  0
    6.1520  -19.4390  -16.2500 C   0  0  0  0  0
    6.0730  -18.0490  -15.4620 S   0  0  0  0  0
    5.5530  -18.1990  -14.1350 O   0  0  0  0  0
    7.4260  -17.5740  -15.3300 O   0  0  0  0  0
    6.9640  -19.5380  -17.3860 C   0  0  0  0  0
    7.0790  -20.7320  -18.1180 C   0  0  0  0  0
   -0.0567  -12.6579  -22.3153 H   0  0  0  0  0
   -1.1155  -14.0804  -22.0801 H   0  0  0  0  0
   -0.1468  -12.9486  -24.7391 H   0  0  0  0  0
   -1.7903  -12.8842  -24.1122 H   0  0  0  0  0
   -0.8259  -14.7865  -23.6759 H   0  0  0  0  0
   -2.0175  -15.3704  -26.4546 H   0  0  0  0  0
   -2.9315  -15.8036  -24.9890 H   0  0  0  0  0
   -2.8876  -14.1120  -25.5435 H   0  0  0  0  0
   -0.0441  -16.4906  -25.3009 H   0  0  0  0  0
   -0.6018  -16.5793  -23.6429 H   0  0  0  0  0
    1.8427  -16.0588  -23.7191 H   0  0  0  0  0
    1.5136  -14.6244  -24.6949 H   0  0  0  0  0
    0.5443  -13.3097  -20.5332 H   0  0  0  0  0
    3.2474  -13.8477  -19.5533 H   0  0  0  0  0
    2.0433  -13.1016  -17.3724 H   0  0  0  0  0
    0.5974  -12.8759  -18.4052 H   0  0  0  0  0
    3.9431  -11.6175  -17.5262 H   0  0  0  0  0
    0.5886  -11.1813  -20.1885 H   0  0  0  0  0
    4.7932   -9.3933  -18.2495 H   0  0  0  0  0
    1.4256   -8.9559  -20.8995 H   0  0  0  0  0
    3.5255   -8.0547  -19.9174 H   0  0  0  0  0
    5.2090  -15.9787  -15.7575 H   0  0  0  0  0
    5.5893  -16.8387  -17.3116 H   0  0  0  0  0
    3.1431  -16.5397  -15.9250 H   0  0  0  0  0
    3.6429  -18.3351  -16.0685 H   0  0  0  0  0
    2.0838  -17.7552  -17.7758 H   0  0  0  0  0
    4.0533  -15.6262  -18.6744 H   0  0  0  0  0
    3.9514  -19.2570  -18.3505 H   0  0  0  0  0
    4.9444  -17.8103  -18.8246 H   0  0  0  0  0
    3.5942  -17.4169  -20.7335 H   0  0  0  0  0
    2.3230  -18.4881  -20.1760 H   0  0  0  0  0
    2.5450  -20.9185  -20.2998 H   0  0  0  0  0
    3.7116  -22.8441  -21.3603 H   0  0  0  0  0
    5.8641  -22.4842  -22.5380 H   0  0  0  0  0
    6.9043  -20.2283  -22.6151 H   0  0  0  0  0
    5.7591  -18.3013  -21.5232 H   0  0  0  0  0
    6.4321  -22.7924  -18.2524 H   0  0  0  0  0
    5.0033  -22.6473  -16.2129 H   0  0  0  0  0
    4.8149  -20.5121  -14.9358 H   0  0  0  0  0
    7.5243  -18.6620  -17.7128 H   0  0  0  0  0
    7.7163  -20.7802  -19.0010 H   0  0  0  0  0
  2  1  1  0  0  0
  1  4  1  0  0  0
  1  9  1  0  0  0
  2  3  2  0  0  0
 10  2  1  0  0  0
  4  5  1  0  0  0
  5  6  1  0  0  0
  6  7  1  0  0  0
  8  6  1  0  0  0
  9  8  1  0  0  0
 11 10  1  0  0  0
 12 11  1  0  0  0
 11 14  1  0  0  0
 12 13  2  0  0  0
 24 12  1  0  0  0
 14 15  1  0  0  0
 15 16  4  0  0  0
 15 17  4  0  0  0
 16 18  4  0  0  0
 17 19  4  0  0  0
 18 20  4  0  0  0
 19 20  4  0  0  0
 21 22  1  0  0  0
 37 21  1  0  0  0
 22 23  1  0  0  0
 23 24  1  0  0  0
 23 25  1  0  0  0
 25 26  1  0  0  0
 26 27  1  0  0  0
 27 28  4  0  0  0
 27 32  4  0  0  0
 28 29  4  0  0  0
 29 30  4  0  0  0
 31 30  4  0  0  0
 32 31  4  0  0  0
 34 33  4  0  0  0
 33 41  4  0  0  0
 35 34  4  0  0  0
 36 35  4  0  0  0
 36 37  1  0  0  0
 36 40  4  0  0  0
 37 38  2  0  0  0
 37 39  2  0  0  0
 40 41  4  0  0  0
  4 42  1  0  0  0
  4 43  1  0  0  0
  5 44  1  0  0  0
  5 45  1  0  0  0
  6 46  1  0  0  0
  7 47  1  0  0  0
  7 48  1  0  0  0
  7 49  1  0  0  0
  8 50  1  0  0  0
  8 51  1  0  0  0
  9 52  1  0  0  0
  9 53  1  0  0  0
 10 54  1  0  0  0
 11 55  1  0  0  0
 14 56  1  0  0  0
 14 57  1  0  0  0
 16 58  1  0  0  0
 17 59  1  0  0  0
 18 60  1  0  0  0
 19 61  1  0  0  0
 20 62  1  0  0  0
 21 63  1  0  0  0
 21 64  1  0  0  0
 22 65  1  0  0  0
 22 66  1  0  0  0
 23 67  1  0  0  0
 24 68  1  0  0  0
 25 69  1  0  0  0
 25 70  1  0  0  0
 26 71  1  0  0  0
 26 72  1  0  0  0
 28 73  1  0  0  0
 29 74  1  0  0  0
 30 75  1  0  0  0
 31 76  1  0  0  0
 32 77  1  0  0  0
 33 78  1  0  0  0
 34 79  1  0  0  0
 35 80  1  0  0  0
 40 81  1  0  0  0
 41 82  1  0  0  0
M  END
$$$$
