### 
### Created by X-TOOL on Mon Sep 10 21:13:07 2018
### 

@<TRIPOS>MOLECULE
3s3r_ligand
   81    84     1     0     0
SMALL
GAST_HUCK


@<TRIPOS>ATOM
      1 N1          0.8360  -14.5110  -22.7020 N.am      1 0IW        -0.2633
      2 C           1.6460  -14.6220  -21.6330 C.2       1 0IW         0.2622
      3 O           2.6330  -15.3620  -21.6570 O.2       1 0IW        -0.4005
      4 C2         -0.3400  -13.6360  -22.7040 C.3       1 0IW         0.0157
      5 C3         -0.8730  -13.4730  -24.1180 C.3       1 0IW        -0.0927
      6 N4         -1.1280  -14.8020  -24.6500 N.4       1 0IW         0.4034
      7 CM         -2.3170  -15.0370  -25.4610 C.3       1 0IW        -0.1255
      8 C5         -0.2010  -15.9020  -24.3970 C.3       1 0IW        -0.0927
      9 C6          1.1090  -15.2790  -23.9230 C.3       1 0IW         0.0157
     10 N           1.3630  -13.9180  -20.5330 N.am      1 0IW        -0.2499
     11 CA          2.1910  -13.9920  -19.3270 C.3       1 0IW         0.1406
     12 C1          2.0430  -15.3480  -18.6960 C.2       1 0IW         0.2037
     13 O1          0.9370  -15.7740  -18.4520 O.2       1 0IW        -0.3944
     14 CB          1.6870  -12.8920  -18.3810 C.3       1 0IW         0.0212
     15 CG          2.2090  -11.5380  -18.8160 C.ar      1 0IW        -0.0386
     16 CD1         3.3930  -11.0360  -18.2660 C.ar      1 0IW        -0.0601
     17 CD2         1.5100  -10.7870  -19.7600 C.ar      1 0IW        -0.0601
     18 CE1         3.8670   -9.7850  -18.6700 C.ar      1 0IW        -0.0686
     19 CE2         1.9780   -9.5370  -20.1610 C.ar      1 0IW        -0.0686
     20 CZ          3.1570   -9.0340  -19.6120 C.ar      1 0IW        -0.0687
     21 C11         5.1690  -16.9180  -16.3090 C.3       1 0IW         0.0730
     22 C21         3.7030  -17.3150  -16.4480 C.3       1 0IW        -0.0099
     23 C31         3.1000  -17.3700  -17.8600 C.3       1 0IW         0.0453
     24 N2          3.1480  -16.0380  -18.4480 N.am      1 0IW        -0.2817
     25 C4          3.9490  -18.2510  -18.7700 C.3       1 0IW        -0.0201
     26 C51         3.4030  -18.3410  -20.1880 C.3       1 0IW        -0.0171
     27 C1'         4.0910  -19.5040  -20.8540 C.ar      1 0IW        -0.0429
     28 C2'         3.5010  -20.7740  -20.8030 C.ar      1 0IW        -0.0603
     29 C3'         4.1500  -21.8470  -21.4020 C.ar      1 0IW        -0.0686
     30 C4'         5.3650  -21.6430  -22.0570 C.ar      1 0IW        -0.0687
     31 C5'         5.9520  -20.3730  -22.1050 C.ar      1 0IW        -0.0686
     32 C6'         5.3120  -19.2950  -21.4970 C.ar      1 0IW        -0.0603
     33 C12         6.3640  -21.8570  -17.6970 C.ar      1 0IW        -0.0616
     34 C22         5.5550  -21.7690  -16.5480 C.ar      1 0IW        -0.0600
     35 C32         5.4460  -20.5640  -15.8230 C.ar      1 0IW        -0.0369
     36 C41         6.1520  -19.4390  -16.2500 C.ar      1 0IW         0.0882
     37 S1          6.0730  -18.0490  -15.4620 S.o2      1 0IW        -0.0030
     38 O11         5.5530  -18.1990  -14.1350 O.2       1 0IW        -0.1694
     39 O2          7.4260  -17.5740  -15.3300 O.2       1 0IW        -0.1694
     40 C52         6.9640  -19.5380  -17.3860 C.ar      1 0IW        -0.0369
     41 C61         7.0790  -20.7320  -18.1180 C.ar      1 0IW        -0.0600
     42 H          -0.0567  -12.6579  -22.3153 H         1 0IW         0.0499
     43 H          -1.1155  -14.0804  -22.0801 H         1 0IW         0.0499
     44 H          -0.1468  -12.9486  -24.7391 H         1 0IW         0.0036
     45 H          -1.7903  -12.8842  -24.1122 H         1 0IW         0.0036
     46 H          -2.0175  -15.3704  -26.4546 H         1 0IW        -0.0019
     47 H          -2.9315  -15.8036  -24.9890 H         1 0IW        -0.0019
     48 H          -2.8876  -14.1120  -25.5435 H         1 0IW        -0.0019
     49 H          -0.0441  -16.4906  -25.3009 H         1 0IW         0.0036
     50 H          -0.6018  -16.5793  -23.6429 H         1 0IW         0.0036
     51 H           1.8427  -16.0588  -23.7191 H         1 0IW         0.0499
     52 H           1.5136  -14.6244  -24.6949 H         1 0IW         0.0499
     53 H           0.5443  -13.3097  -20.5332 H         1 0IW         0.1879
     54 H           3.2474  -13.8477  -19.5533 H         1 0IW         0.0820
     55 H           2.0433  -13.1016  -17.3724 H         1 0IW         0.0473
     56 H           0.5974  -12.8759  -18.4052 H         1 0IW         0.0473
     57 H           3.9431  -11.6175  -17.5262 H         1 0IW         0.0557
     58 H           0.5886  -11.1813  -20.1885 H         1 0IW         0.0557
     59 H           4.7932   -9.3933  -18.2495 H         1 0IW         0.0599
     60 H           1.4256   -8.9559  -20.8995 H         1 0IW         0.0599
     61 H           3.5255   -8.0547  -19.9174 H         1 0IW         0.0559
     62 H           5.2090  -15.9787  -15.7575 H         1 0IW         0.0505
     63 H           5.5893  -16.8387  -17.3116 H         1 0IW         0.0505
     64 H           3.1431  -16.5397  -15.9250 H         1 0IW         0.0303
     65 H           3.6429  -18.3351  -16.0685 H         1 0IW         0.0303
     66 H           2.0838  -17.7552  -17.7758 H         1 0IW         0.0558
     67 H           4.0533  -15.6262  -18.6744 H         1 0IW         0.1855
     68 H           3.9514  -19.2570  -18.3505 H         1 0IW         0.0309
     69 H           4.9444  -17.8103  -18.8246 H         1 0IW         0.0309
     70 H           3.5942  -17.4169  -20.7335 H         1 0IW         0.0427
     71 H           2.3230  -18.4881  -20.1760 H         1 0IW         0.0427
     72 H           2.5450  -20.9185  -20.2998 H         1 0IW         0.0557
     73 H           3.7116  -22.8441  -21.3603 H         1 0IW         0.0599
     74 H           5.8641  -22.4842  -22.5380 H         1 0IW         0.0559
     75 H           6.9043  -20.2283  -22.6151 H         1 0IW         0.0599
     76 H           5.7591  -18.3013  -21.5232 H         1 0IW         0.0557
     77 H           6.4321  -22.7924  -18.2524 H         1 0IW         0.0618
     78 H           5.0033  -22.6473  -16.2129 H         1 0IW         0.0618
     79 H           4.8149  -20.5121  -14.9358 H         1 0IW         0.0636
     80 H           7.5243  -18.6620  -17.7128 H         1 0IW         0.0636
     81 H           7.7163  -20.7802  -19.0010 H         1 0IW         0.0618
@<TRIPOS>BOND
     1    2    1 am 
     2    1    4 1  
     3    1    9 1  
     4    2    3 2  
     5   10    2 am 
     6    4    5 1  
     7    5    6 1  
     8    6    7 1  
     9    8    6 1  
    10    9    8 1  
    11   11   10 1  
    12   12   11 1  
    13   11   14 1  
    14   12   13 2  
    15   24   12 am 
    16   14   15 1  
    17   15   16 ar 
    18   15   17 ar 
    19   16   18 ar 
    20   17   19 ar 
    21   18   20 ar 
    22   19   20 ar 
    23   21   22 1  
    24   37   21 1  
    25   22   23 1  
    26   23   24 1  
    27   23   25 1  
    28   25   26 1  
    29   26   27 1  
    30   27   28 ar 
    31   27   32 ar 
    32   28   29 ar 
    33   29   30 ar 
    34   31   30 ar 
    35   32   31 ar 
    36   34   33 ar 
    37   33   41 ar 
    38   35   34 ar 
    39   36   35 ar 
    40   36   37 1  
    41   36   40 ar 
    42   37   38 2  
    43   37   39 2  
    44   40   41 ar 
    45    4   42 1  
    46    4   43 1  
    47    5   44 1  
    48    5   45 1  
    49    7   46 1  
    50    7   47 1  
    51    7   48 1  
    52    8   49 1  
    53    8   50 1  
    54    9   51 1  
    55    9   52 1  
    56   10   53 1  
    57   11   54 1  
    58   14   55 1  
    59   14   56 1  
    60   16   57 1  
    61   17   58 1  
    62   18   59 1  
    63   19   60 1  
    64   20   61 1  
    65   21   62 1  
    66   21   63 1  
    67   22   64 1  
    68   22   65 1  
    69   23   66 1  
    70   24   67 1  
    71   25   68 1  
    72   25   69 1  
    73   26   70 1  
    74   26   71 1  
    75   28   72 1  
    76   29   73 1  
    77   30   74 1  
    78   31   75 1  
    79   32   76 1  
    80   33   77 1  
    81   34   78 1  
    82   35   79 1  
    83   40   80 1  
    84   41   81 1  
@<TRIPOS>SUBSTRUCTURE
     1 0IW         1

