4kiu_ligand
  -I-interpret- 

 34 35  0  0  0  0  0  0  0  0999 V2000
   -1.5700   32.7120   76.2420 O   0  0  0  0  0
   -2.2680   33.7170   76.5090 C   0  0  0  0  0
   -2.5860   34.5360   75.6120 O   0  0  0  0  0
   -2.6610   33.9470   77.8100 C   0  0  0  0  0
   -3.3770   35.1060   78.0620 C   0  0  0  0  0
   -2.3270   33.0420   78.8210 C   0  0  0  0  0
   -2.7140   33.3180   80.1250 C   0  0  0  0  0
   -2.4300   32.4280   81.1590 C   0  0  0  0  0
   -2.4460   31.2010   80.8920 O   0  0  0  0  0
   -2.2200   32.8400   82.3380 O   0  0  0  0  0
   -3.4350   34.4810   80.3750 C   0  0  0  0  0
   -3.7690   35.3820   79.3570 C   0  0  0  0  0
   -4.4640   36.5420   79.6090 O   0  0  0  0  0
   -5.0870   36.4680   80.9010 C   0  0  0  0  0
   -6.3770   35.9300   80.8090 C   0  0  0  0  0
   -7.0470   35.6410   81.9910 C   0  0  0  0  0
   -6.9970   35.7060   79.5680 C   0  0  0  0  0
   -8.2880   35.1880   79.5060 C   0  0  0  0  0
   -8.9540   34.9080   80.6930 C   0  0  0  0  0
   -8.3270   35.1230   81.9200 C   0  0  0  0  0
   -8.9700   34.8690   83.0430 N   0  0  0  0  0
   -8.7560   33.7480   83.7470 O   0  0  0  0  0
   -9.8450   35.7700   83.5020 O   0  0  0  0  0
   -3.1176   35.2378   75.9948 H   0  0  0  0  0
   -3.6270   35.7895   77.2506 H   0  0  0  0  0
   -1.7712   32.1335   78.5891 H   0  0  0  0  0
   -2.2445   33.7996   82.3496 H   0  0  0  0  0
   -3.7499   34.6976   81.3958 H   0  0  0  0  0
   -5.1577   37.4750   81.3122 H   0  0  0  0  0
   -4.4853   35.8235   81.5419 H   0  0  0  0  0
   -6.5727   35.8192   82.9561 H   0  0  0  0  0
   -6.4632   35.9395   78.6468 H   0  0  0  0  0
   -8.7673   35.0055   78.5442 H   0  0  0  0  0
   -9.9716   34.5184   80.6649 H   0  0  0  0  0
  1  2  2  0  0  0
  2  3  1  0  0  0
  2  4  1  0  0  0
  4  5  4  0  0  0
  4  6  4  0  0  0
  5 12  4  0  0  0
  6  7  4  0  0  0
  7  8  1  0  0  0
  7 11  4  0  0  0
  8  9  2  0  0  0
  8 10  1  0  0  0
 11 12  4  0  0  0
 12 13  1  0  0  0
 13 14  1  0  0  0
 14 15  1  0  0  0
 15 16  4  0  0  0
 15 17  4  0  0  0
 16 20  4  0  0  0
 17 18  4  0  0  0
 18 19  4  0  0  0
 19 20  4  0  0  0
 20 21  1  0  0  0
 21 22  2  0  0  0
 21 23  2  0  0  0
  3 24  1  0  0  0
  5 25  1  0  0  0
  6 26  1  0  0  0
 10 27  1  0  0  0
 11 28  1  0  0  0
 14 29  1  0  0  0
 14 30  1  0  0  0
 16 31  1  0  0  0
 17 32  1  0  0  0
 18 33  1  0  0  0
 19 34  1  0  0  0
M  END
$$$$
