5z66_ligand
  -I-interpret- 

 49 50  0  0  0  0  0  0  0  0999 V2000
  -13.9060  -18.0620  124.5350 O   0  0  0  0  0
  -14.8590  -18.3570  123.5430 C   0  0  0  0  0
  -14.9360  -17.1620  122.5890 C   0  0  0  0  0
  -15.7770  -16.1890  122.9290 C   0  0  0  0  0
  -13.6540  -16.8550  121.8090 C   0  0  0  0  0
  -13.3230  -17.9420  120.9740 O   0  0  0  0  0
  -13.7600  -15.5900  120.9600 C   0  0  0  0  0
  -12.4560  -15.2560  120.5540 O   0  0  0  0  0
  -14.3970  -14.4660  121.7960 C   0  0  0  0  0
  -14.3850  -13.2550  121.0860 O   0  0  0  0  0
  -15.8340  -14.8630  122.1680 C   0  0  0  0  0
  -16.7060  -14.9850  120.9920 N   0  3  0  0  0
  -17.8960  -15.8110  121.2290 C   0  0  0  0  0
  -18.2670  -16.5970  119.9620 C   0  0  0  0  0
  -17.1040  -17.1130  119.3590 O   0  0  0  0  0
  -19.0980  -15.0020  121.7760 C   0  0  0  0  0
  -20.0630  -14.3790  120.7560 C   0  0  0  0  0
  -21.4050  -14.0170  121.4010 C   0  0  0  0  0
  -21.2100  -13.0030  122.3540 O   0  0  0  0  0
  -20.3530  -15.3040  119.5830 C   0  0  0  0  0
  -21.1220  -14.5940  118.6430 O   0  0  0  0  0
  -19.0170  -15.7070  118.9690 C   0  0  0  0  0
  -19.2610  -16.4290  117.8020 O   0  0  0  0  0
  -13.8419  -18.8003  125.1452 H   0  0  0  0  0
  -15.8325  -18.5380  123.9986 H   0  0  0  0  0
  -14.5690  -19.2553  122.9980 H   0  0  0  0  0
  -16.4461  -16.3411  123.7759 H   0  0  0  0  0
  -12.8735  -16.6888  122.5515 H   0  0  0  0  0
  -13.2549  -18.7407  121.5022 H   0  0  0  0  0
  -14.3903  -15.7410  120.0837 H   0  0  0  0  0
  -12.0889  -15.9763  120.0363 H   0  0  0  0  0
  -13.8175  -14.3234  122.7081 H   0  0  0  0  0
  -14.7856  -12.5669  121.6223 H   0  0  0  0  0
  -16.2649  -14.0768  122.7879 H   0  0  0  0  0
  -16.1638  -15.4331  120.2533 H   0  0  0  0  0
  -17.0267  -14.0476  120.7495 H   0  0  0  0  0
  -17.6394  -16.5224  122.0140 H   0  0  0  0  0
  -18.9211  -17.4206  120.2483 H   0  0  0  0  0
  -17.3447  -17.6022  118.5688 H   0  0  0  0  0
  -18.6622  -14.1616  122.3163 H   0  0  0  0  0
  -19.6950  -15.7151  122.3445 H   0  0  0  0  0
  -19.5581  -13.4834  120.3940 H   0  0  0  0  0
  -21.8223  -14.8979  121.8888 H   0  0  0  0  0
  -22.0935  -13.6652  120.6327 H   0  0  0  0  0
  -22.0518  -12.7778  122.7568 H   0  0  0  0  0
  -20.8986  -16.1936  119.8977 H   0  0  0  0  0
  -21.3152  -15.1628  117.8942 H   0  0  0  0  0
  -18.4226  -14.8221  118.7418 H   0  0  0  0  0
  -19.7317  -15.8738  117.1761 H   0  0  0  0  0
  1  2  1  0  0  0
  2  3  1  0  0  0
  3  4  2  0  0  0
  3  5  1  0  0  0
  4 11  1  0  0  0
  5  6  1  0  0  0
  5  7  1  0  0  0
  7  8  1  0  0  0
  7  9  1  0  0  0
  9 10  1  0  0  0
  9 11  1  0  0  0
 11 12  1  0  0  0
 12 13  1  0  0  0
 13 14  1  0  0  0
 13 16  1  0  0  0
 14 15  1  0  0  0
 14 22  1  0  0  0
 16 17  1  0  0  0
 17 18  1  0  0  0
 17 20  1  0  0  0
 18 19  1  0  0  0
 20 21  1  0  0  0
 20 22  1  0  0  0
 22 23  1  0  0  0
  1 24  1  0  0  0
  2 25  1  0  0  0
  2 26  1  0  0  0
  4 27  1  0  0  0
  5 28  1  0  0  0
  6 29  1  0  0  0
  7 30  1  0  0  0
  8 31  1  0  0  0
  9 32  1  0  0  0
 10 33  1  0  0  0
 11 34  1  0  0  0
 12 35  1  0  0  0
 12 36  1  0  0  0
 13 37  1  0  0  0
 14 38  1  0  0  0
 15 39  1  0  0  0
 16 40  1  0  0  0
 16 41  1  0  0  0
 17 42  1  0  0  0
 18 43  1  0  0  0
 18 44  1  0  0  0
 19 45  1  0  0  0
 20 46  1  0  0  0
 21 47  1  0  0  0
 22 48  1  0  0  0
 23 49  1  0  0  0
M  END
$$$$
