3ikc_ligand
  -I-interpret- 

 67 68  0  0  0  0  0  0  0  0999 V2000
    9.5430   -0.2240    0.0060 C   0  0  0  0  0
    8.5690   -0.6540    0.6600 O   0  0  0  0  0
   10.7490   -0.4480    0.2470 O   0  0  0  0  0
    9.2330    0.7240   -1.1540 C   0  0  0  0  0
    9.0720    2.1170   -0.5340 C   0  0  0  0  0
    8.7720    3.1130   -1.6440 C   0  0  0  0  0
    8.6060    4.4250   -1.0980 O   0  0  0  0  0
    9.9510    3.0930   -2.6170 C   0  0  0  0  0
   11.1430    3.4480   -1.9140 O   0  0  0  0  0
   10.1420    1.7040   -3.2080 C   0  0  0  0  0
   10.3240    0.7350   -2.1290 O   0  0  0  0  0
   11.3300    1.6750   -4.1960 C   0  0  0  0  0
   11.2350    2.7710   -5.1160 O   0  0  0  0  0
   11.4760    0.3500   -4.9540 C   0  0  0  0  0
   11.6750   -0.7350   -4.0530 O   0  0  0  0  0
    7.7360   -5.8720   -2.7780 C   0  0  0  0  0
    7.3940   -4.7660   -3.7840 C   0  0  0  0  0
    8.4800   -4.5980   -4.6900 O   0  0  0  0  0
    6.1340   -5.1690   -4.5730 C   0  0  0  0  0
    5.8180   -4.0580   -5.5790 C   0  0  0  0  0
    4.6650   -4.4020   -6.3700 O   0  0  0  0  0
    5.5780   -2.7640   -4.8020 C   0  0  0  0  0
    4.4570   -2.9140   -3.9220 O   0  0  0  0  0
    6.8490   -2.4200   -4.0030 C   0  0  0  0  0
    7.1800   -3.5140   -3.1050 O   0  0  0  0  0
    6.6450   -1.1250   -3.2100 C   0  0  0  0  0
    6.1220   -0.1010   -4.0780 O   0  0  0  0  0
    8.0090   -0.8300   -2.5530 C   0  0  0  0  0
    7.9920    0.3940   -1.8100 O   0  0  0  0  0
    5.7570    1.0720   -3.3540 C   0  0  0  0  0
    9.6480   -4.2280   -3.9270 C   0  0  0  0  0
   10.8630   -4.0260   -4.5670 C   0  0  0  0  0
   10.9280   -4.1920   -5.9430 C   0  0  0  0  0
    7.2390   -5.7790   -1.6350 O   0  0  0  0  0
    8.4950   -6.7840   -3.1770 O   0  0  0  0  0
   11.2930   -0.0010   -0.4056 H   0  0  0  0  0
    9.9897    2.4015   -0.0192 H   0  0  0  0  0
    8.2548    2.1091    0.1873 H   0  0  0  0  0
    7.8494    2.8433   -2.1580 H   0  0  0  0  0
    7.8637    4.4255   -0.4892 H   0  0  0  0  0
    9.7461    3.8003   -3.4207 H   0  0  0  0  0
   11.0402    4.3234   -1.5337 H   0  0  0  0  0
    9.2501    1.4355   -3.7742 H   0  0  0  0  0
   12.2313    1.7738   -3.5910 H   0  0  0  0  0
   11.9775    2.7423   -5.7239 H   0  0  0  0  0
   12.3403    0.4187   -5.6146 H   0  0  0  0  0
   10.5632    0.1698   -5.5218 H   0  0  0  0  0
   11.7633   -1.5510   -4.5510 H   0  0  0  0  0
    5.2944   -5.3049   -3.8912 H   0  0  0  0  0
    6.3068   -6.1089   -5.0972 H   0  0  0  0  0
    6.6550   -3.9271   -6.2649 H   0  0  0  0  0
    4.4833   -3.6948   -6.9932 H   0  0  0  0  0
    5.3555   -1.9541   -5.4967 H   0  0  0  0  0
    4.3176   -2.0951   -3.4408 H   0  0  0  0  0
    7.6743   -2.2723   -4.6995 H   0  0  0  0  0
    5.8986   -1.1898   -2.4183 H   0  0  0  0  0
    8.7554   -0.7397   -3.3422 H   0  0  0  0  0
    8.2394   -1.6435   -1.8651 H   0  0  0  0  0
    4.9912    0.8209   -2.6201 H   0  0  0  0  0
    6.6341    1.4703   -2.8440 H   0  0  0  0  0
    5.3677    1.8184   -4.0464 H   0  0  0  0  0
    9.5758   -4.1070   -2.8461 H   0  0  0  0  0
   11.7493   -3.7423   -3.9994 H   0  0  0  0  0
   10.6475   -5.2140   -6.1980 H   0  0  0  0  0
   10.2424   -3.4948   -6.4246 H   0  0  0  0  0
   11.9450   -3.9972   -6.2835 H   0  0  0  0  0
    8.7351   -6.6214   -4.0922 H   0  0  0  0  0
  1  2  2  0  0  0
  1  3  1  0  0  0
  4  1  1  0  0  0
  4  5  1  0  0  0
  4 11  1  0  0  0
 29  4  1  0  0  0
  5  6  1  0  0  0
  6  7  1  0  0  0
  6  8  1  0  0  0
  8  9  1  0  0  0
 10  8  1  0  0  0
 11 10  1  0  0  0
 10 12  1  0  0  0
 12 13  1  0  0  0
 12 14  1  0  0  0
 14 15  1  0  0  0
 17 16  1  0  0  0
 16 34  2  0  0  0
 16 35  1  0  0  0
 17 18  1  0  0  0
 17 19  1  0  0  0
 25 17  1  0  0  0
 18 31  1  0  0  0
 20 19  1  0  0  0
 20 21  1  0  0  0
 22 20  1  0  0  0
 22 23  1  0  0  0
 24 22  1  0  0  0
 24 25  1  0  0  0
 26 24  1  0  0  0
 26 27  1  0  0  0
 28 26  1  0  0  0
 27 30  1  0  0  0
 28 29  1  0  0  0
 31 32  2  0  0  0
 32 33  1  0  0  0
  3 36  1  0  0  0
  5 37  1  0  0  0
  5 38  1  0  0  0
  6 39  1  0  0  0
  7 40  1  0  0  0
  8 41  1  0  0  0
  9 42  1  0  0  0
 10 43  1  0  0  0
 12 44  1  0  0  0
 13 45  1  0  0  0
 14 46  1  0  0  0
 14 47  1  0  0  0
 15 48  1  0  0  0
 19 49  1  0  0  0
 19 50  1  0  0  0
 20 51  1  0  0  0
 21 52  1  0  0  0
 22 53  1  0  0  0
 23 54  1  0  0  0
 24 55  1  0  0  0
 26 56  1  0  0  0
 28 57  1  0  0  0
 28 58  1  0  0  0
 30 59  1  0  0  0
 30 60  1  0  0  0
 30 61  1  0  0  0
 31 62  1  0  0  0
 32 63  1  0  0  0
 33 64  1  0  0  0
 33 65  1  0  0  0
 33 66  1  0  0  0
 35 67  1  0  0  0
M  END
$$$$
