1jlr_ligand
  -I-interpret- 

 48 50  0  0  0  0  0  0  0  0999 V2000
  -20.5370   82.4850   57.7210 P   0  0  0  0  0
  -19.8500   81.3500   58.3870 O   0  0  0  0  0
  -22.0070   82.1080   57.9290 O   0  0  0  0  0
  -20.1240   82.2630   56.3110 O   0  0  0  0  0
  -19.9240   83.8310   58.2140 O   0  0  0  0  0
  -19.5900   85.0140   57.2890 P   0  0  0  0  0
  -18.5150   84.7870   56.3040 O   0  0  0  0  0
  -20.9390   85.3030   56.8080 O   0  0  0  0  0
  -19.1400   86.1690   58.2870 O   0  0  0  0  0
  -17.5900   86.7080   58.3630 P   0  0  0  0  0
  -16.7680   85.5620   58.8560 O   0  0  0  0  0
  -17.2270   87.3220   57.0840 O   0  0  0  0  0
  -17.7520   87.7330   59.4090 O   0  0  0  0  0
  -16.7300   88.1070   60.3420 C   0  0  0  0  0
  -17.0620   87.5370   61.7080 C   0  0  0  0  0
  -15.8720   87.3050   62.5180 O   0  0  0  0  0
  -18.0350   88.3680   62.5480 C   0  0  0  0  0
  -19.2880   87.6910   62.6580 O   0  0  0  0  0
  -17.3250   88.5990   63.9040 C   0  0  0  0  0
  -18.0750   88.1240   65.0070 O   0  0  0  0  0
  -15.9890   87.8790   63.8140 C   0  0  0  0  0
  -14.8110   88.7540   64.0320 N   0  0  0  0  0
  -13.7060   88.5690   64.8210 C   0  0  0  0  0
  -12.8470   89.5320   64.7970 N   0  0  0  0  0
  -13.3650   90.4420   63.9540 C   0  0  0  0  0
  -12.8700   91.7260   63.5270 C   0  0  0  0  0
  -11.7900   92.2640   63.8890 O   0  0  0  0  0
  -13.7570   92.4090   62.5880 N   0  0  0  0  0
  -14.9590   91.8870   62.1400 C   0  0  0  0  0
  -15.6520   92.6330   61.2830 N   0  0  0  0  0
  -15.4330   90.6980   62.5270 N   0  0  0  0  0
  -14.5980   90.0070   63.4440 C   0  0  0  0  0
  -22.5675   82.7797   57.5337 H   0  0  0  0  0
  -20.5084   82.9447   55.7550 H   0  0  0  0  0
  -17.6919   84.6103   56.7654 H   0  0  0  0  0
  -17.1151   85.2597   59.6984 H   0  0  0  0  0
  -16.6744   89.1938   60.4047 H   0  0  0  0  0
  -15.7700   87.7142   60.0072 H   0  0  0  0  0
  -17.5555   86.5983   61.4561 H   0  0  0  0  0
  -18.2762   89.3315   62.0991 H   0  0  0  0  0
  -19.8908   88.2196   63.1861 H   0  0  0  0  0
  -17.2027   89.6680   64.0782 H   0  0  0  0  0
  -17.5902   88.2922   65.8184 H   0  0  0  0  0
  -15.9862   87.1342   64.6099 H   0  0  0  0  0
  -13.5628   87.6732   65.4253 H   0  0  0  0  0
  -13.4738   93.3256   62.2415 H   0  0  0  0  0
  -16.5449   92.2978   60.9212 H   0  0  0  0  0
  -15.2903   93.5399   60.9879 H   0  0  0  0  0
  1  2  2  0  0  0
  1  3  1  0  0  0
  1  4  1  0  0  0
  1  5  1  0  0  0
  5  6  1  0  0  0
  6  7  1  0  0  0
  6  8  2  0  0  0
  6  9  1  0  0  0
  9 10  1  0  0  0
 10 11  1  0  0  0
 10 12  2  0  0  0
 10 13  1  0  0  0
 13 14  1  0  0  0
 14 15  1  0  0  0
 15 16  1  0  0  0
 15 17  1  0  0  0
 16 21  1  0  0  0
 17 18  1  0  0  0
 17 19  1  0  0  0
 19 20  1  0  0  0
 19 21  1  0  0  0
 21 22  1  0  0  0
 22 23  4  0  0  0
 22 32  4  0  0  0
 23 24  4  0  0  0
 24 25  4  0  0  0
 25 26  1  0  0  0
 25 32  4  0  0  0
 26 27  2  0  0  0
 26 28  1  0  0  0
 28 29  1  0  0  0
 29 30  1  0  0  0
 29 31  2  0  0  0
 31 32  1  0  0  0
  3 33  1  0  0  0
  4 34  1  0  0  0
  7 35  1  0  0  0
 11 36  1  0  0  0
 14 37  1  0  0  0
 14 38  1  0  0  0
 15 39  1  0  0  0
 17 40  1  0  0  0
 18 41  1  0  0  0
 19 42  1  0  0  0
 20 43  1  0  0  0
 21 44  1  0  0  0
 23 45  1  0  0  0
 28 46  1  0  0  0
 30 47  1  0  0  0
 30 48  1  0  0  0
M  END
$$$$
