2uyq_ligand
  -I-interpret- 

 28 30  0  0  0  0  0  0  0  0999 V2000
   -9.4620  -26.8210   -3.5750 C   0  0  0  0  0
   -8.4550  -27.7650   -3.1920 O   0  0  0  0  0
   -8.8400  -25.4410   -3.3670 C   0  0  0  0  0
   -9.2770  -24.9060   -2.1380 O   0  0  0  0  0
   -7.3440  -25.6910   -3.2510 C   0  0  0  0  0
   -6.6570  -24.6720   -2.5170 O   0  0  0  0  0
   -7.4070  -27.0390   -2.5520 C   0  0  0  0  0
   -6.1070  -27.7180   -2.5790 N   0  0  0  0  0
   -5.5020  -28.2500   -3.6850 C   0  0  0  0  0
   -4.3120  -28.7550   -3.2890 N   0  0  0  0  0
   -4.1590  -28.5670   -1.9440 C   0  0  0  0  0
   -3.1390  -28.9000   -1.0450 C   0  0  0  0  0
   -2.0350  -29.5350   -1.4640 N   0  0  0  0  0
   -3.2860  -28.5700    0.2920 N   0  0  0  0  0
   -4.4150  -27.9040    0.7510 C   0  0  0  0  0
   -5.4180  -27.5860   -0.1490 N   0  0  0  0  0
   -5.2910  -27.9080   -1.4760 C   0  0  0  0  0
  -10.3663  -26.9422   -2.9787 H   0  0  0  0  0
   -9.7677  -26.9660   -4.6112 H   0  0  0  0  0
   -9.1047  -24.7574   -4.1736 H   0  0  0  0  0
  -10.2211  -24.7373   -2.1813 H   0  0  0  0  0
   -6.7778  -25.6798   -4.1823 H   0  0  0  0  0
   -6.6612  -23.8565   -3.0234 H   0  0  0  0  0
   -7.6283  -26.9417   -1.4891 H   0  0  0  0  0
   -5.9048  -28.2641   -4.6977 H   0  0  0  0  0
   -1.9309  -29.7813   -2.4483 H   0  0  0  0  0
   -1.2992  -29.7718   -0.7984 H   0  0  0  0  0
   -4.5100  -27.6359    1.8032 H   0  0  0  0  0
  1  2  1  0  0  0
  1  3  1  0  0  0
  2  7  1  0  0  0
  3  4  1  0  0  0
  3  5  1  0  0  0
  5  6  1  0  0  0
  5  7  1  0  0  0
  7  8  1  0  0  0
  8  9  4  0  0  0
  8 17  4  0  0  0
  9 10  4  0  0  0
 10 11  4  0  0  0
 11 12  4  0  0  0
 11 17  4  0  0  0
 12 13  1  0  0  0
 12 14  4  0  0  0
 14 15  4  0  0  0
 15 16  4  0  0  0
 16 17  4  0  0  0
  1 18  1  0  0  0
  1 19  1  0  0  0
  3 20  1  0  0  0
  4 21  1  0  0  0
  5 22  1  0  0  0
  6 23  1  0  0  0
  7 24  1  0  0  0
  9 25  1  0  0  0
 13 26  1  0  0  0
 13 27  1  0  0  0
 15 28  1  0  0  0
M  END
$$$$
