1ydd_ligand
  -I-interpret- 

 19 19  0  0  0  0  0  0  0  0999 V2000
   -5.4570    2.0850   15.5410 C   0  0  0  0  0
   -4.9860    3.7530   14.0580 C   0  0  0  0  0
   -5.6310    5.9630   13.4220 C   0  0  0  0  0
   -5.2880    7.0470   12.4330 C   0  0  0  0  0
   -5.8790   -0.4590   16.1770 N   0  0  0  0  0
   -4.2470    2.7520   13.8460 N   0  0  0  0  0
   -4.4860    1.7510   14.7640 N   0  0  0  0  0
   -4.8680    4.8790   13.2810 N   0  0  0  0  0
   -5.0400    1.0010   17.8730 O   0  0  0  0  0
   -7.4050    1.3340   16.9540 O   0  0  0  0  0
   -6.4680    6.0050   14.3400 O   0  0  0  0  0
   -6.0020    0.9590   16.8130 S   0  0  0  0  0
   -6.1280    3.6700   15.3290 S   0  0  0  0  0
   -6.1772    7.3081   11.8591 H   0  0  0  0  0
   -4.9290    7.9256   12.9689 H   0  0  0  0  0
   -4.5107    6.6886   11.7582 H   0  0  0  0  0
   -5.2015   -1.1263   16.5458 H   0  0  0  0  0
   -6.4761   -0.7194   15.3921 H   0  0  0  0  0
   -4.1540    4.8864   12.5526 H   0  0  0  0  0
  1 13  4  0  0  0
  1 12  1  0  0  0
  1  7  4  0  0  0
  7  6  4  0  0  0
  6  2  4  0  0  0
  2  8  1  0  0  0
  2 13  4  0  0  0
  8  3  1  0  0  0
  3 11  2  0  0  0
  3  4  1  0  0  0
 12  5  1  0  0  0
 12  9  2  0  0  0
 12 10  2  0  0  0
  4 14  1  0  0  0
  4 15  1  0  0  0
  4 16  1  0  0  0
  5 17  1  0  0  0
  5 18  1  0  0  0
  8 19  1  0  0  0
M  END
$$$$
