6fa4_ligand
  -I-interpret- 

 55 58  0  0  0  0  0  0  0  0999 V2000
   32.8020   96.6310   29.2240 C   0  0  0  0  0
   31.7040   97.0500   28.6290 N   0  0  0  0  0
   31.7870   97.5390   27.3840 C   0  0  0  0  0
   33.0020   97.5860   26.7000 C   0  0  0  0  0
   34.1550   97.1540   27.3270 C   0  0  0  0  0
   34.1070   96.6360   28.6260 C   0  0  0  0  0
   30.5120   98.0370   26.7870 C   0  0  0  0  0
   30.4350   99.3560   26.3010 C   0  0  0  0  0
   29.2540   99.8450   25.7590 C   0  0  0  0  0
   28.1260   99.0280   25.6800 C   0  0  0  0  0
   29.3580   97.2200   26.6900 C   0  0  0  0  0
   28.1680   97.7270   26.1610 C   0  0  0  0  0
   27.0160   96.9650   26.0730 O   0  0  0  0  0
   27.0200   95.6280   26.6360 C   0  0  0  0  0
   28.4150   94.9880   26.7890 C   0  0  0  0  0
   29.4660   95.9250   27.1210 O   0  0  0  0  0
   32.7370   96.1630   30.4800 O   0  0  0  0  0
   32.2680   94.8210   30.6490 C   0  0  0  0  0
   35.2070   96.1300   29.3520 N   0  0  0  0  0
   36.5500   95.9230   28.9870 C   0  0  0  0  0
   36.9930   95.6360   27.6930 C   0  0  0  0  0
   38.3170   95.3090   27.4670 C   0  0  0  0  0
   39.2240   95.2470   28.5040 C   0  0  0  0  0
   38.7810   95.5350   29.7890 C   0  0  0  0  0
   37.4660   95.8770   30.0350 C   0  0  0  0  0
   40.6740   94.8860   28.2590 C   0  0  0  0  0
   40.9510   93.4710   28.6220 N   0  3  0  0  0
   40.2860   92.5230   27.6820 C   0  0  0  0  0
   42.3990   93.2060   28.6450 C   0  0  0  0  0
   33.0415   97.9612   25.6774 H   0  0  0  0  0
   35.1100   97.2172   26.8054 H   0  0  0  0  0
   31.3125  100.0007   26.3508 H   0  0  0  0  0
   29.2080  100.8710   25.3939 H   0  0  0  0  0
   27.2071   99.4135   25.2383 H   0  0  0  0  0
   26.4579   94.9959   25.9485 H   0  0  0  0  0
   26.5992   95.7078   27.6383 H   0  0  0  0  0
   28.6721   94.5449   25.8269 H   0  0  0  0  0
   28.3518   94.2728   27.6091 H   0  0  0  0  0
   31.2564   94.7383   30.2516 H   0  0  0  0  0
   32.9270   94.1371   30.1141 H   0  0  0  0  0
   32.2648   94.5694   31.7096 H   0  0  0  0  0
   34.9891   95.8675   30.3133 H   0  0  0  0  0
   36.2921   95.6701   26.8590 H   0  0  0  0  0
   38.6500   95.0964   26.4511 H   0  0  0  0  0
   39.4855   95.4901   30.6195 H   0  0  0  0  0
   37.1447   96.1111   31.0499 H   0  0  0  0  0
   41.2997   95.5302   28.8768 H   0  0  0  0  0
   40.8890   95.0193   27.1988 H   0  0  0  0  0
   40.5688   93.3230   29.5560 H   0  0  0  0  0
   39.2080   92.6815   27.7103 H   0  0  0  0  0
   40.6538   92.6979   26.6709 H   0  0  0  0  0
   40.5120   91.4992   27.9802 H   0  0  0  0  0
   42.8189   93.4031   27.6586 H   0  0  0  0  0
   42.8743   93.8556   29.3800 H   0  0  0  0  0
   42.5721   92.1638   28.9134 H   0  0  0  0  0
  1  2  4  0  0  0
  1  6  4  0  0  0
  1 17  1  0  0  0
  2  3  4  0  0  0
  3  4  4  0  0  0
  3  7  1  0  0  0
  4  5  4  0  0  0
  5  6  4  0  0  0
  6 19  1  0  0  0
  7  8  4  0  0  0
  7 11  4  0  0  0
  8  9  4  0  0  0
  9 10  4  0  0  0
 10 12  4  0  0  0
 11 12  4  0  0  0
 11 16  1  0  0  0
 12 13  1  0  0  0
 13 14  1  0  0  0
 14 15  1  0  0  0
 15 16  1  0  0  0
 17 18  1  0  0  0
 19 20  1  0  0  0
 20 21  4  0  0  0
 20 25  4  0  0  0
 21 22  4  0  0  0
 22 23  4  0  0  0
 23 24  4  0  0  0
 23 26  1  0  0  0
 24 25  4  0  0  0
 26 27  1  0  0  0
 27 28  1  0  0  0
 27 29  1  0  0  0
  4 30  1  0  0  0
  5 31  1  0  0  0
  8 32  1  0  0  0
  9 33  1  0  0  0
 10 34  1  0  0  0
 14 35  1  0  0  0
 14 36  1  0  0  0
 15 37  1  0  0  0
 15 38  1  0  0  0
 18 39  1  0  0  0
 18 40  1  0  0  0
 18 41  1  0  0  0
 19 42  1  0  0  0
 21 43  1  0  0  0
 22 44  1  0  0  0
 24 45  1  0  0  0
 25 46  1  0  0  0
 26 47  1  0  0  0
 26 48  1  0  0  0
 27 49  1  0  0  0
 28 50  1  0  0  0
 28 51  1  0  0  0
 28 52  1  0  0  0
 29 53  1  0  0  0
 29 54  1  0  0  0
 29 55  1  0  0  0
M  END
$$$$
