1yy6_ligand
  -I-interpret- 

100101  0  0  0  0  0  0  0  0999 V2000
   31.4640  -24.9160   -5.9570 N   0  3  0  0  0
   30.8890  -23.5410   -5.9560 C   0  0  0  0  0
   31.1030  -22.8890   -7.3190 C   0  0  0  0  0
   31.9560  -23.3170   -8.1000 O   0  0  0  0  0
   31.5390  -22.6920   -4.8560 C   0  0  0  0  0
   33.0070  -22.4290   -5.1130 C   0  0  0  0  0
   33.3190  -21.7100   -6.0830 O   0  0  0  0  0
   33.8500  -22.9420   -4.3480 O   0  0  0  0  0
   30.3310  -21.8370   -7.6170 N   0  0  0  0  0
   30.4250  -21.1190   -8.8900 C   0  0  0  0  0
   31.7080  -20.3140   -9.1150 C   0  0  0  0  0
   31.8710  -19.6800  -10.1560 O   0  0  0  0  0
   29.1760  -20.2450   -8.8720 C   0  0  0  0  0
   29.0200  -19.9340   -7.4190 C   0  0  0  0  0
   29.2620  -21.2720   -6.7750 C   0  0  0  0  0
   32.6140  -20.3400   -8.1430 N   0  0  0  0  0
   33.8640  -19.6100   -8.2750 C   0  0  0  0  0
   33.7080  -18.1040   -8.4360 C   0  0  0  0  0
   34.2720  -17.5080   -9.3600 O   0  0  0  0  0
   32.9560  -17.4790   -7.5340 N   0  0  0  0  0
   32.7350  -16.0350   -7.6000 C   0  0  0  0  0
   34.0160  -15.2640   -7.3020 C   0  0  0  0  0
   34.7660  -15.6190   -6.3960 O   0  0  0  0  0
   31.6530  -15.6070   -6.6090 C   0  0  0  0  0
   31.1210  -14.2090   -6.8820 C   0  0  0  0  0
   30.1270  -13.7320   -5.8440 C   0  0  0  0  0
   29.4190  -14.5700   -5.2480 O   0  0  0  0  0
   30.0430  -12.5080   -5.6360 O   0  0  0  0  0
   34.2570  -14.2030   -8.0660 N   0  0  0  0  0
   35.4500  -13.4020   -7.8690 C   0  0  0  0  0
   35.8770  -12.7570   -9.1730 C   0  0  0  0  0
   35.1080  -12.7530  -10.1360 O   0  0  0  0  0
   37.0970  -12.1980   -9.2370 N   0  0  0  0  0
   37.6160  -11.5490  -10.4470 C   0  0  0  0  0
   37.9240  -12.5650  -11.5430 C   0  0  0  0  0
   38.0920  -13.7550  -11.2610 O   0  0  0  0  0
   38.8680  -10.8430   -9.9430 C   0  0  0  0  0
   39.3600  -11.7780   -8.8900 C   0  0  0  0  0
   38.0870  -12.1350   -8.1460 C   0  0  0  0  0
   38.0080  -12.0980  -12.7880 N   0  0  0  0  0
   38.2830  -12.9900  -13.9160 C   0  0  0  0  0
   39.6320  -13.6740  -13.7910 C   0  0  0  0  0
   39.8880  -14.6850  -14.4430 O   0  0  0  0  0
   38.2220  -12.2250  -15.2440 C   0  0  0  0  0
   39.1940  -11.2010  -15.2970 O   0  0  0  0  0
   40.4930  -13.1220  -12.9480 N   0  0  0  0  0
   41.8160  -13.6930  -12.7490 C   0  0  0  0  0
   41.8480  -14.6110  -11.5290 C   0  0  0  0  0
   42.8570  -14.5420  -10.7940 O   0  0  0  0  0
   42.8520  -12.5830  -12.5530 C   0  0  0  0  0
   42.4700  -11.7690  -11.4350 O   0  0  0  0  0
   42.9400  -11.7160  -13.8030 C   0  0  0  0  0
   40.8481  -15.4459  -11.2606 O   0  0  0  0  0
   31.3173  -25.3452   -5.0434 H   0  0  0  0  0
   31.0032  -25.4754   -6.6748 H   0  0  0  0  0
   32.4636  -24.8651   -6.1535 H   0  0  0  0  0
   29.8193  -23.6065   -5.7569 H   0  0  0  0  0
   31.4562  -23.2397   -3.9172 H   0  0  0  0  0
   31.0263  -21.7305   -4.8281 H   0  0  0  0  0
   33.3983  -23.4539   -3.6731 H   0  0  0  0  0
   30.4770  -21.8140   -9.7281 H   0  0  0  0  0
   28.3031  -20.7386   -9.2992 H   0  0  0  0  0
   29.2697  -19.3534   -9.4919 H   0  0  0  0  0
   29.7050  -19.1610   -7.0706 H   0  0  0  0  0
   28.0459  -19.5108   -7.1739 H   0  0  0  0  0
   29.5384  -21.1980   -5.7232 H   0  0  0  0  0
   28.3701  -21.8974   -6.7373 H   0  0  0  0  0
   32.4303  -20.8776   -7.2959 H   0  0  0  0  0
   34.3514  -19.9766   -9.1784 H   0  0  0  0  0
   34.4256  -19.7741   -7.3553 H   0  0  0  0  0
   32.5254  -18.0172   -6.7821 H   0  0  0  0  0
   32.4114  -15.8047   -8.6150 H   0  0  0  0  0
   32.0951  -15.6065   -5.6127 H   0  0  0  0  0
   30.8206  -16.3044   -6.7029 H   0  0  0  0  0
   30.6068  -14.2344   -7.8428 H   0  0  0  0  0
   31.9693  -13.5248   -6.8641 H   0  0  0  0  0
   29.6422  -15.4518   -5.5548 H   0  0  0  0  0
   33.5951  -13.9493   -8.7994 H   0  0  0  0  0
   36.2540  -14.0456   -7.5120 H   0  0  0  0  0
   35.2356  -12.6201   -7.1404 H   0  0  0  0  0
   36.9049  -10.8653  -10.9106 H   0  0  0  0  0
   38.6714   -9.8392   -9.5665 H   0  0  0  0  0
   39.6010  -10.6584  -10.7283 H   0  0  0  0  0
   39.8740  -12.6482   -9.2983 H   0  0  0  0  0
   40.1201  -11.3346   -8.2468 H   0  0  0  0  0
   38.1648  -13.0642   -7.5814 H   0  0  0  0  0
   37.8264  -11.4158   -7.3695 H   0  0  0  0  0
   37.8783  -11.1007  -12.9584 H   0  0  0  0  0
   37.5100  -13.7583  -13.9008 H   0  0  0  0  0
   37.2358  -11.7699  -15.3352 H   0  0  0  0  0
   38.4150  -12.9265  -16.0557 H   0  0  0  0  0
   39.1292  -10.7431  -16.1382 H   0  0  0  0  0
   40.2240  -12.2847  -12.4313 H   0  0  0  0  0
   42.0547  -14.2749  -13.6392 H   0  0  0  0  0
   43.8260  -13.0355  -12.3669 H   0  0  0  0  0
   43.1190  -11.0725  -11.3111 H   0  0  0  0  0
   43.2347  -12.3332  -14.6517 H   0  0  0  0  0
   41.9673  -11.2653  -14.0002 H   0  0  0  0  0
   43.6807  -10.9315  -13.6481 H   0  0  0  0  0
   40.1686  -15.3561  -11.9328 H   0  0  0  0  0
  2  1  1  0  0  0
  2  5  1  0  0  0
  3  2  1  0  0  0
  3  4  2  0  0  0
  5  6  1  0  0  0
  6  7  2  0  0  0
  6  8  1  0  0  0
 11 10  1  0  0  0
 10 13  1  0  0  0
 10  9  1  0  0  0
  9 15  1  0  0  0
 15 14  1  0  0  0
 13 14  1  0  0  0
 11 12  2  0  0  0
  9  3  1  0  0  0
 17 16  1  0  0  0
 18 17  1  0  0  0
 18 19  2  0  0  0
 16 11  1  0  0  0
 21 20  1  0  0  0
 21 24  1  0  0  0
 22 21  1  0  0  0
 22 23  2  0  0  0
 24 25  1  0  0  0
 25 26  1  0  0  0
 26 28  2  0  0  0
 26 27  1  0  0  0
 20 18  1  0  0  0
 30 29  1  0  0  0
 31 30  1  0  0  0
 31 32  2  0  0  0
 29 22  1  0  0  0
 35 34  1  0  0  0
 34 37  1  0  0  0
 34 33  1  0  0  0
 33 39  1  0  0  0
 39 38  1  0  0  0
 37 38  1  0  0  0
 35 36  2  0  0  0
 33 31  1  0  0  0
 41 40  1  0  0  0
 41 44  1  0  0  0
 42 41  1  0  0  0
 42 43  2  0  0  0
 44 45  1  0  0  0
 40 35  1  0  0  0
 46 47  1  0  0  0
 47 50  1  0  0  0
 47 48  1  0  0  0
 48 49  2  0  0  0
 50 52  1  0  0  0
 50 51  1  0  0  0
 42 46  1  0  0  0
 48 53  1  0  0  0
  1 54  1  0  0  0
  1 55  1  0  0  0
  1 56  1  0  0  0
  2 57  1  0  0  0
  5 58  1  0  0  0
  5 59  1  0  0  0
  8 60  1  0  0  0
 10 61  1  0  0  0
 13 62  1  0  0  0
 13 63  1  0  0  0
 14 64  1  0  0  0
 14 65  1  0  0  0
 15 66  1  0  0  0
 15 67  1  0  0  0
 16 68  1  0  0  0
 17 69  1  0  0  0
 17 70  1  0  0  0
 20 71  1  0  0  0
 21 72  1  0  0  0
 24 73  1  0  0  0
 24 74  1  0  0  0
 25 75  1  0  0  0
 25 76  1  0  0  0
 27 77  1  0  0  0
 29 78  1  0  0  0
 30 79  1  0  0  0
 30 80  1  0  0  0
 34 81  1  0  0  0
 37 82  1  0  0  0
 37 83  1  0  0  0
 38 84  1  0  0  0
 38 85  1  0  0  0
 39 86  1  0  0  0
 39 87  1  0  0  0
 40 88  1  0  0  0
 41 89  1  0  0  0
 44 90  1  0  0  0
 44 91  1  0  0  0
 45 92  1  0  0  0
 46 93  1  0  0  0
 47 94  1  0  0  0
 50 95  1  0  0  0
 51 96  1  0  0  0
 52 97  1  0  0  0
 52 98  1  0  0  0
 52 99  1  0  0  0
 53100  1  0  0  0
M  END
$$$$
