### 
### Created by X-TOOL on Mon Sep 10 21:12:52 2018
### 

@<TRIPOS>MOLECULE
1yy6_ligand
   98    99     1     0     0
SMALL
GAST_HUCK


@<TRIPOS>ATOM
      1 N          31.4640  -24.9160   -5.9570 N.4       1 ASP         0.2391
      2 CA         30.8890  -23.5410   -5.9560 C.3       1 ASP         0.0766
      3 C          31.1030  -22.8890   -7.3190 C.2       1 ASP         0.2309
      4 O          31.9560  -23.3170   -8.1000 O.2       1 ASP        -0.3904
      5 CB         31.5390  -22.6920   -4.8560 C.3       1 ASP         0.0607
      6 CG         33.0070  -22.4290   -5.1130 C.2       1 ASP         0.0425
      7 OD1        33.3190  -21.7100   -6.0830 O.co2     1 ASP        -0.5686
      8 OD2        33.8500  -22.9420   -4.3480 O.co2     1 ASP        -0.5686
      9 N          30.3310  -21.8370   -7.6170 N.am      1 PRO        -0.2470
     10 CA         30.4250  -21.1190   -8.8900 C.3       1 PRO         0.1339
     11 C          31.7080  -20.3140   -9.1150 C.2       1 PRO         0.2039
     12 O          31.8710  -19.6800  -10.1560 O.2       1 PRO        -0.3944
     13 CB         29.1760  -20.2450   -8.8720 C.3       1 PRO        -0.0104
     14 CG         29.0200  -19.9340   -7.4190 C.3       1 PRO        -0.0281
     15 CD         29.2620  -21.2720   -6.7750 C.3       1 PRO         0.0371
     16 N          32.6140  -20.3400   -8.1430 N.am      1 GLY        -0.2664
     17 CA         33.8640  -19.6100   -8.2750 C.3       1 GLY         0.1201
     18 C          33.7080  -18.1040   -8.4360 C.2       1 GLY         0.2007
     19 O          34.2720  -17.5080   -9.3600 O.2       1 GLY        -0.3947
     20 N          32.9560  -17.4790   -7.5340 N.am      1 GLU        -0.2639
     21 CA         32.7350  -16.0350   -7.6000 C.3       1 GLU         0.1324
     22 C          34.0160  -15.2640   -7.3020 C.2       1 GLU         0.2038
     23 O          34.7660  -15.6190   -6.3960 O.2       1 GLU        -0.3944
     24 CB         31.6530  -15.6070   -6.6090 C.3       1 GLU        -0.0008
     25 CG         31.1210  -14.2090   -6.8820 C.3       1 GLU         0.0044
     26 CD         30.1270  -13.7320   -5.8440 C.2       1 GLU         0.0350
     27 OE1        29.4190  -14.5700   -5.2480 O.co2     1 GLU        -0.5690
     28 OE2        30.0430  -12.5080   -5.6360 O.co2     1 GLU        -0.5690
     29 N          34.2570  -14.2030   -8.0660 N.am      1 GLY        -0.2664
     30 CA         35.4500  -13.4020   -7.8690 C.3       1 GLY         0.1203
     31 C          35.8770  -12.7570   -9.1730 C.2       1 GLY         0.2032
     32 O          35.1080  -12.7530  -10.1360 O.2       1 GLY        -0.3945
     33 N          37.0970  -12.1980   -9.2370 N.am      1 PRO        -0.2501
     34 CA         37.6160  -11.5490  -10.4470 C.3       1 PRO         0.1338
     35 C          37.9240  -12.5650  -11.5430 C.2       1 PRO         0.2042
     36 O          38.0920  -13.7550  -11.2610 O.2       1 PRO        -0.3944
     37 CB         38.8680  -10.8430   -9.9430 C.3       1 PRO        -0.0104
     38 CG         39.3600  -11.7780   -8.8900 C.3       1 PRO        -0.0281
     39 CD         38.0870  -12.1350   -8.1460 C.3       1 PRO         0.0369
     40 N          38.0080  -12.0980  -12.7880 N.am      1 SER        -0.2616
     41 CA         38.2830  -12.9900  -13.9160 C.3       1 SER         0.1539
     42 C          39.6320  -13.6740  -13.7910 C.2       1 SER         0.2063
     43 O          39.8880  -14.6850  -14.4430 O.2       1 SER        -0.3943
     44 CB         38.2220  -12.2250  -15.2440 C.3       1 SER         0.0843
     45 OG         39.1940  -11.2010  -15.2970 O.3       1 SER        -0.3903
     46 N          40.4930  -13.1220  -12.9480 N.am      1 THR        -0.2601
     47 CA         41.8160  -13.6930  -12.7490 C.3       1 THR         0.1677
     48 C          41.8480  -14.6110  -11.5290 C.2       1 THR         0.2597
     49 O          42.8570  -14.5420  -10.7940 O.2       1 THR        -0.3679
     50 CB         42.8520  -12.5830  -12.5530 C.3       1 THR         0.0937
     51 OG1        42.4700  -11.7690  -11.4350 O.3       1 THR        -0.3873
     52 CG2        42.9400  -11.7160  -13.8030 C.3       1 THR        -0.0344
     53 O1         40.8481  -15.4459  -11.2606 O.3       1 THR        -0.2909
     54 H1         31.3196  -25.3412   -5.0546 H         1 ASP         0.2016
     55 H2         32.4519  -24.8670   -6.1511 H         1 ASP         0.2016
     56 H3         31.0094  -25.4698   -6.6660 H         1 ASP         0.2016
     57 H4         29.8088  -23.6080   -5.7595 H         1 ASP         0.1118
     58 H5         31.4389  -23.2216   -3.8971 H         1 ASP         0.0512
     59 H6         31.0133  -21.7274   -4.7988 H         1 ASP         0.0512
     60 H7         30.3542  -21.8449   -9.7134 H         1 PRO         0.0802
     61 H8         28.3027  -20.7916   -9.2575 H         1 PRO         0.0313
     62 H9         29.3240  -19.3279   -9.4611 H         1 PRO         0.0313
     63 H10        29.7628  -19.1930   -7.0886 H         1 PRO         0.0287
     64 H11        28.0084  -19.5629   -7.1978 H         1 PRO         0.0287
     65 H12        29.5942  -21.1581   -5.7326 H         1 PRO         0.0524
     66 H13        28.3580  -21.8980   -6.8055 H         1 PRO         0.0524
     67 H14        32.4339  -20.8671   -7.3125 H         1 GLY         0.1881
     68 H15        34.3943  -19.9957   -9.1581 H         1 GLY         0.0763
     69 H16        34.4669  -19.7975   -7.3743 H         1 GLY         0.0763
     70 H17        32.5339  -18.0067   -6.7969 H         1 GLU         0.1883
     71 H18        32.4019  -15.7829   -8.6176 H         1 GLU         0.0801
     72 H19        32.0775  -15.6292   -5.5945 H         1 GLU         0.0330
     73 H20        30.8172  -16.3193   -6.6724 H         1 GLU         0.0330
     74 H21        30.6263  -14.2096   -7.8645 H         1 GLU         0.0433
     75 H22        31.9700  -13.5098   -6.8993 H         1 GLU         0.0433
     76 H23        33.6080  -13.9542   -8.7850 H         1 GLY         0.1881
     77 H24        36.2620  -14.0462   -7.5008 H         1 GLY         0.0763
     78 H25        35.2405  -12.6164   -7.1281 H         1 GLY         0.0763
     79 H26        36.8918  -10.8179  -10.8356 H         1 PRO         0.0802
     80 H27        38.6258   -9.8575   -9.5186 H         1 PRO         0.0313
     81 H28        39.6089  -10.7239  -10.7473 H         1 PRO         0.0313
     82 H29        39.8232  -12.6705   -9.3360 H         1 PRO         0.0287
     83 H30        40.0832  -11.2828   -8.2253 H         1 PRO         0.0287
     84 H31        38.1815  -13.1052   -7.6364 H         1 PRO         0.0524
     85 H32        37.8231  -11.3594   -7.4120 H         1 PRO         0.0524
     86 H33        37.8809  -11.1203  -12.9551 H         1 SER         0.1884
     87 H34        37.5052  -13.7677  -13.9276 H         1 SER         0.0823
     88 H35        37.2237  -11.7760  -15.3523 H         1 SER         0.0606
     89 H36        38.3991  -12.9290  -16.0705 H         1 SER         0.0606
     90 H37        39.0439  -10.5864  -14.5882 H         1 SER         0.2097
     91 H38        40.2293  -12.3011  -12.4414 H         1 THR         0.1885
     92 H39        42.0815  -14.2785  -13.6415 H         1 THR         0.0843
     93 H40        43.8351  -13.0357  -12.3564 H         1 THR         0.0641
     94 H41        42.4150  -12.3092  -10.6555 H         1 THR         0.2101
     95 H42        43.6872  -10.9238  -13.6479 H         1 THR         0.0257
     96 H43        41.9590  -11.2605  -14.0032 H         1 THR         0.0257
     97 H44        43.2374  -12.3377  -14.6603 H         1 THR         0.0257
     98 H45        40.4824  -15.2369  -10.4091 H         1 THR         0.2540
@<TRIPOS>BOND
     1    2    1 1  
     2    2    5 1  
     3    3    2 1  
     4    3    4 2  
     5    5    6 1  
     6    6    7 ar 
     7    6    8 ar 
     8   11   10 1  
     9   10   13 1  
    10   10    9 1  
    11    9   15 1  
    12   15   14 1  
    13   13   14 1  
    14   11   12 2  
    15    9    3 am 
    16   17   16 1  
    17   18   17 1  
    18   18   19 2  
    19   16   11 am 
    20   21   20 1  
    21   21   24 1  
    22   22   21 1  
    23   22   23 2  
    24   24   25 1  
    25   25   26 1  
    26   26   28 ar 
    27   26   27 ar 
    28   20   18 am 
    29   30   29 1  
    30   31   30 1  
    31   31   32 2  
    32   29   22 am 
    33   35   34 1  
    34   34   37 1  
    35   34   33 1  
    36   33   39 1  
    37   39   38 1  
    38   37   38 1  
    39   35   36 2  
    40   33   31 am 
    41   41   40 1  
    42   41   44 1  
    43   42   41 1  
    44   42   43 2  
    45   44   45 1  
    46   40   35 am 
    47   46   47 1  
    48   47   50 1  
    49   47   48 1  
    50   48   49 2  
    51   50   52 1  
    52   50   51 1  
    53   42   46 am 
    54   48   53 1  
    55    1   54 1  
    56    1   55 1  
    57    1   56 1  
    58    2   57 1  
    59    5   58 1  
    60    5   59 1  
    61   10   60 1  
    62   13   61 1  
    63   13   62 1  
    64   14   63 1  
    65   14   64 1  
    66   15   65 1  
    67   15   66 1  
    68   16   67 1  
    69   17   68 1  
    70   17   69 1  
    71   20   70 1  
    72   21   71 1  
    73   24   72 1  
    74   24   73 1  
    75   25   74 1  
    76   25   75 1  
    77   29   76 1  
    78   30   77 1  
    79   30   78 1  
    80   34   79 1  
    81   37   80 1  
    82   37   81 1  
    83   38   82 1  
    84   38   83 1  
    85   39   84 1  
    86   39   85 1  
    87   40   86 1  
    88   41   87 1  
    89   44   88 1  
    90   44   89 1  
    91   45   90 1  
    92   46   91 1  
    93   47   92 1  
    94   50   93 1  
    95   51   94 1  
    96   52   95 1  
    97   52   96 1  
    98   52   97 1  
    99   53   98 1  
@<TRIPOS>SUBSTRUCTURE
     1 ASP         1

