6g1w_ligand
  -I-interpret- 

 62 66  0  0  0  0  0  0  0  0999 V2000
   -5.8650   -5.9860   55.2340 C   0  0  0  0  0
   -2.3300   -4.6890   55.5990 C   0  0  0  0  0
   -6.1750   -2.2650   56.8540 C   0  0  0  0  0
   -6.2380    0.2350   51.2150 C   0  0  0  0  0
   -6.5780    1.5770   49.0910 C   0  0  0  0  0
   -0.1670   -3.6480   56.1320 C   0  0  0  0  0
    0.4320   -4.3950   55.0930 C   0  0  0  0  0
   -0.3190   -5.2970   54.3380 C   0  0  0  0  0
   -1.7270   -5.4320   54.6070 C   0  0  0  0  0
   -3.8030   -6.5010   54.0490 C   0  0  0  0  0
   -4.5080   -7.4300   53.2430 C   0  0  0  0  0
   -5.8690   -7.6080   53.4470 C   0  0  0  0  0
   -6.5660   -6.8920   54.4370 C   0  0  0  0  0
   -4.4660   -5.8000   55.0160 C   0  0  0  0  0
   -3.7500   -4.8630   55.8290 C   0  0  0  0  0
   -1.5450   -3.7820   56.3850 C   0  0  0  0  0
   -4.7180   -2.7070   56.6510 C   0  0  0  0  0
   -5.6010   -1.0560   54.8600 C   0  0  0  0  0
   -6.2700   -0.6500   53.6550 C   0  0  0  0  0
   -5.5330    0.1430   52.5600 C   0  0  0  0  0
   -7.6100    2.7040   49.1090 C   0  0  0  0  0
   -7.1490    3.9840   48.9300 C   0  0  0  0  0
   -8.0430    5.0360   48.9530 C   0  0  0  0  0
   -9.4070    4.8400   49.1260 C   0  0  0  0  0
   -9.8780    3.5460   49.3080 C   0  0  0  0  0
   -8.9730    2.4870   49.3040 C   0  0  0  0  0
   -6.7720    6.1950   47.5720 C   0  0  0  0  0
   -2.4610   -6.3140   53.8690 N   0  0  0  0  0
   -6.5240   -1.6920   55.5730 N   0  0  0  0  0
   -7.6750   -1.7280   54.9020 N   0  0  0  0  0
   -7.5510   -1.0870   53.7400 N   0  0  0  0  0
   -5.9560    1.4130   50.3970 N   0  0  0  0  0
   -4.4950   -4.1300   56.8440 N   0  0  0  0  0
   -6.9770   -0.6290   50.8620 O   0  0  0  0  0
  -10.2820    5.9420   49.1240 O   0  0  0  0  0
   -7.5040    6.2950   48.7450 O   0  0  0  0  0
   -6.7380   -8.7650   52.4210 Cl  0  0  0  0  0
   -6.3799   -5.4262   56.0147 H   0  0  0  0  0
   -6.2912   -1.5601   57.6772 H   0  0  0  0  0
   -6.8296   -3.0882   57.1404 H   0  0  0  0  0
   -5.8037    1.8254   48.3652 H   0  0  0  0  0
   -7.0820    0.6475   48.8261 H   0  0  0  0  0
    0.4363   -2.9700   56.7358 H   0  0  0  0  0
    1.4928   -4.2653   54.8787 H   0  0  0  0  0
    0.1537   -5.8909   53.5557 H   0  0  0  0  0
   -3.9871   -7.9978   52.4721 H   0  0  0  0  0
   -7.6362   -7.0424   54.5793 H   0  0  0  0  0
   -2.0145   -3.1978   57.1765 H   0  0  0  0  0
   -4.1165   -2.1834   57.3941 H   0  0  0  0  0
   -4.4528   -2.4769   55.6191 H   0  0  0  0  0
   -4.5600   -0.8800   55.1309 H   0  0  0  0  0
   -5.4435    1.1646   52.9294 H   0  0  0  0  0
   -4.5957   -0.3832   52.3791 H   0  0  0  0  0
   -6.0866    4.1686   48.7711 H   0  0  0  0  0
  -10.9426    3.3615   49.4522 H   0  0  0  0  0
   -9.3371    1.4709   49.4560 H   0  0  0  0  0
   -5.9927    5.4429   47.6946 H   0  0  0  0  0
   -7.4337    5.9047   46.7559 H   0  0  0  0  0
   -6.3161    7.1590   47.3464 H   0  0  0  0  0
   -5.3167    2.1277   50.7448 H   0  0  0  0  0
   -4.8525   -4.6055   57.6725 H   0  0  0  0  0
  -11.1821    5.6347   49.2545 H   0  0  0  0  0
  1 13  4  0  0  0
 14  1  4  0  0  0
  2  9  4  0  0  0
 15  2  4  0  0  0
  2 16  4  0  0  0
  3 17  1  0  0  0
 29  3  1  0  0  0
 20  4  1  0  0  0
  4 32  1  0  0  0
  4 34  2  0  0  0
  5 21  1  0  0  0
 32  5  1  0  0  0
  6  7  4  0  0  0
 16  6  4  0  0  0
  8  7  4  0  0  0
  9  8  4  0  0  0
  9 28  4  0  0  0
 10 11  4  0  0  0
 14 10  4  0  0  0
 10 28  4  0  0  0
 11 12  4  0  0  0
 13 12  4  0  0  0
 12 37  1  0  0  0
 15 14  4  0  0  0
 33 15  1  0  0  0
 17 33  1  0  0  0
 19 18  4  0  0  0
 18 29  4  0  0  0
 19 20  1  0  0  0
 19 31  4  0  0  0
 21 22  4  0  0  0
 21 26  4  0  0  0
 22 23  4  0  0  0
 23 24  4  0  0  0
 23 36  1  0  0  0
 24 25  4  0  0  0
 24 35  1  0  0  0
 25 26  4  0  0  0
 36 27  1  0  0  0
 29 30  4  0  0  0
 30 31  4  0  0  0
  1 38  1  0  0  0
  3 39  1  0  0  0
  3 40  1  0  0  0
  5 41  1  0  0  0
  5 42  1  0  0  0
  6 43  1  0  0  0
  7 44  1  0  0  0
  8 45  1  0  0  0
 11 46  1  0  0  0
 13 47  1  0  0  0
 16 48  1  0  0  0
 17 49  1  0  0  0
 17 50  1  0  0  0
 18 51  1  0  0  0
 20 52  1  0  0  0
 20 53  1  0  0  0
 22 54  1  0  0  0
 25 55  1  0  0  0
 26 56  1  0  0  0
 27 57  1  0  0  0
 27 58  1  0  0  0
 27 59  1  0  0  0
 32 60  1  0  0  0
 33 61  1  0  0  0
 35 62  1  0  0  0
M  END
$$$$
