6e0r_ligand
  -I-interpret- 

 52 56  0  0  0  0  0  0  0  0999 V2000
   20.0160   -9.3200   -6.3870 C   0  0  0  0  0
   20.5170   -8.1940   -5.7340 C   0  0  0  0  0
   21.8250   -7.8340   -5.9270 C   0  0  0  0  0
   22.6230   -8.6110   -6.7800 C   0  0  0  0  0
   24.1910   -9.6050   -8.0650 C   0  0  0  0  0
   21.7920  -12.3550   -8.9510 C   0  0  0  0  0
   21.1410  -14.4910  -10.1840 C   0  0  0  0  0
   24.4710   -5.8270   -6.4960 C   0  0  0  0  0
   17.9290  -11.0190   -8.0800 C   0  0  0  0  0
   17.0240  -11.4490   -5.8020 C   0  0  0  0  0
   22.8770  -11.4630   -8.9690 C   0  0  0  0  0
   22.0390  -13.3250   -9.8600 C   0  0  0  0  0
   22.0500   -9.7360   -7.4050 C   0  0  0  0  0
   18.2570  -11.0410   -6.6100 C   0  0  0  0  0
   24.4710   -5.4570   -5.0020 C   0  0  0  0  0
   25.3760   -4.5970   -6.6840 C   0  0  0  0  0
   17.8550  -12.2040   -8.7890 C   0  0  0  0  0
   17.5540  -12.1560  -10.1410 C   0  0  0  0  0
   17.3410  -10.9150  -10.7270 C   0  0  0  0  0
   17.4330   -9.7740   -9.9510 C   0  0  0  0  0
   24.0220   -8.5640   -7.2370 C   0  0  0  0  0
   17.0450  -10.8190  -12.0400 F   0  0  0  0  0
   23.0290  -10.3170   -8.1760 N   0  0  0  0  0
   23.2310  -13.0590  -10.4350 N   0  0  0  0  0
   23.7400  -11.8900   -9.8590 N   0  0  0  0  0
   20.7790  -10.0430   -7.1830 N   0  0  0  0  0
   17.7210   -9.8600   -8.6690 N   0  0  0  0  0
   18.6920   -9.7030   -6.1980 N   0  0  0  0  0
   25.8950   -7.9280   -5.6610 O   0  0  0  0  0
   26.0350   -7.3030   -8.0400 O   0  0  0  0  0
   24.7920   -4.1260   -5.4530 O   0  0  0  0  0
   25.2920   -7.4060   -6.8370 S   0  0  0  0  0
   19.8751   -7.6068   -5.0773 H   0  0  0  0  0
   22.2385   -6.9586   -5.4262 H   0  0  0  0  0
   25.1220   -9.8489   -8.5767 H   0  0  0  0  0
   20.9085  -12.2788   -8.3172 H   0  0  0  0  0
   20.9884  -15.0907   -9.2867 H   0  0  0  0  0
   20.1808  -14.1199  -10.5422 H   0  0  0  0  0
   21.6066  -15.1028  -10.9566 H   0  0  0  0  0
   23.5589   -5.9745   -7.0744 H   0  0  0  0  0
   16.2217  -10.7328   -5.9793 H   0  0  0  0  0
   16.7007  -12.4428   -6.1118 H   0  0  0  0  0
   17.2741  -11.4611   -4.7411 H   0  0  0  0  0
   19.0524  -11.7636   -6.4277 H   0  0  0  0  0
   25.0695   -5.9894   -4.2628 H   0  0  0  0  0
   23.6297   -5.6690   -4.3421 H   0  0  0  0  0
   25.3818   -4.0038   -7.5984 H   0  0  0  0  0
   26.4529   -4.6749   -6.8335 H   0  0  0  0  0
   18.0303  -13.1588   -8.2933 H   0  0  0  0  0
   17.4861  -13.0704  -10.7303 H   0  0  0  0  0
   17.2659   -8.7967  -10.4038 H   0  0  0  0  0
   18.0269   -9.0558   -5.7747 H   0  0  0  0  0
  2  1  4  0  0  0
 26  1  4  0  0  0
  1 28  1  0  0  0
  3  2  4  0  0  0
  4  3  4  0  0  0
  4 13  4  0  0  0
 21  4  4  0  0  0
 21  5  4  0  0  0
  5 23  4  0  0  0
 11  6  4  0  0  0
  6 12  4  0  0  0
 12  7  1  0  0  0
  8 15  1  0  0  0
  8 16  1  0  0  0
 32  8  1  0  0  0
 14  9  1  0  0  0
  9 17  4  0  0  0
  9 27  4  0  0  0
 14 10  1  0  0  0
 23 11  1  0  0  0
 11 25  4  0  0  0
 12 24  4  0  0  0
 23 13  4  0  0  0
 13 26  4  0  0  0
 28 14  1  0  0  0
 15 31  1  0  0  0
 16 31  1  0  0  0
 17 18  4  0  0  0
 18 19  4  0  0  0
 20 19  4  0  0  0
 19 22  1  0  0  0
 27 20  4  0  0  0
 21 32  1  0  0  0
 24 25  4  0  0  0
 32 29  2  0  0  0
 32 30  2  0  0  0
  2 33  1  0  0  0
  3 34  1  0  0  0
  5 35  1  0  0  0
  6 36  1  0  0  0
  7 37  1  0  0  0
  7 38  1  0  0  0
  7 39  1  0  0  0
  8 40  1  0  0  0
 10 41  1  0  0  0
 10 42  1  0  0  0
 10 43  1  0  0  0
 14 44  1  0  0  0
 15 45  1  0  0  0
 15 46  1  0  0  0
 16 47  1  0  0  0
 16 48  1  0  0  0
 17 49  1  0  0  0
 18 50  1  0  0  0
 20 51  1  0  0  0
 28 52  1  0  0  0
M  END
$$$$
