6c8p_ligand
  -I-interpret- 

 22 22  0  0  0  0  0  0  0  0999 V2000
   34.7430   76.2630   63.3030 C   0  0  0  0  0
   32.3570   75.9370   61.8530 C   0  0  0  0  0
   38.0330   80.1530   63.9290 C   0  0  0  0  0
   36.8670   80.2350   62.9420 C   0  0  0  0  0
   35.6530   79.3430   63.1540 C   0  0  0  0  0
   35.1950   78.5130   62.2020 C   0  0  0  0  0
   34.3520   77.2790   62.4210 C   0  0  0  0  0
   33.9530   75.1140   63.4680 C   0  0  0  0  0
   32.7690   74.9490   62.7460 C   0  0  0  0  0
   33.1530   77.0960   61.6910 C   0  0  0  0  0
   32.7480   78.0080   60.8470 F   0  0  0  0  0
   39.1180   80.2080   63.3490 O   0  0  0  0  0
   37.7830   80.0150   65.1710 O   0  0  0  0  0
   36.9170   80.9510   61.9440 O   0  0  0  0  0
   35.6100   78.6490   60.8810 O   0  0  0  0  0
   35.6701   76.3656   63.8669 H   0  0  0  0  0
   31.4333   75.8184   61.2866 H   0  0  0  0  0
   35.1361   79.3786   64.1130 H   0  0  0  0  0
   34.2679   74.3408   64.1687 H   0  0  0  0  0
   32.1682   74.0495   62.8805 H   0  0  0  0  0
   36.8326   80.0090   65.3062 H   0  0  0  0  0
   35.1856   77.9769   60.3426 H   0  0  0  0  0
  7  1  4  0  0  0
  1  8  4  0  0  0
  2  9  4  0  0  0
 10  2  4  0  0  0
  4  3  1  0  0  0
  3 12  2  0  0  0
  3 13  1  0  0  0
  5  4  1  0  0  0
  4 14  2  0  0  0
  6  5  2  0  0  0
  7  6  1  0  0  0
  6 15  1  0  0  0
  7 10  4  0  0  0
  8  9  4  0  0  0
 10 11  1  0  0  0
  1 16  1  0  0  0
  2 17  1  0  0  0
  5 18  1  0  0  0
  8 19  1  0  0  0
  9 20  1  0  0  0
 13 21  1  0  0  0
 15 22  1  0  0  0
M  END
$$$$
