3mg7_ligand
  -I-interpret- 

 83 86  0  0  0  0  0  0  0  0999 V2000
    9.5750 -135.0990   12.7880 C   0  0  0  0  0
    8.2580 -135.1770   13.2320 C   0  0  0  0  0
    7.5020 -134.0220   13.4290 C   0  0  0  0  0
    8.0540 -132.7740   13.1740 C   0  0  0  0  0
    9.3680 -132.6890   12.7270 C   0  0  0  0  0
   10.1310 -133.8420   12.5340 C   0  0  0  0  0
   10.3210 -136.4200   12.5850 C   0  0  0  0  0
   11.6710 -137.5150   22.3260 C   0  0  0  0  0
   10.5460 -137.7060   14.6490 C   0  0  0  0  0
    9.4490 -138.2430   14.5130 O   0  0  0  0  0
   11.4540 -137.9990   15.8600 C   0  0  0  0  0
   12.1740 -139.3440   15.6820 C   0  0  0  0  0
   10.6160 -138.0100   17.0660 N   0  0  0  0  0
   13.0260 -139.7240   16.8910 C   0  0  0  0  0
   10.6270 -137.0420   17.9720 C   0  0  0  0  0
   11.3400 -136.0450   17.9230 O   0  0  0  0  0
    9.6330 -137.2810   19.1120 C   0  0  0  0  0
   10.2110 -137.0880   20.4550 N   0  0  0  0  0
    8.3790 -136.4130   18.9510 C   0  0  0  0  0
    7.5300 -136.6460   20.0700 O   0  0  0  0  0
   14.1860 -138.7460   17.0550 C   0  0  0  0  0
   14.2000 -137.8670   18.1440 C   0  0  0  0  0
   15.2230 -138.7320   16.1200 C   0  0  0  0  0
   15.2600 -136.9730   18.2870 C   0  0  0  0  0
   16.2940 -136.9580   17.3500 C   0  0  0  0  0
   16.2830 -137.8370   16.2700 C   0  0  0  0  0
   11.2280 -137.8180   20.9040 C   0  0  0  0  0
   11.8000 -138.6850   20.2510 O   0  0  0  0  0
   11.0370 -136.8290   13.7910 N   0  0  0  0  0
   11.8910 -138.5690   23.2200 C   0  0  0  0  0
   12.2960 -138.2860   24.5270 C   0  0  0  0  0
   12.4740 -136.9530   24.9260 C   0  0  0  0  0
   12.2400 -135.9130   24.0250 C   0  0  0  0  0
   11.8420 -136.1920   22.7230 C   0  0  0  0  0
   12.8580 -136.5910   26.1830 O   0  0  0  0  0
   13.4900 -137.5600   27.0380 C   0  0  0  0  0
   14.2290 -137.0460   28.0980 C   0  0  0  0  0
   15.5600 -137.4260   28.2780 C   0  0  0  0  0
   16.2960 -136.8900   29.3330 C   0  0  0  0  0
   15.6990 -135.9730   30.2020 C   0  0  0  0  0
   14.3680 -135.5940   30.0210 C   0  0  0  0  0
   13.6340 -136.1230   28.9610 C   0  0  0  0  0
    7.6340 -136.7490   17.6640 C   0  0  0  0  0
   11.7820 -133.6980   11.9840 C   0  0  0  0  0
    7.8125 -136.1523   13.4280 H   0  0  0  0  0
    6.4744 -134.0993   13.7843 H   0  0  0  0  0
    7.4634 -131.8700   13.3227 H   0  0  0  0  0
    9.8068 -131.7119   12.5252 H   0  0  0  0  0
   11.0480 -136.2836   11.7844 H   0  0  0  0  0
    9.5911 -137.1920   12.3413 H   0  0  0  0  0
   12.2209 -137.2295   15.9490 H   0  0  0  0  0
   12.8367 -139.2564   14.8210 H   0  0  0  0  0
   11.4141 -140.1149   15.5537 H   0  0  0  0  0
    9.9929 -138.8038   17.2144 H   0  0  0  0  0
   13.4263 -140.7267   16.7414 H   0  0  0  0  0
   12.4053 -139.6910   17.7864 H   0  0  0  0  0
    9.3575 -138.3329   19.0366 H   0  0  0  0  0
    9.8166 -136.3688   21.0613 H   0  0  0  0  0
    8.6738 -135.3649   18.8995 H   0  0  0  0  0
    6.7380 -136.1099   19.9865 H   0  0  0  0  0
   13.3900 -137.8813   18.8732 H   0  0  0  0  0
   15.2045 -139.4192   15.2741 H   0  0  0  0  0
   15.2812 -136.2847   19.1319 H   0  0  0  0  0
   17.1170 -136.2525   17.4644 H   0  0  0  0  0
   17.0977 -137.8260   15.5460 H   0  0  0  0  0
   11.9529 -136.4211   13.9783 H   0  0  0  0  0
   11.7478 -139.6010   22.8997 H   0  0  0  0  0
   12.4728 -139.0972   25.2332 H   0  0  0  0  0
   12.3698 -134.8787   24.3436 H   0  0  0  0  0
   11.6650 -135.3802   22.0175 H   0  0  0  0  0
   14.1932 -138.1090   26.4118 H   0  0  0  0  0
   12.6864 -138.1481   27.4812 H   0  0  0  0  0
   16.0221 -138.1395   27.5957 H   0  0  0  0  0
   17.3349 -137.1854   29.4799 H   0  0  0  0  0
   16.2757 -135.5515   31.0254 H   0  0  0  0  0
   13.9036 -134.8858   30.7072 H   0  0  0  0  0
   12.5992 -135.8175   28.8060 H   0  0  0  0  0
    8.2890 -136.5746   16.8104 H   0  0  0  0  0
    7.3315 -137.7960   17.6836 H   0  0  0  0  0
    6.7507 -136.1158   17.5811 H   0  0  0  0  0
   12.4505 -134.1316   12.7278 H   0  0  0  0  0
   11.8961 -134.2278   11.0383 H   0  0  0  0  0
   12.0264 -132.6450   11.8439 H   0  0  0  0  0
  1  2  4  0  0  0
  1  6  4  0  0  0
  7  1  1  0  0  0
  2  3  4  0  0  0
  3  4  4  0  0  0
  5  4  4  0  0  0
  6  5  4  0  0  0
  6 44  1  0  0  0
 29  7  1  0  0  0
 27  8  1  0  0  0
  8 30  4  0  0  0
  8 34  4  0  0  0
  9 10  2  0  0  0
 11  9  1  0  0  0
  9 29  1  0  0  0
 11 12  1  0  0  0
 13 11  1  0  0  0
 12 14  1  0  0  0
 15 13  1  0  0  0
 14 21  1  0  0  0
 15 16  2  0  0  0
 17 15  1  0  0  0
 18 17  1  0  0  0
 17 19  1  0  0  0
 18 27  1  0  0  0
 19 20  1  0  0  0
 19 43  1  0  0  0
 21 22  4  0  0  0
 21 23  4  0  0  0
 22 24  4  0  0  0
 23 26  4  0  0  0
 24 25  4  0  0  0
 25 26  4  0  0  0
 27 28  2  0  0  0
 30 31  4  0  0  0
 31 32  4  0  0  0
 32 33  4  0  0  0
 32 35  1  0  0  0
 33 34  4  0  0  0
 35 36  1  0  0  0
 36 37  1  0  0  0
 37 38  4  0  0  0
 37 42  4  0  0  0
 38 39  4  0  0  0
 39 40  4  0  0  0
 40 41  4  0  0  0
 41 42  4  0  0  0
  2 45  1  0  0  0
  3 46  1  0  0  0
  4 47  1  0  0  0
  5 48  1  0  0  0
  7 49  1  0  0  0
  7 50  1  0  0  0
 11 51  1  0  0  0
 12 52  1  0  0  0
 12 53  1  0  0  0
 13 54  1  0  0  0
 14 55  1  0  0  0
 14 56  1  0  0  0
 17 57  1  0  0  0
 18 58  1  0  0  0
 19 59  1  0  0  0
 20 60  1  0  0  0
 22 61  1  0  0  0
 23 62  1  0  0  0
 24 63  1  0  0  0
 25 64  1  0  0  0
 26 65  1  0  0  0
 29 66  1  0  0  0
 30 67  1  0  0  0
 31 68  1  0  0  0
 33 69  1  0  0  0
 34 70  1  0  0  0
 36 71  1  0  0  0
 36 72  1  0  0  0
 38 73  1  0  0  0
 39 74  1  0  0  0
 40 75  1  0  0  0
 41 76  1  0  0  0
 42 77  1  0  0  0
 43 78  1  0  0  0
 43 79  1  0  0  0
 43 80  1  0  0  0
 44 81  1  0  0  0
 44 82  1  0  0  0
 44 83  1  0  0  0
M  END
$$$$
