2v16_ligand
  -I-interpret- 

 79 80  0  0  0  0  0  0  0  0999 V2000
   15.0460   43.6410   70.8210 C   0  0  0  0  0
   15.0650   45.1600   70.7220 O   0  0  0  0  0
   14.0670   45.7280   71.5810 C   0  0  0  0  0
   13.5100   44.9490   72.3930 O   0  0  0  0  0
   13.6110   47.1370   71.5470 C   0  0  0  0  0
   14.0030   47.4790   72.9680 C   0  0  0  0  0
   13.5000   48.8170   73.3360 C   0  0  0  0  0
   14.2950   49.7790   74.0560 C   0  0  0  0  0
   13.6730   51.1380   74.3230 C   0  0  0  0  0
   12.4190   51.5220   73.8450 C   0  0  0  0  0
   11.6820   50.6160   73.0600 C   0  0  0  0  0
   12.2480   49.2420   72.7600 C   0  0  0  0  0
   11.5300   48.1680   71.9710 N   0  0  0  0  0
   12.1670   46.9630   71.6000 C   0  0  0  0  0
   10.1710   48.3200   71.6290 C   0  0  0  0  0
    9.5430   49.3240   72.0060 O   0  0  0  0  0
    9.4860   47.3020   70.7100 C   0  0  0  0  0
    8.9280   48.0840   69.6230 C   0  0  0  0  0
    9.9140   48.9720   68.9730 C   0  0  0  0  0
    7.7560   49.0040   70.0320 C   0  0  0  0  0
    8.4640   47.1550   68.6220 C   0  0  0  0  0
    7.4430   46.2430   69.2840 C   0  0  0  0  0
    8.2470   44.9030   69.5060 N   0  3  0  0  0
    6.2660   45.9000   68.3560 C   0  0  0  0  0
    6.9830   44.8730   67.5570 O   0  0  0  0  0
    5.1930   45.2640   69.3680 C   0  0  0  0  0
    4.0430   44.7720   68.4950 C   0  0  0  0  0
    3.2760   43.6620   69.2780 C   0  0  0  0  0
    3.3150   46.0400   67.9720 C   0  0  0  0  0
    3.5350   47.1020   68.4280 O   0  0  0  0  0
    2.5000   45.9940   66.9960 N   0  0  0  0  0
    1.9960   47.1240   66.2530 C   0  0  0  0  0
    3.1300   47.8680   65.8800 C   0  0  0  0  0
    2.7920   48.4560   64.5710 C   0  0  0  0  0
    1.6740   49.4960   65.0320 C   0  0  0  0  0
   15.2496   43.3426   71.8494 H   0  0  0  0  0
   14.0656   43.2709   70.5213 H   0  0  0  0  0
   15.8093   43.2257   70.1630 H   0  0  0  0  0
   13.9481   47.8065   70.7557 H   0  0  0  0  0
   15.0902   47.4760   73.0456 H   0  0  0  0  0
   13.5696   46.7403   73.6422 H   0  0  0  0  0
   15.3030   49.5406   74.3955 H   0  0  0  0  0
   14.2370   51.8536   74.9212 H   0  0  0  0  0
   12.0169   52.5084   74.0762 H   0  0  0  0  0
   10.7058   50.9017   72.6683 H   0  0  0  0  0
   11.9320   46.1986   72.3407 H   0  0  0  0  0
   11.8121   46.6672   70.6127 H   0  0  0  0  0
    8.7152   46.7399   71.2373 H   0  0  0  0  0
   10.1890   46.5527   70.3461 H   0  0  0  0  0
   10.3126   49.6705   69.7088 H   0  0  0  0  0
   10.7262   48.3721   68.5624 H   0  0  0  0  0
    9.4281   49.5262   68.1700 H   0  0  0  0  0
    6.9450   48.3988   70.4371 H   0  0  0  0  0
    8.0972   49.7101   70.7890 H   0  0  0  0  0
    7.4019   49.5498   69.1574 H   0  0  0  0  0
    9.2964   46.5725   68.2272 H   0  0  0  0  0
    8.0128   47.6892   67.7858 H   0  0  0  0  0
    7.0302   46.7125   70.1769 H   0  0  0  0  0
    7.6411   44.2143   69.9521 H   0  0  0  0  0
    8.5647   44.5453   68.6052 H   0  0  0  0  0
    9.0529   45.0865   70.1037 H   0  0  0  0  0
    5.7610   46.6524   67.7502 H   0  0  0  0  0
    6.3915   44.5182   66.8893 H   0  0  0  0  0
    4.8519   45.9978   70.0983 H   0  0  0  0  0
    5.6278   44.4502   69.9483 H   0  0  0  0  0
    4.2997   44.2407   67.5785 H   0  0  0  0  0
    3.9563   42.8399   69.5003 H   0  0  0  0  0
    2.8892   44.0770   70.2087 H   0  0  0  0  0
    2.4484   43.2963   68.6702 H   0  0  0  0  0
    2.1717   45.0710   66.7118 H   0  0  0  0  0
    1.3080   47.7201   66.8525 H   0  0  0  0  0
    1.4246   46.8048   65.3814 H   0  0  0  0  0
    4.0207   47.2423   65.8222 H   0  0  0  0  0
    3.3680   48.6354   66.6165 H   0  0  0  0  0
    2.4638   47.7375   63.8199 H   0  0  0  0  0
    3.6343   48.8985   64.0392 H   0  0  0  0  0
    0.8531   48.9584   65.5067 H   0  0  0  0  0
    2.1064   50.2016   65.7415 H   0  0  0  0  0
    1.3012   50.0362   64.1618 H   0  0  0  0  0
  1  2  1  0  0  0
  2  3  1  0  0  0
  3  4  2  0  0  0
  3  5  1  0  0  0
  5  6  1  0  0  0
  5 14  1  0  0  0
  6  7  1  0  0  0
  7  8  4  0  0  0
  7 12  4  0  0  0
  8  9  4  0  0  0
  9 10  4  0  0  0
 10 11  4  0  0  0
 11 12  4  0  0  0
 12 13  1  0  0  0
 13 14  1  0  0  0
 13 15  1  0  0  0
 15 16  2  0  0  0
 15 17  1  0  0  0
 17 18  1  0  0  0
 18 19  1  0  0  0
 18 20  1  0  0  0
 18 21  1  0  0  0
 21 22  1  0  0  0
 22 23  1  0  0  0
 22 24  1  0  0  0
 24 25  1  0  0  0
 24 26  1  0  0  0
 26 27  1  0  0  0
 27 28  1  0  0  0
 27 29  1  0  0  0
 29 30  2  0  0  0
 29 31  1  0  0  0
 31 32  1  0  0  0
 32 33  1  0  0  0
 33 34  1  0  0  0
 34 35  1  0  0  0
  1 36  1  0  0  0
  1 37  1  0  0  0
  1 38  1  0  0  0
  5 39  1  0  0  0
  6 40  1  0  0  0
  6 41  1  0  0  0
  8 42  1  0  0  0
  9 43  1  0  0  0
 10 44  1  0  0  0
 11 45  1  0  0  0
 14 46  1  0  0  0
 14 47  1  0  0  0
 17 48  1  0  0  0
 17 49  1  0  0  0
 19 50  1  0  0  0
 19 51  1  0  0  0
 19 52  1  0  0  0
 20 53  1  0  0  0
 20 54  1  0  0  0
 20 55  1  0  0  0
 21 56  1  0  0  0
 21 57  1  0  0  0
 22 58  1  0  0  0
 23 59  1  0  0  0
 23 60  1  0  0  0
 23 61  1  0  0  0
 24 62  1  0  0  0
 25 63  1  0  0  0
 26 64  1  0  0  0
 26 65  1  0  0  0
 27 66  1  0  0  0
 28 67  1  0  0  0
 28 68  1  0  0  0
 28 69  1  0  0  0
 31 70  1  0  0  0
 32 71  1  0  0  0
 32 72  1  0  0  0
 33 73  1  0  0  0
 33 74  1  0  0  0
 34 75  1  0  0  0
 34 76  1  0  0  0
 35 77  1  0  0  0
 35 78  1  0  0  0
 35 79  1  0  0  0
M  END
$$$$
