4nrp_ligand
  -I-interpret- 

 15 14  0  0  0  0  0  0  0  0999 V2000
   -7.7530   15.5620  -19.2920 C   0  0  0  0  0
   -6.8660   15.5380  -20.4580 C   0  0  0  0  0
   -5.0250   14.6290  -21.6540 C   0  0  0  0  0
   -4.1470   13.4170  -21.8180 C   0  0  0  0  0
   -8.0790   14.4950  -18.7300 O   0  0  0  0  0
   -8.1610   16.6700  -18.8730 O   0  0  0  0  0
   -6.7110   16.5690  -21.0830 O   0  0  0  0  0
   -2.9390   13.6160  -22.0910 O   0  0  0  0  0
   -6.2090   14.4390  -20.8280 N   0  0  0  0  0
   -4.6640   12.2810  -21.6990 O   0  0  0  0  0
   -5.3808   14.8913  -22.6503 H   0  0  0  0  0
   -4.4186   15.3863  -21.1572 H   0  0  0  0  0
   -7.8087   17.3700  -19.4276 H   0  0  0  0  0
   -2.7724   14.5606  -22.1305 H   0  0  0  0  0
   -6.5206   13.5096  -20.5461 H   0  0  0  0  0
  2  1  1  0  0  0
  1  5  2  0  0  0
  1  6  1  0  0  0
  2  7  2  0  0  0
  9  2  1  0  0  0
  3  4  1  0  0  0
  3  9  1  0  0  0
  4  8  1  0  0  0
  4 10  2  0  0  0
  3 11  1  0  0  0
  3 12  1  0  0  0
  6 13  1  0  0  0
  8 14  1  0  0  0
  9 15  1  0  0  0
M  END
$$$$
