3g76_ligand
  -I-interpret- 

 64 66  0  0  0  0  0  0  0  0999 V2000
   18.7870   29.4510    5.3180 C   0  0  0  0  0
   18.2510   30.1210    4.1650 C   0  0  0  0  0
   19.0030   31.1320    3.5540 C   0  0  0  0  0
   20.2610   31.4900    4.0490 C   0  0  0  0  0
   20.7770   30.8380    5.1690 C   0  0  0  0  0
   20.0490   29.8200    5.7940 C   0  0  0  0  0
   20.7210   29.0230    7.1980 S   0  0  0  0  0
   20.2570   30.2100    8.3630 C   0  0  0  0  0
   19.6760   31.3860    8.1560 N   0  0  0  0  0
   19.5310   31.8810    9.2800 N   0  0  0  0  0
   19.9670   31.1220   10.1630 N   0  0  0  0  0
   20.4160   30.0920    9.6500 N   0  0  0  0  0
   21.0170   28.9200   10.3120 C   0  0  0  0  0
   20.1370   28.4120   11.4710 C   0  0  0  0  0
   20.2930   29.3630   12.6660 C   0  0  0  0  0
   20.2680   28.4410   13.8740 C   0  0  0  0  0
   21.0340   27.2170   13.3870 C   0  0  0  0  0
   20.6750   27.1380   11.9620 N   0  0  0  0  0
   20.8230   26.0420   11.2210 C   0  0  0  0  0
   20.4930   26.0310   10.0350 O   0  0  0  0  0
   21.4190   24.7900   11.8290 C   0  0  0  0  0
   20.6980   23.6610   11.2070 N   0  0  0  0  0
   19.9620   22.8270   11.9440 C   0  0  0  0  0
   19.8480   22.9070   13.1690 O   0  0  0  0  0
   19.2540   21.7110   11.1780 C   0  0  0  0  0
   17.9010   22.2300   10.7120 C   0  0  0  0  0
   19.0460   20.5570   12.0630 N   0  3  0  0  0
   20.3220   20.0490   12.6090 C   0  0  0  0  0
   22.9500   24.8230   11.5500 C   0  0  0  0  0
   23.6230   23.4840   11.8960 C   0  0  0  0  0
   23.2350   25.2410   10.1620 O   0  0  0  0  0
   24.4660   26.0260    9.9920 C   0  0  0  0  0
   18.2173   28.6657    5.8148 H   0  0  0  0  0
   17.2724   29.8459    3.7715 H   0  0  0  0  0
   18.6024   31.6469    2.6808 H   0  0  0  0  0
   20.8367   32.2764    3.5609 H   0  0  0  0  0
   21.7537   31.1235    5.5597 H   0  0  0  0  0
   21.9861   29.2117   10.7168 H   0  0  0  0  0
   21.1146   28.1210    9.5771 H   0  0  0  0  0
   19.1102   28.3320   11.1142 H   0  0  0  0  0
   19.5039   30.1140   12.7026 H   0  0  0  0  0
   21.2108   29.9484   12.6115 H   0  0  0  0  0
   19.2564   28.2030   14.2028 H   0  0  0  0  0
   20.7137   28.8933   14.7599 H   0  0  0  0  0
   20.7728   26.3125   13.9364 H   0  0  0  0  0
   22.1090   27.3045   13.5447 H   0  0  0  0  0
   21.3092   24.6997   12.9097 H   0  0  0  0  0
   20.7636   23.5167   10.1994 H   0  0  0  0  0
   19.8601   21.4053   10.3252 H   0  0  0  0  0
   17.3076   22.5226   11.5782 H   0  0  0  0  0
   18.0483   23.0929   10.0626 H   0  0  0  0  0
   17.3817   21.4448   10.1627 H   0  0  0  0  0
   18.6090   19.8114   11.5212 H   0  0  0  0  0
   18.4579   20.8519   12.8425 H   0  0  0  0  0
   20.9695   19.7402   11.7884 H   0  0  0  0  0
   20.8102   20.8375   13.1818 H   0  0  0  0  0
   20.1240   19.1960   13.2581 H   0  0  0  0  0
   23.3852   25.5735   12.2099 H   0  0  0  0  0
   23.4719   23.2654   12.9531 H   0  0  0  0  0
   23.1818   22.6905   11.2929 H   0  0  0  0  0
   24.6906   23.5505   11.6864 H   0  0  0  0  0
   24.3994   26.9371   10.5865 H   0  0  0  0  0
   25.3204   25.4359   10.3236 H   0  0  0  0  0
   24.5879   26.2850    8.9403 H   0  0  0  0  0
  1  2  4  0  0  0
  1  6  4  0  0  0
  2  3  4  0  0  0
  3  4  4  0  0  0
  4  5  4  0  0  0
  5  6  4  0  0  0
  6  7  1  0  0  0
  7  8  1  0  0  0
  8  9  4  0  0  0
  8 12  4  0  0  0
  9 10  4  0  0  0
 10 11  4  0  0  0
 11 12  4  0  0  0
 12 13  1  0  0  0
 13 14  1  0  0  0
 14 15  1  0  0  0
 14 18  1  0  0  0
 15 16  1  0  0  0
 16 17  1  0  0  0
 17 18  1  0  0  0
 18 19  1  0  0  0
 19 20  2  0  0  0
 19 21  1  0  0  0
 21 22  1  0  0  0
 21 29  1  0  0  0
 22 23  1  0  0  0
 23 24  2  0  0  0
 23 25  1  0  0  0
 25 26  1  0  0  0
 25 27  1  0  0  0
 27 28  1  0  0  0
 29 30  1  0  0  0
 29 31  1  0  0  0
 31 32  1  0  0  0
  1 33  1  0  0  0
  2 34  1  0  0  0
  3 35  1  0  0  0
  4 36  1  0  0  0
  5 37  1  0  0  0
 13 38  1  0  0  0
 13 39  1  0  0  0
 14 40  1  0  0  0
 15 41  1  0  0  0
 15 42  1  0  0  0
 16 43  1  0  0  0
 16 44  1  0  0  0
 17 45  1  0  0  0
 17 46  1  0  0  0
 21 47  1  0  0  0
 22 48  1  0  0  0
 25 49  1  0  0  0
 26 50  1  0  0  0
 26 51  1  0  0  0
 26 52  1  0  0  0
 27 53  1  0  0  0
 27 54  1  0  0  0
 28 55  1  0  0  0
 28 56  1  0  0  0
 28 57  1  0  0  0
 29 58  1  0  0  0
 30 59  1  0  0  0
 30 60  1  0  0  0
 30 61  1  0  0  0
 32 62  1  0  0  0
 32 63  1  0  0  0
 32 64  1  0  0  0
M  END
$$$$
