6c0u_ligand
  -I-interpret- 

 68 72  0  0  0  0  0  0  0  0999 V2000
   -7.9840   56.9770   91.8210 C   0  0  0  0  0
   -8.6930   59.6690   92.3380 C   0  0  0  0  0
   -9.3680   60.0870   89.9170 C   0  0  0  0  0
  -11.2610   64.3600   89.6990 C   0  0  0  0  0
  -11.4940   63.0370   89.6930 C   0  0  0  0  0
  -13.7280   61.7840   89.1020 C   0  0  0  0  0
  -14.8650   61.5820   88.1590 C   0  0  0  0  0
  -15.8750   62.0180   85.9590 C   0  0  0  0  0
   -2.9880   61.3350   95.7800 C   0  0  0  0  0
   -3.9730   60.4050   95.0930 C   0  0  0  0  0
   -4.5840   59.3010   96.0850 C   0  0  0  0  0
   -6.5860   57.9680   96.2980 C   0  0  0  0  0
   -7.4410   56.9740   95.7370 C   0  0  0  0  0
   -7.2990   56.5840   94.2750 C   0  0  0  0  0
   -7.8490   57.5050   93.1270 C   0  0  0  0  0
   -8.4600   57.7780   90.8020 C   0  0  0  0  0
   -8.8240   59.1650   91.0800 C   0  0  0  0  0
   -8.2000   58.8430   93.3900 C   0  0  0  0  0
  -10.2050   62.3440   89.2030 C   0  0  0  0  0
   -9.1630   63.4650   88.9490 C   0  0  0  0  0
  -14.7980   62.1830   86.8690 C   0  0  0  0  0
  -17.0080   61.2760   86.3370 C   0  0  0  0  0
  -16.1410   62.4630   84.6060 C   0  0  0  0  0
  -17.0800   60.6710   87.6460 C   0  0  0  0  0
  -16.0100   60.8340   88.5450 C   0  0  0  0  0
   -8.3870   56.3580   96.5110 C   0  0  0  0  0
   -8.5190   56.7010   97.8370 C   0  0  0  0  0
  -10.8950   56.3450   98.2680 C   0  0  0  0  0
   -7.6790   57.6760   98.3840 C   0  0  0  0  0
   -6.7140   58.3020   97.5960 C   0  0  0  0  0
   -9.1850   55.4120   95.9470 F   0  0  0  0  0
   -9.7270   61.5180   90.2180 N   0  0  0  0  0
   -9.7100   64.6180   89.3490 N   0  0  0  0  0
  -12.7060   62.7500   88.7430 N   0  0  0  0  0
  -17.8670   61.2870   85.2820 N   0  0  0  0  0
  -17.3480   61.9960   84.2410 N   0  0  0  0  0
   -5.5390   58.6420   95.4240 O   0  0  0  0  0
   -6.7430   55.5440   93.9850 O   0  0  0  0  0
   -9.4840   59.6710   88.8440 O   0  0  0  0  0
  -13.6720   61.1980   90.1060 O   0  0  0  0  0
   -9.4690   56.0880   98.6420 O   0  0  0  0  0
   -7.7129   55.9406   91.6200 H   0  0  0  0  0
   -8.9653   60.7048   92.5408 H   0  0  0  0  0
  -11.4900   64.7701   90.6826 H   0  0  0  0  0
  -11.8925   64.8488   88.9571 H   0  0  0  0  0
  -11.7469   62.6574   90.6830 H   0  0  0  0  0
   -3.4913   61.8593   96.5923 H   0  0  0  0  0
   -2.1588   60.7520   96.1808 H   0  0  0  0  0
   -2.6096   62.0587   95.0581 H   0  0  0  0  0
   -3.4394   59.8814   94.2998 H   0  0  0  0  0
   -4.7986   61.0109   94.7196 H   0  0  0  0  0
   -4.9988   59.7783   96.9729 H   0  0  0  0  0
   -3.8046   58.6119   96.4104 H   0  0  0  0  0
   -8.5637   57.3768   89.7939 H   0  0  0  0  0
   -8.0949   59.2468   94.3970 H   0  0  0  0  0
  -10.3878   61.7547   88.3045 H   0  0  0  0  0
   -8.1680   63.3365   88.5229 H   0  0  0  0  0
  -13.9235   62.7670   86.5820 H   0  0  0  0  0
  -15.4777   63.0709   83.9907 H   0  0  0  0  0
  -17.9570   60.0921   87.9357 H   0  0  0  0  0
  -16.0593   60.3865   89.5377 H   0  0  0  0  0
  -11.0949   57.4154   98.3170 H   0  0  0  0  0
  -11.0736   55.9867   97.2542 H   0  0  0  0  0
  -11.5515   55.8194   98.9614 H   0  0  0  0  0
   -7.7794   57.9487   99.4345 H   0  0  0  0  0
   -6.0637   59.0612   98.0305 H   0  0  0  0  0
   -9.6203   61.8825   91.1647 H   0  0  0  0  0
  -12.7782   63.2505   87.8571 H   0  0  0  0  0
  1 15  4  0  0  0
 16  1  4  0  0  0
 17  2  4  0  0  0
  2 18  4  0  0  0
  3 17  1  0  0  0
 32  3  1  0  0  0
  3 39  2  0  0  0
  5  4  1  0  0  0
  4 33  1  0  0  0
 19  5  1  0  0  0
  5 34  1  0  0  0
  6  7  1  0  0  0
 34  6  1  0  0  0
  6 40  2  0  0  0
  7 21  4  0  0  0
  7 25  4  0  0  0
 21  8  4  0  0  0
  8 22  4  0  0  0
  8 23  4  0  0  0
 10  9  1  0  0  0
 11 10  1  0  0  0
 37 11  1  0  0  0
 13 12  4  0  0  0
 12 30  4  0  0  0
 12 37  1  0  0  0
 14 13  1  0  0  0
 13 26  4  0  0  0
 15 14  1  0  0  0
 14 38  2  0  0  0
 18 15  4  0  0  0
 17 16  4  0  0  0
 19 20  1  0  0  0
 19 32  1  0  0  0
 20 33  2  0  0  0
 22 24  4  0  0  0
 22 35  4  0  0  0
 23 36  4  0  0  0
 24 25  4  0  0  0
 26 27  4  0  0  0
 26 31  1  0  0  0
 27 29  4  0  0  0
 27 41  1  0  0  0
 41 28  1  0  0  0
 29 30  4  0  0  0
 35 36  4  0  0  0
  1 42  1  0  0  0
  2 43  1  0  0  0
  4 44  1  0  0  0
  4 45  1  0  0  0
  5 46  1  0  0  0
  9 47  1  0  0  0
  9 48  1  0  0  0
  9 49  1  0  0  0
 10 50  1  0  0  0
 10 51  1  0  0  0
 11 52  1  0  0  0
 11 53  1  0  0  0
 16 54  1  0  0  0
 18 55  1  0  0  0
 19 56  1  0  0  0
 20 57  1  0  0  0
 21 58  1  0  0  0
 23 59  1  0  0  0
 24 60  1  0  0  0
 25 61  1  0  0  0
 28 62  1  0  0  0
 28 63  1  0  0  0
 28 64  1  0  0  0
 29 65  1  0  0  0
 30 66  1  0  0  0
 32 67  1  0  0  0
 34 68  1  0  0  0
M  END
$$$$
