3ert_ligand
  -I-interpret- 

 59 61  0  0  0  0  0  0  0  0999 V2000
   30.5740    1.4650   29.5500 C   0  0  0  0  0
   30.7020   -0.0230   29.3720 C   0  0  0  0  0
   31.3630   -0.3880   28.0590 C   0  0  0  0  0
   32.7880    0.0530   27.9620 C   0  0  0  0  0
   33.2410    0.7820   26.8420 C   0  0  0  0  0
   34.5590    1.2350   26.7760 C   0  0  0  0  0
   35.4510    0.9800   27.7990 C   0  0  0  0  0
   35.0270    0.2700   28.8970 C   0  0  0  0  0
   33.7070   -0.1880   28.9760 C   0  0  0  0  0
   30.7080   -1.0570   27.0650 C   0  0  0  0  0
   29.2100   -1.2330   27.0160 C   0  0  0  0  0
   28.6090   -2.4900   26.6950 C   0  0  0  0  0
   27.2150   -2.6130   26.6050 C   0  0  0  0  0
   26.4090   -1.4820   26.8350 C   0  0  0  0  0
   25.0580   -1.6220   26.7220 O   0  0  0  0  0
   26.9920   -0.2350   27.1560 C   0  0  0  0  0
   28.3750   -0.1340   27.2390 C   0  0  0  0  0
   31.4110   -1.6900   25.9450 C   0  0  0  0  0
   32.5290   -2.4960   26.1460 C   0  0  0  0  0
   33.1820   -3.1140   25.1170 C   0  0  0  0  0
   32.7250   -2.9440   23.8200 C   0  0  0  0  0
   33.2960   -3.5540   22.7400 O   0  0  0  0  0
   32.9000   -3.1830   21.4230 C   0  0  0  0  0
   34.0590   -3.5080   20.5200 C   0  0  0  0  0
   34.1090   -4.8870   20.1180 N   0  3  0  0  0
   33.3900   -5.1110   18.8630 C   0  0  0  0  0
   35.5060   -5.2910   19.9220 C   0  0  0  0  0
   31.6010   -2.1350   23.5790 C   0  0  0  0  0
   30.9660   -1.5280   24.6260 C   0  0  0  0  0
   31.5651    1.9184   29.5319 H   0  0  0  0  0
   29.9702    1.8758   28.7408 H   0  0  0  0  0
   30.0943    1.6754   30.5059 H   0  0  0  0  0
   29.7002   -0.4525   29.3780 H   0  0  0  0  0
   31.3209   -0.4092   30.1819 H   0  0  0  0  0
   32.5554    0.9931   26.0213 H   0  0  0  0  0
   34.8897    1.7988   25.9037 H   0  0  0  0  0
   36.4788    1.3374   27.7365 H   0  0  0  0  0
   35.7225    0.0627   29.7103 H   0  0  0  0  0
   33.3915   -0.7485   29.8560 H   0  0  0  0  0
   29.2403   -3.3609   26.5186 H   0  0  0  0  0
   26.7609   -3.5731   26.3598 H   0  0  0  0  0
   24.6339   -0.7801   26.9035 H   0  0  0  0  0
   26.3637    0.6373   27.3363 H   0  0  0  0  0
   28.8218    0.8293   27.4849 H   0  0  0  0  0
   32.8968   -2.6391   27.1621 H   0  0  0  0  0
   34.0552   -3.7356   25.3148 H   0  0  0  0  0
   32.6531   -2.1225   21.3742 H   0  0  0  0  0
   32.0043   -3.7242   21.1181 H   0  0  0  0  0
   34.9734   -3.2967   21.0744 H   0  0  0  0  0
   33.9462   -2.9089   19.6164 H   0  0  0  0  0
   33.6677   -5.4372   20.8549 H   0  0  0  0  0
   32.3451   -4.8271   18.9887 H   0  0  0  0  0
   33.8398   -4.5067   18.0752 H   0  0  0  0  0
   33.4515   -6.1654   18.5937 H   0  0  0  0  0
   35.9572   -4.6703   19.1478 H   0  0  0  0  0
   36.0538   -5.1648   20.8558 H   0  0  0  0  0
   35.5411   -6.3369   19.6173 H   0  0  0  0  0
   31.2374   -1.9924   22.5614 H   0  0  0  0  0
   30.0939   -0.9039   24.4308 H   0  0  0  0  0
  1  2  1  0  0  0
  2  3  1  0  0  0
  3  4  1  0  0  0
  3 10  2  0  0  0
  4  5  4  0  0  0
  4  9  4  0  0  0
  5  6  4  0  0  0
  6  7  4  0  0  0
  7  8  4  0  0  0
  8  9  4  0  0  0
 10 11  1  0  0  0
 10 18  1  0  0  0
 11 12  4  0  0  0
 11 17  4  0  0  0
 12 13  4  0  0  0
 13 14  4  0  0  0
 14 15  1  0  0  0
 14 16  4  0  0  0
 16 17  4  0  0  0
 18 19  4  0  0  0
 18 29  4  0  0  0
 19 20  4  0  0  0
 20 21  4  0  0  0
 21 22  1  0  0  0
 21 28  4  0  0  0
 22 23  1  0  0  0
 23 24  1  0  0  0
 24 25  1  0  0  0
 25 26  1  0  0  0
 25 27  1  0  0  0
 28 29  4  0  0  0
  1 30  1  0  0  0
  1 31  1  0  0  0
  1 32  1  0  0  0
  2 33  1  0  0  0
  2 34  1  0  0  0
  5 35  1  0  0  0
  6 36  1  0  0  0
  7 37  1  0  0  0
  8 38  1  0  0  0
  9 39  1  0  0  0
 12 40  1  0  0  0
 13 41  1  0  0  0
 15 42  1  0  0  0
 16 43  1  0  0  0
 17 44  1  0  0  0
 19 45  1  0  0  0
 20 46  1  0  0  0
 23 47  1  0  0  0
 23 48  1  0  0  0
 24 49  1  0  0  0
 24 50  1  0  0  0
 25 51  1  0  0  0
 26 52  1  0  0  0
 26 53  1  0  0  0
 26 54  1  0  0  0
 27 55  1  0  0  0
 27 56  1  0  0  0
 27 57  1  0  0  0
 28 58  1  0  0  0
 29 59  1  0  0  0
M  END
$$$$
