5hk9_ligand
  -I-interpret- 

 50 52  0  0  0  0  0  0  0  0999 V2000
  -24.3070   21.2140   25.0080 O   0  0  0  0  0
  -24.1860   18.9680   24.7150 N   0  0  0  0  0
  -21.9930   22.0080   29.5240 C   0  0  0  0  0
  -22.4540   20.9800   28.7140 C   0  0  0  0  0
  -21.5750   23.2120   28.9730 C   0  0  0  0  0
  -21.7140   25.5350   30.0590 C   0  0  0  0  0
  -21.0490   24.3230   29.8370 C   0  0  0  0  0
  -22.9640   20.0580   26.5300 N   0  0  0  0  0
  -22.9190   29.3550   34.7910 C   0  0  0  0  0
  -22.7420   30.1220   33.6520 C   0  0  0  0  0
  -25.4610   29.0880   35.8570 O   0  0  0  0  0
  -23.3050   29.8860   36.0720 N   0  0  0  0  0
  -22.3770   29.5350   32.4440 C   0  0  0  0  0
  -24.6520   29.6890   36.5440 C   0  0  0  0  0
  -25.0670   30.2110   37.8780 C   0  0  0  0  0
  -25.4870   29.1970   38.8900 C   0  0  0  0  0
  -22.1760   28.1640   32.3510 C   0  0  0  0  0
  -19.1250   22.9320   30.2120 O   0  0  0  0  0
  -21.8440   27.7120   31.0670 O   0  0  0  0  0
  -21.1610   26.5250   30.8780 C   0  0  0  0  0
  -19.8120   24.1170   30.4160 C   0  0  0  0  0
  -22.0570   22.3420   26.7850 C   0  0  0  0  0
  -19.9190   26.3190   31.4510 C   0  0  0  0  0
  -23.8430   20.1600   25.4040 C   0  0  0  0  0
  -19.2740   25.1140   31.2120 C   0  0  0  0  0
  -22.4960   21.1430   27.3390 C   0  0  0  0  0
  -22.2020   25.6710   33.6690 Cl  0  0  0  0  0
  -22.3730   27.3870   33.5160 C   0  0  0  0  0
  -22.7340   28.0020   34.6950 C   0  0  0  0  0
  -22.1310   30.4790   31.0070 Cl  0  0  0  0  0
  -21.5990   23.3660   27.5950 C   0  0  0  0  0
  -24.8082   19.0066   23.9077 H   0  0  0  0  0
  -23.8104   18.0725   25.0270 H   0  0  0  0  0
  -21.9586   21.8689   30.6045 H   0  0  0  0  0
  -22.7838   20.0420   29.1607 H   0  0  0  0  0
  -22.6799   25.7102   29.5852 H   0  0  0  0  0
  -22.6404   19.1234   26.7795 H   0  0  0  0  0
  -22.8906   31.2007   33.7021 H   0  0  0  0  0
  -22.6305   30.3976   36.6410 H   0  0  0  0  0
  -25.9408   30.8372   37.6981 H   0  0  0  0  0
  -24.1898   30.7066   38.2940 H   0  0  0  0  0
  -26.3420   28.6383   38.5094 H   0  0  0  0  0
  -24.6604   28.5128   39.0816 H   0  0  0  0  0
  -25.7642   29.7022   39.8152 H   0  0  0  0  0
  -18.2904   22.9617   30.6855 H   0  0  0  0  0
  -22.0742   22.4755   25.7033 H   0  0  0  0  0
  -19.4582   27.0847   32.0751 H   0  0  0  0  0
  -18.3002   24.9447   31.6715 H   0  0  0  0  0
  -22.8776   27.3884   35.5843 H   0  0  0  0  0
  -21.2553   24.2986   27.1477 H   0  0  0  0  0
 24  1  2  0  0  0
 24  2  1  0  0  0
  3  4  4  0  0  0
  5  3  4  0  0  0
  4 26  4  0  0  0
  7  5  1  0  0  0
  5 31  4  0  0  0
  6  7  4  0  0  0
 20  6  4  0  0  0
  7 21  4  0  0  0
  8 24  1  0  0  0
 26  8  1  0  0  0
 10  9  4  0  0  0
  9 12  1  0  0  0
  9 29  4  0  0  0
 13 10  4  0  0  0
 14 11  2  0  0  0
 12 14  1  0  0  0
 17 13  4  0  0  0
 13 30  1  0  0  0
 14 15  1  0  0  0
 15 16  1  0  0  0
 19 17  1  0  0  0
 17 28  4  0  0  0
 21 18  1  0  0  0
 19 20  1  0  0  0
 20 23  4  0  0  0
 21 25  4  0  0  0
 26 22  4  0  0  0
 22 31  4  0  0  0
 23 25  4  0  0  0
 28 27  1  0  0  0
 28 29  4  0  0  0
  2 32  1  0  0  0
  2 33  1  0  0  0
  3 34  1  0  0  0
  4 35  1  0  0  0
  6 36  1  0  0  0
  8 37  1  0  0  0
 10 38  1  0  0  0
 12 39  1  0  0  0
 15 40  1  0  0  0
 15 41  1  0  0  0
 16 42  1  0  0  0
 16 43  1  0  0  0
 16 44  1  0  0  0
 18 45  1  0  0  0
 22 46  1  0  0  0
 23 47  1  0  0  0
 25 48  1  0  0  0
 29 49  1  0  0  0
 31 50  1  0  0  0
M  END
$$$$
