6pm9_ligand
  -I-interpret- 

 31 32  0  0  0  0  0  0  0  0999 V2000
   -0.4250  -35.6550    1.7390 C   0  0  0  0  0
   -0.8410  -36.3130    0.4230 C   0  0  0  0  0
   -0.1470  -37.6530    0.1330 C   0  0  0  0  0
    1.2980  -37.5780    0.5510 C   0  0  0  0  0
    1.6780  -35.2380    3.2230 C   0  0  0  0  0
    2.3310  -36.9720   -3.8040 C   0  0  0  0  0
    0.9410  -37.5370   -1.9000 C   0  0  0  0  0
    2.6740  -37.6390   -5.0880 C   0  0  0  0  0
    1.1000  -35.6420    1.8840 C   0  0  0  0  0
    1.5620  -36.9770    1.8070 O   0  0  0  0  0
   -2.2450  -36.4980    0.4290 O   0  0  0  0  0
   -0.9580  -34.3300    1.7860 O   0  0  0  0  0
    2.0860  -33.9390    3.2240 F   0  0  0  0  0
   -0.1820  -37.8480   -1.3230 N   0  0  0  0  0
    2.2330  -36.9930   -0.8510 S   0  0  0  0  0
    1.1120  -37.5070   -3.2640 N   0  0  0  0  0
    0.8700  -35.5420    4.2800 F   0  0  0  0  0
   -0.8241  -36.2307    2.5741 H   0  0  0  0  0
   -0.5257  -35.6389   -0.3734 H   0  0  0  0  0
   -0.6428  -38.4614    0.6704 H   0  0  0  0  0
    1.6524  -38.5774    0.8032 H   0  0  0  0  0
    2.5678  -35.8507    3.3676 H   0  0  0  0  0
    2.1980  -35.9055   -3.9854 H   0  0  0  0  0
    3.1375  -37.1437   -3.0912 H   0  0  0  0  0
    2.8025  -38.7079   -4.9177 H   0  0  0  0  0
    1.8695  -37.4783   -5.8057 H   0  0  0  0  0
    3.6005  -37.2180   -5.4785 H   0  0  0  0  0
    1.3992  -34.9277    1.1170 H   0  0  0  0  0
   -2.6763  -35.6597    0.6103 H   0  0  0  0  0
   -1.9128  -34.3669    1.6931 H   0  0  0  0  0
    0.3831  -37.8599   -3.8841 H   0  0  0  0  0
  2  1  1  0  0  0
  1  9  1  0  0  0
  1 12  1  0  0  0
  3  2  1  0  0  0
  2 11  1  0  0  0
  4  3  1  0  0  0
 14  3  1  0  0  0
  4 10  1  0  0  0
 15  4  1  0  0  0
  9  5  1  0  0  0
  5 13  1  0  0  0
  5 17  1  0  0  0
  6  8  1  0  0  0
 16  6  1  0  0  0
  7 14  2  0  0  0
  7 15  1  0  0  0
  7 16  1  0  0  0
  9 10  1  0  0  0
  1 18  1  0  0  0
  2 19  1  0  0  0
  3 20  1  0  0  0
  4 21  1  0  0  0
  5 22  1  0  0  0
  6 23  1  0  0  0
  6 24  1  0  0  0
  8 25  1  0  0  0
  8 26  1  0  0  0
  8 27  1  0  0  0
  9 28  1  0  0  0
 11 29  1  0  0  0
 12 30  1  0  0  0
 16 31  1  0  0  0
M  END
$$$$
