4rn2_ligand
  -I-interpret- 

 64 66  0  0  0  0  0  0  0  0999 V2000
   19.0610   28.6690   16.7710 C   0  0  0  0  0
   19.3970   29.7090   17.8340 C   0  0  0  0  0
   19.0710   31.0970   17.3340 C   0  0  0  0  0
   19.4390   32.1500   18.0560 C   0  0  0  0  0
   19.1330   33.5540   17.5920 C   0  0  0  0  0
   19.1500   34.9790   19.5270 C   0  0  0  0  0
   19.8390   35.9860   20.4090 C   0  0  0  0  0
   18.7950   36.9820   20.9070 C   0  0  0  0  0
   18.2200   37.8010   19.7560 C   0  0  0  0  0
   19.3570   37.8900   21.9960 C   0  0  0  0  0
   22.0720   36.9380   20.2280 C   0  0  0  0  0
   23.0360   37.8010   19.4550 C   0  0  0  0  0
   24.4250   37.1810   19.5240 C   0  0  0  0  0
   23.0300   39.1990   20.0810 C   0  0  0  0  0
   21.9060   38.9490   17.8090 C   0  0  0  0  0
   21.0540   39.0670   16.5830 C   0  0  0  0  0
   20.5500   40.2950   16.1790 C   0  0  0  0  0
   19.7560   40.3610   15.0390 C   0  0  0  0  0
   19.9530   38.0450   14.7160 C   0  0  0  0  0
   20.7490   37.9300   15.8480 C   0  0  0  0  0
   19.6170   36.8170   13.9020 C   0  0  0  0  0
   19.1390   35.0070   15.5590 C   0  0  0  0  0
   19.6920   33.7500   16.1860 C   0  0  0  0  0
   19.7880   34.5350   18.4470 N   0  0  0  0  0
   20.8420   36.7960   19.7260 N   0  0  0  0  0
   22.5920   37.9240   18.0670 N   0  0  0  0  0
   19.4760   39.2530   14.3390 N   0  0  0  0  0
   19.9110   35.6040   14.6540 N   0  0  0  0  0
   18.0350   34.5810   19.8200 O   0  0  0  0  0
   22.4270   36.4140   21.2720 O   0  0  0  0  0
   18.0350   35.4240   15.8680 O   0  0  0  0  0
   19.4900   27.0190   17.3850 S   0  0  0  0  0
   22.0290   40.1240   18.9700 S   0  0  0  0  0
   19.6290   28.8788   15.8646 H   0  0  0  0  0
   17.9948   28.7082   16.5481 H   0  0  0  0  0
   20.4618   29.6541   18.0605 H   0  0  0  0  0
   18.8076   29.5061   18.7282 H   0  0  0  0  0
   18.5400   31.2330   16.3918 H   0  0  0  0  0
   19.9691   31.9982   18.9962 H   0  0  0  0  0
   18.0519   33.6898   17.6211 H   0  0  0  0  0
   20.3276   35.4062   21.1920 H   0  0  0  0  0
   17.9825   36.4048   21.3484 H   0  0  0  0  0
   19.0231   38.3533   19.2680 H   0  0  0  0  0
   17.7477   37.1323   19.0364 H   0  0  0  0  0
   17.4797   38.5007   20.1439 H   0  0  0  0  0
   19.6838   37.2832   22.8404 H   0  0  0  0  0
   20.2043   38.4493   21.5994 H   0  0  0  0  0
   18.5831   38.5842   22.3237 H   0  0  0  0  0
   24.7420   37.1178   20.5650 H   0  0  0  0  0
   24.3973   36.1815   19.0899 H   0  0  0  0  0
   25.1265   37.8014   18.9663 H   0  0  0  0  0
   24.0308   39.6154   20.1953 H   0  0  0  0  0
   22.6454   39.2040   21.1009 H   0  0  0  0  0
   20.7737   41.1972   16.7483 H   0  0  0  0  0
   19.3582   41.3218   14.7122 H   0  0  0  0  0
   21.1304   36.9565   16.1562 H   0  0  0  0  0
   20.2178   36.8220   12.9925 H   0  0  0  0  0
   18.5539   36.8336   13.6618 H   0  0  0  0  0
   19.4059   32.8960   15.5720 H   0  0  0  0  0
   20.7768   33.8364   16.2482 H   0  0  0  0  0
   20.7222   34.8766   18.2210 H   0  0  0  0  0
   20.6003   37.2614   18.8511 H   0  0  0  0  0
   20.8108   35.1622   14.4654 H   0  0  0  0  0
   19.1966   26.1123   16.4572 H   0  0  0  0  0
  2  1  1  0  0  0
  1 32  1  0  0  0
  3  2  1  0  0  0
  4  3  2  0  0  0
  5  4  1  0  0  0
  5 23  1  0  0  0
 24  5  1  0  0  0
  7  6  1  0  0  0
  6 24  1  0  0  0
  6 29  2  0  0  0
  7  8  1  0  0  0
 25  7  1  0  0  0
  8  9  1  0  0  0
  8 10  1  0  0  0
 12 11  1  0  0  0
 11 25  1  0  0  0
 11 30  2  0  0  0
 12 13  1  0  0  0
 12 14  1  0  0  0
 26 12  1  0  0  0
 14 33  1  0  0  0
 15 16  1  0  0  0
 15 26  2  0  0  0
 15 33  1  0  0  0
 16 17  4  0  0  0
 16 20  4  0  0  0
 17 18  4  0  0  0
 18 27  4  0  0  0
 20 19  4  0  0  0
 19 21  1  0  0  0
 19 27  4  0  0  0
 21 28  1  0  0  0
 23 22  1  0  0  0
 22 28  1  0  0  0
 22 31  2  0  0  0
  1 34  1  0  0  0
  1 35  1  0  0  0
  2 36  1  0  0  0
  2 37  1  0  0  0
  3 38  1  0  0  0
  4 39  1  0  0  0
  5 40  1  0  0  0
  7 41  1  0  0  0
  8 42  1  0  0  0
  9 43  1  0  0  0
  9 44  1  0  0  0
  9 45  1  0  0  0
 10 46  1  0  0  0
 10 47  1  0  0  0
 10 48  1  0  0  0
 13 49  1  0  0  0
 13 50  1  0  0  0
 13 51  1  0  0  0
 14 52  1  0  0  0
 14 53  1  0  0  0
 17 54  1  0  0  0
 18 55  1  0  0  0
 20 56  1  0  0  0
 21 57  1  0  0  0
 21 58  1  0  0  0
 23 59  1  0  0  0
 23 60  1  0  0  0
 24 61  1  0  0  0
 25 62  1  0  0  0
 28 63  1  0  0  0
 32 64  1  0  0  0
M  END
$$$$
