5ien_ligand
  -I-interpret- 

 73 75  0  0  0  0  0  0  0  0999 V2000
    5.7190    0.0720   -1.4640 O   0  0  0  0  0
    0.4390    2.5530  -15.7380 O   0  0  0  0  0
    3.2620    1.2350   -1.8410 C   0  0  0  0  0
    3.5130    0.1510   -0.8130 C   0  0  0  0  0
    4.6320   -0.7390   -1.2590 C   0  0  0  0  0
    4.2840   -1.3800   -2.5730 C   0  0  0  0  0
    4.0790   -0.3210   -3.5850 C   0  0  0  0  0
    4.4950   -0.5150   -4.8330 C   0  0  0  0  0
    4.3980    0.5180   -5.8450 C   0  0  0  0  0
    4.7430    0.2880   -7.0950 C   0  0  0  0  0
    5.7130   -0.7950   -7.4500 C   0  0  0  0  0
    3.0610    0.6400   -3.1920 C   0  0  0  0  0
    5.3070   -1.4030   -8.7550 C   0  0  0  0  0
    5.1000   -0.3650   -9.8520 C   0  0  0  0  0
    4.1040    0.6620   -9.4400 C   0  0  0  0  0
    4.6470    1.3230   -8.1580 C   0  0  0  0  0
    3.6310    2.4150   -7.9160 C   0  0  0  0  0
    3.3420    2.9080   -9.3300 C   0  0  0  0  0
    3.9070    1.8750  -10.3120 C   0  0  0  0  0
    2.7930   -0.0110   -9.1540 C   0  0  0  0  0
    2.1070    1.0640   -3.9690 C   0  0  0  0  0
    2.9130    1.7380  -11.4670 C   0  0  0  0  0
    3.3580    0.6550  -12.4130 C   0  0  0  0  0
    2.8290    3.0630  -12.2060 C   0  0  0  0  0
    2.0990    3.0410  -13.5350 C   0  0  0  0  0
    0.6100    3.1020  -13.3610 C   0  0  0  0  0
   -0.1640    3.2080  -14.6650 C   0  0  0  0  0
   -1.4860    2.5170  -14.4720 C   0  0  0  0  0
   -0.4010    4.6700  -15.0170 C   0  0  0  0  0
    5.9620    0.4946   -0.6370 H   0  0  0  0  0
   -0.1025    2.6620  -16.5232 H   0  0  0  0  0
    4.1260    1.8988   -1.8724 H   0  0  0  0  0
    2.3645    1.7864   -1.5608 H   0  0  0  0  0
    2.6083   -0.4457   -0.6969 H   0  0  0  0  0
    3.7839    0.6155    0.1351 H   0  0  0  0  0
    4.8223   -1.5146   -0.5171 H   0  0  0  0  0
    3.3723   -1.9677   -2.4656 H   0  0  0  0  0
    5.0944   -2.0376   -2.8876 H   0  0  0  0  0
    4.9221   -1.4807   -5.1033 H   0  0  0  0  0
    4.0318    1.5059   -5.5657 H   0  0  0  0  0
    5.7123   -1.5588   -6.6724 H   0  0  0  0  0
    6.7160   -0.3769   -7.5353 H   0  0  0  0  0
    4.3597   -1.9199   -8.6018 H   0  0  0  0  0
    6.1065   -2.0713   -9.0747 H   0  0  0  0  0
    4.7300   -0.8704  -10.7441 H   0  0  0  0  0
    6.0512    0.1308  -10.0460 H   0  0  0  0  0
    5.6514    1.7439   -8.2033 H   0  0  0  0  0
    3.9947    3.2005   -7.2536 H   0  0  0  0  0
    2.7409    2.0649   -7.3933 H   0  0  0  0  0
    3.8075    3.8798   -9.4941 H   0  0  0  0  0
    2.2683    3.0229   -9.4783 H   0  0  0  0  0
    4.8502    2.1096  -10.8054 H   0  0  0  0  0
    2.4443   -0.5210  -10.0520 H   0  0  0  0  0
    2.9259   -0.7362   -8.3512 H   0  0  0  0  0
    2.0602    0.7372   -8.8518 H   0  0  0  0  0
    2.0334    0.6959   -4.9923 H   0  0  0  0  0
    1.3816    1.7873   -3.5965 H   0  0  0  0  0
    1.9332    1.4715  -11.0708 H   0  0  0  0  0
    4.3395    0.9063  -12.8151 H   0  0  0  0  0
    3.4151   -0.2926  -11.8774 H   0  0  0  0  0
    2.6405    0.5699  -13.2291 H   0  0  0  0  0
    3.8557    3.3549  -12.4267 H   0  0  0  0  0
    2.2667    3.7374  -11.5602 H   0  0  0  0  0
    2.3444    2.1082  -14.0427 H   0  0  0  0  0
    2.4106    3.9137  -14.1090 H   0  0  0  0  0
    0.3897    3.9986  -12.7817 H   0  0  0  0  0
    0.3036    2.1737  -12.8789 H   0  0  0  0  0
   -1.3141    1.4712  -14.2173 H   0  0  0  0  0
   -2.0344    3.0034  -13.6653 H   0  0  0  0  0
   -2.0641    2.5775  -15.3941 H   0  0  0  0  0
   -0.9740    5.1457  -14.2211 H   0  0  0  0  0
    0.5582    5.1757  -15.1281 H   0  0  0  0  0
   -0.9563    4.7316  -15.9529 H   0  0  0  0  0
  5  1  1  0  0  0
 27  2  1  0  0  0
  3  4  1  0  0  0
 12  3  1  0  0  0
  5  4  1  0  0  0
  6  5  1  0  0  0
  7  6  1  0  0  0
  8  7  2  0  0  0
  7 12  1  0  0  0
  9  8  1  0  0  0
 10  9  2  0  0  0
 10 11  1  0  0  0
 16 10  1  0  0  0
 13 11  1  0  0  0
 12 21  2  0  0  0
 14 13  1  0  0  0
 15 14  1  0  0  0
 15 16  1  0  0  0
 19 15  1  0  0  0
 15 20  1  0  0  0
 17 16  1  0  0  0
 18 17  1  0  0  0
 19 18  1  0  0  0
 22 19  1  0  0  0
 22 23  1  0  0  0
 24 22  1  0  0  0
 25 24  1  0  0  0
 26 25  1  0  0  0
 26 27  1  0  0  0
 27 28  1  0  0  0
 27 29  1  0  0  0
  1 30  1  0  0  0
  2 31  1  0  0  0
  3 32  1  0  0  0
  3 33  1  0  0  0
  4 34  1  0  0  0
  4 35  1  0  0  0
  5 36  1  0  0  0
  6 37  1  0  0  0
  6 38  1  0  0  0
  8 39  1  0  0  0
  9 40  1  0  0  0
 11 41  1  0  0  0
 11 42  1  0  0  0
 13 43  1  0  0  0
 13 44  1  0  0  0
 14 45  1  0  0  0
 14 46  1  0  0  0
 16 47  1  0  0  0
 17 48  1  0  0  0
 17 49  1  0  0  0
 18 50  1  0  0  0
 18 51  1  0  0  0
 19 52  1  0  0  0
 20 53  1  0  0  0
 20 54  1  0  0  0
 20 55  1  0  0  0
 21 56  1  0  0  0
 21 57  1  0  0  0
 22 58  1  0  0  0
 23 59  1  0  0  0
 23 60  1  0  0  0
 23 61  1  0  0  0
 24 62  1  0  0  0
 24 63  1  0  0  0
 25 64  1  0  0  0
 25 65  1  0  0  0
 26 66  1  0  0  0
 26 67  1  0  0  0
 28 68  1  0  0  0
 28 69  1  0  0  0
 28 70  1  0  0  0
 29 71  1  0  0  0
 29 72  1  0  0  0
 29 73  1  0  0  0
M  END
$$$$
