3ffp_ligand
  -I-interpret- 

 25 27  0  0  0  0  0  0  0  0999 V2000
   -6.7710    7.5470   12.2030 C   0  0  0  0  0
   -6.6190    8.9580   11.2610 S   0  0  0  0  0
   -4.9260    8.9820   11.2550 C   0  0  0  0  0
   -4.5390    7.9060   11.9720 N   0  0  0  0  0
   -5.5250    7.1310   12.4980 C   0  0  0  0  0
   -5.2640    5.9710   13.2600 C   0  0  0  0  0
   -4.0930    5.3330   13.3980 N   0  0  0  0  0
   -4.2800    4.2720   14.1910 C   0  0  0  0  0
   -3.4370    3.2640   14.6340 C   0  0  0  0  0
   -3.9300    2.2460   15.4640 C   0  0  0  0  0
   -5.2920    2.1920   15.8220 C   0  0  0  0  0
   -5.9790    1.0410   16.8710 S   0  0  0  0  0
   -7.3540    0.9900   16.7300 O   0  0  0  0  0
   -5.3650    1.0120   18.1680 O   0  0  0  0  0
   -5.4420   -0.3110   16.2900 N   0  0  0  0  0
   -6.1200    3.2300   15.3890 C   0  0  0  0  0
   -5.6070    4.2420   14.5540 C   0  0  0  0  0
   -6.1770    5.2850   13.9660 N   0  0  0  0  0
   -7.7022    7.0704   12.5094 H   0  0  0  0  0
   -4.2811    9.7157   10.7714 H   0  0  0  0  0
   -2.3884    3.2626   14.3365 H   0  0  0  0  0
   -3.2474    1.4832   15.8387 H   0  0  0  0  0
   -6.0942   -0.9998   15.9150 H   0  0  0  0  0
   -4.4402   -0.5026   16.2867 H   0  0  0  0  0
   -7.1650    3.2571   15.6977 H   0  0  0  0  0
  1  2  4  0  0  0
  1  5  4  0  0  0
  2  3  4  0  0  0
  3  4  4  0  0  0
  4  5  4  0  0  0
  5  6  1  0  0  0
  6  7  4  0  0  0
  6 18  4  0  0  0
  7  8  4  0  0  0
  8  9  4  0  0  0
  8 17  4  0  0  0
  9 10  4  0  0  0
 10 11  4  0  0  0
 11 12  1  0  0  0
 11 16  4  0  0  0
 12 13  2  0  0  0
 12 14  2  0  0  0
 12 15  1  0  0  0
 16 17  4  0  0  0
 17 18  4  0  0  0
  1 19  1  0  0  0
  3 20  1  0  0  0
  9 21  1  0  0  0
 10 22  1  0  0  0
 15 23  1  0  0  0
 15 24  1  0  0  0
 16 25  1  0  0  0
M  END
$$$$
