2h5i_ligand
  -I-interpret- 

 65 64  0  0  0  0  0  0  0  0999 V2000
   -6.7620   71.9270   27.0170 C   0  0  0  0  0
   -5.5790   72.0730   26.7120 O   0  0  0  0  0
   -7.1800   71.6770   28.4470 C   0  0  0  0  0
   -7.7510   71.9860   26.1320 N   0  0  0  0  0
   -7.4770   72.1480   24.7040 C   0  0  0  0  0
   -7.0780   73.5880   24.3940 C   0  0  0  0  0
   -7.7570   74.5280   24.8490 O   0  0  0  0  0
   -8.6970   71.7420   23.8800 C   0  0  0  0  0
   -9.0730   70.2820   23.9380 C   0  0  0  0  0
   -8.1920   69.3910   23.9140 O   0  0  0  0  0
  -10.2930   69.9830   23.9730 O   0  0  0  0  0
   -6.0060   73.7660   23.6180 N   0  0  0  0  0
   -5.5140   75.0960   23.2600 C   0  0  0  0  0
   -5.0880   75.1420   21.7920 C   0  0  0  0  0
   -4.7960   74.0430   21.2890 O   0  0  0  0  0
   -4.2910   75.4600   24.1230 C   0  0  0  0  0
   -4.5220   75.3070   25.6290 C   0  0  0  0  0
   -3.3760   75.8390   26.4730 C   0  0  0  0  0
   -2.2060   75.8790   26.0280 O   0  0  0  0  0
   -3.6190   76.2470   27.6420 O   0  0  0  0  0
   -4.9830   76.2970   21.1410 N   0  0  0  0  0
   -4.5070   76.2410   19.7390 C   0  0  0  0  0
   -3.0780   76.7240   19.5290 C   0  0  0  0  0
   -2.5610   77.5850   20.2350 O   0  0  0  0  0
   -5.4620   77.0370   18.8290 C   0  0  0  0  0
   -6.8410   76.3820   18.7880 C   0  0  0  0  0
   -5.6100   78.4890   19.2490 C   0  0  0  0  0
   -2.3880   76.1850   18.5140 N   0  0  0  0  0
   -1.0600   76.5340   18.0330 C   0  0  0  0  0
   -1.0790   77.5420   16.8920 C   0  0  0  0  0
    0.1510   77.9840   16.3580 O   0  0  0  0  0
   -0.3130   75.2450   17.6400 C   0  0  0  0  0
    0.3610   74.5270   18.7920 C   0  0  0  0  0
    0.7580   75.2090   19.7610 O   0  0  0  0  0
    0.8080   73.3560   18.6780 O   0  0  0  0  0
   -6.7137   70.7592   28.8053 H   0  0  0  0  0
   -6.8624   72.5141   29.0687 H   0  0  0  0  0
   -8.2644   71.5779   28.4952 H   0  0  0  0  0
   -8.7167   71.9173   26.4531 H   0  0  0  0  0
   -6.6449   71.4969   24.4361 H   0  0  0  0  0
   -8.4504   71.9550   22.8399 H   0  0  0  0  0
   -9.5427   72.2940   24.2901 H   0  0  0  0  0
  -10.8180   70.7866   23.9870 H   0  0  0  0  0
   -5.5135   72.9465   23.2628 H   0  0  0  0  0
   -6.3248   75.8042   23.4307 H   0  0  0  0  0
   -4.0649   76.5098   23.9361 H   0  0  0  0  0
   -3.4873   74.7767   23.8486 H   0  0  0  0  0
   -4.6182   74.2419   25.8399 H   0  0  0  0  0
   -5.4123   75.8815   25.8847 H   0  0  0  0  0
   -4.5560   76.1482   27.8259 H   0  0  0  0  0
   -5.2199   77.1829   21.5875 H   0  0  0  0  0
   -4.5036   75.1835   19.4749 H   0  0  0  0  0
   -5.0124   77.0246   17.8361 H   0  0  0  0  0
   -6.7485   75.3674   18.4005 H   0  0  0  0  0
   -7.2573   76.3512   19.7949 H   0  0  0  0  0
   -7.4980   76.9615   18.1394 H   0  0  0  0  0
   -6.0048   78.5339   20.2640 H   0  0  0  0  0
   -4.6359   78.9769   19.2148 H   0  0  0  0  0
   -6.2951   78.9947   18.5686 H   0  0  0  0  0
   -2.8560   75.4302   18.0124 H   0  0  0  0  0
   -0.5298   77.0329   18.8442 H   0  0  0  0  0
   -2.0233   77.9149   16.4954 H   0  0  0  0  0
    0.4734   75.5342   16.9429 H   0  0  0  0  0
   -1.0557   74.5603   17.2306 H   0  0  0  0  0
    0.4273   72.9438   17.8991 H   0  0  0  0  0
  1  2  2  0  0  0
  1  3  1  0  0  0
  1  4  1  0  0  0
  4  5  1  0  0  0
  5  6  1  0  0  0
  5  8  1  0  0  0
  6  7  2  0  0  0
  6 12  1  0  0  0
  8  9  1  0  0  0
  9 10  2  0  0  0
  9 11  1  0  0  0
 12 13  1  0  0  0
 13 14  1  0  0  0
 13 16  1  0  0  0
 14 15  2  0  0  0
 14 21  1  0  0  0
 16 17  1  0  0  0
 17 18  1  0  0  0
 18 19  2  0  0  0
 18 20  1  0  0  0
 21 22  1  0  0  0
 22 23  1  0  0  0
 22 25  1  0  0  0
 23 24  2  0  0  0
 23 28  1  0  0  0
 25 26  1  0  0  0
 25 27  1  0  0  0
 28 29  1  0  0  0
 29 30  1  0  0  0
 29 32  1  0  0  0
 30 31  2  0  0  0
 32 33  1  0  0  0
 33 34  2  0  0  0
 33 35  1  0  0  0
  3 36  1  0  0  0
  3 37  1  0  0  0
  3 38  1  0  0  0
  4 39  1  0  0  0
  5 40  1  0  0  0
  8 41  1  0  0  0
  8 42  1  0  0  0
 11 43  1  0  0  0
 12 44  1  0  0  0
 13 45  1  0  0  0
 16 46  1  0  0  0
 16 47  1  0  0  0
 17 48  1  0  0  0
 17 49  1  0  0  0
 20 50  1  0  0  0
 21 51  1  0  0  0
 22 52  1  0  0  0
 25 53  1  0  0  0
 26 54  1  0  0  0
 26 55  1  0  0  0
 26 56  1  0  0  0
 27 57  1  0  0  0
 27 58  1  0  0  0
 27 59  1  0  0  0
 28 60  1  0  0  0
 29 61  1  0  0  0
 30 62  1  0  0  0
 32 63  1  0  0  0
 32 64  1  0  0  0
 35 65  1  0  0  0
M  END
$$$$
