3vjm_ligand
  -I-interpret- 

 60 64  0  0  0  0  0  0  0  0999 V2000
   48.1550   63.4190   34.3670 C   0  0  0  0  0
   47.6300   62.4290   35.2160 C   0  0  0  0  0
   46.2870   62.0360   35.1020 C   0  0  0  0  0
   45.4900   62.5800   34.1590 N   0  0  0  0  0
   45.9480   63.5210   33.3160 C   0  0  0  0  0
   47.2810   63.9660   33.3990 C   0  0  0  0  0
   47.6970   64.9530   32.5090 C   0  0  0  0  0
   46.8150   65.4780   31.5690 C   0  0  0  0  0
   45.4940   65.0320   31.5000 C   0  0  0  0  0
   45.0620   64.0450   32.3800 C   0  0  0  0  0
   45.6270   60.9790   35.9450 C   0  0  0  0  0
   49.5550   63.7470   34.4180 N   0  0  0  0  0
   50.2410   63.5100   35.6970 C   0  0  0  0  0
   51.5480   64.2990   35.7340 C   0  0  0  0  0
   52.3370   63.9850   34.5500 N   0  3  0  0  0
   51.6530   64.2030   33.2660 C   0  0  0  0  0
   53.5990   64.7750   34.5970 C   0  0  0  0  0
   54.4960   64.4920   33.3810 C   0  0  0  0  0
   55.8560   64.6600   33.8750 N   0  3  0  0  0
   55.9120   64.7510   35.3300 C   0  0  0  0  0
   54.4970   64.3910   35.7830 C   0  0  0  0  0
   50.3380   63.4170   33.2310 C   0  0  0  0  0
   56.9850   63.8790   35.9550 C   0  0  0  0  0
   57.5020   64.2960   37.1190 N   0  0  0  0  0
   58.5790   63.6160   37.8510 C   0  0  0  0  0
   58.5120   64.3150   39.4790 S   0  0  0  0  0
   57.7370   65.8090   39.0770 C   0  0  0  0  0
   56.9930   65.5100   37.7710 C   0  0  0  0  0
   45.3120   59.9950   35.1300 F   0  0  0  0  0
   46.3840   60.4940   36.9110 F   0  0  0  0  0
   44.5030   61.4660   36.4310 F   0  0  0  0  0
   57.3640   62.8680   35.3650 O   0  0  0  0  0
   48.2690   61.9641   35.9667 H   0  0  0  0  0
   48.7233   65.3179   32.5489 H   0  0  0  0  0
   47.1601   66.2471   30.8780 H   0  0  0  0  0
   44.8083   65.4526   30.7644 H   0  0  0  0  0
   44.0345   63.6840   32.3364 H   0  0  0  0  0
   50.4578   62.4467   35.7991 H   0  0  0  0  0
   49.5997   63.8345   36.5165 H   0  0  0  0  0
   52.1104   64.0296   36.6280 H   0  0  0  0  0
   51.3282   65.3665   35.7522 H   0  0  0  0  0
   52.5158   62.9813   34.5822 H   0  0  0  0  0
   52.2962   63.8612   32.4551 H   0  0  0  0  0
   51.4384   65.2654   33.1504 H   0  0  0  0  0
   53.2554   65.8080   34.6512 H   0  0  0  0  0
   54.2794   65.1651   32.5515 H   0  0  0  0  0
   54.3309   63.4925   32.9787 H   0  0  0  0  0
   56.2265   65.5288   33.4900 H   0  0  0  0  0
   56.3987   63.8452   33.5887 H   0  0  0  0  0
   56.2053   65.7475   35.6602 H   0  0  0  0  0
   54.4072   63.3346   36.0361 H   0  0  0  0  0
   54.2150   64.9183   36.6943 H   0  0  0  0  0
   49.7760   63.6807   32.3351 H   0  0  0  0  0
   50.5493   62.3478   33.2157 H   0  0  0  0  0
   59.5513   63.7636   37.3809 H   0  0  0  0  0
   58.4470   62.5341   37.8634 H   0  0  0  0  0
   58.4513   66.6247   38.9649 H   0  0  0  0  0
   57.0637   66.1471   39.8647 H   0  0  0  0  0
   55.9392   65.3576   38.0041 H   0  0  0  0  0
   57.1400   66.3505   37.0928 H   0  0  0  0  0
  1  2  4  0  0  0
  1  6  4  0  0  0
  1 12  1  0  0  0
  2  3  4  0  0  0
  3  4  4  0  0  0
  3 11  1  0  0  0
  4  5  4  0  0  0
  5  6  4  0  0  0
  5 10  4  0  0  0
  6  7  4  0  0  0
  7  8  4  0  0  0
  8  9  4  0  0  0
  9 10  4  0  0  0
 11 29  1  0  0  0
 11 30  1  0  0  0
 11 31  1  0  0  0
 12 13  1  0  0  0
 12 22  1  0  0  0
 13 14  1  0  0  0
 14 15  1  0  0  0
 15 16  1  0  0  0
 15 17  1  0  0  0
 16 22  1  0  0  0
 17 18  1  0  0  0
 17 21  1  0  0  0
 18 19  1  0  0  0
 19 20  1  0  0  0
 20 21  1  0  0  0
 20 23  1  0  0  0
 23 24  1  0  0  0
 23 32  2  0  0  0
 24 25  1  0  0  0
 24 28  1  0  0  0
 25 26  1  0  0  0
 26 27  1  0  0  0
 27 28  1  0  0  0
  2 33  1  0  0  0
  7 34  1  0  0  0
  8 35  1  0  0  0
  9 36  1  0  0  0
 10 37  1  0  0  0
 13 38  1  0  0  0
 13 39  1  0  0  0
 14 40  1  0  0  0
 14 41  1  0  0  0
 15 42  1  0  0  0
 16 43  1  0  0  0
 16 44  1  0  0  0
 17 45  1  0  0  0
 18 46  1  0  0  0
 18 47  1  0  0  0
 19 48  1  0  0  0
 19 49  1  0  0  0
 20 50  1  0  0  0
 21 51  1  0  0  0
 21 52  1  0  0  0
 22 53  1  0  0  0
 22 54  1  0  0  0
 25 55  1  0  0  0
 25 56  1  0  0  0
 27 57  1  0  0  0
 27 58  1  0  0  0
 28 59  1  0  0  0
 28 60  1  0  0  0
M  END
$$$$
