1o2u_ligand
  -I-interpret- 

 42 44  0  0  0  0  0  0  0  0999 V2000
   44.1980   -3.1170   26.0000 C   0  0  0  0  0
   44.5440   -1.7560   26.2980 C   0  0  0  0  0
   44.4350   -1.2030   27.5900 C   0  0  0  0  0
   43.9780   -2.0460   28.5660 C   0  0  0  0  0
   43.6420   -3.3250   28.3290 C   0  0  0  0  0
   43.7280   -3.9110   27.0820 C   0  0  0  0  0
   44.3220   -3.6520   24.6930 C   0  0  0  0  0
   44.0060   -4.9080   24.4640 N   0  0  0  0  0
   44.7540   -2.8890   23.7140 N   0  0  0  0  0
   43.7760   -1.8470   29.8240 N   0  0  0  0  0
   43.2270   -3.9550   29.4070 N   0  0  0  0  0
   43.3390   -2.9820   30.2910 C   0  0  0  0  0
   43.0340   -3.2050   31.6530 C   0  0  0  0  0
   42.4410   -4.4100   32.1240 C   0  0  0  0  0
   42.1390   -4.6260   33.4900 C   0  0  0  0  0
   41.4620   -5.9100   34.0240 C   0  0  0  0  0
   39.9570   -5.5950   33.7240 C   0  0  0  0  0
   39.4120   -6.2490   32.8500 O   0  0  0  0  0
   39.4180   -4.7020   34.3700 O   0  0  0  0  0
   41.6700   -6.2130   35.6230 C   0  0  0  0  0
   43.0320   -6.8500   36.1510 C   0  0  0  0  0
   43.2740   -8.0180   35.9280 O   0  0  0  0  0
   43.8160   -6.1730   36.8010 O   0  0  0  0  0
   42.4440   -3.6370   34.3760 C   0  0  0  0  0
   43.0160   -2.4870   33.9490 C   0  0  0  0  0
   43.3190   -2.2260   32.6260 C   0  0  0  0  0
   43.8690   -0.9990   32.3010 O   0  0  0  0  0
   43.4920   -1.3440   35.4140 Br  0  0  0  0  0
   44.9072   -1.1220   25.4892 H   0  0  0  0  0
   44.6989   -0.1663   27.7990 H   0  0  0  0  0
   43.4438   -4.9524   26.9311 H   0  0  0  0  0
   44.0958   -5.2932   23.5238 H   0  0  0  0  0
   43.6711   -5.4968   25.2266 H   0  0  0  0  0
   44.8453   -3.2704   22.7724 H   0  0  0  0  0
   42.2106   -5.1966   31.4055 H   0  0  0  0  0
   41.8804   -6.8040   33.5616 H   0  0  0  0  0
   40.0474   -4.3371   34.9964 H   0  0  0  0  0
   40.9135   -6.9623   35.8562 H   0  0  0  0  0
   41.6331   -5.2293   36.0910 H   0  0  0  0  0
   43.4740   -5.2798   36.8831 H   0  0  0  0  0
   42.2260   -3.7727   35.4353 H   0  0  0  0  0
   43.9848   -0.4798   33.1001 H   0  0  0  0  0
  1  2  4  0  0  0
  1  6  4  0  0  0
  1  7  1  0  0  0
  2  3  4  0  0  0
  3  4  4  0  0  0
  4  5  4  0  0  0
  4 10  4  0  0  0
  5  6  4  0  0  0
  5 11  4  0  0  0
  7  8  1  0  0  0
  7  9  2  0  0  0
 10 12  4  0  0  0
 11 12  4  0  0  0
 12 13  1  0  0  0
 13 14  4  0  0  0
 13 26  4  0  0  0
 14 15  4  0  0  0
 15 16  1  0  0  0
 15 24  4  0  0  0
 16 17  1  0  0  0
 16 20  1  0  0  0
 17 18  2  0  0  0
 17 19  1  0  0  0
 20 21  1  0  0  0
 21 22  2  0  0  0
 21 23  1  0  0  0
 24 25  4  0  0  0
 25 26  4  0  0  0
 25 28  1  0  0  0
 26 27  1  0  0  0
  2 29  1  0  0  0
  3 30  1  0  0  0
  6 31  1  0  0  0
  8 32  1  0  0  0
  8 33  1  0  0  0
  9 34  1  0  0  0
 14 35  1  0  0  0
 16 36  1  0  0  0
 19 37  1  0  0  0
 20 38  1  0  0  0
 20 39  1  0  0  0
 23 40  1  0  0  0
 24 41  1  0  0  0
 27 42  1  0  0  0
M  END
$$$$
