3h5u_ligand
  -I-interpret- 

 62 65  0  0  0  0  0  0  0  0999 V2000
   76.0450   44.6650   12.9280 C   0  0  0  0  0
   75.8690   45.5640   11.8970 C   0  0  0  0  0
   76.0180   44.8160   10.5980 C   0  0  0  0  0
   76.4230   43.4580   11.0020 N   0  0  0  0  0
   76.3880   43.3650   12.3500 C   0  0  0  0  0
   76.7030   42.3510   12.9750 O   0  0  0  0  0
   75.5680   46.8820   12.0040 O   0  0  0  0  0
   76.8810   42.3880   10.1350 C   0  0  0  0  0
   78.3160   42.8100    9.7800 C   0  0  0  0  0
   74.5950   44.8110    9.8950 C   0  0  0  0  0
   77.4150   43.1000   15.5790 C   0  0  0  0  0
   77.7970   42.5290   16.7760 C   0  0  0  0  0
   77.3390   43.0400   17.9820 C   0  0  0  0  0
   76.4830   44.1280   17.9380 C   0  0  0  0  0
   76.5390   44.2100   15.5110 C   0  0  0  0  0
   76.1090   44.6910   16.7560 C   0  0  0  0  0
   75.0760   46.0740   16.3770 S   0  0  0  0  0
   75.1410   45.9670   14.6960 N   0  0  0  0  0
   75.9420   44.9880   14.3840 C   0  0  0  0  0
   73.7630   45.7570   16.8270 O   0  0  0  0  0
   75.6690   47.3240   16.7280 O   0  0  0  0  0
   74.2600   46.2120    9.3910 C   0  0  0  0  0
   74.5000   43.8490    8.7030 C   0  0  0  0  0
   73.4300   44.4170   10.8160 C   0  0  0  0  0
   79.2400   43.1660   10.7770 C   0  0  0  0  0
   80.5440   43.5490   10.4470 C   0  0  0  0  0
   80.9410   43.6010    9.1000 C   0  0  0  0  0
   80.0220   43.2660    8.1020 C   0  0  0  0  0
   78.7230   42.8800    8.4410 C   0  0  0  0  0
   82.2000   43.9960    8.7640 F   0  0  0  0  0
   75.9120   44.7790   19.1590 C   0  0  0  0  0
   76.0580   43.9600   20.3470 N   0  0  0  0  0
   75.8970   44.7650   21.7820 S   0  0  0  0  0
   74.1110   44.7660   22.1090 C   0  0  0  0  0
   76.5000   43.8750   22.6820 O   0  0  0  0  0
   76.2920   46.0880   21.5730 O   0  0  0  0  0
   76.7400   45.2450    9.9031 H   0  0  0  0  0
   75.5042   47.2668   11.1268 H   0  0  0  0  0
   76.2507   42.2624    9.2547 H   0  0  0  0  0
   76.8379   41.4108   10.6159 H   0  0  0  0  0
   77.8025   42.6803   14.6507 H   0  0  0  0  0
   78.4653   41.6679   16.7740 H   0  0  0  0  0
   77.6426   42.6001   18.9319 H   0  0  0  0  0
   74.9712   46.4976    8.6159 H   0  0  0  0  0
   73.2507   46.2170    8.9795 H   0  0  0  0  0
   74.3197   46.9185   10.2189 H   0  0  0  0  0
   73.4886   43.8740    8.2973 H   0  0  0  0  0
   75.2091   44.1546    7.9337 H   0  0  0  0  0
   74.7350   42.8375    9.0344 H   0  0  0  0  0
   73.3606   45.1302   11.6373 H   0  0  0  0  0
   72.5003   44.4244   10.2471 H   0  0  0  0  0
   73.6056   43.4178   11.2146 H   0  0  0  0  0
   78.9358   43.1433   11.8235 H   0  0  0  0  0
   81.2522   43.8071   11.2344 H   0  0  0  0  0
   80.3201   43.3061    7.0543 H   0  0  0  0  0
   78.0147   42.6293    7.6514 H   0  0  0  0  0
   74.8470   44.9362   18.9886 H   0  0  0  0  0
   76.4515   45.7113   19.3257 H   0  0  0  0  0
   76.2466   42.9587   20.3005 H   0  0  0  0  0
   73.7163   43.7599   21.9669 H   0  0  0  0  0
   73.9310   45.0867   23.1351 H   0  0  0  0  0
   73.6173   45.4520   21.4207 H   0  0  0  0  0
  1  2  2  0  0  0
  1  5  1  0  0  0
 19  1  1  0  0  0
  2  3  1  0  0  0
  2  7  1  0  0  0
  4  3  1  0  0  0
  3 10  1  0  0  0
  5  4  1  0  0  0
  4  8  1  0  0  0
  5  6  2  0  0  0
  8  9  1  0  0  0
  9 25  4  0  0  0
  9 29  4  0  0  0
 10 22  1  0  0  0
 10 23  1  0  0  0
 10 24  1  0  0  0
 11 12  4  0  0  0
 15 11  4  0  0  0
 12 13  4  0  0  0
 14 13  4  0  0  0
 16 14  4  0  0  0
 14 31  1  0  0  0
 15 16  4  0  0  0
 15 19  1  0  0  0
 16 17  1  0  0  0
 17 18  1  0  0  0
 17 20  2  0  0  0
 17 21  2  0  0  0
 18 19  2  0  0  0
 25 26  4  0  0  0
 26 27  4  0  0  0
 27 28  4  0  0  0
 27 30  1  0  0  0
 28 29  4  0  0  0
 31 32  1  0  0  0
 32 33  1  0  0  0
 33 34  1  0  0  0
 33 35  2  0  0  0
 33 36  2  0  0  0
  3 37  1  0  0  0
  7 38  1  0  0  0
  8 39  1  0  0  0
  8 40  1  0  0  0
 11 41  1  0  0  0
 12 42  1  0  0  0
 13 43  1  0  0  0
 22 44  1  0  0  0
 22 45  1  0  0  0
 22 46  1  0  0  0
 23 47  1  0  0  0
 23 48  1  0  0  0
 23 49  1  0  0  0
 24 50  1  0  0  0
 24 51  1  0  0  0
 24 52  1  0  0  0
 25 53  1  0  0  0
 26 54  1  0  0  0
 28 55  1  0  0  0
 29 56  1  0  0  0
 31 57  1  0  0  0
 31 58  1  0  0  0
 32 59  1  0  0  0
 34 60  1  0  0  0
 34 61  1  0  0  0
 34 62  1  0  0  0
M  END
$$$$
