3bvb_ligand
  -I-interpret- 

 75 78  0  0  0  0  0  0  0  0999 V2000
    8.0340   57.2280   13.7800 N   0  0  0  0  0
    8.4550   58.4550   14.2740 C   0  0  0  0  0
    9.7570   58.9070   14.0660 C   0  0  0  0  0
   10.2000   60.1120   14.5510 C   0  0  0  0  0
    9.3540   60.9140   15.2930 C   0  0  0  0  0
    8.0190   60.5100   15.4740 C   0  0  0  0  0
    7.6000   59.2520   15.0290 C   0  0  0  0  0
   10.4420   62.2660   15.8340 S   0  0  0  0  0
   11.4800   62.4290   14.8370 O   0  0  0  0  0
    9.5230   63.3280   16.2310 O   0  0  0  0  0
   11.1830   61.7540   17.2860 N   0  0  0  0  0
   10.3420   61.5500   18.4840 C   0  0  0  0  0
   10.7190   62.2700   19.8050 C   0  0  0  0  0
   10.4990   63.7900   19.5990 C   0  0  0  0  0
    9.6690   61.7890   20.8300 C   0  0  0  0  0
   12.5300   61.1070   17.2530 C   0  0  0  0  0
   13.5730   62.0410   17.9410 C   0  0  0  0  0
   14.6860   61.3240   18.4980 O   0  0  0  0  0
   14.1090   63.1300   17.0060 C   0  0  0  0  0
   15.0270   63.9890   17.7960 N   0  0  0  0  0
   14.7050   65.2870   18.0430 C   0  0  0  0  0
   13.7070   65.9000   17.6560 O   0  0  0  0  0
   15.6850   65.8030   18.8400 O   0  0  0  0  0
   15.5860   67.2390   19.1250 C   0  0  0  0  0
   16.2060   67.4560   20.5090 C   0  0  0  0  0
   17.6270   67.3850   20.3100 O   0  0  0  0  0
   17.9210   67.9290   19.0010 C   0  0  0  0  0
   18.7560   67.0290   18.3360 O   0  0  0  0  0
   18.0690   66.4330   17.2620 C   0  0  0  0  0
   16.9400   67.4030   16.8700 C   0  0  0  0  0
   16.5730   68.0030   18.2470 C   0  0  0  0  0
   14.8840   62.6330   15.7620 C   0  0  0  0  0
   16.6120   64.2390   14.7830 C   0  0  0  0  0
   17.0310   65.3160   14.0040 C   0  0  0  0  0
   16.0340   66.0110   13.3300 C   0  0  0  0  0
   14.7220   65.5930   13.3960 C   0  0  0  0  0
   14.3230   64.5230   14.1760 C   0  0  0  0  0
   15.3010   63.7860   14.8580 C   0  0  0  0  0
    8.6814   56.6404   13.2547 H   0  0  0  0  0
    7.0772   56.9140   13.9423 H   0  0  0  0  0
   10.4469   58.2821   13.4988 H   0  0  0  0  0
   11.2209   60.4370   14.3506 H   0  0  0  0  0
    7.3097   61.1785   15.9619 H   0  0  0  0  0
    6.6000   58.8946   15.2745 H   0  0  0  0  0
   10.4314   60.4874   18.7100 H   0  0  0  0  0
    9.3674   61.9561   18.2132 H   0  0  0  0  0
   11.7453   62.0723   20.1142 H   0  0  0  0  0
   11.1322   64.1403   18.7839 H   0  0  0  0  0
    9.4532   63.9745   19.3534 H   0  0  0  0  0
   10.7574   64.3207   20.5153 H   0  0  0  0  0
    8.6731   62.0690   20.4867 H   0  0  0  0  0
    9.7293   60.7051   20.9286 H   0  0  0  0  0
    9.8660   62.2545   21.7957 H   0  0  0  0  0
   12.8245   60.9340   16.2179 H   0  0  0  0  0
   12.4890   60.1556   17.7833 H   0  0  0  0  0
   13.0165   62.5133   18.7505 H   0  0  0  0  0
   15.2932   61.9452   18.9066 H   0  0  0  0  0
   13.2310   63.6475   16.6196 H   0  0  0  0  0
   15.9012   63.6046   18.1543 H   0  0  0  0  0
   14.5489   67.5507   19.0010 H   0  0  0  0  0
   15.8649   66.7045   21.2211 H   0  0  0  0  0
   15.9100   68.4157   20.9326 H   0  0  0  0  0
   18.4001   68.9062   19.0610 H   0  0  0  0  0
   17.6658   65.4617   17.5486 H   0  0  0  0  0
   18.7396   66.2558   16.4211 H   0  0  0  0  0
   16.1037   66.9231   16.3616 H   0  0  0  0  0
   17.2355   68.1468   16.1301 H   0  0  0  0  0
   16.0970   68.9673   18.0695 H   0  0  0  0  0
   14.2313   61.9705   15.1936 H   0  0  0  0  0
   15.7842   62.1204   16.1011 H   0  0  0  0  0
   17.3644   63.7165   15.3737 H   0  0  0  0  0
   18.0813   65.5973   13.9277 H   0  0  0  0  0
   16.2914   66.8936   12.7445 H   0  0  0  0  0
   13.9714   66.1255   12.8119 H   0  0  0  0  0
   13.2689   64.2580   14.2588 H   0  0  0  0  0
  2  1  1  0  0  0
  3  2  4  0  0  0
  7  2  4  0  0  0
  4  3  4  0  0  0
  5  4  4  0  0  0
  5  6  4  0  0  0
  8  5  1  0  0  0
  6  7  4  0  0  0
  8  9  2  0  0  0
  8 10  2  0  0  0
 11  8  1  0  0  0
 11 12  1  0  0  0
 16 11  1  0  0  0
 12 13  1  0  0  0
 13 14  1  0  0  0
 13 15  1  0  0  0
 17 16  1  0  0  0
 17 18  1  0  0  0
 19 17  1  0  0  0
 19 20  1  0  0  0
 32 19  1  0  0  0
 20 21  1  0  0  0
 21 22  2  0  0  0
 21 23  1  0  0  0
 23 24  1  0  0  0
 24 25  1  0  0  0
 24 31  1  0  0  0
 25 26  1  0  0  0
 27 26  1  0  0  0
 27 28  1  0  0  0
 31 27  1  0  0  0
 29 28  1  0  0  0
 30 29  1  0  0  0
 31 30  1  0  0  0
 38 32  1  0  0  0
 33 34  4  0  0  0
 33 38  4  0  0  0
 34 35  4  0  0  0
 35 36  4  0  0  0
 36 37  4  0  0  0
 37 38  4  0  0  0
  1 39  1  0  0  0
  1 40  1  0  0  0
  3 41  1  0  0  0
  4 42  1  0  0  0
  6 43  1  0  0  0
  7 44  1  0  0  0
 12 45  1  0  0  0
 12 46  1  0  0  0
 13 47  1  0  0  0
 14 48  1  0  0  0
 14 49  1  0  0  0
 14 50  1  0  0  0
 15 51  1  0  0  0
 15 52  1  0  0  0
 15 53  1  0  0  0
 16 54  1  0  0  0
 16 55  1  0  0  0
 17 56  1  0  0  0
 18 57  1  0  0  0
 19 58  1  0  0  0
 20 59  1  0  0  0
 24 60  1  0  0  0
 25 61  1  0  0  0
 25 62  1  0  0  0
 27 63  1  0  0  0
 29 64  1  0  0  0
 29 65  1  0  0  0
 30 66  1  0  0  0
 30 67  1  0  0  0
 31 68  1  0  0  0
 32 69  1  0  0  0
 32 70  1  0  0  0
 33 71  1  0  0  0
 34 72  1  0  0  0
 35 73  1  0  0  0
 36 74  1  0  0  0
 37 75  1  0  0  0
M  END
$$$$
