4b5t_ligand
  -I-interpret- 

 13 12  0  0  0  0  0  0  0  0999 V2000
  -21.2680   -5.9260    8.2640 C   0  0  0  0  0
  -20.9830   -6.6600    9.5280 C   0  0  0  0  0
  -19.6090   -6.4960   10.0520 C   0  0  0  0  0
  -18.7940   -5.9760    9.2930 O   0  0  0  0  0
  -19.3110   -6.9520   11.4640 C   0  0  0  0  0
  -18.1630   -6.8770   11.9930 O   0  0  0  0  0
  -20.2140   -7.5250   12.1260 O   0  0  0  0  0
  -21.1204   -4.8580    8.4243 H   0  0  0  0  0
  -20.5923   -6.2743    7.4828 H   0  0  0  0  0
  -22.2992   -6.1104    7.9629 H   0  0  0  0  0
  -21.1121   -7.7204    9.3114 H   0  0  0  0  0
  -21.6575   -6.2576   10.2838 H   0  0  0  0  0
  -17.5656   -6.4217   11.3952 H   0  0  0  0  0
  1  2  1  0  0  0
  2  3  1  0  0  0
  3  4  2  0  0  0
  3  5  1  0  0  0
  5  6  1  0  0  0
  5  7  2  0  0  0
  1  8  1  0  0  0
  1  9  1  0  0  0
  1 10  1  0  0  0
  2 11  1  0  0  0
  2 12  1  0  0  0
  6 13  1  0  0  0
M  END
$$$$
