6hzp_ligand
  -I-interpret- 

 19 18  0  0  0  0  0  0  0  0999 V2000
   21.5100    2.5650   32.6240 C   0  0  0  0  0
   19.0110    2.6910   32.7520 C   0  0  0  0  0
   18.6430    3.7950   32.4080 O   0  0  0  0  0
   18.2050    1.4490   32.4240 C   0  0  0  0  0
   16.7910    1.6870   32.1890 N   0  3  0  0  0
   20.2900    2.5030   33.5260 C   0  0  0  0  0
   22.7620    2.9960   33.3330 C   0  0  0  0  0
   23.2970    4.0710   33.1350 O   0  0  0  0  0
   23.2330    2.0990   34.1640 O   0  0  0  0  0
   21.3046    3.3017   31.8473 H   0  0  0  0  0
   21.6825    1.5601   32.2387 H   0  0  0  0  0
   18.2761    0.7876   33.2875 H   0  0  0  0  0
   18.6153    1.0392   31.5011 H   0  0  0  0  0
   16.3293    0.8026   31.9767 H   0  0  0  0  0
   16.3733    2.0982   33.0238 H   0  0  0  0  0
   16.6813    2.3266   31.4021 H   0  0  0  0  0
   20.3664    3.3044   34.2609 H   0  0  0  0  0
   20.2631    1.5211   33.9985 H   0  0  0  0  0
   22.6568    1.3312   34.1646 H   0  0  0  0  0
  6  1  1  0  0  0
  1  7  1  0  0  0
  2  3  2  0  0  0
  2  4  1  0  0  0
  2  6  1  0  0  0
  4  5  1  0  0  0
  7  8  2  0  0  0
  7  9  1  0  0  0
  1 10  1  0  0  0
  1 11  1  0  0  0
  4 12  1  0  0  0
  4 13  1  0  0  0
  5 14  1  0  0  0
  5 15  1  0  0  0
  5 16  1  0  0  0
  6 17  1  0  0  0
  6 18  1  0  0  0
  9 19  1  0  0  0
M  END
$$$$
