### 
### Created by X-TOOL on Mon Sep 10 21:12:53 2018
### 

@<TRIPOS>MOLECULE
1yw2_ligand
   49    52     1     0     0
SMALL
GAST_HUCK


@<TRIPOS>ATOM
      1 C1         18.9280   39.5250   18.0270 C.2       1 PGJ         0.1380
      2 N2         17.9780   40.2500   18.9180 N.pl3     1 PGJ        -0.1140
      3 O3         17.9890   39.3980   20.1640 O.3       1 PGJ        -0.1412
      4 C4         18.8450   38.3680   20.0140 C.2       1 PGJ         0.2743
      5 C5         19.4550   38.4770   18.6750 C.2       1 PGJ         0.0865
      6 C6         18.3990   41.6210   19.2220 C.3       1 PGJ         0.1668
      7 O7         17.2530   42.4450   19.3390 O.3       1 PGJ        -0.3533
      8 C10        17.4700   43.7910   19.6960 C.3       1 PGJ         0.0475
      9 C11        18.9580   43.9990   19.9310 C.3       1 PGJ        -0.0415
     10 C17        18.9470   39.8220   16.6010 C.ar      1 PGJ         0.0940
     11 C18        18.9530   38.8140   15.6490 C.ar      1 PGJ        -0.0087
     12 C19        18.9870   39.1840   14.3120 C.ar      1 PGJ         0.0195
     13 N20        19.0150   40.4630   13.9340 N.ar      1 PGJ        -0.2388
     14 C21        18.9890   41.4940   14.8530 C.ar      1 PGJ         0.2687
     15 N22        18.9450   41.0860   16.1780 N.ar      1 PGJ        -0.2306
     16 O23        18.9560   42.7830   14.4180 O.3       1 PGJ        -0.2187
     17 C24        18.2970   43.7360   15.1860 C.ar      1 PGJ         0.1543
     18 C25        18.9840   44.8820   15.5540 C.ar      1 PGJ        -0.0350
     19 C26        18.3670   45.8610   16.3230 C.ar      1 PGJ        -0.0801
     20 C27        17.0540   45.6910   16.7280 C.ar      1 PGJ        -0.0806
     21 C28        16.3580   44.5390   16.3860 C.ar      1 PGJ        -0.0399
     22 C29        16.9650   43.5790   15.5880 C.ar      1 PGJ         0.1228
     23 O34        16.2520   42.4510   15.2450 O.3       1 PGJ        -0.3355
     24 C35        20.3800   37.4220   18.2580 C.ar      1 PGJ        -0.0272
     25 C36        19.9630   36.1010   18.4570 C.ar      1 PGJ        -0.0631
     26 C37        20.7810   35.0530   18.0590 C.ar      1 PGJ        -0.0330
     27 C38        22.0190   35.3510   17.5050 C.ar      1 PGJ         0.1276
     28 C39        22.4680   36.6480   17.3440 C.ar      1 PGJ        -0.0330
     29 C40        21.5920   37.6960   17.6380 C.ar      1 PGJ        -0.0631
     30 F45        22.8030   34.3150   17.1900 F         1 PGJ        -0.1870
     31 O47        19.1420   37.5410   20.8230 O.2       1 PGJ        -0.3802
     32 H1         19.0412   41.9969   18.4119 H         1 PGJ         0.0879
     33 H2         18.9586   41.6326   20.1689 H         1 PGJ         0.0879
     34 H3         16.9138   44.0243   20.6159 H         1 PGJ         0.0558
     35 H4         17.1280   44.4492   18.8838 H         1 PGJ         0.0558
     36 H5         19.1420   45.0468   20.2108 H         1 PGJ         0.0252
     37 H6         19.5112   43.7628   19.0101 H         1 PGJ         0.0252
     38 H7         19.2971   43.3379   20.7422 H         1 PGJ         0.0252
     39 H8         18.9318   37.7700   15.9399 H         1 PGJ         0.0716
     40 H9         18.9909   38.4108   13.5522 H         1 PGJ         0.0899
     41 H10        20.0125   45.0158   15.2389 H         1 PGJ         0.0525
     42 H11        18.9117   46.7548   16.6049 H         1 PGJ         0.0498
     43 H12        16.5668   46.4611   17.3151 H         1 PGJ         0.0505
     44 H13        15.3446   44.3900   16.7408 H         1 PGJ         0.0512
     45 H14        15.4725   42.7043   14.7646 H         1 PGJ         0.2449
     46 H15        19.0045   35.8971   18.9204 H         1 PGJ         0.0563
     47 H16        20.4606   34.0243   18.1780 H         1 PGJ         0.0593
     48 H17        23.4757   36.8475   16.9979 H         1 PGJ         0.0593
     49 H18        21.8566   38.7160   17.3839 H         1 PGJ         0.0563
@<TRIPOS>BOND
     1    1    2 1  
     2    1    5 2  
     3    1   10 1  
     4    2    3 1  
     5    2    6 1  
     6    3    4 1  
     7    4    5 1  
     8    4   31 2  
     9    5   24 1  
    10    6    7 1  
    11    7    8 1  
    12    8    9 1  
    13   10   11 ar 
    14   10   15 ar 
    15   11   12 ar 
    16   12   13 ar 
    17   13   14 ar 
    18   14   15 ar 
    19   14   16 1  
    20   16   17 1  
    21   17   18 ar 
    22   17   22 ar 
    23   18   19 ar 
    24   19   20 ar 
    25   20   21 ar 
    26   21   22 ar 
    27   22   23 1  
    28   24   25 ar 
    29   24   29 ar 
    30   25   26 ar 
    31   26   27 ar 
    32   27   28 ar 
    33   27   30 1  
    34   28   29 ar 
    35    6   32 1  
    36    6   33 1  
    37    8   34 1  
    38    8   35 1  
    39    9   36 1  
    40    9   37 1  
    41    9   38 1  
    42   11   39 1  
    43   12   40 1  
    44   18   41 1  
    45   19   42 1  
    46   20   43 1  
    47   21   44 1  
    48   23   45 1  
    49   25   46 1  
    50   26   47 1  
    51   28   48 1  
    52   29   49 1  
@<TRIPOS>SUBSTRUCTURE
     1 PGJ         1

