5e8z_ligand
  -I-interpret- 

 55 58  0  0  0  0  0  0  0  0999 V2000
   -2.0620    6.5970    4.7880 C   0  0  0  0  0
    3.7950    8.3590    7.4390 C   0  0  0  0  0
   -4.1900    5.3120    4.3480 C   0  0  0  0  0
   -0.9860    5.8200    2.3780 C   0  0  0  0  0
   -2.2920    5.4920    2.7010 C   0  0  0  0  0
    5.0760    8.7950    7.7870 C   0  0  0  0  0
    4.4640    9.2460    9.9380 C   0  0  0  0  0
    3.1780    8.7920    9.7330 C   0  0  0  0  0
    2.8370    8.3150    8.4680 C   0  0  0  0  0
   -5.3030    6.3180    4.1240 C   0  0  0  0  0
   -0.1770    6.5320    3.2650 C   0  0  0  0  0
   -0.7620    6.9470    4.4630 C   0  0  0  0  0
    1.6740    6.2020    8.1880 C   0  0  0  0  0
    1.8360    6.6170    1.7040 C   0  0  0  0  0
    1.2570    6.8030    2.9740 C   0  0  0  0  0
    2.0180    7.2110    4.0040 N   0  0  0  0  0
    3.3270    7.4620    3.7940 C   0  0  0  0  0
    3.9050    7.2760    2.4980 C   0  0  0  0  0
    3.1370    6.8350    1.4710 N   0  0  0  0  0
    5.1920    7.5120    2.2440 N   0  0  0  0  0
    4.0930    7.9670    4.9900 C   0  0  0  0  0
    5.2720    8.2710    4.9010 O   0  0  0  0  0
    3.3830    8.0290    6.1290 N   0  0  0  0  0
   -2.8380    5.8470    3.9190 C   0  0  0  0  0
    5.4150    9.2330    9.0040 N   0  0  0  0  0
   -6.5630    5.7570    4.5070 O   0  0  0  0  0
    1.6070    7.6640    8.2460 N   0  0  0  0  0
    0.3840    5.6610    7.6330 C   0  0  0  0  0
   -0.7400    6.1170    8.3810 O   0  0  0  0  0
   -0.8040    7.5250    8.3700 C   0  0  0  0  0
    0.4280    8.1280    8.9810 C   0  0  0  0  0
   -2.4811    6.9165    5.7421 H   0  0  0  0  0
   -4.4087    4.4265    3.7513 H   0  0  0  0  0
   -4.1436    5.0900    5.4141 H   0  0  0  0  0
   -0.5819    5.5163    1.4123 H   0  0  0  0  0
   -2.8999    4.9439    1.9812 H   0  0  0  0  0
    5.8479    8.7769    7.0176 H   0  0  0  0  0
    4.7179    9.6389   10.9225 H   0  0  0  0  0
    2.4459    8.8057   10.5404 H   0  0  0  0  0
   -5.3372    6.5819    3.0670 H   0  0  0  0  0
   -5.1092    7.2041    4.7284 H   0  0  0  0  0
   -0.1842    7.5585    5.1561 H   0  0  0  0  0
    1.8318    5.8059    9.1912 H   0  0  0  0  0
    2.5004    5.9019    7.5437 H   0  0  0  0  0
    1.2032    6.2838    0.8814 H   0  0  0  0  0
    5.8073    7.8389    2.9890 H   0  0  0  0  0
    5.5616    7.3657    1.3046 H   0  0  0  0  0
    2.3931    7.8027    6.0327 H   0  0  0  0  0
   -7.2576    6.4032    4.3603 H   0  0  0  0  0
    0.4152    4.5728    7.6865 H   0  0  0  0  0
    0.2782    6.0086    6.6053 H   0  0  0  0  0
   -1.6708    7.8389    8.9516 H   0  0  0  0  0
   -0.8811    7.8622    7.3363 H   0  0  0  0  0
    0.3682    9.2150    8.9276 H   0  0  0  0  0
    0.5048    7.8240   10.0249 H   0  0  0  0  0
 12  1  4  0  0  0
  1 24  4  0  0  0
  2  6  4  0  0  0
  2  9  4  0  0  0
 23  2  1  0  0  0
  3 10  1  0  0  0
 24  3  1  0  0  0
  4  5  4  0  0  0
 11  4  4  0  0  0
  5 24  4  0  0  0
  6 25  4  0  0  0
  8  7  4  0  0  0
 25  7  4  0  0  0
  9  8  4  0  0  0
  9 27  1  0  0  0
 10 26  1  0  0  0
 11 12  4  0  0  0
 15 11  1  0  0  0
 27 13  1  0  0  0
 13 28  1  0  0  0
 15 14  4  0  0  0
 19 14  4  0  0  0
 16 15  4  0  0  0
 17 16  4  0  0  0
 17 18  4  0  0  0
 21 17  1  0  0  0
 18 19  4  0  0  0
 18 20  1  0  0  0
 21 22  2  0  0  0
 21 23  1  0  0  0
 27 31  1  0  0  0
 28 29  1  0  0  0
 29 30  1  0  0  0
 30 31  1  0  0  0
  1 32  1  0  0  0
  3 33  1  0  0  0
  3 34  1  0  0  0
  4 35  1  0  0  0
  5 36  1  0  0  0
  6 37  1  0  0  0
  7 38  1  0  0  0
  8 39  1  0  0  0
 10 40  1  0  0  0
 10 41  1  0  0  0
 12 42  1  0  0  0
 13 43  1  0  0  0
 13 44  1  0  0  0
 14 45  1  0  0  0
 20 46  1  0  0  0
 20 47  1  0  0  0
 23 48  1  0  0  0
 26 49  1  0  0  0
 28 50  1  0  0  0
 28 51  1  0  0  0
 30 52  1  0  0  0
 30 53  1  0  0  0
 31 54  1  0  0  0
 31 55  1  0  0  0
M  END
$$$$
