6pya_ligand
  -I-interpret- 

 35 38  0  0  0  0  0  0  0  0999 V2000
  -15.1100  -31.6000   -2.3200 C   0  0  0  0  0
  -14.4860  -32.5940   -1.5760 C   0  0  0  0  0
  -13.5780  -33.4410   -2.2120 C   0  0  0  0  0
  -13.2860  -33.3000   -3.5650 C   0  0  0  0  0
  -13.9180  -32.2800   -4.3190 C   0  0  0  0  0
  -14.8220  -31.4600   -3.7030 C   0  0  0  0  0
  -15.2870  -30.5590   -4.7030 C   0  0  0  0  0
  -14.6350  -30.9190   -5.8810 C   0  0  0  0  0
  -14.7520  -30.2520   -7.2300 C   0  0  0  0  0
  -14.4550  -30.9660   -8.3810 C   0  0  0  0  0
  -14.5450  -30.3100   -9.5890 C   0  0  0  0  0
  -14.8860  -28.9700   -9.6410 C   0  0  0  0  0
  -15.1500  -28.2540   -8.4930 C   0  0  0  0  0
  -15.0650  -28.9080   -7.2780 C   0  0  0  0  0
  -16.3250  -29.4510   -4.4790 C   0  0  0  0  0
  -16.4130  -27.2220   -3.4380 C   0  0  0  0  0
  -14.3280  -26.7230   -3.2550 C   0  0  0  0  0
  -14.4360  -27.9750   -3.8310 C   0  0  0  0  0
  -13.8330  -31.9320   -5.6360 N   0  0  0  0  0
  -15.7320  -28.2370   -3.9370 N   0  0  0  0  0
  -15.5650  -26.2930   -3.0460 N   0  0  0  0  0
  -15.8214  -30.9271   -1.8412 H   0  0  0  0  0
  -14.7022  -32.7099   -0.5140 H   0  0  0  0  0
  -13.0883  -34.2278   -1.6383 H   0  0  0  0  0
  -12.5735  -33.9719   -4.0435 H   0  0  0  0  0
  -14.1594  -32.0140   -8.3315 H   0  0  0  0  0
  -14.3455  -30.8521  -10.5134 H   0  0  0  0  0
  -14.9470  -28.4710  -10.6082 H   0  0  0  0  0
  -15.4190  -27.1988   -8.5420 H   0  0  0  0  0
  -15.2460  -28.3600   -6.3533 H   0  0  0  0  0
  -17.0597  -29.8169   -3.7618 H   0  0  0  0  0
  -16.7715  -29.2071   -5.4430 H   0  0  0  0  0
  -17.4988  -27.1624   -3.3627 H   0  0  0  0  0
  -13.4056  -26.1925   -3.0186 H   0  0  0  0  0
  -13.6146  -28.6221   -4.1387 H   0  0  0  0  0
  1  2  4  0  0  0
  6  1  4  0  0  0
  2  3  4  0  0  0
  4  3  4  0  0  0
  5  4  4  0  0  0
  6  5  4  0  0  0
 19  5  4  0  0  0
  7  6  4  0  0  0
  7  8  4  0  0  0
 15  7  1  0  0  0
  8  9  1  0  0  0
  8 19  4  0  0  0
  9 10  4  0  0  0
  9 14  4  0  0  0
 10 11  4  0  0  0
 11 12  4  0  0  0
 13 12  4  0  0  0
 14 13  4  0  0  0
 20 15  1  0  0  0
 16 20  4  0  0  0
 21 16  4  0  0  0
 17 18  4  0  0  0
 17 21  4  0  0  0
 18 20  4  0  0  0
  1 22  1  0  0  0
  2 23  1  0  0  0
  3 24  1  0  0  0
  4 25  1  0  0  0
 10 26  1  0  0  0
 11 27  1  0  0  0
 12 28  1  0  0  0
 13 29  1  0  0  0
 14 30  1  0  0  0
 15 31  1  0  0  0
 15 32  1  0  0  0
 16 33  1  0  0  0
 17 34  1  0  0  0
 18 35  1  0  0  0
M  END
$$$$
