6agk_ligand
  -I-interpret- 

 49 51  0  0  0  0  0  0  0  0999 V2000
  -13.9450  -67.3810   41.3020 C   0  0  0  0  0
  -14.6560  -66.4670   40.5120 O   0  0  0  0  0
  -15.7790  -66.9240   39.8290 C   0  0  0  0  0
  -16.8080  -67.4960   40.5510 C   0  0  0  0  0
  -17.9570  -67.9440   39.9210 C   0  0  0  0  0
  -19.0950  -68.5930   40.7150 C   0  0  0  0  0
  -19.9330  -69.2140   40.1330 O   0  0  0  0  0
  -19.2000  -68.4350   42.2370 C   0  0  0  0  0
  -19.8190  -69.4280   42.9880 C   0  0  0  0  0
  -19.9310  -69.2930   44.3570 C   0  0  0  0  0
  -19.3990  -68.1530   44.9360 C   0  0  0  0  0
  -18.7810  -67.1670   44.1420 C   0  0  0  0  0
  -18.2440  -65.9760   44.6720 C   0  0  0  0  0
  -17.7890  -64.9720   43.8160 C   0  0  0  0  0
  -17.2510  -63.7850   44.3200 C   0  0  0  0  0
  -17.1570  -63.5560   45.6870 C   0  0  0  0  0
  -16.5650  -62.2530   46.2120 C   0  0  0  0  0
  -17.6090  -64.5440   46.5530 C   0  0  0  0  0
  -17.5280  -64.3850   47.9400 O   0  0  0  0  0
  -18.1420  -65.7240   46.0500 C   0  0  0  0  0
  -18.7190  -67.3560   42.8290 N   0  0  0  0  0
  -18.0770  -67.8040   38.5470 C   0  0  0  0  0
  -17.0510  -67.2140   37.8100 C   0  0  0  0  0
  -17.1600  -67.0570   36.4150 O   0  0  0  0  0
  -18.4170  -66.7410   35.8740 C   0  0  0  0  0
  -15.8920  -66.7770   38.4520 C   0  0  0  0  0
  -14.8660  -66.1510   37.7330 O   0  0  0  0  0
  -14.1300  -66.9070   36.8070 C   0  0  0  0  0
  -14.6024  -67.7800   42.0745 H   0  0  0  0  0
  -13.5823  -68.1958   40.6753 H   0  0  0  0  0
  -13.0994  -66.8754   41.7683 H   0  0  0  0  0
  -16.7144  -67.5963   41.6323 H   0  0  0  0  0
  -20.2166  -70.3149   42.4946 H   0  0  0  0  0
  -20.4209  -70.0567   44.9611 H   0  0  0  0  0
  -19.4590  -68.0174   46.0159 H   0  0  0  0  0
  -17.8543  -65.1161   42.7375 H   0  0  0  0  0
  -16.8976  -63.0225   43.6259 H   0  0  0  0  0
  -15.5380  -62.1544   45.8605 H   0  0  0  0  0
  -17.1572  -61.4136   45.8477 H   0  0  0  0  0
  -16.5780  -62.2626   47.3019 H   0  0  0  0  0
  -17.8858  -65.1642   48.3717 H   0  0  0  0  0
  -18.4938  -66.4818   46.7500 H   0  0  0  0  0
  -18.9761  -68.1562   38.0414 H   0  0  0  0  0
  -19.1270  -67.5296   36.1231 H   0  0  0  0  0
  -18.7626  -65.7946   36.2899 H   0  0  0  0  0
  -18.3335  -66.6544   34.7907 H   0  0  0  0  0
  -13.6412  -67.7341   37.3219 H   0  0  0  0  0
  -14.8023  -67.2990   36.0438 H   0  0  0  0  0
  -13.3771  -66.2729   36.3389 H   0  0  0  0  0
  1  2  1  0  0  0
  2  3  1  0  0  0
  3  4  4  0  0  0
  3 26  4  0  0  0
  4  5  4  0  0  0
  5  6  1  0  0  0
  5 22  4  0  0  0
  6  7  2  0  0  0
  6  8  1  0  0  0
  8  9  4  0  0  0
  8 21  4  0  0  0
  9 10  4  0  0  0
 10 11  4  0  0  0
 11 12  4  0  0  0
 12 13  1  0  0  0
 12 21  4  0  0  0
 13 14  4  0  0  0
 13 20  4  0  0  0
 14 15  4  0  0  0
 15 16  4  0  0  0
 16 17  1  0  0  0
 16 18  4  0  0  0
 18 19  1  0  0  0
 18 20  4  0  0  0
 22 23  4  0  0  0
 23 24  1  0  0  0
 23 26  4  0  0  0
 24 25  1  0  0  0
 26 27  1  0  0  0
 27 28  1  0  0  0
  1 29  1  0  0  0
  1 30  1  0  0  0
  1 31  1  0  0  0
  4 32  1  0  0  0
  9 33  1  0  0  0
 10 34  1  0  0  0
 11 35  1  0  0  0
 14 36  1  0  0  0
 15 37  1  0  0  0
 17 38  1  0  0  0
 17 39  1  0  0  0
 17 40  1  0  0  0
 19 41  1  0  0  0
 20 42  1  0  0  0
 22 43  1  0  0  0
 25 44  1  0  0  0
 25 45  1  0  0  0
 25 46  1  0  0  0
 28 47  1  0  0  0
 28 48  1  0  0  0
 28 49  1  0  0  0
M  END
$$$$
