6f3b_ligand
  -I-interpret- 

 40 41  0  0  0  0  0  0  0  0999 V2000
    6.6430   35.9820   11.0560 C   0  0  0  0  0
    8.0670   36.2700   13.1200 C   0  0  0  0  0
    8.1420   34.6180   14.8770 C   0  0  0  0  0
    7.2940   33.8240   14.1210 C   0  0  0  0  0
    6.8230   34.2570   12.8910 C   0  0  0  0  0
    8.5870   34.1890   16.2530 C   0  0  0  0  0
   10.9750   33.6750   16.0750 C   0  0  0  0  0
   12.2450   34.0810   16.4100 N   0  0  0  0  0
   12.6660   35.3160   16.9690 C   0  0  0  0  0
   13.2870   35.3320   18.2250 C   0  0  0  0  0
   13.7450   36.5380   18.7410 C   0  0  0  0  0
   13.6040   37.7210   18.0280 C   0  0  0  0  0
   12.9680   37.7060   16.7930 C   0  0  0  0  0
   12.5010   36.5110   16.2540 C   0  0  0  0  0
   14.6070   35.2250   20.8060 O   0  0  0  0  0
    7.1950   35.4900   12.3720 C   0  0  0  0  0
    8.5280   35.8470   14.3550 C   0  0  0  0  0
    9.9880   34.4880   16.5090 N   0  0  0  0  0
   10.7550   32.6420   15.4440 O   0  0  0  0  0
   11.9040   36.4750   15.0150 O   0  0  0  0  0
   14.5140   36.5740   20.3350 S   0  0  0  0  0
   13.8030   37.5300   21.1270 O   0  0  0  0  0
   16.0230   37.1260   20.1410 N   0  0  0  0  0
    6.0826   36.9025   11.2199 H   0  0  0  0  0
    7.4658   36.1738   10.3673 H   0  0  0  0  0
    5.9834   35.2238   10.6339 H   0  0  0  0  0
    8.3945   37.2328   12.7277 H   0  0  0  0  0
    6.9935   32.8465   14.4983 H   0  0  0  0  0
    6.1485   33.6180   12.3211 H   0  0  0  0  0
    8.4567   33.1092   16.3253 H   0  0  0  0  0
    7.9895   34.7348   16.9832 H   0  0  0  0  0
   12.9856   33.4024   16.2327 H   0  0  0  0  0
   13.4094   34.4085   18.7910 H   0  0  0  0  0
   13.9899   38.6557   18.4347 H   0  0  0  0  0
   12.8338   38.6370   16.2422 H   0  0  0  0  0
    9.2023   36.4859   14.9253 H   0  0  0  0  0
   10.2302   35.3317   17.0286 H   0  0  0  0  0
   11.8632   37.3639   14.6547 H   0  0  0  0  0
   16.8178   36.5223   20.3512 H   0  0  0  0  0
   16.1792   38.0776   19.8086 H   0  0  0  0  0
 16  1  1  0  0  0
  2 16  4  0  0  0
 17  2  4  0  0  0
  3  4  4  0  0  0
  6  3  1  0  0  0
  3 17  4  0  0  0
  4  5  4  0  0  0
  5 16  4  0  0  0
 18  6  1  0  0  0
  7  8  1  0  0  0
  7 18  1  0  0  0
  7 19  2  0  0  0
  8  9  1  0  0  0
  9 10  4  0  0  0
  9 14  4  0  0  0
 10 11  4  0  0  0
 11 12  4  0  0  0
 11 21  1  0  0  0
 12 13  4  0  0  0
 13 14  4  0  0  0
 14 20  1  0  0  0
 21 15  2  0  0  0
 21 22  2  0  0  0
 21 23  1  0  0  0
  1 24  1  0  0  0
  1 25  1  0  0  0
  1 26  1  0  0  0
  2 27  1  0  0  0
  4 28  1  0  0  0
  5 29  1  0  0  0
  6 30  1  0  0  0
  6 31  1  0  0  0
  8 32  1  0  0  0
 10 33  1  0  0  0
 12 34  1  0  0  0
 13 35  1  0  0  0
 17 36  1  0  0  0
 18 37  1  0  0  0
 20 38  1  0  0  0
 23 39  1  0  0  0
 23 40  1  0  0  0
M  END
$$$$
