3mhc_ligand
  -I-interpret- 

 40 43  0  0  0  0  0  0  0  0999 V2000
   -5.3240   -0.3420   16.1320 N   0  0  0  0  0
   -6.4720    5.7780   13.4580 O   0  0  0  0  0
   -5.2590    1.1530   17.9920 O   0  0  0  0  0
   -7.1990    1.1260   16.5130 O   0  0  0  0  0
   -3.9290    8.1600    9.7660 C   0  0  0  0  0
   -6.2900    7.9740    9.2340 C   0  0  0  0  0
   -5.4640    9.3840   10.8290 C   0  0  0  0  0
   -4.8280    6.4280   10.5470 C   0  0  0  0  0
   -3.9970    7.6910   12.0380 C   0  0  0  0  0
   -6.5030    7.6170   11.7280 C   0  0  0  0  0
   -3.5310    3.5300   14.8100 N   0  0  0  0  0
   -3.7320    2.3670   15.6680 N   0  0  0  0  0
   -4.1090    5.2460   13.6150 N   0  0  0  0  0
   -5.8590    3.4430   14.9650 S   0  0  0  0  0
   -5.3300    5.9360   13.1980 C   0  0  0  0  0
   -4.6410    4.2220   14.3480 C   0  0  0  0  0
   -5.0800    2.2610   15.7990 C   0  0  0  0  0
   -4.9730    7.1910    9.3070 C   0  0  0  0  0
   -4.1640    8.8230   11.0960 C   0  0  0  0  0
   -6.6230    8.6120   10.6140 C   0  0  0  0  0
   -5.2200    6.8700   11.8520 C   0  0  0  0  0
   -5.8480    0.8850   16.6140 S   0  0  0  0  0
   -4.6663   -0.8744   16.7015 H   0  0  0  0  0
   -5.6050   -0.6918   15.2160 H   0  0  0  0  0
   -3.9170    8.9618    9.0278 H   0  0  0  0  0
   -3.0103    7.5836    9.8750 H   0  0  0  0  0
   -7.0929    7.2908    8.9570 H   0  0  0  0  0
   -6.1897    8.7667    8.4926 H   0  0  0  0  0
   -5.3211    9.8777    9.8678 H   0  0  0  0  0
   -5.6938    9.9119   11.7545 H   0  0  0  0  0
   -3.7446    6.3607   10.6464 H   0  0  0  0  0
   -5.5051    5.5906   10.3784 H   0  0  0  0  0
   -3.8846    8.0295   13.0680 H   0  0  0  0  0
   -3.0887    7.1228   11.8373 H   0  0  0  0  0
   -7.2629    6.8615   11.5282 H   0  0  0  0  0
   -6.5945    8.1952   12.6474 H   0  0  0  0  0
   -3.1336    5.4672   13.4148 H   0  0  0  0  0
   -4.9202    6.6482    8.3632 H   0  0  0  0  0
   -3.5474    9.6165   11.5182 H   0  0  0  0  0
   -7.6090    9.0765   10.6058 H   0  0  0  0  0
 22  1  1  0  0  0
 15  2  2  0  0  0
 22  3  2  0  0  0
 22  4  2  0  0  0
 18  5  1  0  0  0
 19  5  1  0  0  0
 18  6  1  0  0  0
 20  6  1  0  0  0
 19  7  1  0  0  0
 20  7  1  0  0  0
  8 18  1  0  0  0
 21  8  1  0  0  0
  9 19  1  0  0  0
 21  9  1  0  0  0
 10 20  1  0  0  0
 21 10  1  0  0  0
 12 11  4  0  0  0
 16 11  4  0  0  0
 17 12  4  0  0  0
 13 15  1  0  0  0
 16 13  1  0  0  0
 14 16  4  0  0  0
 17 14  4  0  0  0
 15 21  1  0  0  0
 17 22  1  0  0  0
  1 23  1  0  0  0
  1 24  1  0  0  0
  5 25  1  0  0  0
  5 26  1  0  0  0
  6 27  1  0  0  0
  6 28  1  0  0  0
  7 29  1  0  0  0
  7 30  1  0  0  0
  8 31  1  0  0  0
  8 32  1  0  0  0
  9 33  1  0  0  0
  9 34  1  0  0  0
 10 35  1  0  0  0
 10 36  1  0  0  0
 13 37  1  0  0  0
 18 38  1  0  0  0
 19 39  1  0  0  0
 20 40  1  0  0  0
M  END
$$$$
