### 
### Created by X-TOOL on Mon Sep 10 21:13:21 2018
### 

@<TRIPOS>MOLECULE
5cil_ligand
  249   256     1     0     0
SMALL
GAST_HUCK


@<TRIPOS>ATOM
      1 N          12.7390  -11.9410  -30.8360 N.4       1 ASN         0.2396
      2 CA         13.2650  -11.3980  -29.5560 C.3       1 ASN         0.0818
      3 C          13.8950  -10.0480  -29.8110 C.2       1 ASN         0.2292
      4 O          14.9140   -9.9280  -30.5000 O.2       1 ASN        -0.3905
      5 CB         14.2860  -12.3910  -28.9800 C.3       1 ASN         0.0972
      6 CG         14.8770  -11.9380  -27.6380 C.2       1 ASN         0.1813
      7 OD1        14.4020  -10.9580  -27.0280 O.2       1 ASN        -0.3969
      8 ND2        15.9370  -12.6350  -27.1940 N.am      1 ASN        -0.3006
      9 N          13.3030   -9.0190  -29.2350 N.am      1 TRP        -0.2598
     10 CA         13.8150   -7.6920  -29.3480 C.3       1 TRP         0.1353
     11 C          15.3370   -7.5950  -28.9680 C.2       1 TRP         0.2053
     12 O          16.0400   -6.7360  -29.4940 O.2       1 TRP        -0.3942
     13 CB         13.0040   -6.7760  -28.4360 C.3       1 TRP         0.0042
     14 CG         13.3780   -5.3160  -28.4380 C.2       1 TRP        -0.0418
     15 CD1        12.9050   -4.3500  -29.2390 C.2       1 TRP         0.0167
     16 CD2        14.2540   -4.6700  -27.4920 C.ar      1 TRP        -0.0214
     17 NE1        13.4280   -3.1160  -28.8720 N.pl3     1 TRP        -0.2890
     18 CE2        14.2510   -3.3010  -27.7860 C.ar      1 TRP         0.0603
     19 CE3        15.0330   -5.1340  -26.4210 C.ar      1 TRP        -0.0747
     20 CZ2        15.0090   -2.3760  -27.0640 C.ar      1 TRP        -0.0443
     21 CZ3        15.7710   -4.1710  -25.6650 C.ar      1 TRP        -0.0792
     22 CH2        15.7600   -2.8360  -26.0170 C.ar      1 TRP        -0.0768
     23 N          15.7920   -8.4290  -28.0300 N.am      1 PHE        -0.2618
     24 CA         17.1970   -8.4010  -27.5710 C.3       1 PHE         0.1404
     25 C          18.2170   -8.9080  -28.6060 C.2       1 PHE         0.2060
     26 O          19.4160   -8.8000  -28.3610 O.2       1 PHE        -0.3942
     27 CB         17.3510   -9.1790  -26.2720 C.3       1 PHE         0.0214
     28 CG         16.7290   -8.4670  -25.1140 C.ar      1 PHE        -0.0386
     29 CD1        17.4260   -7.4620  -24.4620 C.ar      1 PHE        -0.0601
     30 CD2        15.4320   -8.7640  -24.7130 C.ar      1 PHE        -0.0601
     31 CE1        16.8510   -6.7850  -23.4020 C.ar      1 PHE        -0.0686
     32 CE2        14.8370   -8.0850  -23.6760 C.ar      1 PHE        -0.0686
     33 CZ         15.5410   -7.0810  -23.0110 C.ar      1 PHE        -0.0687
     34 N          17.7180   -9.4340  -29.7370 N.am      1 ASP        -0.2620
     35 CA         18.5360   -9.9430  -30.8260 C.3       1 ASP         0.1423
     36 C          18.6530   -8.9630  -31.9860 C.2       1 ASP         0.2056
     37 O          19.4670   -9.1470  -32.9040 O.2       1 ASP        -0.3943
     38 CB         17.9100  -11.2410  -31.3310 C.3       1 ASP         0.0406
     39 CG         18.1800  -12.3980  -30.4180 C.2       1 ASP         0.0393
     40 OD1        19.2250  -12.3420  -29.7360 O.co2     1 ASP        -0.5688
     41 OD2        17.4030  -13.3990  -30.3950 O.co2     1 ASP        -0.5688
     42 N          17.8610   -7.9060  -31.9350 N.am      1 ILE        -0.2634
     43 CA         17.7910   -6.9620  -33.0430 C.3       1 ILE         0.1335
     44 C          19.1370   -6.3010  -33.3470 C.2       1 ILE         0.2042
     45 O          19.5760   -6.2130  -34.5310 O.2       1 ILE        -0.3944
     46 CB         16.6850   -5.9210  -32.7960 C.3       1 ILE        -0.0037
     47 CG1        15.3270   -6.6550  -32.8830 C.3       1 ILE        -0.0491
     48 CG2        16.8110   -4.7750  -33.8030 C.3       1 ILE        -0.0582
     49 CD1        14.0940   -5.7900  -32.6890 C.3       1 ILE        -0.0648
     50 N          19.7790   -5.7890  -32.2980 N.am      1 THR        -0.2613
     51 CA         21.0170   -5.0430  -32.5010 C.3       1 THR         0.1565
     52 C          22.1320   -5.9560  -33.0620 C.2       1 THR         0.2066
     53 O          23.0100   -5.4570  -33.7860 O.2       1 THR        -0.3943
     54 CB         21.4660   -4.3260  -31.2210 C.3       1 THR         0.0924
     55 OG1        21.5820   -5.2620  -30.1640 O.3       1 THR        -0.3874
     56 CG2        20.4780   -3.2220  -30.8670 C.3       1 THR        -0.0346
     57 N          22.0640   -7.2590  -32.7680 N.am      1 ASN        -0.2615
     58 CA         22.9590   -8.2450  -33.3490 C.3       1 ASN         0.1476
     59 C          22.7960   -8.2970  -34.8730 C.2       1 ASN         0.2063
     60 O          23.8130   -8.2720  -35.6200 O.2       1 ASN        -0.3942
     61 CB         22.7270   -9.6220  -32.7340 C.3       1 ASN         0.0773
     62 CG         23.7570  -10.6460  -33.1980 C.2       1 ASN         0.1780
     63 OD1        23.4040  -11.7060  -33.7010 O.2       1 ASN        -0.3970
     64 ND2        25.0360  -10.3140  -33.0630 N.am      1 ASN        -0.3007
     65 N          21.5400   -8.2930  -35.3280 N.am      1 TRP        -0.2625
     66 CA         21.2320   -8.2630  -36.7740 C.3       1 TRP         0.1352
     67 C          21.7230   -6.9650  -37.3990 C.2       1 TRP         0.2052
     68 O          22.3760   -6.9830  -38.4480 O.2       1 TRP        -0.3942
     69 CB         19.7260   -8.4730  -37.0820 C.3       1 TRP         0.0042
     70 CG         19.2080   -9.8120  -36.5820 C.2       1 TRP        -0.0418
     71 CD1        19.8710  -11.0150  -36.6350 C.2       1 TRP         0.0167
     72 CD2        17.9400  -10.0860  -35.9370 C.ar      1 TRP        -0.0214
     73 NE1        19.1000  -12.0110  -36.0690 N.pl3     1 TRP        -0.2890
     74 CE2        17.9150  -11.4720  -35.6320 C.ar      1 TRP         0.0603
     75 CE3        16.8230   -9.2980  -35.5920 C.ar      1 TRP        -0.0747
     76 CZ2        16.8140  -12.0880  -34.9980 C.ar      1 TRP        -0.0443
     77 CZ3        15.7270   -9.9150  -34.9480 C.ar      1 TRP        -0.0792
     78 CH2        15.7370  -11.2930  -34.6650 C.ar      1 TRP        -0.0768
     79 N          21.4340   -5.8490  -36.7340 N.am      1 LEU        -0.2636
     80 CA         21.9780   -4.5530  -37.1310 C.3       1 LEU         0.1312
     81 C          23.5100   -4.5700  -37.2530 C.2       1 LEU         0.2040
     82 O          24.0780   -4.0530  -38.2320 O.2       1 LEU        -0.3944
     83 CB         21.5490   -3.4530  -36.1690 C.3       1 LEU        -0.0101
     84 CG         20.0390   -3.1610  -36.0950 C.3       1 LEU        -0.0425
     85 CD1        19.7920   -2.0160  -35.1350 C.3       1 LEU        -0.0625
     86 CD2        19.5070   -2.7950  -37.4800 C.3       1 LEU        -0.0625
     87 N          24.1780   -5.1510  -36.2690 N.am      1 TRP        -0.2627
     88 CA         25.6260   -5.2070  -36.3080 C.3       1 TRP         0.1352
     89 C          26.0940   -5.9750  -37.5570 C.2       1 TRP         0.2053
     90 O          26.9430   -5.4930  -38.3030 O.2       1 TRP        -0.3942
     91 CB         26.1790   -5.8800  -35.0530 C.3       1 TRP         0.0042
     92 CG         27.6540   -5.8280  -34.9680 C.2       1 TRP        -0.0418
     93 CD1        28.4070   -4.7920  -34.5040 C.2       1 TRP         0.0167
     94 CD2        28.5660   -6.8560  -35.3540 C.ar      1 TRP        -0.0214
     95 NE1        29.7460   -5.1130  -34.5700 N.pl3     1 TRP        -0.2890
     96 CE2        29.8720   -6.3710  -35.1010 C.ar      1 TRP         0.0603
     97 CE3        28.4090   -8.1400  -35.8780 C.ar      1 TRP        -0.0747
     98 CZ2        31.0170   -7.1310  -35.3470 C.ar      1 TRP        -0.0443
     99 CZ3        29.5440   -8.8930  -36.1430 C.ar      1 TRP        -0.0792
    100 CH2        30.8370   -8.3800  -35.8870 C.ar      1 TRP        -0.0768
    101 N          25.5390   -7.1620  -37.7630 N.am      1 TYR        -0.2620
    102 CA         26.0060   -8.0630  -38.8210 C.3       1 TYR         0.1390
    103 C          25.7980   -7.4330  -40.2170 C.2       1 TYR         0.2057
    104 O          26.6500   -7.5870  -41.1030 O.2       1 TYR        -0.3942
    105 CB         25.3290   -9.4390  -38.6930 C.3       1 TYR         0.0163
    106 CG         25.7340  -10.4570  -39.7340 C.ar      1 TYR        -0.0493
    107 CD1        27.0780  -10.8400  -39.8910 C.ar      1 TYR        -0.0685
    108 CD2        24.7750  -11.0590  -40.5850 C.ar      1 TYR        -0.0685
    109 CE1        27.4530  -11.7780  -40.8630 C.ar      1 TYR        -0.0398
    110 CE2        25.1500  -12.0010  -41.5480 C.ar      1 TYR        -0.0398
    111 CZ         26.4880  -12.3550  -41.6790 C.ar      1 TYR         0.0805
    112 OH         26.8840  -13.2850  -42.6180 O.3       1 TYR        -0.3376
    113 N          24.7240   -6.6730  -40.4080 N.am      1 ILE        -0.2633
    114 CA         24.4600   -6.0950  -41.7270 C.3       1 ILE         0.1335
    115 C          25.2260   -4.7900  -41.9730 C.2       1 ILE         0.2036
    116 O          25.4140   -4.3890  -43.1000 O.2       1 ILE        -0.3944
    117 CB         22.9330   -5.9650  -41.9900 C.3       1 ILE        -0.0037
    118 CG1        22.3010   -4.8120  -41.2230 C.3       1 ILE        -0.0491
    119 CG2        22.2220   -7.2690  -41.6290 C.3       1 ILE        -0.0582
    120 CD1        20.7800   -4.8500  -41.2130 C.3       1 ILE        -0.0648
    121 N          25.6830   -4.1300  -40.9180 N.am      1 LYS        -0.2695
    122 CA         26.4620   -2.8930  -41.0690 C.3       1 LYS         0.0944
    123 C          27.8650   -3.1430  -41.6480 C.2       1 LYS         0.0601
    124 O          28.6230   -3.9730  -41.1480 O.co2     1 LYS        -0.5666
    125 CB         26.5520   -2.1880  -39.7110 C.3       1 LYS        -0.0177
    126 CG         27.1610   -0.7980  -39.7540 C.3       1 LYS        -0.0446
    127 CD         27.0760   -0.1040  -38.3910 C.3       1 LYS        -0.0125
    128 CE         27.9660    1.1360  -38.3870 C.3       1 LYS        -0.0354
    129 NZ         27.8860    1.9090  -37.1200 N.4       1 LYS         0.2185
    130 OXT        28.2710   -2.5200  -42.6280 O.co2     1 LYS        -0.5666
    131 H1         12.3177  -12.8417  -30.6709 H         1 ASN         0.2017
    132 H2         13.4952  -12.0395  -31.4952 H         1 ASN         0.2017
    133 H3         12.0475  -11.3100  -31.2098 H         1 ASN         0.2017
    134 H4         12.4380  -11.2777  -28.8408 H         1 ASN         0.1125
    135 H5         15.1072  -12.5071  -29.7025 H         1 ASN         0.0585
    136 H6         13.7870  -13.3602  -28.8332 H         1 ASN         0.0585
    137 H7         16.3684  -12.3900  -26.3258 H         1 ASN         0.1814
    138 H8         16.2942  -13.3986  -27.7319 H         1 ASN         0.1814
    139 H9         12.4704   -9.1739  -28.7032 H         1 TRP         0.1886
    140 H10        13.6967   -7.3600  -30.3900 H         1 TRP         0.0815
    141 H11        13.1151   -7.1472  -27.4065 H         1 TRP         0.0397
    142 H12        11.9497   -6.8505  -28.7409 H         1 TRP         0.0397
    143 H13        12.2091   -4.5101  -30.0612 H         1 TRP         0.0795
    144 H14        13.2326   -2.2166  -29.3343 H         1 TRP         0.2216
    145 H15        15.0738   -6.1889  -26.1748 H         1 TRP         0.0540
    146 H16        15.0024   -1.3241  -27.3258 H         1 TRP         0.0541
    147 H17        16.3465   -4.4929  -24.8046 H         1 TRP         0.0510
    148 H18        16.3614   -2.1349  -25.4497 H         1 TRP         0.0530
    149 H19        15.1631   -9.0930  -27.6255 H         1 PHE         0.1885
    150 H20        17.4441   -7.3493  -27.3642 H         1 PHE         0.0823
    151 H21        18.4226   -9.3200  -26.0677 H         1 PHE         0.0474
    152 H22        16.8673  -10.1603  -26.3865 H         1 PHE         0.0474
    153 H23        18.4283   -7.2050  -24.7850 H         1 PHE         0.0557
    154 H24        14.8805   -9.5436  -25.2260 H         1 PHE         0.0557
    155 H25        17.4155   -6.0249  -22.8741 H         1 PHE         0.0599
    156 H26        13.8243   -8.3290  -23.3762 H         1 PHE         0.0599
    157 H27        15.0767   -6.5347  -22.1979 H         1 PHE         0.0559
    158 H28        16.7239   -9.4781  -29.8359 H         1 ASP         0.1884
    159 H29        19.5453  -10.1498  -30.4407 H         1 ASP         0.0819
    160 H30        18.3244  -11.4703  -32.3238 H         1 ASP         0.0478
    161 H31        16.8219  -11.1007  -31.4112 H         1 ASP         0.0478
    162 H32        17.3000   -7.7514  -31.1218 H         1 ILE         0.1883
    163 H33        17.5075   -7.5345  -33.9384 H         1 ILE         0.0803
    164 H34        16.7968   -5.5041  -31.7842 H         1 ILE         0.0345
    165 H35        15.3158   -7.4367  -32.1092 H         1 ILE         0.0267
    166 H36        15.2587   -7.1217  -33.8768 H         1 ILE         0.0267
    167 H37        17.7945   -4.2952  -33.6912 H         1 ILE         0.0235
    168 H38        16.0188   -4.0349  -33.6172 H         1 ILE         0.0235
    169 H39        16.7104   -5.1714  -34.8241 H         1 ILE         0.0235
    170 H40        13.1918   -6.4139  -32.7711 H         1 ILE         0.0230
    171 H41        14.0700   -5.0072  -33.4615 H         1 ILE         0.0230
    172 H42        14.1270   -5.3223  -31.6939 H         1 ILE         0.0230
    173 H43        19.4143   -5.9152  -31.3755 H         1 THR         0.1884
    174 H44        20.8143   -4.2688  -33.2556 H         1 THR         0.0826
    175 H45        22.4517   -3.8705  -31.3966 H         1 THR         0.0639
    176 H46        21.8601   -4.8132  -29.3742 H         1 THR         0.2101
    177 H47        20.8087   -2.7146  -29.9487 H         1 THR         0.0257
    178 H48        19.4817   -3.6594  -30.7057 H         1 THR         0.0257
    179 H49        20.4302   -2.4947  -31.6908 H         1 THR         0.0257
    180 H50        21.3673   -7.5678  -32.1205 H         1 ASN         0.1885
    181 H51        23.9924   -7.9412  -33.1258 H         1 ASN         0.0826
    182 H52        21.7251   -9.9733  -33.0217 H         1 ASN         0.0551
    183 H53        22.7844   -9.5343  -31.6390 H         1 ASN         0.0551
    184 H54        25.7510  -10.9505  -33.3521 H         1 ASN         0.1814
    185 H55        25.2839   -9.4275  -32.6722 H         1 ASN         0.1814
    186 H56        20.7859   -8.3108  -34.6714 H         1 TRP         0.1884
    187 H57        21.7816   -9.0925  -37.2429 H         1 TRP         0.0815
    188 H58        19.5788   -8.4228  -38.1709 H         1 TRP         0.0397
    189 H59        19.1519   -7.6699  -36.5969 H         1 TRP         0.0397
    190 H60        20.8620  -11.1615  -37.0620 H         1 TRP         0.0795
    191 H61        19.3709  -13.0014  -35.9875 H         1 TRP         0.2216
    192 H62        16.8053   -8.2377  -35.8168 H         1 TRP         0.0540
    193 H63        16.8150  -13.1499  -34.7803 H         1 TRP         0.0541
    194 H64        14.8665   -9.3182  -34.6681 H         1 TRP         0.0510
    195 H65        14.8797  -11.7398  -34.1746 H         1 TRP         0.0530
    196 H66        20.8275   -5.8992  -35.9405 H         1 LEU         0.1883
    197 H67        21.5667   -4.3141  -38.1228 H         1 LEU         0.0800
    198 H68        22.0550   -2.5251  -36.4739 H         1 LEU         0.0315
    199 H69        21.8845   -3.7395  -35.1614 H         1 LEU         0.0315
    200 H70        19.5149   -4.0577  -35.7327 H         1 LEU         0.0298
    201 H71        18.7132   -1.8078  -35.0825 H         1 LEU         0.0232
    202 H72        20.3216   -1.1195  -35.4896 H         1 LEU         0.0232
    203 H73        20.1617   -2.2891  -34.1357 H         1 LEU         0.0232
    204 H74        19.6881   -3.6287  -38.1744 H         1 LEU         0.0232
    205 H75        20.0234   -1.8950  -37.8451 H         1 LEU         0.0232
    206 H76        18.4266   -2.5980  -37.4175 H         1 LEU         0.0232
    207 H77        23.6832   -5.5517  -35.4979 H         1 TRP         0.1884
    208 H78        26.0152   -4.1793  -36.3570 H         1 TRP         0.0815
    209 H79        25.8656   -6.9344  -35.0544 H         1 TRP         0.0397
    210 H80        25.7597   -5.3740  -34.1709 H         1 TRP         0.0397
    211 H81        28.0092   -3.8479  -34.1348 H         1 TRP         0.0795
    212 H82        30.5236   -4.5078  -34.2700 H         1 TRP         0.2216
    213 H83        27.4210   -8.5407  -36.0739 H         1 TRP         0.0540
    214 H84        32.0066   -6.7507  -35.1210 H         1 TRP         0.0541
    215 H85        29.4380   -9.8909  -36.5530 H         1 TRP         0.0510
    216 H86        31.7043   -8.9862  -36.1223 H         1 TRP         0.0530
    217 H87        24.7799   -7.4507  -37.1796 H         1 TYR         0.1885
    218 H88        27.0873   -8.2113  -38.6839 H         1 TYR         0.0821
    219 H89        24.2415   -9.2910  -38.7674 H         1 TYR         0.0453
    220 H90        25.5764   -9.8488  -37.7026 H         1 TYR         0.0453
    221 H91        27.8357  -10.4032  -39.2506 H         1 TYR         0.0530
    222 H92        23.7309  -10.7843  -40.4879 H         1 TYR         0.0530
    223 H93        28.4953  -12.0529  -40.9778 H         1 TYR         0.0525
    224 H94        24.4015  -12.4528  -42.1889 H         1 TYR         0.0525
    225 H95        27.8253  -13.4033  -42.5675 H         1 TYR         0.2458
    226 H96        24.0960   -6.4960  -39.6502 H         1 ILE         0.1883
    227 H97        24.8420   -6.8160  -42.4647 H         1 ILE         0.0803
    228 H98        22.7909   -5.7765  -43.0644 H         1 ILE         0.0345
    229 H99        22.6224   -3.8678  -41.6868 H         1 ILE         0.0267
    230 H100       22.6569   -4.8494  -40.1828 H         1 ILE         0.0267
    231 H101       22.6793   -8.1016  -42.1836 H         1 ILE         0.0235
    232 H102       21.1575   -7.1920  -41.8951 H         1 ILE         0.0235
    233 H103       22.3176   -7.4519  -40.5485 H         1 ILE         0.0235
    234 H104       20.3955   -3.9910  -40.6435 H         1 ILE         0.0230
    235 H105       20.4396   -5.7840  -40.7421 H         1 ILE         0.0230
    236 H106       20.4052   -4.8024  -42.2461 H         1 ILE         0.0230
    237 H107       25.4938   -4.4810  -40.0009 H         1 LYS         0.1875
    238 H108       25.9242   -2.2348  -41.7672 H         1 LYS         0.0726
    239 H109       27.1657   -2.8098  -39.0427 H         1 LYS         0.0305
    240 H110       25.5346   -2.1032  -39.3014 H         1 LYS         0.0305
    241 H111       26.6197   -0.1937  -40.4968 H         1 LYS         0.0269
    242 H112       28.2179   -0.8800  -40.0477 H         1 LYS         0.0269
    243 H113       27.4123   -0.7976  -37.6062 H         1 LYS         0.0317
    244 H114       26.0349    0.1930  -38.1965 H         1 LYS         0.0317
    245 H115       27.6580    1.7903  -39.2159 H         1 LYS         0.0813
    246 H116       29.0084    0.8189  -38.5380 H         1 LYS         0.0813
    247 H117       28.4925    2.7120  -37.1775 H         1 LYS         0.1994
    248 H118       28.1744    1.3246  -36.3510 H         1 LYS         0.1994
    249 H119       26.9369    2.2147  -36.9722 H         1 LYS         0.1994
@<TRIPOS>BOND
     1    1    2 1  
     2    2    3 1  
     3    2    5 1  
     4    3    4 2  
     5    3    9 am 
     6    5    6 1  
     7    6    7 2  
     8    6    8 am 
     9    9   10 1  
    10   10   11 1  
    11   10   13 1  
    12   11   12 2  
    13   11   23 am 
    14   13   14 1  
    15   14   15 2  
    16   14   16 1  
    17   15   17 1  
    18   16   18 ar 
    19   16   19 ar 
    20   17   18 1  
    21   18   20 ar 
    22   19   21 ar 
    23   20   22 ar 
    24   21   22 ar 
    25   23   24 1  
    26   24   25 1  
    27   24   27 1  
    28   25   26 2  
    29   25   34 am 
    30   27   28 1  
    31   28   29 ar 
    32   28   30 ar 
    33   29   31 ar 
    34   30   32 ar 
    35   31   33 ar 
    36   32   33 ar 
    37   34   35 1  
    38   35   36 1  
    39   35   38 1  
    40   36   37 2  
    41   36   42 am 
    42   38   39 1  
    43   39   40 ar 
    44   39   41 ar 
    45   42   43 1  
    46   43   44 1  
    47   43   46 1  
    48   44   45 2  
    49   44   50 am 
    50   46   47 1  
    51   46   48 1  
    52   47   49 1  
    53   50   51 1  
    54   51   52 1  
    55   51   54 1  
    56   52   53 2  
    57   52   57 am 
    58   54   55 1  
    59   54   56 1  
    60   57   58 1  
    61   58   59 1  
    62   58   61 1  
    63   59   60 2  
    64   59   65 am 
    65   61   62 1  
    66   62   63 2  
    67   62   64 am 
    68   65   66 1  
    69   66   67 1  
    70   66   69 1  
    71   67   68 2  
    72   67   79 am 
    73   69   70 1  
    74   70   71 2  
    75   70   72 1  
    76   71   73 1  
    77   72   74 ar 
    78   72   75 ar 
    79   73   74 1  
    80   74   76 ar 
    81   75   77 ar 
    82   76   78 ar 
    83   77   78 ar 
    84   79   80 1  
    85   80   81 1  
    86   80   83 1  
    87   81   82 2  
    88   81   87 am 
    89   83   84 1  
    90   84   85 1  
    91   84   86 1  
    92   87   88 1  
    93   88   89 1  
    94   88   91 1  
    95   89   90 2  
    96   89  101 am 
    97   91   92 1  
    98   92   93 2  
    99   92   94 1  
   100   93   95 1  
   101   94   96 ar 
   102   94   97 ar 
   103   95   96 1  
   104   96   98 ar 
   105   97   99 ar 
   106   98  100 ar 
   107   99  100 ar 
   108  101  102 1  
   109  102  103 1  
   110  102  105 1  
   111  103  104 2  
   112  103  113 am 
   113  105  106 1  
   114  106  107 ar 
   115  106  108 ar 
   116  107  109 ar 
   117  108  110 ar 
   118  109  111 ar 
   119  110  111 ar 
   120  111  112 1  
   121  113  114 1  
   122  114  115 1  
   123  114  117 1  
   124  115  116 2  
   125  115  121 am 
   126  117  118 1  
   127  117  119 1  
   128  118  120 1  
   129  121  122 1  
   130  122  123 1  
   131  122  125 1  
   132  123  124 ar 
   133  123  130 ar 
   134  125  126 1  
   135  126  127 1  
   136  127  128 1  
   137  128  129 1  
   138    1  131 1  
   139    1  132 1  
   140    1  133 1  
   141    2  134 1  
   142    5  135 1  
   143    5  136 1  
   144    8  137 1  
   145    8  138 1  
   146    9  139 1  
   147   10  140 1  
   148   13  141 1  
   149   13  142 1  
   150   15  143 1  
   151   17  144 1  
   152   19  145 1  
   153   20  146 1  
   154   21  147 1  
   155   22  148 1  
   156   23  149 1  
   157   24  150 1  
   158   27  151 1  
   159   27  152 1  
   160   29  153 1  
   161   30  154 1  
   162   31  155 1  
   163   32  156 1  
   164   33  157 1  
   165   34  158 1  
   166   35  159 1  
   167   38  160 1  
   168   38  161 1  
   169   42  162 1  
   170   43  163 1  
   171   46  164 1  
   172   47  165 1  
   173   47  166 1  
   174   48  167 1  
   175   48  168 1  
   176   48  169 1  
   177   49  170 1  
   178   49  171 1  
   179   49  172 1  
   180   50  173 1  
   181   51  174 1  
   182   54  175 1  
   183   55  176 1  
   184   56  177 1  
   185   56  178 1  
   186   56  179 1  
   187   57  180 1  
   188   58  181 1  
   189   61  182 1  
   190   61  183 1  
   191   64  184 1  
   192   64  185 1  
   193   65  186 1  
   194   66  187 1  
   195   69  188 1  
   196   69  189 1  
   197   71  190 1  
   198   73  191 1  
   199   75  192 1  
   200   76  193 1  
   201   77  194 1  
   202   78  195 1  
   203   79  196 1  
   204   80  197 1  
   205   83  198 1  
   206   83  199 1  
   207   84  200 1  
   208   85  201 1  
   209   85  202 1  
   210   85  203 1  
   211   86  204 1  
   212   86  205 1  
   213   86  206 1  
   214   87  207 1  
   215   88  208 1  
   216   91  209 1  
   217   91  210 1  
   218   93  211 1  
   219   95  212 1  
   220   97  213 1  
   221   98  214 1  
   222   99  215 1  
   223  100  216 1  
   224  101  217 1  
   225  102  218 1  
   226  105  219 1  
   227  105  220 1  
   228  107  221 1  
   229  108  222 1  
   230  109  223 1  
   231  110  224 1  
   232  112  225 1  
   233  113  226 1  
   234  114  227 1  
   235  117  228 1  
   236  118  229 1  
   237  118  230 1  
   238  119  231 1  
   239  119  232 1  
   240  119  233 1  
   241  120  234 1  
   242  120  235 1  
   243  120  236 1  
   244  121  237 1  
   245  122  238 1  
   246  125  239 1  
   247  125  240 1  
   248  126  241 1  
   249  126  242 1  
   250  127  243 1  
   251  127  244 1  
   252  128  245 1  
   253  128  246 1  
   254  129  247 1  
   255  129  248 1  
   256  129  249 1  
@<TRIPOS>SUBSTRUCTURE
     1 ASN         1

