5cil_ligand
  -I-interpret- 

248255  0  0  0  0  0  0  0  0999 V2000
   12.7390  -11.9410  -30.8360 N   0  3  0  0  0
   13.2650  -11.3980  -29.5560 C   0  0  0  0  0
   13.8950  -10.0480  -29.8110 C   0  0  0  0  0
   14.9140   -9.9280  -30.5000 O   0  0  0  0  0
   14.2860  -12.3910  -28.9800 C   0  0  0  0  0
   14.8770  -11.9380  -27.6380 C   0  0  0  0  0
   14.4020  -10.9580  -27.0280 O   0  0  0  0  0
   15.9370  -12.6350  -27.1940 N   0  0  0  0  0
   13.3030   -9.0190  -29.2350 N   0  0  0  0  0
   13.8150   -7.6920  -29.3480 C   0  0  0  0  0
   15.3370   -7.5950  -28.9680 C   0  0  0  0  0
   16.0400   -6.7360  -29.4940 O   0  0  0  0  0
   13.0040   -6.7760  -28.4360 C   0  0  0  0  0
   13.3780   -5.3160  -28.4380 C   0  0  0  0  0
   12.9050   -4.3500  -29.2390 C   0  0  0  0  0
   14.2540   -4.6700  -27.4920 C   0  0  0  0  0
   13.4280   -3.1160  -28.8720 N   0  0  0  0  0
   14.2510   -3.3010  -27.7860 C   0  0  0  0  0
   15.0330   -5.1340  -26.4210 C   0  0  0  0  0
   15.0090   -2.3760  -27.0640 C   0  0  0  0  0
   15.7710   -4.1710  -25.6650 C   0  0  0  0  0
   15.7600   -2.8360  -26.0170 C   0  0  0  0  0
   15.7920   -8.4290  -28.0300 N   0  0  0  0  0
   17.1970   -8.4010  -27.5710 C   0  0  0  0  0
   18.2170   -8.9080  -28.6060 C   0  0  0  0  0
   19.4160   -8.8000  -28.3610 O   0  0  0  0  0
   17.3510   -9.1790  -26.2720 C   0  0  0  0  0
   16.7290   -8.4670  -25.1140 C   0  0  0  0  0
   17.4260   -7.4620  -24.4620 C   0  0  0  0  0
   15.4320   -8.7640  -24.7130 C   0  0  0  0  0
   16.8510   -6.7850  -23.4020 C   0  0  0  0  0
   14.8370   -8.0850  -23.6760 C   0  0  0  0  0
   15.5410   -7.0810  -23.0110 C   0  0  0  0  0
   17.7180   -9.4340  -29.7370 N   0  0  0  0  0
   18.5360   -9.9430  -30.8260 C   0  0  0  0  0
   18.6530   -8.9630  -31.9860 C   0  0  0  0  0
   19.4670   -9.1470  -32.9040 O   0  0  0  0  0
   17.9100  -11.2410  -31.3310 C   0  0  0  0  0
   18.1800  -12.3980  -30.4180 C   0  0  0  0  0
   19.2250  -12.3420  -29.7360 O   0  0  0  0  0
   17.4030  -13.3990  -30.3950 O   0  0  0  0  0
   17.8610   -7.9060  -31.9350 N   0  0  0  0  0
   17.7910   -6.9620  -33.0430 C   0  0  0  0  0
   19.1370   -6.3010  -33.3470 C   0  0  0  0  0
   19.5760   -6.2130  -34.5310 O   0  0  0  0  0
   16.6850   -5.9210  -32.7960 C   0  0  0  0  0
   15.3270   -6.6550  -32.8830 C   0  0  0  0  0
   16.8110   -4.7750  -33.8030 C   0  0  0  0  0
   14.0940   -5.7900  -32.6890 C   0  0  0  0  0
   19.7790   -5.7890  -32.2980 N   0  0  0  0  0
   21.0170   -5.0430  -32.5010 C   0  0  0  0  0
   22.1320   -5.9560  -33.0620 C   0  0  0  0  0
   23.0100   -5.4570  -33.7860 O   0  0  0  0  0
   21.4660   -4.3260  -31.2210 C   0  0  0  0  0
   21.5820   -5.2620  -30.1640 O   0  0  0  0  0
   20.4780   -3.2220  -30.8670 C   0  0  0  0  0
   22.0640   -7.2590  -32.7680 N   0  0  0  0  0
   22.9590   -8.2450  -33.3490 C   0  0  0  0  0
   22.7960   -8.2970  -34.8730 C   0  0  0  0  0
   23.8130   -8.2720  -35.6200 O   0  0  0  0  0
   22.7270   -9.6220  -32.7340 C   0  0  0  0  0
   23.7570  -10.6460  -33.1980 C   0  0  0  0  0
   23.4040  -11.7060  -33.7010 O   0  0  0  0  0
   25.0360  -10.3140  -33.0630 N   0  0  0  0  0
   21.5400   -8.2930  -35.3280 N   0  0  0  0  0
   21.2320   -8.2630  -36.7740 C   0  0  0  0  0
   21.7230   -6.9650  -37.3990 C   0  0  0  0  0
   22.3760   -6.9830  -38.4480 O   0  0  0  0  0
   19.7260   -8.4730  -37.0820 C   0  0  0  0  0
   19.2080   -9.8120  -36.5820 C   0  0  0  0  0
   19.8710  -11.0150  -36.6350 C   0  0  0  0  0
   17.9400  -10.0860  -35.9370 C   0  0  0  0  0
   19.1000  -12.0110  -36.0690 N   0  0  0  0  0
   17.9150  -11.4720  -35.6320 C   0  0  0  0  0
   16.8230   -9.2980  -35.5920 C   0  0  0  0  0
   16.8140  -12.0880  -34.9980 C   0  0  0  0  0
   15.7270   -9.9150  -34.9480 C   0  0  0  0  0
   15.7370  -11.2930  -34.6650 C   0  0  0  0  0
   21.4340   -5.8490  -36.7340 N   0  0  0  0  0
   21.9780   -4.5530  -37.1310 C   0  0  0  0  0
   23.5100   -4.5700  -37.2530 C   0  0  0  0  0
   24.0780   -4.0530  -38.2320 O   0  0  0  0  0
   21.5490   -3.4530  -36.1690 C   0  0  0  0  0
   20.0390   -3.1610  -36.0950 C   0  0  0  0  0
   19.7920   -2.0160  -35.1350 C   0  0  0  0  0
   19.5070   -2.7950  -37.4800 C   0  0  0  0  0
   24.1780   -5.1510  -36.2690 N   0  0  0  0  0
   25.6260   -5.2070  -36.3080 C   0  0  0  0  0
   26.0940   -5.9750  -37.5570 C   0  0  0  0  0
   26.9430   -5.4930  -38.3030 O   0  0  0  0  0
   26.1790   -5.8800  -35.0530 C   0  0  0  0  0
   27.6540   -5.8280  -34.9680 C   0  0  0  0  0
   28.4070   -4.7920  -34.5040 C   0  0  0  0  0
   28.5660   -6.8560  -35.3540 C   0  0  0  0  0
   29.7460   -5.1130  -34.5700 N   0  0  0  0  0
   29.8720   -6.3710  -35.1010 C   0  0  0  0  0
   28.4090   -8.1400  -35.8780 C   0  0  0  0  0
   31.0170   -7.1310  -35.3470 C   0  0  0  0  0
   29.5440   -8.8930  -36.1430 C   0  0  0  0  0
   30.8370   -8.3800  -35.8870 C   0  0  0  0  0
   25.5390   -7.1620  -37.7630 N   0  0  0  0  0
   26.0060   -8.0630  -38.8210 C   0  0  0  0  0
   25.7980   -7.4330  -40.2170 C   0  0  0  0  0
   26.6500   -7.5870  -41.1030 O   0  0  0  0  0
   25.3290   -9.4390  -38.6930 C   0  0  0  0  0
   25.7340  -10.4570  -39.7340 C   0  0  0  0  0
   27.0780  -10.8400  -39.8910 C   0  0  0  0  0
   24.7750  -11.0590  -40.5850 C   0  0  0  0  0
   27.4530  -11.7780  -40.8630 C   0  0  0  0  0
   25.1500  -12.0010  -41.5480 C   0  0  0  0  0
   26.4880  -12.3550  -41.6790 C   0  0  0  0  0
   26.8840  -13.2850  -42.6180 O   0  0  0  0  0
   24.7240   -6.6730  -40.4080 N   0  0  0  0  0
   24.4600   -6.0950  -41.7270 C   0  0  0  0  0
   25.2260   -4.7900  -41.9730 C   0  0  0  0  0
   25.4140   -4.3890  -43.1000 O   0  0  0  0  0
   22.9330   -5.9650  -41.9900 C   0  0  0  0  0
   22.3010   -4.8120  -41.2230 C   0  0  0  0  0
   22.2220   -7.2690  -41.6290 C   0  0  0  0  0
   20.7800   -4.8500  -41.2130 C   0  0  0  0  0
   25.6830   -4.1300  -40.9180 N   0  0  0  0  0
   26.4620   -2.8930  -41.0690 C   0  0  0  0  0
   27.8650   -3.1430  -41.6480 C   0  0  0  0  0
   28.6230   -3.9730  -41.1480 O   0  0  0  0  0
   26.5520   -2.1880  -39.7110 C   0  0  0  0  0
   27.1610   -0.7980  -39.7540 C   0  0  0  0  0
   27.0760   -0.1040  -38.3910 C   0  0  0  0  0
   27.9660    1.1360  -38.3870 C   0  0  0  0  0
   27.8860    1.9090  -37.1200 N   0  3  0  0  0
   28.2710   -2.5200  -42.6280 O   0  0  0  0  0
   12.0595  -11.2885  -31.2271 H   0  0  0  0  0
   13.5092  -12.0661  -31.4929 H   0  0  0  0  0
   12.2886  -12.8397  -30.6632 H   0  0  0  0  0
   12.4607  -11.2671  -28.8321 H   0  0  0  0  0
   15.1069  -12.4721  -29.6925 H   0  0  0  0  0
   13.7698  -13.3362  -28.8119 H   0  0  0  0  0
   16.3918  -12.3702  -26.3203 H   0  0  0  0  0
   16.2866  -13.4288  -27.7308 H   0  0  0  0  0
   12.4537   -9.1770  -28.6926 H   0  0  0  0  0
   13.7264   -7.3877  -30.3909 H   0  0  0  0  0
   13.1810   -7.1300  -27.4204 H   0  0  0  0  0
   11.9772   -6.8236  -28.7987 H   0  0  0  0  0
   12.2085   -4.5102  -30.0620 H   0  0  0  0  0
   15.0741   -6.1947  -26.1735 H   0  0  0  0  0
   15.0023   -1.3183  -27.3272 H   0  0  0  0  0
   16.3496   -4.4947  -24.7998 H   0  0  0  0  0
   16.3647   -2.1310  -25.4465 H   0  0  0  0  0
   15.1505   -9.1063  -27.6174 H   0  0  0  0  0
   17.4256   -7.3471  -27.4122 H   0  0  0  0  0
   18.4156   -9.2943  -26.0686 H   0  0  0  0  0
   16.8502  -10.1400  -26.3895 H   0  0  0  0  0
   18.4339   -7.2035  -24.7868 H   0  0  0  0  0
   14.8775   -9.5479  -25.2289 H   0  0  0  0  0
   17.4186   -6.0207  -22.8712 H   0  0  0  0  0
   13.8187   -8.3304  -23.3746 H   0  0  0  0  0
   15.0741   -6.5317  -22.1934 H   0  0  0  0  0
   16.7040   -9.4790  -29.8379 H   0  0  0  0  0
   19.5426  -10.1042  -30.4401 H   0  0  0  0  0
   18.3459  -11.4698  -32.3035 H   0  0  0  0  0
   16.8308  -11.0971  -31.3832 H   0  0  0  0  0
   16.6632  -13.2421  -30.9864 H   0  0  0  0  0
   17.2887   -7.7483  -31.1055 H   0  0  0  0  0
   17.5326   -7.5316  -33.9357 H   0  0  0  0  0
   16.7722   -5.4667  -31.8090 H   0  0  0  0  0
   15.3201   -7.3861  -32.0746 H   0  0  0  0  0
   15.2615   -7.0622  -33.8920 H   0  0  0  0  0
   17.7848   -4.2986  -33.6894 H   0  0  0  0  0
   16.7139   -5.1695  -34.8145 H   0  0  0  0  0
   16.0238   -4.0437  -33.6197 H   0  0  0  0  0
   14.1280   -5.3272  -31.7027 H   0  0  0  0  0
   14.0714   -5.0148  -33.4550 H   0  0  0  0  0
   13.2008   -6.4093  -32.7706 H   0  0  0  0  0
   19.4070   -5.9178  -31.3570 H   0  0  0  0  0
   20.8157   -4.2713  -33.2440 H   0  0  0  0  0
   22.4415   -3.8682  -31.3848 H   0  0  0  0  0
   21.8630   -4.8085  -29.3659 H   0  0  0  0  0
   20.4315   -2.5021  -31.6841 H   0  0  0  0  0
   19.4912   -3.6567  -30.7075 H   0  0  0  0  0
   20.8067   -2.7200  -29.9570 H   0  0  0  0  0
   21.3533   -7.5740  -32.1076 H   0  0  0  0  0
   23.9824   -7.9434  -33.1257 H   0  0  0  0  0
   21.7419   -9.9692  -33.0456 H   0  0  0  0  0
   22.8101   -9.5265  -31.6514 H   0  0  0  0  0
   25.7649  -10.9514  -33.3836 H   0  0  0  0  0
   25.2892   -9.4217  -32.6387 H   0  0  0  0  0
   20.7708   -8.3112  -34.6583 H   0  0  0  0  0
   21.7629   -9.1045  -37.2190 H   0  0  0  0  0
   19.5982   -8.4469  -38.1642 H   0  0  0  0  0
   19.1671   -7.6866  -36.5747 H   0  0  0  0  0
   20.8629  -11.1617  -37.0624 H   0  0  0  0  0
   16.8052   -8.2318  -35.8180 H   0  0  0  0  0
   16.8150  -13.1558  -34.7791 H   0  0  0  0  0
   14.8617   -9.3149  -34.6666 H   0  0  0  0  0
   14.8750  -11.7423  -34.1719 H   0  0  0  0  0
   20.8154   -5.9002  -35.9246 H   0  0  0  0  0
   21.5675   -4.3419  -38.1184 H   0  0  0  0  0
   22.0179   -2.5367  -36.5276 H   0  0  0  0  0
   21.8420   -3.7888  -35.1743 H   0  0  0  0  0
   19.5201   -4.0517  -35.7408 H   0  0  0  0  0
   20.1588   -2.2878  -34.1452 H   0  0  0  0  0
   20.3173   -1.1283  -35.4874 H   0  0  0  0  0
   18.7227   -1.8107  -35.0838 H   0  0  0  0  0
   20.0261   -1.9086  -37.8447 H   0  0  0  0  0
   19.6784   -3.6255  -38.1648 H   0  0  0  0  0
   18.4383   -2.5907  -37.4150 H   0  0  0  0  0
   23.6734   -5.5597  -35.4825 H   0  0  0  0  0
   26.0035   -4.1853  -36.3499 H   0  0  0  0  0
   25.8862   -6.9295  -35.0840 H   0  0  0  0  0
   25.7789   -5.3491  -34.1892 H   0  0  0  0  0
   28.0088   -3.8470  -34.1344 H   0  0  0  0  0
   27.4155   -8.5429  -36.0750 H   0  0  0  0  0
   32.0121   -6.7486  -35.1198 H   0  0  0  0  0
   29.4374   -9.8964  -36.5552 H   0  0  0  0  0
   31.7091   -8.9895  -36.1236 H   0  0  0  0  0
   24.7647   -7.4565  -37.1679 H   0  0  0  0  0
   27.0786   -8.2168  -38.7029 H   0  0  0  0  0
   24.2589   -9.2733  -38.8180 H   0  0  0  0  0
   25.6274   -9.8451  -37.7265 H   0  0  0  0  0
   27.8399  -10.4008  -39.2470 H   0  0  0  0  0
   23.7251  -10.7828  -40.4874 H   0  0  0  0  0
   28.5010  -12.0544  -40.9785 H   0  0  0  0  0
   24.3974  -12.4553  -42.1924 H   0  0  0  0  0
   26.1161  -13.5944  -43.1039 H   0  0  0  0  0
   24.0834   -6.4925  -39.6350 H   0  0  0  0  0
   24.8510   -6.7940  -42.4664 H   0  0  0  0  0
   22.8141   -5.7554  -43.0530 H   0  0  0  0  0
   22.6021   -3.8873  -41.7154 H   0  0  0  0  0
   22.6370   -4.8838  -40.1886 H   0  0  0  0  0
   22.6217   -8.0799  -42.2380 H   0  0  0  0  0
   22.3853   -7.4904  -40.5743 H   0  0  0  0  0
   21.1538   -7.1633  -41.8182 H   0  0  0  0  0
   20.4099   -4.8028  -42.2372 H   0  0  0  0  0
   20.4440   -5.7759  -40.7462 H   0  0  0  0  0
   20.4003   -3.9984  -40.6485 H   0  0  0  0  0
   25.4901   -4.4880  -39.9826 H   0  0  0  0  0
   25.9456   -2.2553  -41.7865 H   0  0  0  0  0
   28.1918   -4.3869  -40.3968 H   0  0  0  0  0
   27.1992   -2.7976  -39.0804 H   0  0  0  0  0
   25.5315   -2.0751  -39.3450 H   0  0  0  0  0
   26.6080   -0.2016  -40.4797 H   0  0  0  0  0
   28.2117   -0.8903  -40.0290 H   0  0  0  0  0
   27.4116   -0.7915  -37.6146 H   0  0  0  0  0
   26.0443    0.1918  -38.2005 H   0  0  0  0  0
   27.6292    1.7873  -39.1935 H   0  0  0  0  0
   28.9971    0.8033  -38.5068 H   0  0  0  0  0
   28.5001    2.7213  -37.1793 H   0  0  0  0  0
   26.9252    2.2177  -36.9716 H   0  0  0  0  0
   28.1780    1.3166  -36.3427 H   0  0  0  0  0
  1  2  1  0  0  0
  2  3  1  0  0  0
  2  5  1  0  0  0
  3  4  2  0  0  0
  3  9  1  0  0  0
  5  6  1  0  0  0
  6  7  2  0  0  0
  6  8  1  0  0  0
  9 10  1  0  0  0
 10 11  1  0  0  0
 10 13  1  0  0  0
 11 12  2  0  0  0
 11 23  1  0  0  0
 13 14  1  0  0  0
 14 15  4  0  0  0
 14 16  4  0  0  0
 15 17  4  0  0  0
 16 18  4  0  0  0
 16 19  4  0  0  0
 17 18  4  0  0  0
 18 20  4  0  0  0
 19 21  4  0  0  0
 20 22  4  0  0  0
 21 22  4  0  0  0
 23 24  1  0  0  0
 24 25  1  0  0  0
 24 27  1  0  0  0
 25 26  2  0  0  0
 25 34  1  0  0  0
 27 28  1  0  0  0
 28 29  4  0  0  0
 28 30  4  0  0  0
 29 31  4  0  0  0
 30 32  4  0  0  0
 31 33  4  0  0  0
 32 33  4  0  0  0
 34 35  1  0  0  0
 35 36  1  0  0  0
 35 38  1  0  0  0
 36 37  2  0  0  0
 36 42  1  0  0  0
 38 39  1  0  0  0
 39 40  2  0  0  0
 39 41  1  0  0  0
 42 43  1  0  0  0
 43 44  1  0  0  0
 43 46  1  0  0  0
 44 45  2  0  0  0
 44 50  1  0  0  0
 46 47  1  0  0  0
 46 48  1  0  0  0
 47 49  1  0  0  0
 50 51  1  0  0  0
 51 52  1  0  0  0
 51 54  1  0  0  0
 52 53  2  0  0  0
 52 57  1  0  0  0
 54 55  1  0  0  0
 54 56  1  0  0  0
 57 58  1  0  0  0
 58 59  1  0  0  0
 58 61  1  0  0  0
 59 60  2  0  0  0
 59 65  1  0  0  0
 61 62  1  0  0  0
 62 63  2  0  0  0
 62 64  1  0  0  0
 65 66  1  0  0  0
 66 67  1  0  0  0
 66 69  1  0  0  0
 67 68  2  0  0  0
 67 79  1  0  0  0
 69 70  1  0  0  0
 70 71  4  0  0  0
 70 72  4  0  0  0
 71 73  4  0  0  0
 72 74  4  0  0  0
 72 75  4  0  0  0
 73 74  4  0  0  0
 74 76  4  0  0  0
 75 77  4  0  0  0
 76 78  4  0  0  0
 77 78  4  0  0  0
 79 80  1  0  0  0
 80 81  1  0  0  0
 80 83  1  0  0  0
 81 82  2  0  0  0
 81 87  1  0  0  0
 83 84  1  0  0  0
 84 85  1  0  0  0
 84 86  1  0  0  0
 87 88  1  0  0  0
 88 89  1  0  0  0
 88 91  1  0  0  0
 89 90  2  0  0  0
 89101  1  0  0  0
 91 92  1  0  0  0
 92 93  4  0  0  0
 92 94  4  0  0  0
 93 95  4  0  0  0
 94 96  4  0  0  0
 94 97  4  0  0  0
 95 96  4  0  0  0
 96 98  4  0  0  0
 97 99  4  0  0  0
 98100  4  0  0  0
 99100  4  0  0  0
101102  1  0  0  0
102103  1  0  0  0
102105  1  0  0  0
103104  2  0  0  0
103113  1  0  0  0
105106  1  0  0  0
106107  4  0  0  0
106108  4  0  0  0
107109  4  0  0  0
108110  4  0  0  0
109111  4  0  0  0
110111  4  0  0  0
111112  1  0  0  0
113114  1  0  0  0
114115  1  0  0  0
114117  1  0  0  0
115116  2  0  0  0
115121  1  0  0  0
117118  1  0  0  0
117119  1  0  0  0
118120  1  0  0  0
121122  1  0  0  0
122123  1  0  0  0
122125  1  0  0  0
123124  1  0  0  0
123130  2  0  0  0
125126  1  0  0  0
126127  1  0  0  0
127128  1  0  0  0
128129  1  0  0  0
  1131  1  0  0  0
  1132  1  0  0  0
  1133  1  0  0  0
  2134  1  0  0  0
  5135  1  0  0  0
  5136  1  0  0  0
  8137  1  0  0  0
  8138  1  0  0  0
  9139  1  0  0  0
 10140  1  0  0  0
 13141  1  0  0  0
 13142  1  0  0  0
 15143  1  0  0  0
 19144  1  0  0  0
 20145  1  0  0  0
 21146  1  0  0  0
 22147  1  0  0  0
 23148  1  0  0  0
 24149  1  0  0  0
 27150  1  0  0  0
 27151  1  0  0  0
 29152  1  0  0  0
 30153  1  0  0  0
 31154  1  0  0  0
 32155  1  0  0  0
 33156  1  0  0  0
 34157  1  0  0  0
 35158  1  0  0  0
 38159  1  0  0  0
 38160  1  0  0  0
 41161  1  0  0  0
 42162  1  0  0  0
 43163  1  0  0  0
 46164  1  0  0  0
 47165  1  0  0  0
 47166  1  0  0  0
 48167  1  0  0  0
 48168  1  0  0  0
 48169  1  0  0  0
 49170  1  0  0  0
 49171  1  0  0  0
 49172  1  0  0  0
 50173  1  0  0  0
 51174  1  0  0  0
 54175  1  0  0  0
 55176  1  0  0  0
 56177  1  0  0  0
 56178  1  0  0  0
 56179  1  0  0  0
 57180  1  0  0  0
 58181  1  0  0  0
 61182  1  0  0  0
 61183  1  0  0  0
 64184  1  0  0  0
 64185  1  0  0  0
 65186  1  0  0  0
 66187  1  0  0  0
 69188  1  0  0  0
 69189  1  0  0  0
 71190  1  0  0  0
 75191  1  0  0  0
 76192  1  0  0  0
 77193  1  0  0  0
 78194  1  0  0  0
 79195  1  0  0  0
 80196  1  0  0  0
 83197  1  0  0  0
 83198  1  0  0  0
 84199  1  0  0  0
 85200  1  0  0  0
 85201  1  0  0  0
 85202  1  0  0  0
 86203  1  0  0  0
 86204  1  0  0  0
 86205  1  0  0  0
 87206  1  0  0  0
 88207  1  0  0  0
 91208  1  0  0  0
 91209  1  0  0  0
 93210  1  0  0  0
 97211  1  0  0  0
 98212  1  0  0  0
 99213  1  0  0  0
100214  1  0  0  0
101215  1  0  0  0
102216  1  0  0  0
105217  1  0  0  0
105218  1  0  0  0
107219  1  0  0  0
108220  1  0  0  0
109221  1  0  0  0
110222  1  0  0  0
112223  1  0  0  0
113224  1  0  0  0
114225  1  0  0  0
117226  1  0  0  0
118227  1  0  0  0
118228  1  0  0  0
119229  1  0  0  0
119230  1  0  0  0
119231  1  0  0  0
120232  1  0  0  0
120233  1  0  0  0
120234  1  0  0  0
121235  1  0  0  0
122236  1  0  0  0
124237  1  0  0  0
125238  1  0  0  0
125239  1  0  0  0
126240  1  0  0  0
126241  1  0  0  0
127242  1  0  0  0
127243  1  0  0  0
128244  1  0  0  0
128245  1  0  0  0
129246  1  0  0  0
129247  1  0  0  0
129248  1  0  0  0
M  END
$$$$
