3t0d_ligand
  -I-interpret- 

 22 22  0  0  0  0  0  0  0  0999 V2000
  -11.5520  -26.9130  -25.4670 C   0  0  0  0  0
  -10.5260  -27.9010  -24.9710 C   0  0  0  0  0
   -9.7290  -28.4670  -26.1350 C   0  0  0  0  0
  -10.6780  -28.8850  -27.2530 C   0  0  0  0  0
  -11.3760  -27.6600  -27.8460 C   0  0  0  0  0
  -12.5150  -28.0650  -28.7710 C   0  0  0  0  0
  -12.0940  -26.1480  -24.6940 O   0  0  0  0  0
   -9.6450  -27.3100  -24.0060 O   0  0  0  0  0
   -9.0010  -29.6080  -25.6760 O   0  0  0  0  0
  -11.6510  -29.8100  -26.7460 O   0  0  0  0  0
  -11.9660  -26.8100  -26.8580 O   0  0  0  0  0
  -11.9970  -28.7430  -29.9140 O   0  0  0  0  0
  -11.0615  -28.7126  -24.4784 H   0  0  0  0  0
   -9.0417  -27.7119  -26.5165 H   0  0  0  0  0
  -10.1010  -29.3700  -28.0404 H   0  0  0  0  0
  -10.5846  -27.1287  -28.3748 H   0  0  0  0  0
  -13.0489  -27.1717  -29.0951 H   0  0  0  0  0
  -13.1926  -28.7302  -28.2358 H   0  0  0  0  0
  -10.1608  -26.9570  -23.2774 H   0  0  0  0  0
   -8.4040  -29.3434  -24.9723 H   0  0  0  0  0
  -11.2024  -30.5741  -26.3766 H   0  0  0  0  0
  -12.7217  -28.9944  -30.4912 H   0  0  0  0  0
  1  2  1  0  0  0
  1  7  2  0  0  0
  1 11  1  0  0  0
  2  3  1  0  0  0
  2  8  1  0  0  0
  3  4  1  0  0  0
  3  9  1  0  0  0
  4  5  1  0  0  0
  4 10  1  0  0  0
  5  6  1  0  0  0
  5 11  1  0  0  0
  6 12  1  0  0  0
  2 13  1  0  0  0
  3 14  1  0  0  0
  4 15  1  0  0  0
  5 16  1  0  0  0
  6 17  1  0  0  0
  6 18  1  0  0  0
  8 19  1  0  0  0
  9 20  1  0  0  0
 10 21  1  0  0  0
 12 22  1  0  0  0
M  END
$$$$
