6ugr_ligand
  -I-interpret- 

 19 20  0  0  0  0  0  0  0  0999 V2000
   15.4210    4.9710   15.5750 C   0  0  0  0  0
   16.5470    4.9520   14.7940 C   0  0  0  0  0
   17.1220    3.7410   14.5640 C   0  0  0  0  0
   16.5210    2.6350   15.1560 C   0  0  0  0  0
   15.4280    2.5850   15.9900 C   0  0  0  0  0
   14.8420    3.8450   16.1550 C   0  0  0  0  0
   16.6800    0.0930   15.2120 C   0  0  0  0  0
   14.7920    6.1710   15.7050 F   0  0  0  0  0
   17.2650    1.3780   14.7670 N   0  0  0  0  0
   15.4940   -0.0060   15.9910 N   0  0  0  0  0
   17.1650   -0.8090   14.7060 O   0  0  0  0  0
   15.6210    1.1340   18.1200 O   0  0  0  0  0
   13.4640    1.2090   16.8650 O   0  0  0  0  0
   14.9400    1.2290   16.8060 S   0  0  0  0  0
   16.9638    5.8679   14.3752 H   0  0  0  0  0
   18.0130    3.6417   13.9441 H   0  0  0  0  0
   13.9280    3.9456   16.7403 H   0  0  0  0  0
   18.1280    1.4135   14.2244 H   0  0  0  0  0
   14.9908   -0.8926   16.0242 H   0  0  0  0  0
  1  2  4  0  0  0
  1  6  4  0  0  0
  1  8  1  0  0  0
  2  3  4  0  0  0
  3  4  4  0  0  0
  4  5  4  0  0  0
  4  9  1  0  0  0
  5  6  4  0  0  0
  5 14  1  0  0  0
  9  7  1  0  0  0
  7 10  1  0  0  0
  7 11  2  0  0  0
 10 14  1  0  0  0
 14 12  2  0  0  0
 14 13  2  0  0  0
  2 15  1  0  0  0
  3 16  1  0  0  0
  6 17  1  0  0  0
  9 18  1  0  0  0
 10 19  1  0  0  0
M  END
$$$$
