2gfd_ligand
  -I-interpret- 

 44 45  0  0  0  0  0  0  0  0999 V2000
 -118.6280  -41.6200   54.6740 C   0  0  0  0  0
 -118.5140  -40.2690   54.2170 O   0  0  0  0  0
 -119.6170  -39.9090   53.5060 C   0  0  0  0  0
 -120.0490  -40.6550   52.6290 O   0  0  0  0  0
 -120.3100  -38.5730   53.7910 C   0  0  0  0  0
 -120.7200  -37.8030   52.7060 C   0  0  0  0  0
 -120.4820  -38.2280   51.4370 O   0  0  0  0  0
 -121.3760  -36.5940   52.9100 C   0  0  0  0  0
 -121.6180  -36.1670   54.2110 C   0  0  0  0  0
 -122.2270  -34.9700   54.4230 O   0  0  0  0  0
 -121.2090  -36.9500   55.2870 C   0  0  0  0  0
 -121.6060  -36.4140   56.8840 Cl  0  0  0  0  0
 -120.5420  -38.1610   55.1020 C   0  0  0  0  0
 -120.0600  -38.9960   56.2930 C   0  0  0  0  0
 -118.6730  -38.5490   56.7640 C   0  0  0  0  0
 -117.9960  -39.6180   57.6260 C   0  0  0  0  0
 -116.8920  -40.0690   57.3230 O   0  0  0  0  0
 -118.6940  -40.0290   58.6810 N   0  0  0  0  0
 -118.7380  -39.3410   59.8200 C   0  0  0  0  0
 -119.5180  -38.1920   59.9110 C   0  0  0  0  0
 -119.6320  -37.5170   61.1220 C   0  0  0  0  0
 -120.3040  -36.4900   61.1880 O   0  0  0  0  0
 -118.9710  -37.9890   62.2520 C   0  0  0  0  0
 -119.1550  -37.3410   63.4350 O   0  0  0  0  0
 -118.5020  -37.7820   64.6300 C   0  0  0  0  0
 -118.1810  -39.1320   62.1590 C   0  0  0  0  0
 -118.0640  -39.8060   60.9460 C   0  0  0  0  0
 -117.3610  -40.8120   60.8740 O   0  0  0  0  0
 -119.5064  -41.7133   55.3126 H   0  0  0  0  0
 -118.7285  -42.2851   53.8163 H   0  0  0  0  0
 -117.7357  -41.8873   55.2400 H   0  0  0  0  0
 -120.8270  -37.5834   50.8149 H   0  0  0  0  0
 -121.6962  -35.9892   52.0616 H   0  0  0  0  0
 -122.3205  -34.8226   55.3670 H   0  0  0  0  0
 -120.0007  -40.0393   55.9829 H   0  0  0  0  0
 -120.7636  -38.8648   57.1151 H   0  0  0  0  0
 -118.7884  -37.6464   57.3640 H   0  0  0  0  0
 -118.0524  -38.3724   55.8855 H   0  0  0  0  0
 -119.2148  -40.9035   58.6150 H   0  0  0  0  0
 -120.0414  -37.8197   59.0303 H   0  0  0  0  0
 -118.8059  -38.8049   64.8522 H   0  0  0  0  0
 -117.4220  -37.7453   64.4871 H   0  0  0  0  0
 -118.7826  -37.1304   65.4575 H   0  0  0  0  0
 -117.6526  -39.5003   63.0384 H   0  0  0  0  0
  1  2  1  0  0  0
  2  3  1  0  0  0
  3  4  2  0  0  0
  3  5  1  0  0  0
  5  6  4  0  0  0
  5 13  4  0  0  0
  6  7  1  0  0  0
  6  8  4  0  0  0
  8  9  4  0  0  0
  9 10  1  0  0  0
  9 11  4  0  0  0
 11 12  1  0  0  0
 11 13  4  0  0  0
 13 14  1  0  0  0
 14 15  1  0  0  0
 15 16  1  0  0  0
 16 17  2  0  0  0
 16 18  1  0  0  0
 18 19  1  0  0  0
 19 20  2  0  0  0
 19 27  1  0  0  0
 20 21  1  0  0  0
 21 22  2  0  0  0
 21 23  1  0  0  0
 23 24  1  0  0  0
 23 26  2  0  0  0
 24 25  1  0  0  0
 26 27  1  0  0  0
 27 28  2  0  0  0
  1 29  1  0  0  0
  1 30  1  0  0  0
  1 31  1  0  0  0
  7 32  1  0  0  0
  8 33  1  0  0  0
 10 34  1  0  0  0
 14 35  1  0  0  0
 14 36  1  0  0  0
 15 37  1  0  0  0
 15 38  1  0  0  0
 18 39  1  0  0  0
 20 40  1  0  0  0
 25 41  1  0  0  0
 25 42  1  0  0  0
 25 43  1  0  0  0
 26 44  1  0  0  0
M  END
$$$$
