5qav_ligand
  -I-interpret- 

 29 31  0  0  0  0  0  0  0  0999 V2000
   82.9150  238.7790   31.6630 N   0  0  0  0  0
   79.2220  232.3600   35.9450 C   0  0  0  0  0
   82.4990  239.6910   32.4810 N   0  0  0  0  0
   81.8560  239.0420   33.4720 N   0  0  0  0  0
   80.1050  234.6780   35.6500 C   0  0  0  0  0
   79.8900  236.0280   35.9180 C   0  0  0  0  0
   81.2570  236.6810   34.0440 C   0  0  0  0  0
   80.4570  237.0140   35.1300 C   0  0  0  0  0
   81.8970  237.7290   33.2310 C   0  0  0  0  0
   78.2450  230.0490   36.0680 C   0  0  0  0  0
   78.5900  231.3750   36.6990 C   0  0  0  0  0
   80.9130  234.3520   34.5630 C   0  0  0  0  0
   79.1000  233.8730   37.8010 C   0  0  0  0  0
   78.4810  232.8930   38.5580 C   0  0  0  0  0
   78.2210  231.6520   38.0090 C   0  0  0  0  0
   79.4760  233.6220   36.4810 C   0  0  0  0  0
   81.4760  235.3350   33.7690 C   0  0  0  0  0
   82.5590  237.5420   32.1000 N   0  0  0  0  0
   77.5410  229.2530   36.7320 O   0  0  0  0  0
   78.6350  229.8410   34.8930 O   0  0  0  0  0
   79.5228  232.1415   34.9204 H   0  0  0  0  0
   79.2639  236.3127   36.7636 H   0  0  0  0  0
   80.2741  238.0628   35.3637 H   0  0  0  0  0
   81.1050  233.3038   34.3340 H   0  0  0  0  0
   79.2957  234.8509   38.2408 H   0  0  0  0  0
   78.1980  233.1010   39.5899 H   0  0  0  0  0
   77.7244  230.8874   38.6063 H   0  0  0  0  0
   82.0974  235.0521   32.9194 H   0  0  0  0  0
   79.1580  230.5883   34.5936 H   0  0  0  0  0
  1  3  4  0  0  0
 18  1  4  0  0  0
  2 11  4  0  0  0
 16  2  4  0  0  0
  4  3  4  0  0  0
  9  4  4  0  0  0
  5  6  4  0  0  0
  5 12  4  0  0  0
 16  5  1  0  0  0
  6  8  4  0  0  0
  8  7  4  0  0  0
  7  9  1  0  0  0
 17  7  4  0  0  0
  9 18  4  0  0  0
 11 10  1  0  0  0
 10 19  2  0  0  0
 10 20  1  0  0  0
 11 15  4  0  0  0
 12 17  4  0  0  0
 13 14  4  0  0  0
 13 16  4  0  0  0
 14 15  4  0  0  0
  2 21  1  0  0  0
  6 22  1  0  0  0
  8 23  1  0  0  0
 12 24  1  0  0  0
 13 25  1  0  0  0
 14 26  1  0  0  0
 15 27  1  0  0  0
 17 28  1  0  0  0
 20 29  1  0  0  0
M  END
$$$$
