6ugz_ligand
  -I-interpret- 

 19 20  0  0  0  0  0  0  0  0999 V2000
  -26.4780    5.3360   15.6370 C   0  0  0  0  0
  -25.3310    5.2980   14.8880 C   0  0  0  0  0
  -24.7530    4.0990   14.6800 C   0  0  0  0  0
  -25.3710    2.9970   15.2420 C   0  0  0  0  0
  -26.4920    2.9560   16.0520 C   0  0  0  0  0
  -27.0790    4.2220   16.2130 C   0  0  0  0  0
  -25.2410    0.4360   15.2890 C   0  0  0  0  0
  -27.0710    6.5510   15.7480 F   0  0  0  0  0
  -24.6230    1.7220   14.9080 N   0  0  0  0  0
  -26.4310    0.3800   16.0480 N   0  0  0  0  0
  -24.7140   -0.4810   14.8460 O   0  0  0  0  0
  -26.3170    1.5160   18.1540 O   0  0  0  0  0
  -28.4580    1.5810   16.8750 O   0  0  0  0  0
  -26.9940    1.5910   16.8570 S   0  0  0  0  0
  -24.8999    6.2093   14.4735 H   0  0  0  0  0
  -23.8387    4.0019   14.0946 H   0  0  0  0  0
  -27.9999    4.3306   16.7859 H   0  0  0  0  0
  -23.7201    1.7512   14.4344 H   0  0  0  0  0
  -26.9499   -0.4979   16.0687 H   0  0  0  0  0
  1  2  4  0  0  0
  1  6  4  0  0  0
  1  8  1  0  0  0
  2  3  4  0  0  0
  3  4  4  0  0  0
  4  5  4  0  0  0
  4  9  1  0  0  0
  5  6  4  0  0  0
  5 14  1  0  0  0
  9  7  1  0  0  0
  7 10  1  0  0  0
  7 11  2  0  0  0
 10 14  1  0  0  0
 14 12  2  0  0  0
 14 13  2  0  0  0
  2 15  1  0  0  0
  3 16  1  0  0  0
  6 17  1  0  0  0
  9 18  1  0  0  0
 10 19  1  0  0  0
M  END
$$$$
