2w8j_ligand
  -I-interpret- 

 37 37  0  0  0  0  0  0  0  0999 V2000
    6.3160   15.9230   33.4680 N   0  0  0  0  0
    5.1820   16.5490   34.1570 C   0  0  0  0  0
    4.2160   17.2670   33.2110 C   0  0  0  0  0
    4.8560   18.3710   32.5650 O   0  0  0  0  0
    4.4120   15.4700   34.9000 C   0  0  0  0  0
    4.6930   14.2550   34.7730 O   0  0  0  0  0
    3.5020   15.8120   35.6900 O   0  0  0  0  0
    9.7050   13.6330   30.4760 N   0  0  0  0  0
    9.7350   13.8670   31.7970 C   0  0  0  0  0
   10.9440   13.3940   32.5760 C   0  0  0  0  0
    8.6740   14.5310   32.4040 C   0  0  0  0  0
    8.7250   14.7530   33.7480 O   0  0  0  0  0
    7.5730   14.9430   31.6420 C   0  0  0  0  0
    6.3960   15.6400   32.2360 C   0  0  0  0  0
    7.5860   14.6810   30.2720 C   0  0  0  0  0
    8.6770   14.0280   29.7160 C   0  0  0  0  0
    6.4520   15.0800   29.3570 C   0  0  0  0  0
    6.5740   16.4600   28.9970 O   0  0  0  0  0
    5.2770   17.4160   28.8250 P   0  0  0  0  0
    4.7040   17.5740   30.2020 O   0  0  0  0  0
    4.3870   16.6870   27.8560 O   0  0  0  0  0
    5.8790   18.6900   28.3170 O   0  0  0  0  0
    5.5927   17.3008   34.8310 H   0  0  0  0  0
    3.3730   17.6424   33.7912 H   0  0  0  0  0
    3.8834   16.5615   32.4496 H   0  0  0  0  0
    4.2308   18.8035   31.9787 H   0  0  0  0  0
    5.4052   14.1572   34.1368 H   0  0  0  0  0
   11.0379   12.3125   32.4773 H   0  0  0  0  0
   11.8393   13.8752   32.1823 H   0  0  0  0  0
   10.8221   13.6550   33.6273 H   0  0  0  0  0
    7.9314   15.2169   34.0249 H   0  0  0  0  0
    5.5693   15.9177   31.5821 H   0  0  0  0  0
    8.6968   13.8339   28.6436 H   0  0  0  0  0
    5.5044   14.9271   29.8735 H   0  0  0  0  0
    6.4885   14.4699   28.4545 H   0  0  0  0  0
    4.3296   16.7380   30.4894 H   0  0  0  0  0
    4.0512   15.8886   28.2701 H   0  0  0  0  0
  1  2  1  0  0  0
 14  1  2  0  0  0
  2  3  1  0  0  0
  2  5  1  0  0  0
  3  4  1  0  0  0
  5  6  1  0  0  0
  5  7  2  0  0  0
  9  8  4  0  0  0
  8 16  4  0  0  0
  9 10  1  0  0  0
 11  9  4  0  0  0
 11 12  1  0  0  0
 13 11  4  0  0  0
 13 14  1  0  0  0
 13 15  4  0  0  0
 15 16  4  0  0  0
 15 17  1  0  0  0
 17 18  1  0  0  0
 18 19  1  0  0  0
 19 20  1  0  0  0
 19 21  1  0  0  0
 19 22  2  0  0  0
  2 23  1  0  0  0
  3 24  1  0  0  0
  3 25  1  0  0  0
  4 26  1  0  0  0
  6 27  1  0  0  0
 10 28  1  0  0  0
 10 29  1  0  0  0
 10 30  1  0  0  0
 12 31  1  0  0  0
 14 32  1  0  0  0
 16 33  1  0  0  0
 17 34  1  0  0  0
 17 35  1  0  0  0
 20 36  1  0  0  0
 21 37  1  0  0  0
M  END
$$$$
