4hkn_ligand
  -I-interpret- 

 31 33  0  0  0  0  0  0  0  0999 V2000
    5.8540  -12.4080  -13.5900 C   0  0  0  0  0
    7.4850  -12.7250  -15.3320 O   0  0  0  0  0
    6.1760  -12.5890  -14.9460 C   0  0  0  0  0
    2.7860  -12.4550  -16.4290 O   0  0  0  0  0
    5.1510  -12.5980  -15.9040 C   0  0  0  0  0
    1.1740  -12.2320  -14.6120 O   0  0  0  0  0
    3.8090  -12.4430  -15.5190 C   0  0  0  0  0
    4.2010  -12.0450  -11.9070 O   0  0  0  0  0
    3.4610  -12.2680  -14.1730 C   0  0  0  0  0
    0.6040  -10.2820   -7.4460 O   0  0  0  0  0
    4.5060  -12.2540  -13.2300 C   0  0  0  0  0
    2.7160  -10.9920   -5.9240 O   0  0  0  0  0
    2.1100  -12.1240  -13.7860 C   0  0  0  0  0
    1.8480  -11.9440  -12.4220 C   0  0  0  0  0
    2.9020  -11.8840  -11.4890 C   0  0  0  0  0
    2.7970  -11.6760  -10.1050 C   0  0  0  0  0
    1.6810  -11.0820   -9.4840 C   0  0  0  0  0
    1.6770  -10.8570   -8.0910 C   0  0  0  0  0
    2.7700  -11.2360   -7.2910 C   0  0  0  0  0
    3.8760  -11.8210   -7.9090 C   0  0  0  0  0
    3.8920  -12.0300   -9.2950 C   0  0  0  0  0
    6.6367  -12.3876  -12.8317 H   0  0  0  0  0
    7.5264  -12.8393  -16.2843 H   0  0  0  0  0
    1.9507  -12.3349  -15.9713 H   0  0  0  0  0
    5.3985  -12.7266  -16.9577 H   0  0  0  0  0
    0.7945  -10.2153   -6.5075 H   0  0  0  0  0
    3.5261  -11.3020   -5.5125 H   0  0  0  0  0
    0.8178  -11.8493  -12.0787 H   0  0  0  0  0
    0.8164  -10.7948  -10.0823 H   0  0  0  0  0
    4.7356  -12.1182   -7.3083 H   0  0  0  0  0
    4.7728  -12.4770   -9.7560 H   0  0  0  0  0
  1  3  4  0  0  0
 11  1  4  0  0  0
  3  2  1  0  0  0
  3  5  4  0  0  0
  7  4  1  0  0  0
  7  5  4  0  0  0
 13  6  2  0  0  0
  9  7  4  0  0  0
  8 11  1  0  0  0
 15  8  1  0  0  0
 11  9  4  0  0  0
 13  9  1  0  0  0
 18 10  1  0  0  0
 19 12  1  0  0  0
 14 13  1  0  0  0
 15 14  2  0  0  0
 16 15  1  0  0  0
 17 16  4  0  0  0
 16 21  4  0  0  0
 18 17  4  0  0  0
 18 19  4  0  0  0
 19 20  4  0  0  0
 20 21  4  0  0  0
  1 22  1  0  0  0
  2 23  1  0  0  0
  4 24  1  0  0  0
  5 25  1  0  0  0
 10 26  1  0  0  0
 12 27  1  0  0  0
 14 28  1  0  0  0
 17 29  1  0  0  0
 20 30  1  0  0  0
 21 31  1  0  0  0
M  END
$$$$
