5twl_ligand
  -I-interpret- 

 63 67  0  0  0  0  0  0  0  0999 V2000
   -3.7420   14.0770   -9.0260 N   0  3  0  0  0
   -3.5140   15.5390   -8.8580 C   0  0  0  0  0
   -3.3460   14.0750   -2.1530 O   0  0  0  0  0
   -3.7930   13.7480  -10.4780 C   0  0  0  0  0
   -1.5560   11.4740   -0.4480 C   0  0  0  0  0
   -2.4730   10.3970   -0.9390 C   0  0  0  0  0
   -2.5370    9.1900   -0.1950 C   0  0  0  0  0
   -4.0670    8.2990   -1.6660 C   0  0  0  0  0
   -4.8640    7.1570   -1.9890 C   0  0  0  0  0
   -5.6670    7.1540   -3.0930 C   0  0  0  0  0
   -5.6960    8.3030   -3.9100 C   0  0  0  0  0
   -4.9420    9.3960   -3.6070 C   0  0  0  0  0
   -4.0890    9.4560   -2.4830 C   0  0  0  0  0
   -3.2370   10.5670   -2.0920 C   0  0  0  0  0
   -2.6580   13.2880   -8.3630 C   0  0  0  0  0
   -6.5180    8.3640   -5.1130 C   0  0  0  0  0
   -6.8910    9.6340   -5.5630 C   0  0  0  0  0
   -7.6540    9.7560   -6.7050 C   0  0  0  0  0
   -8.0660    8.6260   -7.4180 C   0  0  0  0  0
   -7.6760    7.3710   -6.9470 C   0  0  0  0  0
   -6.9070    7.2240   -5.8020 C   0  0  0  0  0
   -2.8090   13.3870   -6.8240 C   0  0  0  0  0
   -4.1450   12.8050   -6.3530 C   0  0  0  0  0
   -4.2370   12.8260   -4.8150 C   0  0  0  0  0
   -3.0370   12.0320   -4.2370 C   0  0  0  0  0
   -1.7250   12.7060   -4.6770 C   0  0  0  0  0
   -1.6400   12.6150   -6.1990 C   0  0  0  0  0
   -2.8810   12.9650   -1.9060 C   0  0  0  0  0
   -3.0700   11.8180   -2.7530 N   0  0  0  0  0
   -2.1250   12.7810   -0.7570 N   0  0  0  0  0
   -3.2950    8.1610   -0.5220 N   0  0  0  0  0
   -8.8210    8.8430   -8.5100 O   0  0  0  0  0
   -8.0850   11.3070   -7.2470 Cl  0  0  0  0  0
   -8.1590    5.9720   -7.8190 Cl  0  0  0  0  0
   -4.6289   13.8316   -8.5859 H   0  0  0  0  0
   -3.5012   15.7837   -7.7959 H   0  0  0  0  0
   -2.5582   15.8102   -9.3062 H   0  0  0  0  0
   -4.3164   16.0894   -9.3493 H   0  0  0  0  0
   -2.8360   13.9931  -10.9386 H   0  0  0  0  0
   -3.9951   12.6840  -10.6013 H   0  0  0  0  0
   -4.5851   14.3270  -10.9528 H   0  0  0  0  0
   -0.5875   11.3759   -0.9384 H   0  0  0  0  0
   -1.4317   11.3794    0.6308 H   0  0  0  0  0
   -1.9223    9.1083    0.7014 H   0  0  0  0  0
   -4.8301    6.2777   -1.3458 H   0  0  0  0  0
   -6.2730    6.2817   -3.3378 H   0  0  0  0  0
   -4.9996   10.2649   -4.2626 H   0  0  0  0  0
   -1.6876   13.6873   -8.6579 H   0  0  0  0  0
   -2.7322   12.2440   -8.6675 H   0  0  0  0  0
   -6.5803   10.5229   -5.0140 H   0  0  0  0  0
   -6.6146    6.2344   -5.4510 H   0  0  0  0  0
   -2.7948   14.4327   -6.5168 H   0  0  0  0  0
   -4.2202   11.7732   -6.6962 H   0  0  0  0  0
   -4.9556   13.4077   -6.7625 H   0  0  0  0  0
   -5.1733   12.3704   -4.4929 H   0  0  0  0  0
   -4.2093   13.8546   -4.4555 H   0  0  0  0  0
   -3.1074   11.0256   -4.6496 H   0  0  0  0  0
   -0.8712   12.2057   -4.2201 H   0  0  0  0  0
   -1.7104   13.7485   -4.3592 H   0  0  0  0  0
   -0.6978   13.0468   -6.5366 H   0  0  0  0  0
   -1.6909   11.5697   -6.5037 H   0  0  0  0  0
   -1.9661   13.5651   -0.1242 H   0  0  0  0  0
   -9.0432    8.0021   -8.9163 H   0  0  0  0  0
  1  2  1  0  0  0
  1  4  1  0  0  0
 15  1  1  0  0  0
 28  3  2  0  0  0
  6  5  1  0  0  0
  5 30  1  0  0  0
  6  7  4  0  0  0
 14  6  4  0  0  0
  7 31  4  0  0  0
  8  9  4  0  0  0
 13  8  4  0  0  0
  8 31  4  0  0  0
  9 10  4  0  0  0
 11 10  4  0  0  0
 12 11  4  0  0  0
 11 16  1  0  0  0
 13 12  4  0  0  0
 14 13  4  0  0  0
 29 14  1  0  0  0
 22 15  1  0  0  0
 16 17  4  0  0  0
 16 21  4  0  0  0
 17 18  4  0  0  0
 18 19  4  0  0  0
 18 33  1  0  0  0
 20 19  4  0  0  0
 19 32  1  0  0  0
 21 20  4  0  0  0
 20 34  1  0  0  0
 23 22  1  0  0  0
 27 22  1  0  0  0
 24 23  1  0  0  0
 25 24  1  0  0  0
 25 26  1  0  0  0
 29 25  1  0  0  0
 26 27  1  0  0  0
 28 29  1  0  0  0
 28 30  1  0  0  0
  1 35  1  0  0  0
  2 36  1  0  0  0
  2 37  1  0  0  0
  2 38  1  0  0  0
  4 39  1  0  0  0
  4 40  1  0  0  0
  4 41  1  0  0  0
  5 42  1  0  0  0
  5 43  1  0  0  0
  7 44  1  0  0  0
  9 45  1  0  0  0
 10 46  1  0  0  0
 12 47  1  0  0  0
 15 48  1  0  0  0
 15 49  1  0  0  0
 17 50  1  0  0  0
 21 51  1  0  0  0
 22 52  1  0  0  0
 23 53  1  0  0  0
 23 54  1  0  0  0
 24 55  1  0  0  0
 24 56  1  0  0  0
 25 57  1  0  0  0
 26 58  1  0  0  0
 26 59  1  0  0  0
 27 60  1  0  0  0
 27 61  1  0  0  0
 30 62  1  0  0  0
 32 63  1  0  0  0
M  END
$$$$
