3g2i_ligand
  -I-interpret- 

 33 34  0  0  0  0  0  0  0  0999 V2000
   33.7250   24.4130   25.9160 O   0  0  0  0  0
   33.5290   23.0250   26.2030 C   0  0  0  0  0
   32.4050   22.4270   25.3340 C   0  0  0  0  0
   32.7480   22.4900   23.9510 O   0  0  0  0  0
   32.1730   20.9630   25.7180 C   0  0  0  0  0
   31.0180   20.4990   25.0410 O   0  0  0  0  0
   31.9770   20.8110   27.2380 C   0  0  0  0  0
   31.8230   19.3540   27.6700 C   0  0  0  0  0
   32.8840   18.5750   27.1120 O   0  0  0  0  0
   33.1260   21.3710   27.9090 O   0  0  0  0  0
   33.2030   22.8100   27.6970 C   0  0  0  0  0
   34.2470   23.3150   28.6080 N   0  0  0  0  0
   35.5700   23.2160   28.4750 C   0  0  0  0  0
   33.9720   23.8850   29.6710 N   0  0  0  0  0
   35.0100   24.2020   30.2690 N   0  0  0  0  0
   36.0620   23.8000   29.5550 C   0  0  0  0  0
   37.5380   23.9790   29.9050 C   0  0  0  0  0
   37.6890   24.1030   31.3210 O   0  0  0  0  0
   33.9259   24.5205   24.9834 H   0  0  0  0  0
   34.4610   22.5112   25.9673 H   0  0  0  0  0
   31.4986   23.0075   25.5059 H   0  0  0  0  0
   32.8956   23.4049   23.7004 H   0  0  0  0  0
   33.0469   20.3774   25.4325 H   0  0  0  0  0
   31.1433   20.5950   24.0941 H   0  0  0  0  0
   31.0582   21.3330   27.5054 H   0  0  0  0  0
   30.8662   18.9700   27.3161 H   0  0  0  0  0
   31.8609   19.2922   28.7576 H   0  0  0  0  0
   32.7852   17.6599   27.3848 H   0  0  0  0  0
   32.2809   23.3490   27.9144 H   0  0  0  0  0
   36.1238   22.7555   27.6569 H   0  0  0  0  0
   37.9158   24.8803   29.4223 H   0  0  0  0  0
   38.0983   23.1109   29.5577 H   0  0  0  0  0
   38.6183   24.2151   31.5340 H   0  0  0  0  0
  1  2  1  0  0  0
  2  3  1  0  0  0
  2 11  1  0  0  0
  3  4  1  0  0  0
  3  5  1  0  0  0
  5  6  1  0  0  0
  5  7  1  0  0  0
  7  8  1  0  0  0
  7 10  1  0  0  0
  8  9  1  0  0  0
 10 11  1  0  0  0
 11 12  1  0  0  0
 12 13  4  0  0  0
 12 14  4  0  0  0
 13 16  4  0  0  0
 14 15  4  0  0  0
 15 16  4  0  0  0
 16 17  1  0  0  0
 17 18  1  0  0  0
  1 19  1  0  0  0
  2 20  1  0  0  0
  3 21  1  0  0  0
  4 22  1  0  0  0
  5 23  1  0  0  0
  6 24  1  0  0  0
  7 25  1  0  0  0
  8 26  1  0  0  0
  8 27  1  0  0  0
  9 28  1  0  0  0
 11 29  1  0  0  0
 13 30  1  0  0  0
 17 31  1  0  0  0
 17 32  1  0  0  0
 18 33  1  0  0  0
M  END
$$$$
