5n55_ligand
  -I-interpret- 

 44 47  0  0  0  0  0  0  0  0999 V2000
  -36.3600  -17.8290   24.7560 C   0  0  0  0  0
  -34.8550  -19.9700   24.7310 C   0  0  0  0  0
  -35.1550  -18.4810   24.5650 C   0  0  0  0  0
  -34.2310  -17.4940   24.1930 C   0  0  0  0  0
  -34.8360  -20.0660   27.2560 C   0  0  0  0  0
  -30.5340  -23.5080   24.0650 O   0  0  0  0  0
  -32.6110  -22.1370   25.3840 C   0  0  0  0  0
  -31.4530  -24.2970   24.7550 C   0  0  0  0  0
  -31.4590  -28.5230   25.0000 C   0  0  0  0  0
  -30.4720  -27.9080   24.2570 C   0  0  0  0  0
  -30.4290  -26.5040   24.1590 C   0  0  0  0  0
  -31.4040  -25.7180   24.7860 C   0  0  0  0  0
  -32.3700  -26.3450   25.4960 C   0  0  0  0  0
  -32.4240  -27.7490   25.6160 C   0  0  0  0  0
  -33.3360  -25.5920   26.1400 C   0  0  0  0  0
  -33.3690  -24.2890   26.0860 N   0  0  0  0  0
  -32.4570  -23.6420   25.4220 C   0  0  0  0  0
  -31.8970  -21.4150   24.7830 O   0  0  0  0  0
  -33.8010  -21.6620   26.0270 N   0  0  0  0  0
  -34.0420  -20.2640   26.0010 C   0  0  0  0  0
  -34.9090  -18.9400   27.8080 O   0  0  0  0  0
  -35.4040  -21.0850   27.7340 O   0  0  0  0  0
  -34.9220  -16.2980   24.1740 C   0  0  0  0  0
  -36.1920  -16.5280   24.5260 N   0  0  0  0  0
  -34.2630  -15.1130   23.8360 C   0  0  0  0  0
  -32.9210  -15.1430   23.5150 C   0  0  0  0  0
  -32.2050  -16.3470   23.5340 C   0  0  0  0  0
  -32.8600  -17.5290   23.8780 C   0  0  0  0  0
  -34.5750  -26.4500   27.0500 Cl  0  0  0  0  0
  -37.2967  -18.3039   25.0479 H   0  0  0  0  0
  -34.2681  -20.2942   23.8716 H   0  0  0  0  0
  -35.8047  -20.4994   24.8078 H   0  0  0  0  0
  -30.7581  -22.5818   24.1814 H   0  0  0  0  0
  -31.4773  -29.6083   25.1000 H   0  0  0  0  0
  -29.7230  -28.5113   23.7441 H   0  0  0  0  0
  -29.6312  -26.0254   23.5911 H   0  0  0  0  0
  -33.2213  -28.2204   26.1906 H   0  0  0  0  0
  -34.4486  -22.3034   26.4849 H   0  0  0  0  0
  -33.1679  -19.6135   25.9722 H   0  0  0  0  0
  -35.2294  -21.8416   27.1695 H   0  0  0  0  0
  -34.8068  -14.1684   23.8259 H   0  0  0  0  0
  -32.4118  -14.2183   23.2433 H   0  0  0  0  0
  -31.1446  -16.3597   23.2820 H   0  0  0  0  0
  -32.3145  -18.4723   23.9027 H   0  0  0  0  0
  3  1  4  0  0  0
  1 24  4  0  0  0
  2  3  1  0  0  0
 20  2  1  0  0  0
  3  4  4  0  0  0
  4 23  4  0  0  0
  4 28  4  0  0  0
 20  5  1  0  0  0
  5 21  2  0  0  0
  5 22  1  0  0  0
  8  6  1  0  0  0
  7 17  1  0  0  0
  7 18  2  0  0  0
 19  7  1  0  0  0
  8 12  4  0  0  0
 17  8  4  0  0  0
 10  9  4  0  0  0
 14  9  4  0  0  0
 11 10  4  0  0  0
 12 11  4  0  0  0
 12 13  4  0  0  0
 13 14  4  0  0  0
 15 13  4  0  0  0
 16 15  4  0  0  0
 15 29  1  0  0  0
 17 16  4  0  0  0
 19 20  1  0  0  0
 23 24  4  0  0  0
 23 25  4  0  0  0
 25 26  4  0  0  0
 26 27  4  0  0  0
 27 28  4  0  0  0
  1 30  1  0  0  0
  2 31  1  0  0  0
  2 32  1  0  0  0
  6 33  1  0  0  0
  9 34  1  0  0  0
 10 35  1  0  0  0
 11 36  1  0  0  0
 14 37  1  0  0  0
 19 38  1  0  0  0
 20 39  1  0  0  0
 22 40  1  0  0  0
 25 41  1  0  0  0
 26 42  1  0  0  0
 27 43  1  0  0  0
 28 44  1  0  0  0
M  END
$$$$
