4dij_ligand
  -I-interpret- 

 69 74  0  0  0  0  0  0  0  0999 V2000
   12.7090   -9.0750   18.8870 Cl  0  0  0  0  0
   12.0520   -7.6310   18.1510 C   0  0  0  0  0
    8.7670   -6.0910   22.2560 Cl  0  0  0  0  0
   12.7340   -6.4230   18.3160 C   0  0  0  0  0
   12.1610   -5.3010   17.7070 C   0  0  0  0  0
   12.5870   -4.0290   17.7100 N   0  0  0  0  0
   11.7800   -3.2440   17.0240 C   0  0  0  0  0
   10.7620   -3.9760   16.5050 C   0  0  0  0  0
   10.9960   -5.3890   16.9740 C   0  0  0  0  0
   10.3070   -6.5850   16.7980 C   0  0  0  0  0
   10.8650   -7.7180   17.4000 C   0  0  0  0  0
    9.5420   -3.6910   15.7060 C   0  0  0  0  0
    8.4990   -3.0080   16.1850 N   0  0  0  0  0
    7.5430   -2.9440   15.2960 C   0  0  0  0  0
    7.8920   -3.5820   14.2700 N   0  0  0  0  0
    9.2090   -4.1250   14.4630 C   0  0  0  0  0
    9.9100   -4.9320   13.3980 C   0  0  0  0  0
   11.3070   -4.9210   13.3500 C   0  0  0  0  0
   11.9860   -5.6430   12.3550 C   0  0  0  0  0
   11.2530   -6.3720   11.4080 C   0  0  0  0  0
    9.8570   -6.3800   11.4430 C   0  0  0  0  0
    9.1840   -5.6520   12.4330 C   0  0  0  0  0
    8.4020   -2.3500   17.4820 C   0  0  0  0  0
    8.4870   -3.3210   18.6600 C   0  0  0  0  0
    7.8890   -4.5910   18.6150 C   0  0  0  0  0
    7.9810   -5.4480   19.7210 C   0  0  0  0  0
    8.6630   -5.0230   20.8690 C   0  0  0  0  0
    9.2600   -3.7520   20.9160 C   0  0  0  0  0
    9.1770   -2.8980   19.8040 C   0  0  0  0  0
   12.0350   -1.8030   16.8540 C   0  0  0  0  0
   12.9800   -1.3500   17.4920 O   0  0  0  0  0
   11.2970   -1.0570   16.0050 N   0  0  0  0  0
   11.5740    0.3650   15.8210 C   0  0  0  0  0
   11.4420    0.7060   14.3170 C   0  0  0  0  0
   10.0940    0.3220   13.8200 N   0  3  0  0  0
   10.0240    0.0680   12.3590 C   0  0  0  0  0
    8.6370   -0.5130   11.9940 C   0  0  0  0  0
    7.5890    0.3420   12.4850 O   0  0  0  0  0
    7.6240    0.5300   13.9140 C   0  0  0  0  0
    8.9770    1.1740   14.3090 C   0  0  0  0  0
   13.6602   -6.3581   18.8869 H   0  0  0  0  0
    9.3828   -6.6364   16.2224 H   0  0  0  0  0
   10.3724   -8.6836   17.2855 H   0  0  0  0  0
    6.5950   -2.4213   15.4235 H   0  0  0  0  0
   11.8713   -4.3501   14.0874 H   0  0  0  0  0
   13.0754   -5.6366   12.3193 H   0  0  0  0  0
   11.7773   -6.9375   10.6377 H   0  0  0  0  0
    9.2938   -6.9497   10.7039 H   0  0  0  0  0
    8.0943   -5.6438   12.4551 H   0  0  0  0  0
    7.4307   -1.8577   17.5300 H   0  0  0  0  0
    9.2402   -1.6580   17.5641 H   0  0  0  0  0
    7.3537   -4.9103   17.7208 H   0  0  0  0  0
    7.5253   -6.4376   19.6880 H   0  0  0  0  0
    9.7867   -3.4292   21.8140 H   0  0  0  0  0
    9.6455   -1.9142   19.8306 H   0  0  0  0  0
   10.5353   -1.4925   15.4848 H   0  0  0  0  0
   12.5827    0.5932   16.1652 H   0  0  0  0  0
   10.8650    0.9580   16.3986 H   0  0  0  0  0
   12.1986    0.1550   13.7584 H   0  0  0  0  0
   11.5804    1.7786   14.1807 H   0  0  0  0  0
    9.9450   -0.5853   14.2616 H   0  0  0  0  0
   10.7987   -0.6461   12.0798 H   0  0  0  0  0
   10.1749    1.0048   11.8226 H   0  0  0  0  0
    8.5339   -1.4978   12.4496 H   0  0  0  0  0
    8.5570   -0.5851   10.9093 H   0  0  0  0  0
    7.5174   -0.4333   14.4128 H   0  0  0  0  0
    6.8053    1.1824   14.2177 H   0  0  0  0  0
    9.0525    2.1644   13.8602 H   0  0  0  0  0
    9.0347    1.2609   15.3940 H   0  0  0  0  0
  2  1  1  0  0  0
  4  2  4  0  0  0
 11  2  4  0  0  0
 27  3  1  0  0  0
  5  4  4  0  0  0
  5  6  4  0  0  0
  9  5  4  0  0  0
  7  6  4  0  0  0
  8  7  4  0  0  0
  7 30  1  0  0  0
  8  9  4  0  0  0
 12  8  1  0  0  0
  9 10  4  0  0  0
 10 11  4  0  0  0
 13 12  4  0  0  0
 12 16  4  0  0  0
 13 14  4  0  0  0
 23 13  1  0  0  0
 14 15  4  0  0  0
 15 16  4  0  0  0
 16 17  1  0  0  0
 17 18  4  0  0  0
 17 22  4  0  0  0
 18 19  4  0  0  0
 19 20  4  0  0  0
 21 20  4  0  0  0
 22 21  4  0  0  0
 24 23  1  0  0  0
 25 24  4  0  0  0
 24 29  4  0  0  0
 26 25  4  0  0  0
 26 27  4  0  0  0
 27 28  4  0  0  0
 28 29  4  0  0  0
 30 31  2  0  0  0
 30 32  1  0  0  0
 32 33  1  0  0  0
 33 34  1  0  0  0
 34 35  1  0  0  0
 35 36  1  0  0  0
 35 40  1  0  0  0
 36 37  1  0  0  0
 37 38  1  0  0  0
 38 39  1  0  0  0
 39 40  1  0  0  0
  4 41  1  0  0  0
 10 42  1  0  0  0
 11 43  1  0  0  0
 14 44  1  0  0  0
 18 45  1  0  0  0
 19 46  1  0  0  0
 20 47  1  0  0  0
 21 48  1  0  0  0
 22 49  1  0  0  0
 23 50  1  0  0  0
 23 51  1  0  0  0
 25 52  1  0  0  0
 26 53  1  0  0  0
 28 54  1  0  0  0
 29 55  1  0  0  0
 32 56  1  0  0  0
 33 57  1  0  0  0
 33 58  1  0  0  0
 34 59  1  0  0  0
 34 60  1  0  0  0
 35 61  1  0  0  0
 36 62  1  0  0  0
 36 63  1  0  0  0
 37 64  1  0  0  0
 37 65  1  0  0  0
 39 66  1  0  0  0
 39 67  1  0  0  0
 40 68  1  0  0  0
 40 69  1  0  0  0
M  END
$$$$
