5nzq_ligand
  -I-interpret- 

 20 21  0  0  0  0  0  0  0  0999 V2000
  -23.9410   14.1580    8.5070 N   0  0  0  0  0
  -25.5980   11.8370    6.1810 C   0  0  0  0  0
  -24.7670   12.3120    7.1660 C   0  0  0  0  0
  -26.4230   12.7100    5.4930 C   0  0  0  0  0
  -28.4120   16.7250    4.5330 C   0  0  0  0  0
  -28.1680   14.7150    4.0170 C   0  0  0  0  0
  -25.5800   14.5540    6.7860 C   0  0  0  0  0
  -28.8650   15.8130    3.6790 N   0  0  0  0  0
  -27.3490   16.3270    5.3290 O   0  0  0  0  0
  -24.7720   13.6700    7.4930 C   0  0  0  0  0
  -26.4210   14.0730    5.7920 C   0  0  0  0  0
  -27.2870   14.9660    5.0420 C   0  0  0  0  0
  -23.3259   13.5209    9.0132 H   0  0  0  0  0
  -23.9501   15.1509    8.7402 H   0  0  0  0  0
  -25.6078   10.7737    5.9413 H   0  0  0  0  0
  -24.1023   11.6279    7.6936 H   0  0  0  0  0
  -27.0799   12.3294    4.7109 H   0  0  0  0  0
  -28.8481   17.7215    4.6030 H   0  0  0  0  0
  -28.2867   13.7436    3.5369 H   0  0  0  0  0
  -25.5530   15.6201    7.0115 H   0  0  0  0  0
 10  1  1  0  0  0
  2  3  4  0  0  0
  4  2  4  0  0  0
 10  3  4  0  0  0
 11  4  4  0  0  0
  5  8  4  0  0  0
  9  5  4  0  0  0
  6  8  4  0  0  0
 12  6  4  0  0  0
  7 10  4  0  0  0
 11  7  4  0  0  0
 12  9  4  0  0  0
 11 12  1  0  0  0
  1 13  1  0  0  0
  1 14  1  0  0  0
  2 15  1  0  0  0
  3 16  1  0  0  0
  4 17  1  0  0  0
  5 18  1  0  0  0
  6 19  1  0  0  0
  7 20  1  0  0  0
M  END
$$$$
