2wnl_ligand
  -I-interpret- 

 28 28  0  0  0  0  0  0  0  0999 V2000
   45.6900   25.0290   52.7880 C   0  0  0  0  0
   44.6580   25.9580   52.6380 C   0  0  0  0  0
   44.9430   27.3130   52.4950 C   0  0  0  0  0
   46.2080   27.7350   52.5100 N   0  0  0  0  0
   47.2060   26.8420   52.6630 C   0  0  0  0  0
   47.0090   25.4720   52.7850 C   0  0  0  0  0
   48.2080   24.5580   52.9910 C   0  0  0  0  0
   48.8810   23.6720   51.9500 C   0  0  0  0  0
   50.3670   23.4510   52.3290 C   0  0  0  0  0
   48.6890   24.5320   54.1090 O   0  0  0  0  0
   51.4930   21.3550   51.4210 C   0  0  0  0  0
   52.1380   20.1140   51.8090 N   0  3  0  0  0
   50.7610   21.9950   52.6060 C   0  0  0  0  0
   45.4647   23.9691   52.9061 H   0  0  0  0  0
   43.6219   25.6196   52.6329 H   0  0  0  0  0
   44.1314   28.0299   52.3706 H   0  0  0  0  0
   48.2290   27.2171   52.6928 H   0  0  0  0  0
   48.8263   24.1567   50.9752 H   0  0  0  0  0
   48.3717   22.7090   51.9135 H   0  0  0  0  0
   50.5396   24.0030   53.2529 H   0  0  0  0  0
   50.9597   23.7784   51.4748 H   0  0  0  0  0
   50.7652   21.1386   50.6389 H   0  0  0  0  0
   52.2569   22.0483   51.0690 H   0  0  0  0  0
   52.6152   19.7133   51.0015 H   0  0  0  0  0
   52.8159   20.3011   52.5478 H   0  0  0  0  0
   51.4345   19.4586   52.1495 H   0  0  0  0  0
   49.8489   21.4264   52.7871 H   0  0  0  0  0
   51.4327   21.9838   53.4644 H   0  0  0  0  0
  1  2  4  0  0  0
  6  1  4  0  0  0
  2  3  4  0  0  0
  4  3  4  0  0  0
  5  4  4  0  0  0
  6  5  4  0  0  0
  7  6  1  0  0  0
  8  7  1  0  0  0
  7 10  2  0  0  0
  9  8  1  0  0  0
 13  9  1  0  0  0
 11 12  1  0  0  0
 11 13  1  0  0  0
  1 14  1  0  0  0
  2 15  1  0  0  0
  3 16  1  0  0  0
  5 17  1  0  0  0
  8 18  1  0  0  0
  8 19  1  0  0  0
  9 20  1  0  0  0
  9 21  1  0  0  0
 11 22  1  0  0  0
 11 23  1  0  0  0
 12 24  1  0  0  0
 12 25  1  0  0  0
 12 26  1  0  0  0
 13 27  1  0  0  0
 13 28  1  0  0  0
M  END
$$$$
