3n2v_ligand
  -I-interpret- 

 42 43  0  0  0  0  0  0  0  0999 V2000
    1.7480   -1.9720    4.1270 C   0  0  0  0  0
    0.5840   -2.6100    3.3570 C   0  0  0  0  0
    2.0910   -4.2340    2.2050 C   0  0  0  0  0
    1.3560   -1.3850    5.2190 N   0  0  0  0  0
    2.3080   -0.8300    5.9880 O   0  0  0  0  0
    2.9480   -1.9900    3.8440 O   0  0  0  0  0
    1.0200   -3.9710    3.2200 N   0  0  0  0  0
    0.7400   -5.1240    4.2050 S   0  0  0  0  0
    1.6090   -4.3010    0.7770 C   0  0  0  0  0
    0.8810   -3.1050    0.4510 O   0  0  0  0  0
    0.5690   -6.3930    3.4610 O   0  0  0  0  0
    2.0000   -5.3150    5.2240 C   0  0  0  0  0
   -0.4210   -4.9260    5.0770 O   0  0  0  0  0
    3.1090   -6.0710    4.8390 C   0  0  0  0  0
    4.1950   -6.3050    5.6550 C   0  0  0  0  0
    4.1370   -5.7880    6.9720 C   0  0  0  0  0
    3.0540   -4.9820    7.3670 C   0  0  0  0  0
    1.9840   -4.7290    6.5030 C   0  0  0  0  0
    5.2690   -6.0910    7.8960 C   0  0  0  0  0
    4.9760   -6.4030    9.2640 C   0  0  0  0  0
    6.0220   -6.6960   10.1740 C   0  0  0  0  0
    7.3620   -6.7730    9.7210 C   0  0  0  0  0
    7.6260   -6.5490    8.3480 C   0  0  0  0  0
    6.5860   -6.2270    7.4530 C   0  0  0  0  0
    0.3836   -2.1248    2.4017 H   0  0  0  0  0
   -0.3734   -2.5151    3.8693 H   0  0  0  0  0
    2.5168   -5.2093    2.4407 H   0  0  0  0  0
    2.7923   -3.4016    2.2629 H   0  0  0  0  0
    0.3707   -1.3475    5.4800 H   0  0  0  0  0
    1.9012   -0.4299    6.7601 H   0  0  0  0  0
    0.9545   -5.1645    0.6581 H   0  0  0  0  0
    2.4672   -4.3927    0.1113 H   0  0  0  0  0
    0.5775   -3.1544   -0.4584 H   0  0  0  0  0
    3.1164   -6.5002    3.8371 H   0  0  0  0  0
    5.0614   -6.8641    5.3016 H   0  0  0  0  0
    3.0487   -4.5461    8.3660 H   0  0  0  0  0
    1.1559   -4.0919    6.8135 H   0  0  0  0  0
    3.9413   -6.4150    9.6067 H   0  0  0  0  0
    5.7946   -6.8628   11.2269 H   0  0  0  0  0
    8.1721   -6.9997   10.4142 H   0  0  0  0  0
    8.6483   -6.6267    7.9779 H   0  0  0  0  0
    6.8137   -6.0817    6.3970 H   0  0  0  0  0
  1  2  1  0  0  0
  1  4  1  0  0  0
  1  6  2  0  0  0
  2  7  1  0  0  0
  7  3  1  0  0  0
  3  9  1  0  0  0
  4  5  1  0  0  0
  7  8  1  0  0  0
  8 11  2  0  0  0
  8 12  1  0  0  0
  8 13  2  0  0  0
  9 10  1  0  0  0
 12 14  4  0  0  0
 12 18  4  0  0  0
 14 15  4  0  0  0
 15 16  4  0  0  0
 16 17  4  0  0  0
 16 19  1  0  0  0
 17 18  4  0  0  0
 19 20  4  0  0  0
 19 24  4  0  0  0
 20 21  4  0  0  0
 21 22  4  0  0  0
 22 23  4  0  0  0
 23 24  4  0  0  0
  2 25  1  0  0  0
  2 26  1  0  0  0
  3 27  1  0  0  0
  3 28  1  0  0  0
  4 29  1  0  0  0
  5 30  1  0  0  0
  9 31  1  0  0  0
  9 32  1  0  0  0
 10 33  1  0  0  0
 14 34  1  0  0  0
 15 35  1  0  0  0
 17 36  1  0  0  0
 18 37  1  0  0  0
 20 38  1  0  0  0
 21 39  1  0  0  0
 22 40  1  0  0  0
 23 41  1  0  0  0
 24 42  1  0  0  0
M  END
$$$$
