4ojq_ligand
  -I-interpret- 

 21 22  0  0  0  0  0  0  0  0999 V2000
  -16.0640  -32.0090   35.8060 O   0  0  0  0  0
  -16.7190  -31.0290   36.1060 C   0  0  0  0  0
  -17.0260  -30.8190   37.3950 O   0  0  0  0  0
  -17.2010  -30.0440   35.0540 C   0  0  0  0  0
  -17.8360  -30.7270   33.8640 C   0  0  0  0  0
  -18.7830  -31.8340   33.9370 C   0  0  0  0  0
  -19.3290  -32.5310   35.0100 C   0  0  0  0  0
  -20.2050  -33.5600   34.7860 C   0  0  0  0  0
  -20.8930  -34.4900   36.3000 Br  0  0  0  0  0
  -17.6550  -30.4600   32.5560 C   0  0  0  0  0
  -18.4300  -31.3080   31.7910 N   0  0  0  0  0
  -19.1250  -32.1690   32.6140 C   0  0  0  0  0
  -20.0150  -33.2150   32.3970 C   0  0  0  0  0
  -20.5500  -33.8950   33.4740 C   0  0  0  0  0
  -17.5417  -30.0130   37.4728 H   0  0  0  0  0
  -16.3360  -29.4849   34.6972 H   0  0  0  0  0
  -17.9539  -29.4041   35.5142 H   0  0  0  0  0
  -19.0594  -32.2580   36.0302 H   0  0  0  0  0
  -16.9943  -29.6885   32.1604 H   0  0  0  0  0
  -20.2896  -33.4975   31.3807 H   0  0  0  0  0
  -21.2543  -34.7079   33.2970 H   0  0  0  0  0
  1  2  2  0  0  0
  2  3  1  0  0  0
  2  4  1  0  0  0
  4  5  1  0  0  0
  5  6  4  0  0  0
  5 10  4  0  0  0
  6  7  4  0  0  0
  6 12  4  0  0  0
  7  8  4  0  0  0
  8  9  1  0  0  0
  8 14  4  0  0  0
 10 11  4  0  0  0
 11 12  4  0  0  0
 12 13  4  0  0  0
 13 14  4  0  0  0
  3 15  1  0  0  0
  4 16  1  0  0  0
  4 17  1  0  0  0
  7 18  1  0  0  0
 10 19  1  0  0  0
 13 20  1  0  0  0
 14 21  1  0  0  0
M  END
$$$$
