### 
### Created by X-TOOL on Mon Sep 10 21:13:13 2018
### 

@<TRIPOS>MOLECULE
4jjm_ligand
  196   196     1     0     0
SMALL
GAST_HUCK


@<TRIPOS>ATOM
      1 N         -24.7580   56.9640  -10.0970 N.am      1 DAL        -0.2640
      2 CA        -23.4130   57.3650   -9.6920 C.3       1 DAL         0.1284
      3 CB        -22.4370   57.1530  -10.8360 C.3       1 DAL        -0.0244
      4 C         -22.9480   56.6090   -8.4460 C.2       1 DAL         0.2059
      5 O         -23.1330   55.3950   -8.3470 O.2       1 DAL        -0.3942
      6 N         -22.3380   57.3250   -7.5000 N.am      1 MLE        -0.2529
      7 CN        -22.1430   58.7620   -7.6050 C.3       1 MLE         0.0254
      8 CA        -21.8920   56.7020   -6.2620 C.3       1 MLE         0.1338
      9 CB        -20.3700   56.7350   -6.1620 C.3       1 MLE        -0.0099
     10 CG        -19.6960   56.0230   -7.3260 C.3       1 MLE        -0.0425
     11 CD1       -18.1850   56.2110   -7.2730 C.3       1 MLE        -0.0625
     12 CD2       -20.0520   54.5430   -7.3350 C.3       1 MLE        -0.0625
     13 C         -22.4450   57.4070   -5.0530 C.2       1 MLE         0.2064
     14 O         -21.6090   58.2530   -4.2990 O.2       1 MLE        -0.3942
     15 N         -23.7190   57.1800   -4.7350 N.am      1 MLE        -0.2529
     16 CN        -24.5490   56.2480   -5.4890 C.3       1 MLE         0.0254
     17 CA        -24.3450   57.8980   -3.6280 C.3       1 MLE         0.1338
     18 CB        -25.6080   58.5930   -4.1560 C.3       1 MLE        -0.0099
     19 CG        -25.2940   59.6490   -5.2210 C.3       1 MLE        -0.0425
     20 CD1       -26.5240   60.4810   -5.5680 C.3       1 MLE        -0.0625
     21 CD2       -24.1380   60.5490   -4.8000 C.3       1 MLE        -0.0625
     22 C         -24.6310   57.0280   -2.4190 C.2       1 MLE         0.2064
     23 O         -24.8290   55.6430   -2.5680 O.2       1 MLE        -0.3942
     24 N         -24.9110   57.5440   -1.3160 N.am      1 MVA        -0.2526
     25 CN        -24.7860   58.8730   -0.8740 C.3       1 MVA         0.0254
     26 CA        -25.4660   56.6040   -0.3400 C.3       1 MVA         0.1359
     27 CB        -24.4150   55.9350    0.5850 C.3       1 MVA        -0.0061
     28 CG1       -24.8240   55.4670    1.9740 C.3       1 MVA        -0.0584
     29 CG2       -22.9270   56.2740    0.4690 C.3       1 MVA        -0.0584
     30 C         -26.7780   57.0200    0.3230 C.2       1 MVA         0.2067
     31 O         -26.7310   57.6730    1.3500 O.2       1 MVA        -0.3942
     32 N         -27.7420   56.6240   -0.4540 N.am      1 BMT        -0.2503
     33 CN        -27.6810   55.7600   -1.5650 C.3       1 BMT         0.0255
     34 CA        -29.0150   57.0220    0.0750 C.3       1 BMT         0.1594
     35 C         -29.8840   55.9440    0.6960 C.2       1 BMT         0.2067
     36 O         -29.5660   54.7870    0.6800 O.2       1 BMT        -0.3943
     37 CB        -29.8240   57.8540   -0.8990 C.3       1 BMT         0.0994
     38 OG1       -30.3670   57.0720   -1.9160 O.3       1 BMT        -0.3867
     39 CG2       -29.0330   58.9930   -1.5210 C.3       1 BMT        -0.0069
     40 CD1       -28.3240   59.9570   -0.5760 C.3       1 BMT        -0.0583
     41 CD2       -29.8680   59.7010   -2.5920 C.3       1 BMT        -0.0313
     42 CE        -30.9980   60.4760   -2.0280 C.2       1 BMT        -0.0986
     43 CZ        -32.2040   60.2010   -2.4100 C.2       1 BMT        -0.1017
     44 CH        -33.3750   60.9810   -1.8930 C.3       1 BMT        -0.0486
     45 N         -31.0580   56.4070    1.2660 N.am      1 ABA        -0.2636
     46 CA        -31.9300   55.5170    2.0290 C.3       1 ABA         0.1309
     47 C         -33.3660   55.5120    1.5080 C.2       1 ABA         0.2059
     48 O         -34.2350   56.1830    2.0630 O.2       1 ABA        -0.3942
     49 CB        -31.9120   55.8830    3.5160 C.3       1 ABA        -0.0152
     50 CG        -30.5340   55.7390    4.1380 C.3       1 ABA        -0.0610
     51 N         -33.6160   54.7570    0.4410 N.am      1 SAR        -0.2556
     52 CA        -34.9400   54.7460   -0.1580 C.3       1 SAR         0.1227
     53 C         -34.8730   54.7770   -1.6680 C.2       1 SAR         0.2032
     54 O         -35.1940   53.6260   -2.4190 O.2       1 SAR        -0.3945
     55 CN        -32.5890   53.9790   -0.2260 C.3       1 SAR         0.0252
     56 N         -34.5070   55.9270   -2.2310 N.am      1 MLE        -0.2531
     57 CN        -34.2410   57.1390   -1.4700 C.3       1 MLE         0.0254
     58 CA        -34.3570   56.0250   -3.6710 C.3       1 MLE         0.1336
     59 CB        -35.0720   57.2660   -4.2060 C.3       1 MLE        -0.0099
     60 CG        -36.5650   57.0290   -4.4580 C.3       1 MLE        -0.0425
     61 CD1       -36.8250   55.6810   -5.1240 C.3       1 MLE        -0.0625
     62 CD2       -37.4020   57.1720   -3.1910 C.3       1 MLE        -0.0625
     63 C         -32.9060   56.0550   -4.0610 C.2       1 MLE         0.2041
     64 O         -32.1550   57.2400   -3.9290 O.2       1 MLE        -0.3944
     65 N         -32.3920   54.9190   -4.5270 N.am      1 VAL        -0.2635
     66 CA        -30.9970   54.8170   -4.9460 C.3       1 VAL         0.1334
     67 C         -30.7990   55.5540   -6.2700 C.2       1 VAL         0.2064
     68 O         -31.4690   55.2510   -7.2580 O.2       1 VAL        -0.3942
     69 CB        -30.5710   53.3450   -5.0990 C.3       1 VAL        -0.0062
     70 CG1       -29.0990   53.2450   -5.4460 C.3       1 VAL        -0.0584
     71 CG2       -30.8560   52.5790   -3.8190 C.3       1 VAL        -0.0584
     72 N         -29.8890   56.5250   -6.2920 N.am      1 MLE        -0.2529
     73 CN        -29.0470   56.8250   -5.1430 C.3       1 MLE         0.0254
     74 CA        -29.7010   57.3130   -7.5030 C.3       1 MLE         0.1336
     75 CB        -29.7050   58.8110   -7.1980 C.3       1 MLE        -0.0099
     76 CG        -31.0390   59.2730   -6.6120 C.3       1 MLE        -0.0425
     77 CD1       -31.0580   60.7830   -6.4090 C.3       1 MLE        -0.0625
     78 CD2       -32.2130   58.8280   -7.4750 C.3       1 MLE        -0.0625
     79 C         -28.4600   56.9290   -8.2630 C.2       1 MLE         0.2041
     80 O         -27.5310   56.0220   -7.7160 O.2       1 MLE        -0.3944
     81 N         -28.3020   57.4850   -9.4600 N.am      1 ALA        -0.2640
     82 CA        -27.1700   57.1490  -10.3210 C.3       1 ALA         0.1282
     83 C         -25.8400   57.6680   -9.7700 C.2       1 ALA         0.2036
     84 O         -25.7970   58.6750   -9.0630 O.2       1 ALA        -0.3944
     85 CB        -27.4030   57.6710  -11.7300 C.3       1 ALA        -0.0244
     86 H1        -24.8702   56.1312  -10.6391 H         1 DAL         0.1883
     87 H2        -23.4350   58.4379   -9.4504 H         1 DAL         0.0797
     88 H3        -21.4288   57.4582  -10.5191 H         1 DAL         0.0277
     89 H4        -22.7484   57.7577  -11.7005 H         1 DAL         0.0277
     90 H5        -22.4267   56.0895  -11.1170 H         1 DAL         0.0277
     91 H6        -22.5170   59.1126   -8.5782 H         1 MLE         0.0488
     92 H7        -21.0712   58.9939   -7.5190 H         1 MLE         0.0488
     93 H8        -22.6933   59.2667   -6.7973 H         1 MLE         0.0488
     94 H9        -22.2336   55.6564   -6.2553 H         1 MLE         0.0802
     95 H10       -20.0669   56.2449   -5.2250 H         1 MLE         0.0315
     96 H11       -20.0395   57.7841   -6.1507 H         1 MLE         0.0315
     97 H12       -20.0649   56.4702   -8.2608 H         1 MLE         0.0298
     98 H13       -17.7205   55.6887   -8.1224 H         1 MLE         0.0232
     99 H14       -17.7967   55.7965   -6.3310 H         1 MLE         0.0232
    100 H15       -17.9468   57.2835   -7.3275 H         1 MLE         0.0232
    101 H16       -21.1454   54.4291   -7.3734 H         1 MLE         0.0232
    102 H17       -19.6657   54.0674   -6.4215 H         1 MLE         0.0232
    103 H18       -19.6022   54.0630   -8.2166 H         1 MLE         0.0232
    104 H19       -23.9487   55.7842   -6.2856 H         1 MLE         0.0488
    105 H20       -25.3954   56.7898   -5.9361 H         1 MLE         0.0488
    106 H21       -24.9290   55.4668   -4.8142 H         1 MLE         0.0488
    107 H22       -23.6429   58.6783   -3.2992 H         1 MLE         0.0802
    108 H23       -26.1198   59.0822   -3.3141 H         1 MLE         0.0315
    109 H24       -26.2707   57.8336   -4.5967 H         1 MLE         0.0315
    110 H25       -24.9852   59.1155   -6.1321 H         1 MLE         0.0298
    111 H26       -26.2591   61.2254   -6.3333 H         1 MLE         0.0232
    112 H27       -26.8852   60.9956   -4.6654 H         1 MLE         0.0232
    113 H28       -27.3149   59.8221   -5.9557 H         1 MLE         0.0232
    114 H29       -23.2623   59.9303   -4.5544 H         1 MLE         0.0232
    115 H30       -24.4323   61.1349   -3.9167 H         1 MLE         0.0232
    116 H31       -23.8852   61.2312   -5.6250 H         1 MLE         0.0232
    117 H32       -24.3618   59.4892   -1.6804 H         1 MVA         0.0488
    118 H33       -24.1213   58.9072    0.0018 H         1 MVA         0.0488
    119 H34       -25.7770   59.2623   -0.5977 H         1 MVA         0.0488
    120 H35       -25.7860   55.7659   -0.9766 H         1 MVA         0.0804
    121 H36       -24.3941   54.9570    0.0820 H         1 MVA         0.0343
    122 H37       -23.9556   55.0213    2.4812 H         1 MVA         0.0234
    123 H38       -25.6232   54.7162    1.8874 H         1 MVA         0.0234
    124 H39       -25.1887   56.3252    2.5575 H         1 MVA         0.0234
    125 H40       -22.7048   56.6031   -0.5568 H         1 MVA         0.0234
    126 H41       -22.3282   55.3821    0.7057 H         1 MVA         0.0234
    127 H42       -22.6785   57.0804    1.1747 H         1 MVA         0.0234
    128 H43       -26.6290   55.5697   -1.8241 H         1 BMT         0.0488
    129 H44       -28.1907   56.2266   -2.4208 H         1 BMT         0.0488
    130 H45       -28.1755   54.8091   -1.3176 H         1 BMT         0.0488
    131 H46       -28.7652   57.6963    0.9074 H         1 BMT         0.0828
    132 H47       -30.6556   58.2975   -0.3318 H         1 BMT         0.0646
    133 H48       -30.8661   57.6242   -2.5064 H         1 BMT         0.2101
    134 H49       -28.2143   58.4992   -2.0649 H         1 BMT         0.0345
    135 H50       -27.7962   60.7235   -1.1624 H         1 BMT         0.0235
    136 H51       -27.5997   59.4021    0.0383 H         1 BMT         0.0235
    137 H52       -29.0646   60.4409    0.0777 H         1 BMT         0.0235
    138 H53       -30.2716   58.9430   -3.2794 H         1 BMT         0.0391
    139 H54       -29.2142   60.3891   -3.1479 H         1 BMT         0.0391
    140 H55       -30.8164   61.2667   -1.3015 H         1 BMT         0.0450
    141 H56       -32.3703   59.3904   -3.1179 H         1 BMT         0.0447
    142 H57       -34.3015   60.5901   -2.3388 H         1 BMT         0.0353
    143 H58       -33.2573   62.0410   -2.1624 H         1 BMT         0.0353
    144 H59       -33.4256   60.8843   -0.7984 H         1 BMT         0.0353
    145 H60       -31.3134   57.3673    1.1534 H         1 ABA         0.1883
    146 H61       -31.5338   54.4961    1.9250 H         1 ABA         0.0800
    147 H62       -32.6100   55.2213    4.0498 H         1 ABA         0.0310
    148 H63       -32.2402   56.9272    3.6255 H         1 ABA         0.0310
    149 H64       -30.5815   56.0140    5.2020 H         1 ABA         0.0232
    150 H65       -29.8263   56.4023    3.6191 H         1 ABA         0.0232
    151 H66       -30.1961   54.6965    4.0435 H         1 ABA         0.0232
    152 H67       -35.4965   55.6279    0.1919 H         1 SAR         0.0765
    153 H68       -35.4656   53.8323    0.1564 H         1 SAR         0.0765
    154 H69       -31.6419   54.0725    0.3257 H         1 SAR         0.0488
    155 H70       -32.4542   54.3526   -1.2518 H         1 SAR         0.0488
    156 H71       -32.8921   52.9221   -0.2575 H         1 SAR         0.0488
    157 H72       -34.3875   56.9386   -0.3984 H         1 MLE         0.0488
    158 H73       -34.9307   57.9330   -1.7921 H         1 MLE         0.0488
    159 H74       -33.2038   57.4612   -1.6443 H         1 MLE         0.0488
    160 H75       -34.8186   55.1361   -4.1257 H         1 MLE         0.0802
    161 H76       -34.5986   57.5633   -5.1534 H         1 MLE         0.0315
    162 H77       -34.9641   58.0777   -3.4716 H         1 MLE         0.0315
    163 H78       -36.8991   57.8092   -5.1577 H         1 MLE         0.0298
    164 H79       -37.9057   55.5541   -5.2852 H         1 MLE         0.0232
    165 H80       -36.4538   54.8739   -4.4754 H         1 MLE         0.0232
    166 H81       -36.3031   55.6433   -6.0916 H         1 MLE         0.0232
    167 H82       -37.2004   58.1486   -2.7267 H         1 MLE         0.0232
    168 H83       -37.1397   56.3697   -2.4857 H         1 MLE         0.0232
    169 H84       -38.4695   57.1009   -3.4467 H         1 MLE         0.0232
    170 H85       -32.9785   54.1117   -4.5920 H         1 VAL         0.1883
    171 H86       -30.3645   55.2876   -4.1788 H         1 VAL         0.0803
    172 H87       -31.1548   52.8954   -5.9157 H         1 VAL         0.0343
    173 H88       -28.8179   52.1866   -5.5501 H         1 VAL         0.0234
    174 H89       -28.5015   53.7060   -4.6457 H         1 VAL         0.0234
    175 H90       -28.9093   53.7697   -6.3940 H         1 VAL         0.0234
    176 H91       -31.9258   52.6572   -3.5754 H         1 VAL         0.0234
    177 H92       -30.2608   53.0038   -2.9972 H         1 VAL         0.0234
    178 H93       -30.5879   51.5212   -3.9573 H         1 VAL         0.0234
    179 H94       -29.3059   56.1513   -4.3129 H         1 MLE         0.0488
    180 H95       -29.2081   57.8679   -4.8327 H         1 MLE         0.0488
    181 H96       -27.9908   56.6824   -5.4152 H         1 MLE         0.0488
    182 H97       -30.5601   57.1070   -8.1584 H         1 MLE         0.0802
    183 H98       -29.5163   59.3636   -8.1302 H         1 MLE         0.0315
    184 H99       -28.9053   59.0282   -6.4747 H         1 MLE         0.0315
    185 H100      -31.1511   58.8001   -5.6252 H         1 MLE         0.0298
    186 H101      -32.0283   61.0841   -5.9873 H         1 MLE         0.0232
    187 H102      -30.9069   61.2849   -7.3761 H         1 MLE         0.0232
    188 H103      -30.2526   61.0701   -5.7170 H         1 MLE         0.0232
    189 H104      -32.1779   57.7365   -7.6072 H         1 MLE         0.0232
    190 H105      -32.1524   59.3185   -8.4577 H         1 MLE         0.0232
    191 H106      -33.1564   59.1076   -6.9832 H         1 MLE         0.0232
    192 H107      -28.9758   58.1511   -9.7799 H         1 ALA         0.1883
    193 H108      -27.1038   56.0521  -10.3711 H         1 ALA         0.0797
    194 H109      -26.5431   57.4102  -12.3645 H         1 ALA         0.0277
    195 H110      -27.5192   58.7645  -11.7014 H         1 ALA         0.0277
    196 H111      -28.3151   57.2160  -12.1435 H         1 ALA         0.0277
@<TRIPOS>BOND
     1    1    2 1  
     2    1   83 am 
     3    2    3 1  
     4    2    4 1  
     5    4    5 2  
     6    4    6 am 
     7    6    7 1  
     8    6    8 1  
     9    8    9 1  
    10    8   13 1  
    11    9   10 1  
    12   10   11 1  
    13   10   12 1  
    14   13   14 2  
    15   13   15 am 
    16   15   16 1  
    17   15   17 1  
    18   17   18 1  
    19   17   22 1  
    20   18   19 1  
    21   19   20 1  
    22   19   21 1  
    23   22   23 2  
    24   22   24 am 
    25   24   25 1  
    26   24   26 1  
    27   26   27 1  
    28   26   30 1  
    29   27   28 1  
    30   27   29 1  
    31   30   31 2  
    32   30   32 am 
    33   32   33 1  
    34   32   34 1  
    35   34   35 1  
    36   34   37 1  
    37   35   36 2  
    38   35   45 am 
    39   37   38 1  
    40   37   39 1  
    41   39   40 1  
    42   39   41 1  
    43   41   42 1  
    44   42   43 2  
    45   43   44 1  
    46   45   46 1  
    47   46   47 1  
    48   46   49 1  
    49   47   48 2  
    50   47   51 am 
    51   49   50 1  
    52   51   52 1  
    53   51   55 1  
    54   52   53 1  
    55   53   54 2  
    56   53   56 am 
    57   56   57 1  
    58   56   58 1  
    59   58   59 1  
    60   58   63 1  
    61   59   60 1  
    62   60   61 1  
    63   60   62 1  
    64   63   64 2  
    65   63   65 am 
    66   65   66 1  
    67   66   67 1  
    68   66   69 1  
    69   67   68 2  
    70   67   72 am 
    71   69   70 1  
    72   69   71 1  
    73   72   73 1  
    74   72   74 1  
    75   74   75 1  
    76   74   79 1  
    77   75   76 1  
    78   76   77 1  
    79   76   78 1  
    80   79   80 2  
    81   79   81 am 
    82   81   82 1  
    83   82   83 1  
    84   82   85 1  
    85   83   84 2  
    86    1   86 1  
    87    2   87 1  
    88    3   88 1  
    89    3   89 1  
    90    3   90 1  
    91    7   91 1  
    92    7   92 1  
    93    7   93 1  
    94    8   94 1  
    95    9   95 1  
    96    9   96 1  
    97   10   97 1  
    98   11   98 1  
    99   11   99 1  
   100   11  100 1  
   101   12  101 1  
   102   12  102 1  
   103   12  103 1  
   104   16  104 1  
   105   16  105 1  
   106   16  106 1  
   107   17  107 1  
   108   18  108 1  
   109   18  109 1  
   110   19  110 1  
   111   20  111 1  
   112   20  112 1  
   113   20  113 1  
   114   21  114 1  
   115   21  115 1  
   116   21  116 1  
   117   25  117 1  
   118   25  118 1  
   119   25  119 1  
   120   26  120 1  
   121   27  121 1  
   122   28  122 1  
   123   28  123 1  
   124   28  124 1  
   125   29  125 1  
   126   29  126 1  
   127   29  127 1  
   128   33  128 1  
   129   33  129 1  
   130   33  130 1  
   131   34  131 1  
   132   37  132 1  
   133   38  133 1  
   134   39  134 1  
   135   40  135 1  
   136   40  136 1  
   137   40  137 1  
   138   41  138 1  
   139   41  139 1  
   140   42  140 1  
   141   43  141 1  
   142   44  142 1  
   143   44  143 1  
   144   44  144 1  
   145   45  145 1  
   146   46  146 1  
   147   49  147 1  
   148   49  148 1  
   149   50  149 1  
   150   50  150 1  
   151   50  151 1  
   152   52  152 1  
   153   52  153 1  
   154   55  154 1  
   155   55  155 1  
   156   55  156 1  
   157   57  157 1  
   158   57  158 1  
   159   57  159 1  
   160   58  160 1  
   161   59  161 1  
   162   59  162 1  
   163   60  163 1  
   164   61  164 1  
   165   61  165 1  
   166   61  166 1  
   167   62  167 1  
   168   62  168 1  
   169   62  169 1  
   170   65  170 1  
   171   66  171 1  
   172   69  172 1  
   173   70  173 1  
   174   70  174 1  
   175   70  175 1  
   176   71  176 1  
   177   71  177 1  
   178   71  178 1  
   179   73  179 1  
   180   73  180 1  
   181   73  181 1  
   182   74  182 1  
   183   75  183 1  
   184   75  184 1  
   185   76  185 1  
   186   77  186 1  
   187   77  187 1  
   188   77  188 1  
   189   78  189 1  
   190   78  190 1  
   191   78  191 1  
   192   81  192 1  
   193   82  193 1  
   194   85  194 1  
   195   85  195 1  
   196   85  196 1  
@<TRIPOS>SUBSTRUCTURE
     1 DAL         1

