4jjm_ligand
  -I-interpret- 

196196  0  0  0  0  0  0  0  0999 V2000
  -24.7580   56.9640  -10.0970 N   0  0  0  0  0
  -23.4130   57.3650   -9.6920 C   0  0  0  0  0
  -22.4370   57.1530  -10.8360 C   0  0  0  0  0
  -22.9480   56.6090   -8.4460 C   0  0  0  0  0
  -23.1330   55.3950   -8.3470 O   0  0  0  0  0
  -22.3380   57.3250   -7.5000 N   0  0  0  0  0
  -22.1430   58.7620   -7.6050 C   0  0  0  0  0
  -21.8920   56.7020   -6.2620 C   0  0  0  0  0
  -20.3700   56.7350   -6.1620 C   0  0  0  0  0
  -19.6960   56.0230   -7.3260 C   0  0  0  0  0
  -18.1850   56.2110   -7.2730 C   0  0  0  0  0
  -20.0520   54.5430   -7.3350 C   0  0  0  0  0
  -22.4450   57.4070   -5.0530 C   0  0  0  0  0
  -21.6090   58.2530   -4.2990 O   0  0  0  0  0
  -23.7190   57.1800   -4.7350 N   0  0  0  0  0
  -24.5490   56.2480   -5.4890 C   0  0  0  0  0
  -24.3450   57.8980   -3.6280 C   0  0  0  0  0
  -25.6080   58.5930   -4.1560 C   0  0  0  0  0
  -25.2940   59.6490   -5.2210 C   0  0  0  0  0
  -26.5240   60.4810   -5.5680 C   0  0  0  0  0
  -24.1380   60.5490   -4.8000 C   0  0  0  0  0
  -24.6310   57.0280   -2.4190 C   0  0  0  0  0
  -24.8290   55.6430   -2.5680 O   0  0  0  0  0
  -24.9110   57.5440   -1.3160 N   0  0  0  0  0
  -24.7860   58.8730   -0.8740 C   0  0  0  0  0
  -25.4660   56.6040   -0.3400 C   0  0  0  0  0
  -24.4150   55.9350    0.5850 C   0  0  0  0  0
  -24.8240   55.4670    1.9740 C   0  0  0  0  0
  -22.9270   56.2740    0.4690 C   0  0  0  0  0
  -26.7780   57.0200    0.3230 C   0  0  0  0  0
  -26.7310   57.6730    1.3500 O   0  0  0  0  0
  -27.7420   56.6240   -0.4540 N   0  0  0  0  0
  -27.6810   55.7600   -1.5650 C   0  0  0  0  0
  -29.0150   57.0220    0.0750 C   0  0  0  0  0
  -29.8840   55.9440    0.6960 C   0  0  0  0  0
  -29.5660   54.7870    0.6800 O   0  0  0  0  0
  -29.8240   57.8540   -0.8990 C   0  0  0  0  0
  -30.3670   57.0720   -1.9160 O   0  0  0  0  0
  -29.0330   58.9930   -1.5210 C   0  0  0  0  0
  -28.3240   59.9570   -0.5760 C   0  0  0  0  0
  -29.8680   59.7010   -2.5920 C   0  0  0  0  0
  -30.9980   60.4760   -2.0280 C   0  0  0  0  0
  -32.2040   60.2010   -2.4100 C   0  0  0  0  0
  -33.3750   60.9810   -1.8930 C   0  0  0  0  0
  -31.0580   56.4070    1.2660 N   0  0  0  0  0
  -31.9300   55.5170    2.0290 C   0  0  0  0  0
  -33.3660   55.5120    1.5080 C   0  0  0  0  0
  -34.2350   56.1830    2.0630 O   0  0  0  0  0
  -31.9120   55.8830    3.5160 C   0  0  0  0  0
  -30.5340   55.7390    4.1380 C   0  0  0  0  0
  -33.6160   54.7570    0.4410 N   0  0  0  0  0
  -34.9400   54.7460   -0.1580 C   0  0  0  0  0
  -34.8730   54.7770   -1.6680 C   0  0  0  0  0
  -35.1940   53.6260   -2.4190 O   0  0  0  0  0
  -32.5890   53.9790   -0.2260 C   0  0  0  0  0
  -34.5070   55.9270   -2.2310 N   0  0  0  0  0
  -34.2410   57.1390   -1.4700 C   0  0  0  0  0
  -34.3570   56.0250   -3.6710 C   0  0  0  0  0
  -35.0720   57.2660   -4.2060 C   0  0  0  0  0
  -36.5650   57.0290   -4.4580 C   0  0  0  0  0
  -36.8250   55.6810   -5.1240 C   0  0  0  0  0
  -37.4020   57.1720   -3.1910 C   0  0  0  0  0
  -32.9060   56.0550   -4.0610 C   0  0  0  0  0
  -32.1550   57.2400   -3.9290 O   0  0  0  0  0
  -32.3920   54.9190   -4.5270 N   0  0  0  0  0
  -30.9970   54.8170   -4.9460 C   0  0  0  0  0
  -30.7990   55.5540   -6.2700 C   0  0  0  0  0
  -31.4690   55.2510   -7.2580 O   0  0  0  0  0
  -30.5710   53.3450   -5.0990 C   0  0  0  0  0
  -29.0990   53.2450   -5.4460 C   0  0  0  0  0
  -30.8560   52.5790   -3.8190 C   0  0  0  0  0
  -29.8890   56.5250   -6.2920 N   0  0  0  0  0
  -29.0470   56.8250   -5.1430 C   0  0  0  0  0
  -29.7010   57.3130   -7.5030 C   0  0  0  0  0
  -29.7050   58.8110   -7.1980 C   0  0  0  0  0
  -31.0390   59.2730   -6.6120 C   0  0  0  0  0
  -31.0580   60.7830   -6.4090 C   0  0  0  0  0
  -32.2130   58.8280   -7.4750 C   0  0  0  0  0
  -28.4600   56.9290   -8.2630 C   0  0  0  0  0
  -27.5310   56.0220   -7.7160 O   0  0  0  0  0
  -28.3020   57.4850   -9.4600 N   0  0  0  0  0
  -27.1700   57.1490  -10.3210 C   0  0  0  0  0
  -25.8400   57.6680   -9.7700 C   0  0  0  0  0
  -25.7970   58.6750   -9.0630 O   0  0  0  0  0
  -27.4030   57.6710  -11.7300 C   0  0  0  0  0
  -24.8724   56.1145  -10.6499 H   0  0  0  0  0
  -23.4432   58.4250   -9.4398 H   0  0  0  0  0
  -21.4527   57.5196  -10.5448 H   0  0  0  0  0
  -22.3762   56.0896  -11.0677 H   0  0  0  0  0
  -22.7841   57.6982  -11.7137 H   0  0  0  0  0
  -22.6887   59.2609   -6.8041 H   0  0  0  0  0
  -21.0806   58.9904   -7.5196 H   0  0  0  0  0
  -22.5140   59.1082   -8.5697 H   0  0  0  0  0
  -22.2545   55.6743   -6.2829 H   0  0  0  0  0
  -20.0815   56.2255   -5.2426 H   0  0  0  0  0
  -20.0538   57.7780   -6.1763 H   0  0  0  0  0
  -20.0632   56.4671   -8.2512 H   0  0  0  0  0
  -17.9503   57.2741   -7.3270 H   0  0  0  0  0
  -17.8015   55.7999   -6.3391 H   0  0  0  0  0
  -17.7259   55.6930   -8.1151 H   0  0  0  0  0
  -19.7202   54.0851   -6.4031 H   0  0  0  0  0
  -21.1319   54.4310   -7.4321 H   0  0  0  0  0
  -19.5579   54.0569   -8.1762 H   0  0  0  0  0
  -24.6110   56.5762   -6.5266 H   0  0  0  0  0
  -24.1058   55.2530   -5.4472 H   0  0  0  0  0
  -25.5485   56.2205   -5.0549 H   0  0  0  0  0
  -23.6383   58.6410   -3.2583 H   0  0  0  0  0
  -26.0919   59.0940   -3.3176 H   0  0  0  0  0
  -26.2442   57.8342   -4.6117 H   0  0  0  0  0
  -24.9887   59.1101   -6.1179 H   0  0  0  0  0
  -27.3069   59.8270   -5.9520 H   0  0  0  0  0
  -26.8809   60.9904   -4.6728 H   0  0  0  0  0
  -26.2603   61.2182   -6.3263 H   0  0  0  0  0
  -24.3972   61.0619   -3.8738 H   0  0  0  0  0
  -23.2456   59.9429   -4.6438 H   0  0  0  0  0
  -23.9475   61.2835   -5.5825 H   0  0  0  0  0
  -23.7403   59.1757   -0.9280 H   0  0  0  0  0
  -25.3872   59.5238   -1.5089 H   0  0  0  0  0
  -25.1340   58.9461    0.1564 H   0  0  0  0  0
  -25.8045   55.7761   -0.9630 H   0  0  0  0  0
  -24.4825   55.0429   -0.0377 H   0  0  0  0  0
  -25.1852   56.3182    2.5511 H   0  0  0  0  0
  -25.6159   54.7231    1.8868 H   0  0  0  0  0
  -23.9628   55.0256    2.4755 H   0  0  0  0  0
  -22.5761   56.0256   -0.5326 H   0  0  0  0  0
  -22.7829   57.3388    0.6522 H   0  0  0  0  0
  -22.3660   55.6982    1.2051 H   0  0  0  0  0
  -27.0143   56.1830   -2.3164 H   0  0  0  0  0
  -27.3028   54.7882   -1.2476 H   0  0  0  0  0
  -28.6789   55.6426   -1.9876 H   0  0  0  0  0
  -28.7071   57.6375    0.9203 H   0  0  0  0  0
  -30.6247   58.2890   -0.3009 H   0  0  0  0  0
  -30.8713   57.6300   -2.5126 H   0  0  0  0  0
  -28.1796   58.5027   -1.9894 H   0  0  0  0  0
  -29.0589   60.4358    0.0712 H   0  0  0  0  0
  -27.6067   59.4059    0.0321 H   0  0  0  0  0
  -27.8014   60.7160   -1.1582 H   0  0  0  0  0
  -30.2847   58.9360   -3.2471 H   0  0  0  0  0
  -29.2143   60.3998   -3.1140 H   0  0  0  0  0
  -30.8162   61.2674   -1.3009 H   0  0  0  0  0
  -32.3705   59.3897   -3.1186 H   0  0  0  0  0
  -33.4240   60.8844   -0.8084 H   0  0  0  0  0
  -33.2571   62.0311   -2.1606 H   0  0  0  0  0
  -34.2924   60.5928   -2.3354 H   0  0  0  0  0
  -31.3185   57.3865    1.1512 H   0  0  0  0  0
  -31.5347   54.5094    1.9006 H   0  0  0  0  0
  -32.5869   55.2033    4.0363 H   0  0  0  0  0
  -32.2133   56.9265    3.6076 H   0  0  0  0  0
  -30.2004   54.7056    4.0436 H   0  0  0  0  0
  -29.8338   56.3967    3.6230 H   0  0  0  0  0
  -30.5823   56.0117    5.1922 H   0  0  0  0  0
  -35.4762   55.6329    0.1795 H   0  0  0  0  0
  -35.4451   53.8285    0.1439 H   0  0  0  0  0
  -31.8057   54.6462   -0.5857 H   0  0  0  0  0
  -32.1635   53.2628    0.4770 H   0  0  0  0  0
  -33.0289   53.4455   -1.0686 H   0  0  0  0  0
  -35.1376   57.4255   -0.9203 H   0  0  0  0  0
  -33.4268   56.9550   -0.7691 H   0  0  0  0  0
  -33.9601   57.9409   -2.1528 H   0  0  0  0  0
  -34.8138   55.1402   -4.1144 H   0  0  0  0  0
  -34.6112   57.5326   -5.1571 H   0  0  0  0  0
  -34.9807   58.0527   -3.4571 H   0  0  0  0  0
  -36.8797   57.8125   -5.1473 H   0  0  0  0  0
  -36.3073   55.6449   -6.0825 H   0  0  0  0  0
  -36.4567   54.8821   -4.4804 H   0  0  0  0  0
  -37.8961   55.5564   -5.2832 H   0  0  0  0  0
  -37.0666   56.4448   -2.4515 H   0  0  0  0  0
  -37.2846   58.1792   -2.7913 H   0  0  0  0  0
  -38.4509   56.9938   -3.4280 H   0  0  0  0  0
  -32.9902   54.0955   -4.5933 H   0  0  0  0  0
  -30.3747   55.2744   -4.1769 H   0  0  0  0  0
  -31.1489   52.9056   -5.9121 H   0  0  0  0  0
  -28.9123   53.7653   -6.3854 H   0  0  0  0  0
  -28.5081   53.7022   -4.6523 H   0  0  0  0  0
  -28.8217   52.1959   -5.5489 H   0  0  0  0  0
  -30.2989   53.0280   -2.9967 H   0  0  0  0  0
  -31.9234   52.6208   -3.6021 H   0  0  0  0  0
  -30.5495   51.5403   -3.9428 H   0  0  0  0  0
  -29.6752   57.1010   -4.2960 H   0  0  0  0  0
  -28.4563   55.9453   -4.8875 H   0  0  0  0  0
  -28.3813   57.6526   -5.3882 H   0  0  0  0  0
  -30.5506   57.0875   -8.1476 H   0  0  0  0  0
  -29.5382   59.3491   -8.1311 H   0  0  0  0  0
  -28.9233   59.0115   -6.4653 H   0  0  0  0  0
  -31.1461   58.7991   -5.6363 H   0  0  0  0  0
  -30.2595   61.0662   -5.7233 H   0  0  0  0  0
  -30.9082   61.2791   -7.3679 H   0  0  0  0  0
  -32.0199   61.0801   -5.9911 H   0  0  0  0  0
  -32.1093   59.2519   -8.4738 H   0  0  0  0  0
  -32.2227   57.7400   -7.5399 H   0  0  0  0  0
  -33.1440   59.1748   -7.0265 H   0  0  0  0  0
  -28.9893   58.1644   -9.7863 H   0  0  0  0  0
  -27.1000   56.0616  -10.3479 H   0  0  0  0  0
  -28.3070   57.2194  -12.1385 H   0  0  0  0  0
  -27.5181   58.7545  -11.7003 H   0  0  0  0  0
  -26.5503   57.4120  -12.3577 H   0  0  0  0  0
  1  2  1  0  0  0
  1 83  1  0  0  0
  2  3  1  0  0  0
  2  4  1  0  0  0
  4  5  2  0  0  0
  4  6  1  0  0  0
  6  7  1  0  0  0
  6  8  1  0  0  0
  8  9  1  0  0  0
  8 13  1  0  0  0
  9 10  1  0  0  0
 10 11  1  0  0  0
 10 12  1  0  0  0
 13 14  2  0  0  0
 13 15  1  0  0  0
 15 16  1  0  0  0
 15 17  1  0  0  0
 17 18  1  0  0  0
 17 22  1  0  0  0
 18 19  1  0  0  0
 19 20  1  0  0  0
 19 21  1  0  0  0
 22 23  2  0  0  0
 22 24  1  0  0  0
 24 25  1  0  0  0
 24 26  1  0  0  0
 26 27  1  0  0  0
 26 30  1  0  0  0
 27 28  1  0  0  0
 27 29  1  0  0  0
 30 31  2  0  0  0
 30 32  1  0  0  0
 32 33  1  0  0  0
 32 34  1  0  0  0
 34 35  1  0  0  0
 34 37  1  0  0  0
 35 36  2  0  0  0
 35 45  1  0  0  0
 37 38  1  0  0  0
 37 39  1  0  0  0
 39 40  1  0  0  0
 39 41  1  0  0  0
 41 42  1  0  0  0
 42 43  2  0  0  0
 43 44  1  0  0  0
 45 46  1  0  0  0
 46 47  1  0  0  0
 46 49  1  0  0  0
 47 48  2  0  0  0
 47 51  1  0  0  0
 49 50  1  0  0  0
 51 52  1  0  0  0
 51 55  1  0  0  0
 52 53  1  0  0  0
 53 54  2  0  0  0
 53 56  1  0  0  0
 56 57  1  0  0  0
 56 58  1  0  0  0
 58 59  1  0  0  0
 58 63  1  0  0  0
 59 60  1  0  0  0
 60 61  1  0  0  0
 60 62  1  0  0  0
 63 64  2  0  0  0
 63 65  1  0  0  0
 65 66  1  0  0  0
 66 67  1  0  0  0
 66 69  1  0  0  0
 67 68  2  0  0  0
 67 72  1  0  0  0
 69 70  1  0  0  0
 69 71  1  0  0  0
 72 73  1  0  0  0
 72 74  1  0  0  0
 74 75  1  0  0  0
 74 79  1  0  0  0
 75 76  1  0  0  0
 76 77  1  0  0  0
 76 78  1  0  0  0
 79 80  2  0  0  0
 79 81  1  0  0  0
 81 82  1  0  0  0
 82 83  1  0  0  0
 82 85  1  0  0  0
 83 84  2  0  0  0
  1 86  1  0  0  0
  2 87  1  0  0  0
  3 88  1  0  0  0
  3 89  1  0  0  0
  3 90  1  0  0  0
  7 91  1  0  0  0
  7 92  1  0  0  0
  7 93  1  0  0  0
  8 94  1  0  0  0
  9 95  1  0  0  0
  9 96  1  0  0  0
 10 97  1  0  0  0
 11 98  1  0  0  0
 11 99  1  0  0  0
 11100  1  0  0  0
 12101  1  0  0  0
 12102  1  0  0  0
 12103  1  0  0  0
 16104  1  0  0  0
 16105  1  0  0  0
 16106  1  0  0  0
 17107  1  0  0  0
 18108  1  0  0  0
 18109  1  0  0  0
 19110  1  0  0  0
 20111  1  0  0  0
 20112  1  0  0  0
 20113  1  0  0  0
 21114  1  0  0  0
 21115  1  0  0  0
 21116  1  0  0  0
 25117  1  0  0  0
 25118  1  0  0  0
 25119  1  0  0  0
 26120  1  0  0  0
 27121  1  0  0  0
 28122  1  0  0  0
 28123  1  0  0  0
 28124  1  0  0  0
 29125  1  0  0  0
 29126  1  0  0  0
 29127  1  0  0  0
 33128  1  0  0  0
 33129  1  0  0  0
 33130  1  0  0  0
 34131  1  0  0  0
 37132  1  0  0  0
 38133  1  0  0  0
 39134  1  0  0  0
 40135  1  0  0  0
 40136  1  0  0  0
 40137  1  0  0  0
 41138  1  0  0  0
 41139  1  0  0  0
 42140  1  0  0  0
 43141  1  0  0  0
 44142  1  0  0  0
 44143  1  0  0  0
 44144  1  0  0  0
 45145  1  0  0  0
 46146  1  0  0  0
 49147  1  0  0  0
 49148  1  0  0  0
 50149  1  0  0  0
 50150  1  0  0  0
 50151  1  0  0  0
 52152  1  0  0  0
 52153  1  0  0  0
 55154  1  0  0  0
 55155  1  0  0  0
 55156  1  0  0  0
 57157  1  0  0  0
 57158  1  0  0  0
 57159  1  0  0  0
 58160  1  0  0  0
 59161  1  0  0  0
 59162  1  0  0  0
 60163  1  0  0  0
 61164  1  0  0  0
 61165  1  0  0  0
 61166  1  0  0  0
 62167  1  0  0  0
 62168  1  0  0  0
 62169  1  0  0  0
 65170  1  0  0  0
 66171  1  0  0  0
 69172  1  0  0  0
 70173  1  0  0  0
 70174  1  0  0  0
 70175  1  0  0  0
 71176  1  0  0  0
 71177  1  0  0  0
 71178  1  0  0  0
 73179  1  0  0  0
 73180  1  0  0  0
 73181  1  0  0  0
 74182  1  0  0  0
 75183  1  0  0  0
 75184  1  0  0  0
 76185  1  0  0  0
 77186  1  0  0  0
 77187  1  0  0  0
 77188  1  0  0  0
 78189  1  0  0  0
 78190  1  0  0  0
 78191  1  0  0  0
 81192  1  0  0  0
 82193  1  0  0  0
 85194  1  0  0  0
 85195  1  0  0  0
 85196  1  0  0  0
M  END
$$$$
