4ll3_ligand
  -I-interpret- 

 75 78  0  0  0  0  0  0  0  0999 V2000
   -8.7280   16.1900   18.4900 N   0  0  0  0  0
   -8.6590   15.9120   19.8190 C   0  0  0  0  0
   -9.8260   15.8320   20.5830 C   0  0  0  0  0
   -9.7470   15.5250   21.9410 C   0  0  0  0  0
   -8.5060   15.3090   22.5460 C   0  0  0  0  0
   -7.3390   15.3710   21.7760 C   0  0  0  0  0
   -7.4180   15.6730   20.4120 C   0  0  0  0  0
   -8.4250   14.9710   24.1160 S   0  0  0  0  0
   -9.5890   14.2270   24.4950 O   0  0  0  0  0
   -7.2730   14.1690   24.3740 O   0  0  0  0  0
   -8.3020   16.3060   25.0580 N   0  0  0  0  0
   -7.1690   17.1940   24.7030 C   0  0  0  0  0
   -6.5900   17.9220   25.9210 C   0  0  0  0  0
   -6.2160   16.9660   27.0530 C   0  0  0  0  0
   -5.3960   18.8010   25.5250 C   0  0  0  0  0
   -9.5550   17.0850   25.1760 C   0  0  0  0  0
  -10.0020   17.1050   26.6460 C   0  0  0  0  0
  -11.0830   18.0300   26.8900 O   0  0  0  0  0
  -10.4000   15.7310   27.1610 C   0  0  0  0  0
  -10.4980   15.9210   28.6040 N   0  0  0  0  0
   -9.7140   15.2600   29.4470 C   0  0  0  0  0
   -8.8440   14.4450   29.1150 O   0  0  0  0  0
   -9.9400   15.5810   30.8450 O   0  0  0  0  0
   -9.3450   14.7250   31.7950 C   0  0  0  0  0
   -9.0900   15.6300   32.9840 C   0  0  0  0  0
  -10.3190   15.6340   33.7110 O   0  0  0  0  0
  -11.1070   14.4780   33.3920 C   0  0  0  0  0
  -12.3680   14.8560   32.8400 O   0  0  0  0  0
  -12.7230   13.9900   31.7550 C   0  0  0  0  0
  -11.4400   13.3300   31.2910 C   0  0  0  0  0
  -10.3790   13.7390   32.3000 C   0  0  0  0  0
  -11.7920   15.2870   26.7040 C   0  0  0  0  0
  -13.2800   13.8750   28.1470 C   0  0  0  0  0
  -13.6490   12.6530   28.7060 C   0  0  0  0  0
  -12.8910   11.5160   28.4230 C   0  0  0  0  0
  -11.7820   11.6020   27.5810 C   0  0  0  0  0
  -11.4090   12.8190   27.0170 C   0  0  0  0  0
  -12.1600   13.9570   27.3060 C   0  0  0  0  0
   -9.6342   16.3411   18.0469 H   0  0  0  0  0
   -7.8735   16.2475   17.9359 H   0  0  0  0  0
  -10.7961   16.0092   20.1186 H   0  0  0  0  0
  -10.6587   15.4531   22.5341 H   0  0  0  0  0
   -6.3697   15.1843   22.2383 H   0  0  0  0  0
   -6.5095   15.7217   19.8118 H   0  0  0  0  0
   -7.5370   17.9462   24.0052 H   0  0  0  0  0
   -6.3798   16.5769   24.2735 H   0  0  0  0  0
   -7.3800   18.5685   26.3032 H   0  0  0  0  0
   -7.1042   16.4236   27.3771 H   0  0  0  0  0
   -5.4666   16.2590   26.6971 H   0  0  0  0  0
   -5.8114   17.5359   27.8894 H   0  0  0  0  0
   -4.6161   18.1771   25.0884 H   0  0  0  0  0
   -5.7194   19.5439   24.7959 H   0  0  0  0  0
   -5.0074   19.3041   26.4104 H   0  0  0  0  0
  -10.3307   16.6243   24.5643 H   0  0  0  0  0
   -9.3849   18.1051   24.8318 H   0  0  0  0  0
   -9.1225   17.4422   27.1945 H   0  0  0  0  0
  -11.3222   18.0029   27.8193 H   0  0  0  0  0
   -9.6853   14.9870   26.8090 H   0  0  0  0  0
  -11.1854   16.5775   28.9741 H   0  0  0  0  0
   -8.4763   14.2115   31.3829 H   0  0  0  0  0
   -8.7989   16.6337   32.6744 H   0  0  0  0  0
   -8.2596   15.2740   33.5937 H   0  0  0  0  0
  -11.2586   13.8886   34.2962 H   0  0  0  0  0
  -13.1875   14.5515   30.9444 H   0  0  0  0  0
  -13.4513   13.2444   32.0740 H   0  0  0  0  0
  -11.1725   13.6459   30.2826 H   0  0  0  0  0
  -11.5455   12.2462   31.2422 H   0  0  0  0  0
   -9.8566   12.8257   32.5847 H   0  0  0  0  0
  -11.7888   15.1901   25.6183 H   0  0  0  0  0
  -12.5199   16.0307   27.0285 H   0  0  0  0  0
  -13.8633   14.7699   28.3638 H   0  0  0  0  0
  -14.5204   12.5860   29.3574 H   0  0  0  0  0
  -13.1665   10.5569   28.8616 H   0  0  0  0  0
  -11.2009   10.7061   27.3622 H   0  0  0  0  0
  -10.5422   12.8809   26.3590 H   0  0  0  0  0
  2  1  1  0  0  0
  3  2  4  0  0  0
  7  2  4  0  0  0
  4  3  4  0  0  0
  5  4  4  0  0  0
  5  6  4  0  0  0
  8  5  1  0  0  0
  6  7  4  0  0  0
  8  9  2  0  0  0
  8 10  2  0  0  0
 11  8  1  0  0  0
 11 12  1  0  0  0
 16 11  1  0  0  0
 12 13  1  0  0  0
 13 14  1  0  0  0
 13 15  1  0  0  0
 17 16  1  0  0  0
 17 18  1  0  0  0
 19 17  1  0  0  0
 19 20  1  0  0  0
 32 19  1  0  0  0
 20 21  1  0  0  0
 21 22  2  0  0  0
 21 23  1  0  0  0
 23 24  1  0  0  0
 24 25  1  0  0  0
 24 31  1  0  0  0
 25 26  1  0  0  0
 27 26  1  0  0  0
 27 28  1  0  0  0
 31 27  1  0  0  0
 29 28  1  0  0  0
 30 29  1  0  0  0
 31 30  1  0  0  0
 38 32  1  0  0  0
 33 34  4  0  0  0
 33 38  4  0  0  0
 34 35  4  0  0  0
 35 36  4  0  0  0
 36 37  4  0  0  0
 37 38  4  0  0  0
  1 39  1  0  0  0
  1 40  1  0  0  0
  3 41  1  0  0  0
  4 42  1  0  0  0
  6 43  1  0  0  0
  7 44  1  0  0  0
 12 45  1  0  0  0
 12 46  1  0  0  0
 13 47  1  0  0  0
 14 48  1  0  0  0
 14 49  1  0  0  0
 14 50  1  0  0  0
 15 51  1  0  0  0
 15 52  1  0  0  0
 15 53  1  0  0  0
 16 54  1  0  0  0
 16 55  1  0  0  0
 17 56  1  0  0  0
 18 57  1  0  0  0
 19 58  1  0  0  0
 20 59  1  0  0  0
 24 60  1  0  0  0
 25 61  1  0  0  0
 25 62  1  0  0  0
 27 63  1  0  0  0
 29 64  1  0  0  0
 29 65  1  0  0  0
 30 66  1  0  0  0
 30 67  1  0  0  0
 31 68  1  0  0  0
 32 69  1  0  0  0
 32 70  1  0  0  0
 33 71  1  0  0  0
 34 72  1  0  0  0
 35 73  1  0  0  0
 36 74  1  0  0  0
 37 75  1  0  0  0
M  END
$$$$
