#	Name:			6skc_ligand
#	Creating user name:	wangrx
#	Creation time:		Thu Aug  5 18:14:24 2021

#	Modifying user name:	wangrx
#	Modification time:	Thu Aug  5 18:15:14 2021

@<TRIPOS>MOLECULE
6skc_ligand
   37    39     1     0     0
SMALL
GAST_HUCK


@<TRIPOS>ATOM
      1 C10       -34.2460  -22.3170  -22.7020 C.ar      1 LH8        -0.0612 
      2 C13       -34.0320  -23.4550  -20.6140 C.ar      1 LH8        -0.0612 
      3 C15       -34.0310  -24.6760  -21.2770 C.ar      1 LH8        -0.0634 
      4 C17       -34.0550  -20.9240  -20.6130 C.3       1 LH8        -0.0810 
      5 C22       -35.0710  -19.2040  -19.1270 C.ar      1 LH8        -0.1441 
      6 N01       -33.1970  -26.9490  -23.0070 N.pl3     1 LH8        -0.2729 
      7 C04       -34.1040  -26.0340  -23.3970 C.cat     1 LH8         0.2318 
      8 N05       -34.8530  -26.2940  -24.4260 N.pl3     1 LH8        -0.2729 
      9 C07       -34.1310  -24.7290  -22.6680 C.ar      1 LH8         0.0188 
     10 C08       -34.2310  -23.5300  -23.3700 C.ar      1 LH8        -0.0634 
     11 C12       -34.1720  -22.2580  -21.3140 C.ar      1 LH8        -0.0540 
     12 C19       -35.2350  -20.5870  -19.7170 C.3       1 LH8        -0.0400 
     13 C23       -35.3950  -18.9330  -17.7970 C.ar      1 LH8        -0.1751 
     14 C25       -35.2410  -17.6590  -17.2730 C.ar      1 LH8        -0.1827 
     15 C27       -34.7570  -16.6390  -18.0680 C.ar      1 LH8        -0.1687 
     16 C29       -34.4350  -16.8900  -19.3940 C.ar      1 LH8        -0.1858 
     17 C31       -34.5840  -18.1670  -19.9620 C.ar      1 LH8        -0.1863 
     18 B32       -34.1260  -18.5330  -21.3850 B         1 LH8         3.0000 
     19 O33       -33.4330  -17.6680  -22.1710 O.3       1 LH8        -0.4105 
     20 O35       -33.7910  -19.8570  -21.5750 O.3       1 LH8        -0.8405 
     21 H1        -34.3167  -21.3969  -23.2708 H         1 LH8         0.0556 
     22 H2        -33.9222  -23.4331  -19.5358 H         1 LH8         0.0556 
     23 H3        -33.9518  -25.5957  -20.7087 H         1 LH8         0.0599 
     24 H4        -33.1754  -20.9913  -19.9559 H         1 LH8         0.0301 
     25 H5        -32.5936  -26.7618  -22.1935 H         1 LH8         0.3180 
     26 H6        -33.1064  -27.8364  -23.5221 H         1 LH8         0.3180 
     27 H7        -35.5530  -25.6069  -24.7402 H         1 LH8         0.3180 
     28 H8        -34.7469  -27.1873  -24.9277 H         1 LH8         0.3180 
     29 H9        -34.2979  -23.5466  -24.4518 H         1 LH8         0.0599 
     30 H10       -35.2937  -21.3239  -18.9024 H         1 LH8         0.0422 
     31 H11       -36.1612  -20.6208  -20.3094 H         1 LH8         0.0422 
     32 H12       -35.7720  -19.7292  -17.1654 H         1 LH8        -0.0189 
     33 H13       -35.5006  -17.4634  -16.2389 H         1 LH8        -0.0146 
     34 H14       -34.6289  -15.6442  -17.6569 H         1 LH8         0.0333 
     35 H15       -34.0586  -16.0799  -20.0081 H         1 LH8        -0.0149 
     36 H17       -33.5974  -17.8706  -23.0844 H         1 LH8         0.2052 
     37 H18       -33.5974  -17.8706  -23.0845 H         1 LH8         0.2052 
@<TRIPOS>BOND
     1    1   10 ar   
     2   11    1 ar   
     3    3    2 ar   
     4    2   11 ar   
     5    9    3 ar   
     6   11    4 1    
     7    4   12 1    
     8    4   20 1    
     9   12    5 1    
    10    5   13 ar   
    11    5   17 ar   
    12    7    6 ar   
    13    7    8 ar   
    14    7    9 1    
    15    9   10 ar   
    16   13   14 ar   
    17   14   15 ar   
    18   15   16 ar   
    19   16   17 ar   
    20   17   18 1    
    21   18   19 1    
    22   18   20 1    
    23    1   21 1    
    24    2   22 1    
    25    3   23 1    
    26    4   24 1    
    27    6   25 1    
    28    6   26 1    
    29    8   27 1    
    30    8   28 1    
    31   10   29 1    
    32   12   30 1    
    33   12   31 1    
    34   13   32 1    
    35   14   33 1    
    36   15   34 1    
    37   16   35 1    
    38   19   36 1    
    39   19   37 1    
@<TRIPOS>SUBSTRUCTURE
     1 LH8         1 PERM              0 ****  ****    0 ROOT 
