6skc_ligand

Created by X-TOOL on Mon Aug  2 16:10:25 2021
 39 41  0  0  0  0  0  0  0  0999 V2000
  -34.2460  -22.3170  -22.7020  C 0  0  0  2  0  3
  -34.0320  -23.4550  -20.6140  C 0  0  0  2  0  3
  -34.0310  -24.6760  -21.2770  C 0  0  0  2  0  3
  -34.0550  -20.9240  -20.6130  C 0  0  0  2  0  4
  -35.0710  -19.2040  -19.1270  C 0  0  0  1  0  3
  -33.1970  -26.9490  -23.0070  N 0  0  0  3  0  3
  -34.1040  -26.0340  -23.3970  C 0  3  0  1  0  3
  -34.8530  -26.2940  -24.4260  N 0  0  0  3  0  3
  -34.1310  -24.7290  -22.6680  C 0  0  0  1  0  3
  -34.2310  -23.5300  -23.3700  C 0  0  0  2  0  3
  -34.1720  -22.2580  -21.3140  C 0  0  0  1  0  3
  -35.2350  -20.5870  -19.7170  C 0  0  0  3  0  4
  -35.3950  -18.9330  -17.7970  C 0  0  0  2  0  3
  -35.2410  -17.6590  -17.2730  C 0  0  0  2  0  3
  -34.7570  -16.6390  -18.0680  C 0  0  0  2  0  3
  -34.4350  -16.8900  -19.3940  C 0  0  0  2  0  3
  -34.5840  -18.1670  -19.9620  C 0  0  0  2  0  4
  -34.1260  -18.5330  -21.3850  B 0  0  0  1  0  3
  -33.4330  -17.6680  -22.1710  O 0  0  0  3  0  3
  -33.7910  -19.8570  -21.5750  O 0  0  0  2  0  3
  -34.3167  -21.3969  -23.2708  H 0  0  0  1  0  1
  -33.9222  -23.4331  -19.5358  H 0  0  0  1  0  1
  -33.9518  -25.5957  -20.7087  H 0  0  0  1  0  1
  -33.1754  -20.9913  -19.9559  H 0  0  0  1  0  1
  -32.5936  -26.7618  -22.1935  H 0  0  0  1  0  1
  -33.1064  -27.8364  -23.5221  H 0  0  0  1  0  1
  -35.5530  -25.6069  -24.7402  H 0  0  0  1  0  1
  -34.7469  -27.1873  -24.9277  H 0  0  0  1  0  1
  -34.2979  -23.5466  -24.4518  H 0  0  0  1  0  1
  -35.2937  -21.3239  -18.9024  H 0  0  0  1  0  1
  -36.1612  -20.6208  -20.3094  H 0  0  0  1  0  1
  -35.7720  -19.7292  -17.1654  H 0  0  0  1  0  1
  -35.5006  -17.4634  -16.2389  H 0  0  0  1  0  1
  -34.6289  -15.6442  -17.6569  H 0  0  0  1  0  1
  -34.0586  -16.0799  -20.0081  H 0  0  0  1  0  1
  -34.3356  -18.3522  -21.0008  H 0  0  0  1  0  1
  -33.5974  -17.8706  -23.0844  H 0  0  0  1  0  1
  -33.5974  -17.8706  -23.0845  H 0  0  0  1  0  1
  -34.5572  -19.7284  -22.1217  H 0  0  0  1  0  1
  1 10  4  0  0  1
 11  1  4  0  0  1
  3  2  4  0  0  1
  2 11  4  0  0  1
  9  3  4  0  0  1
 11  4  1  0  0  2
  4 12  1  0  0  1
  4 20  1  0  0  1
 12  5  1  0  0  1
  5 13  4  0  0  1
  5 17  4  0  0  1
  7  6  2  0  0  2
  7  8  2  0  0  2
  7  9  1  0  0  2
  9 10  4  0  0  1
 13 14  4  0  0  1
 14 15  4  0  0  1
 15 16  4  0  0  1
 16 17  4  0  0  1
 17 18  1  0  0  1
 18 19  1  0  0  2
 18 20  1  0  0  1
  1 21  1  0  0  2
  2 22  1  0  0  2
  3 23  1  0  0  2
  4 24  1  0  0  2
  6 25  1  0  0  2
  6 26  1  0  0  2
  8 27  1  0  0  2
  8 28  1  0  0  2
 10 29  1  0  0  2
 12 30  1  0  0  2
 12 31  1  0  0  2
 13 32  1  0  0  2
 14 33  1  0  0  2
 15 34  1  0  0  2
 16 35  1  0  0  2
 17 36  1  0  0  2
 19 37  1  0  0  2
 19 38  1  0  0  2
 20 39  1  0  0  2
M  END
> <MOLECULAR_FORMULA>
C15H19N2O2B

> <MOLECULAR_WEIGHT>
270.0

> <NUM_HB_ATOMS>
4  

> <NUM_ROTOR>
1  

> <XLOGP2>
1.75 

$$$$
