3e3c_ligand
  -I-interpret- 

 36 35  0  0  0  0  0  0  0  0999 V2000
    4.0870   23.3010   33.3650 O   0  0  0  0  0
    3.7870   24.6710   32.8000 P   0  0  0  0  0
    4.1630   25.7980   33.7340 O   0  0  0  0  0
    2.3510   24.8160   32.3310 O   0  0  0  0  0
    4.7450   24.8130   31.5000 O   0  0  0  0  0
    6.1400   25.0700   31.6270 C   0  0  0  0  0
    6.7590   25.2070   30.2380 C   0  0  0  0  0
    5.8910   25.9950   29.3960 O   0  0  0  0  0
    8.1260   25.8690   30.3880 C   0  0  0  0  0
    8.7400   26.0070   29.1040 O   0  0  0  0  0
   10.0610   25.4640   28.7940 C   0  0  0  0  0
   10.7040   24.8510   29.6510 O   0  0  0  0  0
   10.5960   25.6880   27.3910 C   0  0  0  0  0
   11.9780   25.0790   27.1800 C   0  0  0  0  0
   13.0310   26.1750   27.1530 C   0  0  0  0  0
   14.0920   25.8870   26.1020 C   0  0  0  0  0
   15.3760   25.2960   26.6470 C   0  0  0  0  0
    3.8277   22.6301   32.7292 H   0  0  0  0  0
    2.1338   24.0912   31.7401 H   0  0  0  0  0
    6.6153   24.2449   32.1575 H   0  0  0  0  0
    6.2905   25.9940   32.1853 H   0  0  0  0  0
    6.8811   24.2294   29.7716 H   0  0  0  0  0
    5.0398   25.5580   29.3179 H   0  0  0  0  0
    8.7581   25.2508   31.0255 H   0  0  0  0  0
    8.0021   26.8548   30.8364 H   0  0  0  0  0
   10.6780   26.7634   27.2332 H   0  0  0  0  0
    9.9103   25.2087   26.6923 H   0  0  0  0  0
   11.9928   24.5442   26.2303 H   0  0  0  0  0
   12.1960   24.3926   27.9982 H   0  0  0  0  0
   13.5112   26.2223   28.1304 H   0  0  0  0  0
   12.5455   27.1200   26.9095 H   0  0  0  0  0
   14.3510   26.8406   25.6420 H   0  0  0  0  0
   13.6695   25.1522   25.4167 H   0  0  0  0  0
   15.8188   25.9893   27.3621 H   0  0  0  0  0
   15.1573   24.3505   27.1434 H   0  0  0  0  0
   16.0725   25.1244   25.8263 H   0  0  0  0  0
  1  2  1  0  0  0
  2  3  2  0  0  0
  2  4  1  0  0  0
  2  5  1  0  0  0
  5  6  1  0  0  0
  6  7  1  0  0  0
  7  8  1  0  0  0
  7  9  1  0  0  0
  9 10  1  0  0  0
 10 11  1  0  0  0
 11 12  2  0  0  0
 11 13  1  0  0  0
 13 14  1  0  0  0
 14 15  1  0  0  0
 15 16  1  0  0  0
 16 17  1  0  0  0
  1 18  1  0  0  0
  4 19  1  0  0  0
  6 20  1  0  0  0
  6 21  1  0  0  0
  7 22  1  0  0  0
  8 23  1  0  0  0
  9 24  1  0  0  0
  9 25  1  0  0  0
 13 26  1  0  0  0
 13 27  1  0  0  0
 14 28  1  0  0  0
 14 29  1  0  0  0
 15 30  1  0  0  0
 15 31  1  0  0  0
 16 32  1  0  0  0
 16 33  1  0  0  0
 17 34  1  0  0  0
 17 35  1  0  0  0
 17 36  1  0  0  0
M  END
$$$$
