5jt2_ligand
  -I-interpret- 

119126  0  0  0  0  0  0  0  0999 V2000
  -20.4290  -17.2980  -19.5230 C   0  0  0  0  0
  -22.8980  -16.5390  -18.4150 C   0  0  0  0  0
  -22.6880  -13.2380  -19.7500 C   0  0  0  0  0
  -23.1070  -11.5260  -21.1480 C   0  0  0  0  0
  -22.7610  -13.7200  -21.0390 C   0  0  0  0  0
  -23.1980   -9.4350  -19.3230 C   0  0  0  0  0
  -23.6410   -8.5040  -16.9860 C   0  0  0  0  0
  -24.2670  -21.1330  -22.6130 C   0  0  0  0  0
  -23.8960  -21.5680  -21.1770 C   0  0  0  0  0
  -23.1820  -20.4070  -20.4220 C   0  0  0  0  0
  -23.2990  -20.4680  -18.6050 S   0  0  0  0  0
  -23.5490  -18.8640  -18.1610 N   0  0  0  0  0
  -24.3010  -21.3170  -17.9960 O   0  0  0  0  0
  -22.0630  -20.9350  -17.9860 O   0  0  0  0  0
  -22.5660  -17.8870  -18.5830 C   0  0  0  0  0
  -21.3530  -18.2680  -19.1380 C   0  0  0  0  0
  -20.7560  -15.9520  -19.3460 C   0  0  0  0  0
  -21.9910  -15.5690  -18.7940 C   0  0  0  0  0
  -24.0740  -16.1890  -17.8840 F   0  0  0  0  0
  -19.8620  -15.0500  -19.7370 F   0  0  0  0  0
  -22.4150  -14.1120  -18.5520 C   0  0  0  0  0
  -22.5350  -13.7440  -17.4260 O   0  0  0  0  0
  -22.9140  -11.8050  -19.8070 C   0  0  0  0  0
  -23.0170  -12.6850  -21.8620 N   0  0  0  0  0
  -22.9550  -10.7180  -18.8510 C   0  0  0  0  0
  -23.4000   -9.2200  -20.7170 C   0  0  0  0  0
  -23.3460  -10.2410  -21.5810 N   0  0  0  0  0
  -23.2610   -8.2580  -18.3270 C   0  0  0  0  0
  -23.6920   -7.4640  -16.0960 C   0  0  0  0  0
  -23.3970   -6.1990  -16.5000 C   0  0  0  0  0
  -23.0060   -5.9650  -17.8470 C   0  0  0  0  0
  -22.9530   -7.0050  -18.7430 C   0  0  0  0  0
  -23.4600   -5.0410  -15.4840 C   0  0  0  0  0
  -22.0950   -4.5100  -15.2950 N   0  0  0  0  0
  -21.6680   -3.4160  -16.1540 C   0  0  0  0  0
  -20.2660   -2.8560  -16.0440 C   0  0  0  0  0
  -20.2920   -1.6670  -16.8140 O   0  0  0  0  0
  -20.3420   -0.4890  -15.9860 C   0  0  0  0  0
  -18.8640   -0.0040  -15.8720 C   0  0  0  0  0
  -18.5320    1.1860  -15.0990 N   0  0  0  0  0
  -17.1320    1.6120  -15.0610 C   0  0  0  0  0
  -14.8250   17.3580  -23.4400 C   0  0  0  0  0
  -14.9180   16.8410  -22.0130 C   0  0  0  0  0
  -16.3710   16.7730  -21.5190 C   0  0  0  0  0
  -16.4650   16.6470  -19.6950 S   0  0  0  0  0
  -16.2620   15.0850  -19.1130 N   0  0  0  0  0
  -17.7960   17.1290  -19.2790 O   0  0  0  0  0
  -15.5270   17.5400  -19.0100 O   0  0  0  0  0
  -17.1660   14.0730  -19.5540 C   0  0  0  0  0
  -18.2610   14.3540  -20.3400 C   0  0  0  0  0
  -19.0990   13.2940  -20.7400 C   0  0  0  0  0
  -18.8060   11.9900  -20.3250 C   0  0  0  0  0
  -17.7130   11.7400  -19.5370 C   0  0  0  0  0
  -16.8720   12.7910  -19.1590 C   0  0  0  0  0
  -15.7860   12.5770  -18.3750 F   0  0  0  0  0
  -19.6170   10.9480  -20.7060 F   0  0  0  0  0
  -17.3680   10.3210  -19.0770 C   0  0  0  0  0
  -16.7990    9.3490  -20.1650 C   0  0  0  0  0
  -17.5160    9.9750  -17.9550 O   0  0  0  0  0
  -16.5970    7.9530  -20.0230 C   0  0  0  0  0
  -16.0990    7.5310  -21.2070 C   0  0  0  0  0
  -15.9980    8.6000  -22.0760 N   0  0  0  0  0
  -16.4070    9.6770  -21.4700 C   0  0  0  0  0
  -16.8290    7.0320  -18.9530 C   0  0  0  0  0
  -16.5060    5.6930  -19.2110 C   0  0  0  0  0
  -15.9950    5.3310  -20.4370 C   0  0  0  0  0
  -15.7950    6.2190  -21.3900 N   0  0  0  0  0
  -16.6870    4.6200  -18.1650 C   0  0  0  0  0
  -16.3830    4.9290  -16.8320 C   0  0  0  0  0
  -16.5330    3.9740  -15.8530 C   0  0  0  0  0
  -16.9820    2.6810  -16.1980 C   0  0  0  0  0
  -17.2950    2.3830  -17.5330 C   0  0  0  0  0
  -17.1390    3.3440  -18.5240 C   0  0  0  0  0
  -22.4310   -2.9810  -16.9550 O   0  0  0  0  0
  -17.9920   -0.5900  -16.4060 O   0  0  0  0  0
  -19.4697  -17.5846  -19.9539 H   0  0  0  0  0
  -22.6335  -14.7597  -21.3405 H   0  0  0  0  0
  -23.8915   -9.5146  -16.6635 H   0  0  0  0  0
  -24.9363  -20.2738  -22.5695 H   0  0  0  0  0
  -23.3608  -20.8622  -23.1548 H   0  0  0  0  0
  -24.7646  -21.9573  -23.1239 H   0  0  0  0  0
  -23.2225  -22.4234  -21.2291 H   0  0  0  0  0
  -24.8074  -21.8316  -20.6404 H   0  0  0  0  0
  -23.6718  -19.4848  -20.7346 H   0  0  0  0  0
  -22.1227  -20.4805  -20.6683 H   0  0  0  0  0
  -24.3646  -18.5892  -17.6136 H   0  0  0  0  0
  -21.1227  -19.3248  -19.2729 H   0  0  0  0  0
  -22.7991  -10.9023  -17.7881 H   0  0  0  0  0
  -23.6006   -8.2134  -21.0838 H   0  0  0  0  0
  -23.9704   -7.6510  -15.0589 H   0  0  0  0  0
  -22.7473   -4.9566  -18.1698 H   0  0  0  0  0
  -22.6659   -6.8244  -19.7789 H   0  0  0  0  0
  -23.8547   -5.4004  -14.5337 H   0  0  0  0  0
  -24.1173   -4.2549  -15.8556 H   0  0  0  0  0
  -21.4723   -4.8972  -14.5860 H   0  0  0  0  0
  -19.5174   -3.5597  -16.4079 H   0  0  0  0  0
  -19.9851   -2.6638  -15.0085 H   0  0  0  0  0
  -20.7705   -0.7042  -15.0072 H   0  0  0  0  0
  -20.9842    0.2785  -16.4181 H   0  0  0  0  0
  -19.2533    1.7063  -14.5996 H   0  0  0  0  0
  -16.4564    0.7706  -15.2152 H   0  0  0  0  0
  -16.8694    2.0274  -14.0881 H   0  0  0  0  0
  -15.3797   16.6937  -24.1026 H   0  0  0  0  0
  -15.2495   18.3607  -23.4902 H   0  0  0  0  0
  -13.7794   17.3889  -23.7465 H   0  0  0  0  0
  -14.3698   17.5258  -21.3660 H   0  0  0  0  0
  -14.5019   15.8339  -21.9876 H   0  0  0  0  0
  -16.8371   15.8859  -21.9478 H   0  0  0  0  0
  -16.8799   17.6869  -21.8256 H   0  0  0  0  0
  -15.5103   14.8649  -18.4597 H   0  0  0  0  0
  -18.4757   15.3775  -20.6472 H   0  0  0  0  0
  -19.9686   13.4882  -21.3678 H   0  0  0  0  0
  -16.4394   10.6747  -21.9077 H   0  0  0  0  0
  -17.2334    7.3531  -17.9931 H   0  0  0  0  0
  -15.7501    4.2854  -20.6238 H   0  0  0  0  0
  -16.0278    5.9259  -16.5710 H   0  0  0  0  0
  -16.3059    4.2150  -14.8145 H   0  0  0  0  0
  -17.6630    1.3908  -17.7942 H   0  0  0  0  0
  -17.3647    3.1087  -19.5641 H   0  0  0  0  0
  1 16  4  0  0  0
 17  1  4  0  0  0
  2 15  4  0  0  0
 18  2  4  0  0  0
  2 19  1  0  0  0
  3  5  4  0  0  0
  3 21  1  0  0  0
 23  3  4  0  0  0
 23  4  4  0  0  0
  4 24  4  0  0  0
 27  4  4  0  0  0
 24  5  4  0  0  0
  6 25  4  0  0  0
  6 26  4  0  0  0
 28  6  1  0  0  0
  7 28  4  0  0  0
 29  7  4  0  0  0
  9  8  1  0  0  0
 10  9  1  0  0  0
 11 10  1  0  0  0
 12 11  1  0  0  0
 11 13  2  0  0  0
 11 14  2  0  0  0
 15 12  1  0  0  0
 15 16  4  0  0  0
 18 17  4  0  0  0
 17 20  1  0  0  0
 21 18  1  0  0  0
 21 22  2  0  0  0
 25 23  4  0  0  0
 26 27  4  0  0  0
 32 28  4  0  0  0
 30 29  4  0  0  0
 30 31  4  0  0  0
 33 30  1  0  0  0
 31 32  4  0  0  0
 34 33  1  0  0  0
 35 34  1  0  0  0
 36 35  1  0  0  0
 35 74  2  0  0  0
 37 36  1  0  0  0
 38 37  1  0  0  0
 39 38  1  0  0  0
 40 39  1  0  0  0
 39 75  2  0  0  0
 41 40  1  0  0  0
 71 41  1  0  0  0
 43 42  1  0  0  0
 44 43  1  0  0  0
 45 44  1  0  0  0
 46 45  1  0  0  0
 45 47  2  0  0  0
 45 48  2  0  0  0
 49 46  1  0  0  0
 49 50  4  0  0  0
 54 49  4  0  0  0
 51 50  4  0  0  0
 52 51  4  0  0  0
 53 52  4  0  0  0
 52 56  1  0  0  0
 53 54  4  0  0  0
 57 53  1  0  0  0
 54 55  1  0  0  0
 58 57  1  0  0  0
 57 59  2  0  0  0
 60 58  4  0  0  0
 58 63  4  0  0  0
 60 61  4  0  0  0
 64 60  4  0  0  0
 61 62  4  0  0  0
 67 61  4  0  0  0
 62 63  4  0  0  0
 65 64  4  0  0  0
 65 66  4  0  0  0
 68 65  1  0  0  0
 66 67  4  0  0  0
 69 68  4  0  0  0
 68 73  4  0  0  0
 70 69  4  0  0  0
 70 71  4  0  0  0
 71 72  4  0  0  0
 72 73  4  0  0  0
  1 76  1  0  0  0
  5 77  1  0  0  0
  7 78  1  0  0  0
  8 79  1  0  0  0
  8 80  1  0  0  0
  8 81  1  0  0  0
  9 82  1  0  0  0
  9 83  1  0  0  0
 10 84  1  0  0  0
 10 85  1  0  0  0
 12 86  1  0  0  0
 16 87  1  0  0  0
 25 88  1  0  0  0
 26 89  1  0  0  0
 29 90  1  0  0  0
 31 91  1  0  0  0
 32 92  1  0  0  0
 33 93  1  0  0  0
 33 94  1  0  0  0
 34 95  1  0  0  0
 36 96  1  0  0  0
 36 97  1  0  0  0
 38 98  1  0  0  0
 38 99  1  0  0  0
 40100  1  0  0  0
 41101  1  0  0  0
 41102  1  0  0  0
 42103  1  0  0  0
 42104  1  0  0  0
 42105  1  0  0  0
 43106  1  0  0  0
 43107  1  0  0  0
 44108  1  0  0  0
 44109  1  0  0  0
 46110  1  0  0  0
 50111  1  0  0  0
 51112  1  0  0  0
 63113  1  0  0  0
 64114  1  0  0  0
 66115  1  0  0  0
 69116  1  0  0  0
 70117  1  0  0  0
 72118  1  0  0  0
 73119  1  0  0  0
M  END
$$$$
