### 
### Created by X-TOOL on Mon Sep 10 21:13:29 2018
### 

@<TRIPOS>MOLECULE
5jt2_ligand
  121   128     1     0     0
SMALL
GAST_HUCK


@<TRIPOS>ATOM
      1 C10       -20.4290  -17.2980  -19.5230 C.ar      1 6NC        -0.0421
      2 C13       -22.8980  -16.5390  -18.4150 C.ar      1 6NC         0.1647
      3 C17       -22.6880  -13.2380  -19.7500 C.2       1 6NC         0.0413
      4 C20       -23.1070  -11.5260  -21.1480 C.ar      1 6NC         0.1413
      5 C22       -22.7610  -13.7200  -21.0390 C.2       1 6NC         0.0539
      6 C24       -23.1980   -9.4350  -19.3230 C.ar      1 6NC        -0.0101
      7 C28       -23.6410   -8.5040  -16.9860 C.ar      1 6NC        -0.0609
      8 C01       -24.2670  -21.1330  -22.6130 C.3       1 6NC        -0.0637
      9 C02       -23.8960  -21.5680  -21.1770 C.3       1 6NC        -0.0342
     10 C03       -23.1820  -20.4070  -20.4220 C.3       1 6NC         0.0894
     11 S04       -23.2990  -20.4680  -18.6050 S.o2      1 6NC         0.0588
     12 N05       -23.5490  -18.8640  -18.1610 N.am      1 6NC        -0.1922
     13 O06       -24.3010  -21.3170  -17.9960 O.2       1 6NC        -0.1502
     14 O07       -22.0630  -20.9350  -17.9860 O.2       1 6NC        -0.1502
     15 C08       -22.5660  -17.8870  -18.5830 C.ar      1 6NC         0.0978
     16 C09       -21.3530  -18.2680  -19.1380 C.ar      1 6NC        -0.0439
     17 C11       -20.7560  -15.9520  -19.3460 C.ar      1 6NC         0.1310
     18 C12       -21.9910  -15.5690  -18.7940 C.ar      1 6NC         0.0790
     19 F14       -24.0740  -16.1890  -17.8840 F         1 6NC        -0.1907
     20 F15       -19.8620  -15.0500  -19.7370 F         1 6NC        -0.1929
     21 C16       -22.4150  -14.1120  -18.5520 C.2       1 6NC         0.1306
     22 O18       -22.5350  -13.7440  -17.4260 O.2       1 6NC        -0.3914
     23 C19       -22.9140  -11.8050  -19.8070 C.ar      1 6NC         0.0174
     24 N21       -23.0170  -12.6850  -21.8620 N.pl3     1 6NC        -0.2552
     25 C23       -22.9550  -10.7180  -18.8510 C.ar      1 6NC        -0.0473
     26 C25       -23.4000   -9.2200  -20.7170 C.ar      1 6NC         0.0021
     27 N26       -23.3460  -10.2410  -21.5810 N.ar      1 6NC        -0.2838
     28 C27       -23.2610   -8.2580  -18.3270 C.ar      1 6NC        -0.0249
     29 C29       -23.6920   -7.4640  -16.0960 C.ar      1 6NC        -0.0577
     30 C30       -23.3970   -6.1990  -16.5000 C.ar      1 6NC        -0.0206
     31 C31       -23.0060   -5.9650  -17.8470 C.ar      1 6NC        -0.0577
     32 C32       -22.9530   -7.0050  -18.7430 C.ar      1 6NC        -0.0609
     33 C33       -23.4600   -5.0410  -15.4840 C.3       1 6NC         0.0647
     34 N34       -22.0950   -4.5100  -15.2950 N.am      1 6NC        -0.2736
     35 C35       -21.6680   -3.4160  -16.1540 C.2       1 6NC         0.2041
     36 C36       -20.2660   -2.8560  -16.0440 C.3       1 6NC         0.1397
     37 O37       -20.2920   -1.6670  -16.8140 O.3       1 6NC        -0.3392
     38 C38       -20.3420   -0.4890  -15.9860 C.3       1 6NC         0.1397
     39 C39       -18.8640   -0.0040  -15.8720 C.2       1 6NC         0.2041
     40 N40       -18.5320    1.1860  -15.0990 N.am      1 6NC        -0.2736
     41 C41       -17.1320    1.6120  -15.0610 C.3       1 6NC         0.0647
     42 C42       -14.8250   17.3580  -23.4400 C.3       1 6NC        -0.0637
     43 C43       -14.9180   16.8410  -22.0130 C.3       1 6NC        -0.0342
     44 C44       -16.3710   16.7730  -21.5190 C.3       1 6NC         0.0894
     45 S45       -16.4650   16.6470  -19.6950 S.o2      1 6NC         0.0588
     46 N46       -16.2620   15.0850  -19.1130 N.am      1 6NC        -0.1922
     47 O47       -17.7960   17.1290  -19.2790 O.2       1 6NC        -0.1502
     48 O48       -15.5270   17.5400  -19.0100 O.2       1 6NC        -0.1502
     49 C49       -17.1660   14.0730  -19.5540 C.ar      1 6NC         0.0978
     50 C50       -18.2610   14.3540  -20.3400 C.ar      1 6NC        -0.0439
     51 C51       -19.0990   13.2940  -20.7400 C.ar      1 6NC        -0.0421
     52 C52       -18.8060   11.9900  -20.3250 C.ar      1 6NC         0.1310
     53 C53       -17.7130   11.7400  -19.5370 C.ar      1 6NC         0.0790
     54 C54       -16.8720   12.7910  -19.1590 C.ar      1 6NC         0.1647
     55 F55       -15.7860   12.5770  -18.3750 F         1 6NC        -0.1907
     56 F56       -19.6170   10.9480  -20.7060 F         1 6NC        -0.1929
     57 C57       -17.3680   10.3210  -19.0770 C.2       1 6NC         0.1306
     58 C58       -16.7990    9.3490  -20.1650 C.2       1 6NC         0.0413
     59 O59       -17.5160    9.9750  -17.9550 O.2       1 6NC        -0.3914
     60 C60       -16.5970    7.9530  -20.0230 C.ar      1 6NC         0.0174
     61 C61       -16.0990    7.5310  -21.2070 C.ar      1 6NC         0.1413
     62 N62       -15.9980    8.6000  -22.0760 N.pl3     1 6NC        -0.2552
     63 C63       -16.4070    9.6770  -21.4700 C.2       1 6NC         0.0539
     64 C64       -16.8290    7.0320  -18.9530 C.ar      1 6NC        -0.0473
     65 C65       -16.5060    5.6930  -19.2110 C.ar      1 6NC        -0.0101
     66 C66       -15.9950    5.3310  -20.4370 C.ar      1 6NC         0.0021
     67 N67       -15.7950    6.2190  -21.3900 N.ar      1 6NC        -0.2838
     68 C68       -16.6870    4.6200  -18.1650 C.ar      1 6NC        -0.0249
     69 C69       -16.3830    4.9290  -16.8320 C.ar      1 6NC        -0.0609
     70 C70       -16.5330    3.9740  -15.8530 C.ar      1 6NC        -0.0577
     71 C71       -16.9820    2.6810  -16.1980 C.ar      1 6NC        -0.0206
     72 C72       -17.2950    2.3830  -17.5330 C.ar      1 6NC        -0.0577
     73 C73       -17.1390    3.3440  -18.5240 C.ar      1 6NC        -0.0609
     74 O74       -22.4310   -2.9810  -16.9550 O.2       1 6NC        -0.3944
     75 O75       -17.9920   -0.5900  -16.4060 O.2       1 6NC        -0.3944
     76 H1        -19.4750  -17.5830  -19.9515 H         1 6NC         0.0539
     77 H2        -22.6336  -14.7587  -21.3403 H         1 6NC         0.1098
     78 H3        -23.8901   -9.5091  -16.6653 H         1 6NC         0.0603
     79 H4        -24.7693  -21.9641  -23.1296 H         1 6NC         0.0230
     80 H5        -23.3532  -20.8594  -23.1609 H         1 6NC         0.0230
     81 H6        -24.9426  -20.2659  -22.5705 H         1 6NC         0.0230
     82 H7        -23.2229  -22.4367  -21.2245 H         1 6NC         0.0279
     83 H8        -24.8122  -21.8432  -20.6341 H         1 6NC         0.0279
     84 H9        -23.6266  -19.4590  -20.7590 H         1 6NC         0.0523
     85 H10       -22.1165  -20.4297  -20.6944 H         1 6NC         0.0523
     86 H11       -24.3486  -18.5946  -17.6243 H         1 6NC         0.2130
     87 H12       -21.1240  -19.3190  -19.2721 H         1 6NC         0.0496
     88 H13       -23.1287  -12.7580  -22.8833 H         1 6NC         0.2360
     89 H14       -22.7999  -10.9013  -17.7939 H         1 6NC         0.0665
     90 H15       -23.5995   -8.2189  -21.0818 H         1 6NC         0.0753
     91 H16       -23.9688   -7.6500  -15.0646 H         1 6NC         0.0559
     92 H17       -22.7488   -4.9621  -18.1681 H         1 6NC         0.0559
     93 H18       -22.6675   -6.8254  -19.7732 H         1 6NC         0.0603
     94 H19       -23.8509   -5.4100  -14.5243 H         1 6NC         0.0685
     95 H20       -24.1176   -4.2466  -15.8668 H         1 6NC         0.0685
     96 H21       -21.4845   -4.8896  -14.5999 H         1 6NC         0.1879
     97 H22       -19.5316   -3.5661  -16.4518 H         1 6NC         0.0806
     98 H23       -20.0182   -2.6337  -14.9956 H         1 6NC         0.0806
     99 H24       -20.7452   -0.7333  -14.9921 H         1 6NC         0.0806
    100 H25       -20.9667    0.2855  -16.4549 H         1 6NC         0.0806
    101 H26       -19.2391    1.6961  -14.6094 H         1 6NC         0.1879
    102 H27       -16.4658    0.7570  -15.2484 H         1 6NC         0.0685
    103 H28       -16.8927    2.0559  -14.0834 H         1 6NC         0.0685
    104 H29       -13.7702   17.3897  -23.7505 H         1 6NC         0.0230
    105 H30       -15.2530   18.3700  -23.4920 H         1 6NC         0.0230
    106 H31       -15.3844   16.6884  -24.1098 H         1 6NC         0.0230
    107 H32       -14.3500   17.5139  -21.3538 H         1 6NC         0.0279
    108 H33       -14.4813   15.8323  -21.9716 H         1 6NC         0.0279
    109 H34       -16.8566   15.8911  -21.9621 H         1 6NC         0.0523
    110 H35       -16.8992   17.6828  -21.8405 H         1 6NC         0.0523
    111 H36       -15.5250   14.8692  -18.4725 H         1 6NC         0.2130
    112 H37       -18.4745   15.3719  -20.6455 H         1 6NC         0.0496
    113 H38       -19.9639   13.4872  -21.3643 H         1 6NC         0.0539
    114 H39       -15.6548    8.5526  -23.0460 H         1 6NC         0.2360
    115 H40       -16.4394   10.6738  -21.9073 H         1 6NC         0.1098
    116 H41       -17.2312    7.3513  -17.9984 H         1 6NC         0.0665
    117 H42       -15.7514    4.2912  -20.6228 H         1 6NC         0.0753
    118 H43       -16.0297    5.9204  -16.5725 H         1 6NC         0.0603
    119 H44       -16.3071    4.2137  -14.8202 H         1 6NC         0.0559
    120 H45       -17.6610    1.3963  -17.7928 H         1 6NC         0.0559
    121 H46       -17.3635    3.1100  -19.5584 H         1 6NC         0.0603
@<TRIPOS>BOND
     1    1   16 ar 
     2   17    1 ar 
     3    2   15 ar 
     4   18    2 ar 
     5    2   19 1  
     6    3    5 2  
     7    3   21 1  
     8   23    3 1  
     9   23    4 ar 
    10    4   24 1  
    11   27    4 ar 
    12   24    5 1  
    13    6   25 ar 
    14    6   26 ar 
    15   28    6 1  
    16    7   28 ar 
    17   29    7 ar 
    18    9    8 1  
    19   10    9 1  
    20   11   10 1  
    21   12   11 am 
    22   11   13 2  
    23   11   14 2  
    24   15   12 1  
    25   15   16 ar 
    26   18   17 ar 
    27   17   20 1  
    28   21   18 1  
    29   21   22 2  
    30   25   23 ar 
    31   26   27 ar 
    32   32   28 ar 
    33   30   29 ar 
    34   30   31 ar 
    35   33   30 1  
    36   31   32 ar 
    37   34   33 1  
    38   35   34 am 
    39   36   35 1  
    40   35   74 2  
    41   37   36 1  
    42   38   37 1  
    43   39   38 1  
    44   40   39 am 
    45   39   75 2  
    46   41   40 1  
    47   71   41 1  
    48   43   42 1  
    49   44   43 1  
    50   45   44 1  
    51   46   45 am 
    52   45   47 2  
    53   45   48 2  
    54   49   46 1  
    55   49   50 ar 
    56   54   49 ar 
    57   51   50 ar 
    58   52   51 ar 
    59   53   52 ar 
    60   52   56 1  
    61   53   54 ar 
    62   57   53 1  
    63   54   55 1  
    64   58   57 1  
    65   57   59 2  
    66   60   58 1  
    67   58   63 2  
    68   60   61 ar 
    69   64   60 ar 
    70   61   62 1  
    71   67   61 ar 
    72   62   63 1  
    73   65   64 ar 
    74   65   66 ar 
    75   68   65 1  
    76   66   67 ar 
    77   69   68 ar 
    78   68   73 ar 
    79   70   69 ar 
    80   70   71 ar 
    81   71   72 ar 
    82   72   73 ar 
    83    1   76 1  
    84    5   77 1  
    85    7   78 1  
    86    8   79 1  
    87    8   80 1  
    88    8   81 1  
    89    9   82 1  
    90    9   83 1  
    91   10   84 1  
    92   10   85 1  
    93   12   86 1  
    94   16   87 1  
    95   24   88 1  
    96   25   89 1  
    97   26   90 1  
    98   29   91 1  
    99   31   92 1  
   100   32   93 1  
   101   33   94 1  
   102   33   95 1  
   103   34   96 1  
   104   36   97 1  
   105   36   98 1  
   106   38   99 1  
   107   38  100 1  
   108   40  101 1  
   109   41  102 1  
   110   41  103 1  
   111   42  104 1  
   112   42  105 1  
   113   42  106 1  
   114   43  107 1  
   115   43  108 1  
   116   44  109 1  
   117   44  110 1  
   118   46  111 1  
   119   50  112 1  
   120   51  113 1  
   121   62  114 1  
   122   63  115 1  
   123   64  116 1  
   124   66  117 1  
   125   69  118 1  
   126   70  119 1  
   127   72  120 1  
   128   73  121 1  
@<TRIPOS>SUBSTRUCTURE
     1 6NC         1

