4abh_ligand
  -I-interpret- 

 30 31  0  0  0  0  0  0  0  0999 V2000
    1.8130  -15.9790   18.2830 C   0  0  0  0  0
    3.1190  -15.7710   19.0010 N   0  3  0  0  0
    1.6750  -15.1310   17.0630 C   0  0  0  0  0
    2.4160  -11.6370   15.8790 N   0  0  0  0  0
    1.3110  -15.7700   15.8650 C   0  0  0  0  0
    1.2180  -15.0150   14.7150 C   0  0  0  0  0
    1.5900  -13.6520   14.6800 C   0  0  0  0  0
    2.0050  -13.0640   15.8460 C   0  0  0  0  0
    2.6860  -11.0220   14.5590 C   0  0  0  0  0
    3.4630   -9.8000   14.9710 C   0  0  0  0  0
    4.0280  -10.0400   16.3680 C   0  0  0  0  0
    3.3670  -11.2460   16.9520 C   0  0  0  0  0
    2.0470  -13.8110   17.0360 C   0  0  0  0  0
    1.0107  -15.7064   18.9687 H   0  0  0  0  0
    1.7701  -17.0217   17.9685 H   0  0  0  0  0
    3.1542  -16.3751   19.8221 H   0  0  0  0  0
    3.8904  -16.0014   18.3747 H   0  0  0  0  0
    3.1946  -14.7961   19.2912 H   0  0  0  0  0
    1.1064  -16.8405   15.8456 H   0  0  0  0  0
    0.8459  -15.4841   13.8042 H   0  0  0  0  0
    1.5479  -13.0839   13.7507 H   0  0  0  0  0
    1.7885  -10.8022   13.9808 H   0  0  0  0  0
    3.2197  -11.6739   13.8674 H   0  0  0  0  0
    2.8110   -8.9266   14.9764 H   0  0  0  0  0
    4.2740   -9.6173   14.2660 H   0  0  0  0  0
    3.8372   -9.1716   16.9986 H   0  0  0  0  0
    5.1046  -10.2000   16.3093 H   0  0  0  0  0
    4.0704  -12.0374   17.2108 H   0  0  0  0  0
    2.8789  -11.0476   17.9062 H   0  0  0  0  0
    2.3819  -13.3317   17.9559 H   0  0  0  0  0
  1  2  1  0  0  0
  3  1  1  0  0  0
  5  3  4  0  0  0
  3 13  4  0  0  0
  8  4  1  0  0  0
  4  9  1  0  0  0
  4 12  1  0  0  0
  6  5  4  0  0  0
  7  6  4  0  0  0
  7  8  4  0  0  0
  8 13  4  0  0  0
  9 10  1  0  0  0
 10 11  1  0  0  0
 11 12  1  0  0  0
  1 14  1  0  0  0
  1 15  1  0  0  0
  2 16  1  0  0  0
  2 17  1  0  0  0
  2 18  1  0  0  0
  5 19  1  0  0  0
  6 20  1  0  0  0
  7 21  1  0  0  0
  9 22  1  0  0  0
  9 23  1  0  0  0
 10 24  1  0  0  0
 10 25  1  0  0  0
 11 26  1  0  0  0
 11 27  1  0  0  0
 12 28  1  0  0  0
 12 29  1  0  0  0
 13 30  1  0  0  0
M  END
$$$$
