5g1a_ligand
  -I-interpret- 

 39 39  0  0  0  0  0  0  0  0999 V2000
   51.6870   12.2710  -23.1980 O   0  0  0  0  0
   52.8060   12.7080  -22.9850 C   0  0  0  0  0
   52.8490   13.6210  -22.0950 N   0  0  0  0  0
   51.7100   14.1310  -21.5610 O   0  0  0  0  0
   54.1760   12.4570  -23.6260 C   0  0  0  0  0
   54.7740   13.6390  -23.7250 F   0  0  0  0  0
   54.0560   11.9670  -24.8320 F   0  0  0  0  0
   55.0940   11.5650  -22.7810 C   0  0  0  0  0
   54.4430   10.4370  -22.6150 F   0  0  0  0  0
   55.2340   12.1480  -21.6090 F   0  0  0  0  0
   56.4770   11.1850  -23.3390 C   0  0  0  0  0
   56.2970   10.4200  -24.3960 F   0  0  0  0  0
   57.0520   10.4210  -22.4330 F   0  0  0  0  0
   57.4360   12.3310  -23.7200 C   0  0  0  0  0
   57.3730   13.3170  -22.8480 F   0  0  0  0  0
   57.0520   12.8590  -24.8560 F   0  0  0  0  0
   58.9010   11.9080  -23.8180 C   0  0  0  0  0
   59.0060   10.7340  -24.3960 F   0  0  0  0  0
   59.3400   11.7300  -22.5890 F   0  0  0  0  0
   59.8290   12.9150  -24.5200 C   0  0  0  0  0
   59.5020   14.1630  -24.2430 F   0  0  0  0  0
   59.7260   12.7790  -25.8240 F   0  0  0  0  0
   61.2430   12.6900  -24.0290 C   0  0  0  0  0
   61.5800   11.5300  -23.8780 O   0  0  0  0  0
   62.0070   13.7750  -23.7640 N   0  0  0  0  0
   63.3170   13.7730  -23.3480 C   0  0  0  0  0
   64.0430   14.9570  -23.4880 C   0  0  0  0  0
   65.3980   15.0330  -23.1590 C   0  0  0  0  0
   66.0700   13.9150  -22.6760 C   0  0  0  0  0
   65.3730   12.7220  -22.5260 C   0  0  0  0  0
   64.0150   12.6620  -22.8540 C   0  0  0  0  0
   53.7530   13.9731  -21.7799 H   0  0  0  0  0
   51.9346   14.8024  -20.9126 H   0  0  0  0  0
   61.5660   14.6867  -23.8853 H   0  0  0  0  0
   63.5383   15.8467  -23.8645 H   0  0  0  0  0
   65.9327   15.9749  -23.2815 H   0  0  0  0  0
   67.1276   13.9737  -22.4189 H   0  0  0  0  0
   65.8842   11.8344  -22.1532 H   0  0  0  0  0
   63.4817   11.7207  -22.7213 H   0  0  0  0  0
  1  2  2  0  0  0
  2  3  1  0  0  0
  2  5  1  0  0  0
  3  4  1  0  0  0
  5  6  1  0  0  0
  5  7  1  0  0  0
  5  8  1  0  0  0
  8  9  1  0  0  0
  8 10  1  0  0  0
  8 11  1  0  0  0
 11 12  1  0  0  0
 11 13  1  0  0  0
 11 14  1  0  0  0
 14 15  1  0  0  0
 14 16  1  0  0  0
 14 17  1  0  0  0
 17 18  1  0  0  0
 17 19  1  0  0  0
 17 20  1  0  0  0
 20 21  1  0  0  0
 20 22  1  0  0  0
 20 23  1  0  0  0
 23 24  2  0  0  0
 23 25  1  0  0  0
 25 26  1  0  0  0
 26 27  4  0  0  0
 26 31  4  0  0  0
 27 28  4  0  0  0
 28 29  4  0  0  0
 29 30  4  0  0  0
 30 31  4  0  0  0
  3 32  1  0  0  0
  4 33  1  0  0  0
 25 34  1  0  0  0
 27 35  1  0  0  0
 28 36  1  0  0  0
 29 37  1  0  0  0
 30 38  1  0  0  0
 31 39  1  0  0  0
M  END
$$$$
