4zdu_ligand
  -I-interpret- 

196196  0  0  0  0  0  0  0  0999 V2000
   26.7240   -3.9820  -19.8560 N   0  3  0  0  0
   27.2310   -3.7090  -18.5190 C   0  0  0  0  0
   27.6070   -2.2420  -18.3710 C   0  0  0  0  0
   27.4520   -1.4530  -19.3040 O   0  0  0  0  0
   28.4390   -4.5960  -18.2070 C   0  0  0  0  0
   29.4460   -4.4550  -19.1950 O   0  0  0  0  0
   28.1090   -1.8870  -17.1930 N   0  0  0  0  0
   28.4920   -0.5130  -16.9000 C   0  0  0  0  0
   29.5070   -0.4960  -15.7560 C   0  0  0  0  0
   29.6050   -1.4580  -14.9980 O   0  0  0  0  0
   27.2530    0.3170  -16.5560 C   0  0  0  0  0
   27.4560    1.8190  -16.6270 C   0  0  0  0  0
   26.1640    2.5890  -16.4430 C   0  0  0  0  0
   25.0770    2.0710  -16.7000 O   0  0  0  0  0
   26.2760    3.8330  -15.9940 N   0  0  0  0  0
   30.2660    0.5900  -15.6420 N   0  0  0  0  0
   31.3130    0.6940  -14.6400 C   0  0  0  0  0
   30.8130    0.7330  -13.2060 C   0  0  0  0  0
   29.6080    0.7240  -12.9550 O   0  0  0  0  0
   31.7510    0.7870  -12.2630 N   0  0  0  0  0
   31.4270    0.7330  -10.8390 C   0  0  0  0  0
   31.5940    2.0810  -10.1390 C   0  0  0  0  0
   32.6960    2.6230  -10.0650 O   0  0  0  0  0
   32.3010   -0.3020  -10.1040 C   0  0  0  0  0
   32.0520   -1.6090  -10.6330 O   0  0  0  0  0
   31.9900   -0.3000   -8.6060 C   0  0  0  0  0
   30.4940    2.6140   -9.6180 N   0  0  0  0  0
   30.5460    3.8140   -8.7880 C   0  0  0  0  0
   31.1890    3.4920   -7.4400 C   0  0  0  0  0
   30.8530    2.4890   -6.8170 O   0  0  0  0  0
   29.1420    4.3900   -8.5750 C   0  0  0  0  0
   28.4330    4.8110   -9.8510 C   0  0  0  0  0
   28.9950    6.1090  -10.3980 C   0  0  0  0  0
   28.1580    6.6060  -11.5630 C   0  0  0  0  0
   28.6020    7.9480  -12.0240 N   0  3  0  0  0
   32.1150    4.3380   -6.9980 N   0  0  0  0  0
   32.7650    4.1590   -5.7010 C   0  0  0  0  0
   32.6850    5.4390   -4.8770 C   0  0  0  0  0
   33.1890    6.4840   -5.2920 O   0  0  0  0  0
   34.2290    3.7410   -5.8730 C   0  0  0  0  0
   34.4300    2.3300   -6.4140 C   0  0  0  0  0
   35.9060    2.0450   -6.6850 C   0  0  0  0  0
   36.5120    3.0650   -7.5390 N   0  0  0  0  0
   37.5910    3.7760   -7.2190 C   0  0  0  0  0
   38.2000    3.5840   -6.0590 N   0  0  0  0  0
   38.0650    4.6820   -8.0650 N   0  0  0  0  0
   32.0480    5.3580   -3.7140 N   0  0  0  0  0
   31.9660    6.5070   -2.8230 C   0  0  0  0  0
   33.3430    6.8320   -2.2540 C   0  0  0  0  0
   34.2810    6.0420   -2.3770 O   0  0  0  0  0
   30.9740    6.2510   -1.6870 C   0  0  0  0  0
   31.4710    5.2700   -0.7950 O   0  0  0  0  0
   33.4540    7.9960   -1.6260 N   0  0  0  0  0
   34.7260    8.4500   -1.0830 C   0  0  0  0  0
   35.3310    7.4480   -0.0980 C   0  0  0  0  0
   36.5370    7.2020   -0.1140 O   0  0  0  0  0
   34.5590    9.8070   -0.4040 C   0  0  0  0  0
   35.8230   10.2730    0.2640 C   0  0  0  0  0
   36.8690   10.7880   -0.4840 C   0  0  0  0  0
   35.9800   10.1840    1.6410 C   0  0  0  0  0
   38.0330   11.2060    0.1160 C   0  0  0  0  0
   37.1430   10.6020    2.2510 C   0  0  0  0  0
   38.1660   11.1130    1.4820 C   0  0  0  0  0
   39.3290   11.5340    2.0790 O   0  0  0  0  0
   34.4900    6.8680    0.7520 N   0  0  0  0  0
   34.9530    5.8970    1.7370 C   0  0  0  0  0
   35.3400    4.5810    1.0650 C   0  0  0  0  0
   36.1950    3.8460    1.5630 O   0  0  0  0  0
   33.8800    5.6640    2.8050 C   0  0  0  0  0
   33.5480    6.9120    3.6130 C   0  0  0  0  0
   32.4680    6.6770    4.6520 C   0  0  0  0  0
   31.9920    7.6670    5.2460 O   0  0  0  0  0
   32.0980    5.5060    4.8810 O   0  0  0  0  0
   34.7140    4.2920   -0.0710 N   0  0  0  0  0
   35.0520    3.1010   -0.8420 C   0  0  0  0  0
   36.4000    3.2670   -1.5480 C   0  0  0  0  0
   37.0590    2.2810   -1.8740 O   0  0  0  0  0
   33.9520    2.7850   -1.8590 C   0  0  0  0  0
   32.6300    2.3480   -1.2410 C   0  0  0  0  0
   31.5520    2.0900   -2.2820 C   0  0  0  0  0
   31.1970    2.9770   -3.0600 O   0  0  0  0  0
   31.0190    0.8720   -2.2940 N   0  0  0  0  0
   36.8080    4.5140   -1.7800 N   0  0  0  0  0
   38.1100    4.7870   -2.3910 C   0  0  0  0  0
   39.2390    4.5700   -1.4060 C   0  0  0  0  0
   40.2470    3.9370   -1.7270 O   0  0  0  0  0
   38.2030    6.2210   -2.9220 C   0  0  0  0  0
   39.6600    6.6560   -3.1110 C   0  0  0  0  0
   39.9350    8.3230   -3.7060 S   0  0  0  0  0
   39.3880    9.2780   -2.3110 C   0  0  0  0  0
   39.0690    5.1240   -0.2110 N   0  0  0  0  0
   40.0610    5.0090    0.8510 C   0  0  0  0  0
   39.7820    3.7920    1.7250 C   0  0  0  0  0
   40.6250    2.9050    1.8600 O   0  0  0  0  0
   40.0780    6.2820    1.7010 C   0  0  0  0  0
   41.1720    7.2680    1.3220 C   0  0  0  0  0
   40.8670    8.6820    1.7730 C   0  0  0  0  0
   39.8930    8.8660    2.5340 O   0  0  0  0  0
   41.5990    9.6080    1.3650 O   0  0  0  0  0
   38.7080    3.6710    2.3140 O   0  0  0  0  0
   25.9210   -3.3815  -20.0430 H   0  0  0  0  0
   27.4565   -3.7953  -20.5408 H   0  0  0  0  0
   26.4405   -4.9599  -19.9177 H   0  0  0  0  0
   26.4376   -3.9363  -17.8070 H   0  0  0  0  0
   28.1122   -5.6357  -18.1886 H   0  0  0  0  0
   28.8517   -4.2963  -17.2437 H   0  0  0  0  0
   30.1898   -5.0207  -18.9752 H   0  0  0  0  0
   28.2297   -2.5985  -16.4722 H   0  0  0  0  0
   28.9581   -0.0684  -17.7793 H   0  0  0  0  0
   26.9893    0.0810  -15.5251 H   0  0  0  0  0
   26.4884    0.0652  -17.2909 H   0  0  0  0  0
   27.8523    2.0583  -17.6138 H   0  0  0  0  0
   28.1349    2.1048  -15.8236 H   0  0  0  0  0
   25.4406    4.4000  -15.8490 H   0  0  0  0  0
   27.1975    4.2220  -15.7939 H   0  0  0  0  0
   30.1085    1.3729  -16.2766 H   0  0  0  0  0
   31.8348    1.6337  -14.8210 H   0  0  0  0  0
   31.9354   -0.1957  -14.7362 H   0  0  0  0  0
   32.7282    0.8688  -12.5436 H   0  0  0  0  0
   30.3771    0.4436  -10.7929 H   0  0  0  0  0
   33.3477   -0.0360  -10.2512 H   0  0  0  0  0
   32.5988   -2.2492  -10.1717 H   0  0  0  0  0
   32.1917    0.6895   -8.1957 H   0  0  0  0  0
   30.9402   -0.5507   -8.4538 H   0  0  0  0  0
   32.6173   -1.0373   -8.1050 H   0  0  0  0  0
   29.5922    2.1745   -9.8022 H   0  0  0  0  0
   31.1499    4.5611   -9.3030 H   0  0  0  0  0
   29.2540    5.2846   -7.9624 H   0  0  0  0  0
   28.5401    3.6030   -8.1206 H   0  0  0  0  0
   27.3770    4.9602   -9.6257 H   0  0  0  0  0
   28.5763    4.0309  -10.5987 H   0  0  0  0  0
   30.0135    5.9341  -10.7446 H   0  0  0  0  0
   28.9814    6.8600   -9.6081 H   0  0  0  0  0
   27.1213    6.6806  -11.2346 H   0  0  0  0  0
   28.2682    5.9044  -12.3898 H   0  0  0  0  0
   28.0185    8.2481  -12.8050 H   0  0  0  0  0
   28.5156    8.6153  -11.2574 H   0  0  0  0  0
   29.5754    7.8980  -12.3248 H   0  0  0  0  0
   32.3788    5.1332   -7.5797 H   0  0  0  0  0
   32.2372    3.3652   -5.1724 H   0  0  0  0  0
   34.6850    3.7690   -4.8834 H   0  0  0  0  0
   34.6707    4.4245   -6.5982 H   0  0  0  0  0
   33.8806    2.2358   -7.3507 H   0  0  0  0  0
   34.0699    1.6187   -5.6707 H   0  0  0  0  0
   35.9799    1.0848   -7.1955 H   0  0  0  0  0
   36.4335    2.0413   -5.7311 H   0  0  0  0  0
   36.0773    3.2446   -8.4441 H   0  0  0  0  0
   37.8428    2.8880   -5.4045 H   0  0  0  0  0
   38.8930    5.2248   -7.8198 H   0  0  0  0  0
   37.6013    4.8355   -8.9604 H   0  0  0  0  0
   31.6100    4.4782   -3.4411 H   0  0  0  0  0
   31.6095    7.3596   -3.4010 H   0  0  0  0  0
   30.0364    5.8946   -2.1136 H   0  0  0  0  0
   30.8222    7.1801   -1.1376 H   0  0  0  0  0
   30.8334    5.1260   -0.0919 H   0  0  0  0  0
   32.6287    8.5862   -1.5214 H   0  0  0  0  0
   35.4154    8.5414   -1.9224 H   0  0  0  0  0
   33.7894    9.7086    0.3616 H   0  0  0  0  0
   34.2931   10.5365   -1.1690 H   0  0  0  0  0
   36.7674   10.8631   -1.5667 H   0  0  0  0  0
   35.1713    9.7775    2.2484 H   0  0  0  0  0
   38.8463   11.6090   -0.4875 H   0  0  0  0  0
   37.2528   10.5290    3.3330 H   0  0  0  0  0
   39.2654   11.4042    3.0281 H   0  0  0  0  0
   33.4991    7.1071    0.7147 H   0  0  0  0  0
   35.8412    6.3012    2.2226 H   0  0  0  0  0
   34.2645    4.9165    3.4989 H   0  0  0  0  0
   32.9695    5.3527    2.2930 H   0  0  0  0  0
   33.1816    7.6686    2.9191 H   0  0  0  0  0
   34.4529    7.2173    4.1385 H   0  0  0  0  0
   32.5880    4.9011    4.3192 H   0  0  0  0  0
   33.9821    4.9159   -0.4107 H   0  0  0  0  0
   35.1330    2.2648   -0.1475 H   0  0  0  0  0
   34.3094    1.9556   -2.4693 H   0  0  0  0  0
   33.7574    3.7021   -2.4150 H   0  0  0  0  0
   32.2825    3.1515   -0.5916 H   0  0  0  0  0
   32.8043    1.4168   -0.7020 H   0  0  0  0  0
   30.2864    0.6425   -2.9655 H   0  0  0  0  0
   31.3427    0.1671   -1.6317 H   0  0  0  0  0
   36.2012    5.2938   -1.5269 H   0  0  0  0  0
   38.2056    4.0885   -3.2223 H   0  0  0  0  0
   37.7344    6.8883   -2.1986 H   0  0  0  0  0
   37.7013    6.2646   -3.8887 H   0  0  0  0  0
   40.0732    5.9946   -3.8725 H   0  0  0  0  0
   40.1159    6.6124   -2.1219 H   0  0  0  0  0
   38.3403    9.0558   -2.1085 H   0  0  0  0  0
   39.9900    9.0226   -1.4390 H   0  0  0  0  0
   39.4993   10.3394   -2.5328 H   0  0  0  0  0
   38.2134    5.6489   -0.0297 H   0  0  0  0  0
   41.0408    4.8803    0.3910 H   0  0  0  0  0
   41.4068    3.1277    1.3493 H   0  0  0  0  0
   40.2606    5.9787    2.7319 H   0  0  0  0  0
   39.1234    6.7850    1.5470 H   0  0  0  0  0
   41.2552    7.2740    0.2352 H   0  0  0  0  0
   42.0924    6.9515    1.8127 H   0  0  0  0  0
   39.4714    8.0242    2.7215 H   0  0  0  0  0
  1  2  1  0  0  0
  2  3  1  0  0  0
  2  5  1  0  0  0
  3  4  2  0  0  0
  3  7  1  0  0  0
  5  6  1  0  0  0
  7  8  1  0  0  0
  8  9  1  0  0  0
  8 11  1  0  0  0
  9 10  2  0  0  0
  9 16  1  0  0  0
 11 12  1  0  0  0
 12 13  1  0  0  0
 13 14  2  0  0  0
 13 15  1  0  0  0
 16 17  1  0  0  0
 17 18  1  0  0  0
 18 19  2  0  0  0
 18 20  1  0  0  0
 20 21  1  0  0  0
 21 22  1  0  0  0
 21 24  1  0  0  0
 22 23  2  0  0  0
 22 27  1  0  0  0
 24 25  1  0  0  0
 24 26  1  0  0  0
 27 28  1  0  0  0
 28 29  1  0  0  0
 28 31  1  0  0  0
 29 30  2  0  0  0
 29 36  1  0  0  0
 31 32  1  0  0  0
 32 33  1  0  0  0
 33 34  1  0  0  0
 34 35  1  0  0  0
 36 37  1  0  0  0
 37 38  1  0  0  0
 37 40  1  0  0  0
 38 39  2  0  0  0
 38 47  1  0  0  0
 40 41  1  0  0  0
 41 42  1  0  0  0
 42 43  1  0  0  0
 43 44  1  0  0  0
 44 45  2  0  0  0
 44 46  1  0  0  0
 47 48  1  0  0  0
 48 49  1  0  0  0
 48 51  1  0  0  0
 49 50  2  0  0  0
 49 53  1  0  0  0
 51 52  1  0  0  0
 53 54  1  0  0  0
 54 55  1  0  0  0
 54 57  1  0  0  0
 55 56  2  0  0  0
 55 65  1  0  0  0
 57 58  1  0  0  0
 58 59  4  0  0  0
 58 60  4  0  0  0
 59 61  4  0  0  0
 60 62  4  0  0  0
 61 63  4  0  0  0
 62 63  4  0  0  0
 63 64  1  0  0  0
 65 66  1  0  0  0
 66 67  1  0  0  0
 66 69  1  0  0  0
 67 68  2  0  0  0
 67 74  1  0  0  0
 69 70  1  0  0  0
 70 71  1  0  0  0
 71 72  2  0  0  0
 71 73  1  0  0  0
 74 75  1  0  0  0
 75 76  1  0  0  0
 75 78  1  0  0  0
 76 77  2  0  0  0
 76 83  1  0  0  0
 78 79  1  0  0  0
 79 80  1  0  0  0
 80 81  2  0  0  0
 80 82  1  0  0  0
 83 84  1  0  0  0
 84 85  1  0  0  0
 84 87  1  0  0  0
 85 86  2  0  0  0
 85 91  1  0  0  0
 87 88  1  0  0  0
 88 89  1  0  0  0
 89 90  1  0  0  0
 91 92  1  0  0  0
 92 93  1  0  0  0
 92 95  1  0  0  0
 93 94  1  0  0  0
 93100  2  0  0  0
 95 96  1  0  0  0
 96 97  1  0  0  0
 97 98  1  0  0  0
 97 99  2  0  0  0
  1101  1  0  0  0
  1102  1  0  0  0
  1103  1  0  0  0
  2104  1  0  0  0
  5105  1  0  0  0
  5106  1  0  0  0
  6107  1  0  0  0
  7108  1  0  0  0
  8109  1  0  0  0
 11110  1  0  0  0
 11111  1  0  0  0
 12112  1  0  0  0
 12113  1  0  0  0
 15114  1  0  0  0
 15115  1  0  0  0
 16116  1  0  0  0
 17117  1  0  0  0
 17118  1  0  0  0
 20119  1  0  0  0
 21120  1  0  0  0
 24121  1  0  0  0
 25122  1  0  0  0
 26123  1  0  0  0
 26124  1  0  0  0
 26125  1  0  0  0
 27126  1  0  0  0
 28127  1  0  0  0
 31128  1  0  0  0
 31129  1  0  0  0
 32130  1  0  0  0
 32131  1  0  0  0
 33132  1  0  0  0
 33133  1  0  0  0
 34134  1  0  0  0
 34135  1  0  0  0
 35136  1  0  0  0
 35137  1  0  0  0
 35138  1  0  0  0
 36139  1  0  0  0
 37140  1  0  0  0
 40141  1  0  0  0
 40142  1  0  0  0
 41143  1  0  0  0
 41144  1  0  0  0
 42145  1  0  0  0
 42146  1  0  0  0
 43147  1  0  0  0
 45148  1  0  0  0
 46149  1  0  0  0
 46150  1  0  0  0
 47151  1  0  0  0
 48152  1  0  0  0
 51153  1  0  0  0
 51154  1  0  0  0
 52155  1  0  0  0
 53156  1  0  0  0
 54157  1  0  0  0
 57158  1  0  0  0
 57159  1  0  0  0
 59160  1  0  0  0
 60161  1  0  0  0
 61162  1  0  0  0
 62163  1  0  0  0
 64164  1  0  0  0
 65165  1  0  0  0
 66166  1  0  0  0
 69167  1  0  0  0
 69168  1  0  0  0
 70169  1  0  0  0
 70170  1  0  0  0
 73171  1  0  0  0
 74172  1  0  0  0
 75173  1  0  0  0
 78174  1  0  0  0
 78175  1  0  0  0
 79176  1  0  0  0
 79177  1  0  0  0
 82178  1  0  0  0
 82179  1  0  0  0
 83180  1  0  0  0
 84181  1  0  0  0
 87182  1  0  0  0
 87183  1  0  0  0
 88184  1  0  0  0
 88185  1  0  0  0
 90186  1  0  0  0
 90187  1  0  0  0
 90188  1  0  0  0
 91189  1  0  0  0
 92190  1  0  0  0
 94191  1  0  0  0
 95192  1  0  0  0
 95193  1  0  0  0
 96194  1  0  0  0
 96195  1  0  0  0
 98196  1  0  0  0
M  END
$$$$
