### 
### Created by X-TOOL on Mon Sep 10 21:13:24 2018
### 

@<TRIPOS>MOLECULE
4zdu_ligand
  194   194     1     0     0
SMALL
GAST_HUCK


@<TRIPOS>ATOM
      1 N          26.7240   -3.9820  -19.8560 N.4       1 SER         0.2396
      2 CA         27.2310   -3.7090  -18.5190 C.3       1 SER         0.0885
      3 C          27.6070   -2.2420  -18.3710 C.2       1 SER         0.2290
      4 O          27.4520   -1.4530  -19.3040 O.2       1 SER        -0.3906
      5 CB         28.4390   -4.5960  -18.2070 C.3       1 SER         0.1041
      6 OG         29.4460   -4.4550  -19.1950 O.3       1 SER        -0.3870
      7 N          28.1090   -1.8870  -17.1930 N.am      1 GLN        -0.2608
      8 CA         28.4920   -0.5130  -16.9000 C.3       1 GLN         0.1331
      9 C          29.5070   -0.4960  -15.7560 C.2       1 GLN         0.2038
     10 O          29.6050   -1.4580  -14.9980 O.2       1 GLN        -0.3944
     11 CB         27.2530    0.3170  -16.5560 C.3       1 GLN         0.0045
     12 CG         27.4560    1.8190  -16.6270 C.3       1 GLN         0.0412
     13 CD         26.1640    2.5890  -16.4430 C.2       1 GLN         0.1737
     14 OE1        25.0770    2.0710  -16.7000 O.2       1 GLN        -0.3973
     15 NE2        26.2760    3.8330  -15.9940 N.am      1 GLN        -0.3009
     16 N          30.2660    0.5900  -15.6420 N.am      1 GLY        -0.2664
     17 CA         31.3130    0.6940  -14.6400 C.3       1 GLY         0.1201
     18 C          30.8130    0.7330  -13.2060 C.2       1 GLY         0.2008
     19 O          29.6080    0.7240  -12.9550 O.2       1 GLY        -0.3947
     20 N          31.7510    0.7870  -12.2630 N.am      1 THR        -0.2616
     21 CA         31.4270    0.7330  -10.8390 C.3       1 THR         0.1565
     22 C          31.5940    2.0810  -10.1390 C.2       1 THR         0.2065
     23 O          32.6960    2.6230  -10.0650 O.2       1 THR        -0.3943
     24 CB         32.3010   -0.3020  -10.1040 C.3       1 THR         0.0924
     25 OG1        32.0520   -1.6090  -10.6330 O.3       1 THR        -0.3874
     26 CG2        31.9900   -0.3000   -8.6060 C.3       1 THR        -0.0346
     27 N          30.4940    2.6140   -9.6180 N.am      1 LYS        -0.2637
     28 CA         30.5460    3.8140   -8.7880 C.3       1 LYS         0.1310
     29 C          31.1890    3.4920   -7.4400 C.2       1 LYS         0.2039
     30 O          30.8530    2.4890   -6.8170 O.2       1 LYS        -0.3944
     31 CB         29.1420    4.3900   -8.5750 C.3       1 LYS        -0.0122
     32 CG         28.4330    4.8110   -9.8510 C.3       1 LYS        -0.0440
     33 CD         28.9950    6.1090  -10.3980 C.3       1 LYS        -0.0124
     34 CE         28.1580    6.6060  -11.5630 C.3       1 LYS        -0.0354
     35 NZ         28.6020    7.9480  -12.0240 N.4       1 LYS         0.2185
     36 N          32.1150    4.3380   -6.9980 N.am      1 ARG        -0.2637
     37 CA         32.7650    4.1590   -5.7010 C.3       1 ARG         0.1311
     38 C          32.6850    5.4390   -4.8770 C.2       1 ARG         0.2040
     39 O          33.1890    6.4840   -5.2920 O.2       1 ARG        -0.3944
     40 CB         34.2290    3.7410   -5.8730 C.3       1 ARG        -0.0092
     41 CG         34.4300    2.3300   -6.4140 C.3       1 ARG        -0.0156
     42 CD         35.9060    2.0450   -6.6850 C.3       1 ARG         0.0627
     43 NE         36.5120    3.0650   -7.5390 N.pl3     1 ARG        -0.2723
     44 CZ         37.5910    3.7760   -7.2190 C.cat     1 ARG         0.2882
     45 NH1        38.2000    3.5840   -6.0590 N.pl3     1 ARG        -0.2849
     46 NH2        38.0650    4.6820   -8.0650 N.pl3     1 ARG        -0.2849
     47 N          32.0480    5.3580   -3.7140 N.am      1 SER        -0.2616
     48 CA         31.9660    6.5070   -2.8230 C.3       1 SER         0.1539
     49 C          33.3430    6.8320   -2.2540 C.2       1 SER         0.2063
     50 O          34.2810    6.0420   -2.3770 O.2       1 SER        -0.3943
     51 CB         30.9740    6.2510   -1.6870 C.3       1 SER         0.0843
     52 OG         31.4710    5.2700   -0.7950 O.3       1 SER        -0.3903
     53 N          33.4540    7.9960   -1.6260 N.am      1 TYR        -0.2621
     54 CA         34.7260    8.4500   -1.0830 C.3       1 TYR         0.1390
     55 C          35.3310    7.4480   -0.0980 C.2       1 TYR         0.2057
     56 O          36.5370    7.2020   -0.1140 O.2       1 TYR        -0.3942
     57 CB         34.5590    9.8070   -0.4040 C.3       1 TYR         0.0163
     58 CG         35.8230   10.2730    0.2640 C.ar      1 TYR        -0.0493
     59 CD1        36.8690   10.7880   -0.4840 C.ar      1 TYR        -0.0685
     60 CD2        35.9800   10.1840    1.6410 C.ar      1 TYR        -0.0685
     61 CE1        38.0330   11.2060    0.1160 C.ar      1 TYR        -0.0398
     62 CE2        37.1430   10.6020    2.2510 C.ar      1 TYR        -0.0398
     63 CZ         38.1660   11.1130    1.4820 C.ar      1 TYR         0.0805
     64 OH         39.3290   11.5340    2.0790 O.3       1 TYR        -0.3376
     65 N          34.4900    6.8680    0.7520 N.am      1 GLU        -0.2635
     66 CA         34.9530    5.8970    1.7370 C.3       1 GLU         0.1325
     67 C          35.3400    4.5810    1.0650 C.2       1 GLU         0.2040
     68 O          36.1950    3.8460    1.5630 O.2       1 GLU        -0.3944
     69 CB         33.8800    5.6640    2.8050 C.3       1 GLU        -0.0008
     70 CG         33.5480    6.9120    3.6130 C.3       1 GLU         0.0044
     71 CD         32.4680    6.6770    4.6520 C.2       1 GLU         0.0350
     72 OE1        31.9920    7.6670    5.2460 O.co2     1 GLU        -0.5690
     73 OE2        32.0980    5.5060    4.8810 O.co2     1 GLU        -0.5690
     74 N          34.7140    4.2920   -0.0710 N.am      1 GLN        -0.2636
     75 CA         35.0520    3.1010   -0.8420 C.3       1 GLN         0.1330
     76 C          36.4000    3.2670   -1.5480 C.2       1 GLN         0.2040
     77 O          37.0590    2.2810   -1.8740 O.2       1 GLN        -0.3944
     78 CB         33.9520    2.7850   -1.8590 C.3       1 GLN         0.0045
     79 CG         32.6300    2.3480   -1.2410 C.3       1 GLN         0.0412
     80 CD         31.5520    2.0900   -2.2820 C.2       1 GLN         0.1737
     81 OE1        31.1970    2.9770   -3.0600 O.2       1 GLN        -0.3973
     82 NE2        31.0190    0.8720   -2.2940 N.am      1 GLN        -0.3009
     83 N          36.8080    4.5140   -1.7800 N.am      1 MET        -0.2637
     84 CA         38.1100    4.7870   -2.3910 C.3       1 MET         0.1317
     85 C          39.2390    4.5700   -1.4060 C.2       1 MET         0.2034
     86 O          40.2470    3.9370   -1.7270 O.2       1 MET        -0.3944
     87 CB         38.2030    6.2210   -2.9220 C.3       1 MET        -0.0034
     88 CG         39.6600    6.6560   -3.1110 C.3       1 MET        -0.0024
     89 SD         39.9350    8.3230   -3.7060 S.3       1 MET        -0.1639
     90 CE         39.3880    9.2780   -2.3110 C.3       1 MET        -0.0181
     91 N          39.0690    5.1240   -0.2110 N.am      1 GLU        -0.2694
     92 CA         40.0610    5.0090    0.8510 C.3       1 GLU         0.0959
     93 C          39.7820    3.7920    1.7250 C.2       1 GLU         0.0602
     94 O          40.6250    2.9050    1.8600 O.co2     1 GLU        -0.5666
     95 CB         40.0780    6.2820    1.7010 C.3       1 GLU        -0.0064
     96 CG         41.1720    7.2680    1.3220 C.3       1 GLU         0.0038
     97 CD         40.8670    8.6820    1.7730 C.2       1 GLU         0.0350
     98 OE1        39.8930    8.8660    2.5340 O.co2     1 GLU        -0.5690
     99 OE2        41.5990    9.6080    1.3650 O.co2     1 GLU        -0.5690
    100 OXT        38.7080    3.6710    2.3140 O.co2     1 GLU        -0.5666
    101 H1         26.4818   -4.9576  -19.9308 H         1 SER         0.2016
    102 H2         27.4334   -3.7588  -20.5364 H         1 SER         0.2016
    103 H3         25.9057   -3.4187  -20.0266 H         1 SER         0.2016
    104 H4         26.4353   -3.9381  -17.7949 H         1 SER         0.1122
    105 H5         28.1140   -5.6463  -18.1730 H         1 SER         0.0640
    106 H6         28.8527   -4.3083  -17.2292 H         1 SER         0.0640
    107 H7         29.7333   -3.5500  -19.2259 H         1 SER         0.2099
    108 H8         28.2273   -2.5845  -16.4863 H         1 GLN         0.1885
    109 H9         28.9645   -0.0789  -17.7934 H         1 GLN         0.0801
    110 H10        26.9428    0.0613  -15.5321 H         1 GLN         0.0337
    111 H11        26.4526    0.0459  -17.2602 H         1 GLN         0.0337
    112 H12        27.8800    2.0715  -17.6101 H         1 GLN         0.0504
    113 H13        28.1601    2.1175  -15.8363 H         1 GLN         0.0504
    114 H14        25.4571    4.3894  -15.8531 H         1 GLN         0.1814
    115 H15        27.1793    4.2139  -15.7966 H         1 GLN         0.1814
    116 H16        30.1116    1.3575  -16.2641 H         1 GLY         0.1881
    117 H17        31.8804    1.6168  -14.8309 H         1 GLY         0.0763
    118 H18        31.9789   -0.1749  -14.7478 H         1 GLY         0.0763
    119 H19        32.7091    0.8672  -12.5381 H         1 THR         0.1884
    120 H20        30.3741    0.4276  -10.7493 H         1 THR         0.0826
    121 H21        33.3604   -0.0459  -10.2524 H         1 THR         0.0639
    122 H22        32.5931   -2.2425  -10.1765 H         1 THR         0.2101
    123 H23        32.6225   -1.0438   -8.0992 H         1 THR         0.0257
    124 H24        30.9308   -0.5530   -8.4511 H         1 THR         0.0257
    125 H25        32.1932    0.6981   -8.1906 H         1 THR         0.0257
    126 H26        29.6098    2.1831   -9.7986 H         1 LYS         0.1883
    127 H27        31.1603    4.5685   -9.3011 H         1 LYS         0.0800
    128 H28        29.2277    5.2717   -7.9228 H         1 LYS         0.0312
    129 H29        28.5284    3.6243   -8.0778 H         1 LYS         0.0312
    130 H30        27.3627    4.9474   -9.6367 H         1 LYS         0.0269
    131 H31        28.5580    4.0212  -10.6064 H         1 LYS         0.0269
    132 H32        30.0266    5.9402  -10.7404 H         1 LYS         0.0317
    133 H33        28.9925    6.8678   -9.6017 H         1 LYS         0.0317
    134 H34        27.1064    6.6675  -11.2462 H         1 LYS         0.0813
    135 H35        28.2488    5.8943  -12.3968 H         1 LYS         0.0813
    136 H36        28.0260    8.2456  -12.7958 H         1 LYS         0.1994
    137 H37        29.5639    7.8998  -12.3216 H         1 LYS         0.1994
    138 H38        28.5170    8.6084  -11.2672 H         1 LYS         0.1994
    139 H39        32.3736    5.1177   -7.5683 H         1 ARG         0.1883
    140 H40        32.2372    3.3611   -5.1581 H         1 ARG         0.0800
    141 H41        34.7210    3.8046   -4.8912 H         1 ARG         0.0313
    142 H42        34.7070    4.4460   -6.5691 H         1 ARG         0.0313
    143 H43        33.8661    2.2222   -7.3523 H         1 ARG         0.0301
    144 H44        34.0550    1.6062   -5.6755 H         1 ARG         0.0301
    145 H45        35.9937    1.0676   -7.1820 H         1 ARG         0.0689
    146 H46        36.4446    2.0186   -5.7263 H         1 ARG         0.0689
    147 H47        36.0731    3.2464   -8.4530 H         1 ARG         0.2642
    148 H48        39.0344    4.1375   -5.8176 H         1 ARG         0.2615
    149 H49        37.8393    2.8811   -5.3981 H         1 ARG         0.2615
    150 H50        37.5967    4.8370   -8.9692 H         1 ARG         0.2615
    151 H51        38.9012    5.2301   -7.8174 H         1 ARG         0.2615
    152 H52        31.6185    4.4954   -3.4465 H         1 SER         0.1884
    153 H53        31.6136    7.3722   -3.4037 H         1 SER         0.0823
    154 H54        30.0215    5.9019   -2.1122 H         1 SER         0.0606
    155 H55        30.8078    7.1882   -1.1356 H         1 SER         0.0606
    156 H56        31.6129    4.4576   -1.2666 H         1 SER         0.2097
    157 H57        32.6449    8.5746   -1.5235 H         1 TYR         0.1885
    158 H58        35.4280    8.5665   -1.9218 H         1 TYR         0.0821
    159 H59        33.7670    9.7271    0.3552 H         1 TYR         0.0453
    160 H60        34.2665   10.5480   -1.1625 H         1 TYR         0.0453
    161 H61        36.7679   10.8626   -1.5607 H         1 TYR         0.0530
    162 H62        35.1758    9.7797    2.2450 H         1 TYR         0.0530
    163 H63        38.8419   11.6068   -0.4841 H         1 TYR         0.0525
    164 H64        37.2522   10.5294    3.3270 H         1 TYR         0.0525
    165 H65        39.7288   10.8057    2.5397 H         1 TYR         0.2458
    166 H66        33.5185    7.1024    0.7155 H         1 GLU         0.1883
    167 H67        35.8470    6.3066    2.2300 H         1 GLU         0.0801
    168 H68        34.2389    4.8869    3.4959 H         1 GLU         0.0330
    169 H69        32.9625    5.3169    2.3073 H         1 GLU         0.0330
    170 H70        33.2045    7.6957    2.9218 H         1 GLU         0.0433
    171 H71        34.4603    7.2499    4.1263 H         1 GLU         0.0433
    172 H72        33.9964    4.9037   -0.4041 H         1 GLN         0.1883
    173 H73        35.1313    2.2533   -0.1455 H         1 GLN         0.0801
    174 H74        34.3100    1.9761   -2.5128 H         1 GLN         0.0337
    175 H75        33.7690    3.6882   -2.4596 H         1 GLN         0.0337
    176 H76        32.2806    3.1393   -0.5615 H         1 GLN         0.0504
    177 H77        32.7971    1.4223   -0.6708 H         1 GLN         0.0504
    178 H78        30.3056    0.6449   -2.9569 H         1 GLN         0.1814
    179 H79        31.3315    0.1830   -1.6401 H         1 GLN         0.1814
    180 H80        36.2131    5.2785   -1.5318 H         1 MET         0.1883
    181 H81        38.2407    4.0928   -3.2342 H         1 MET         0.0800
    182 H82        37.7174    6.8998   -2.2055 H         1 MET         0.0320
    183 H83        37.6844    6.2780   -3.8904 H         1 MET         0.0320
    184 H84        40.1227    5.9652   -3.8312 H         1 MET         0.0378
    185 H85        40.1640    6.5628   -2.1377 H         1 MET         0.0378
    186 H86        39.4999   10.3494   -2.5336 H         1 MET         0.0340
    187 H87        39.9948    9.0212   -1.4302 H         1 MET         0.0340
    188 H88        38.3307    9.0547   -2.1056 H         1 MET         0.0340
    189 H89        38.2302    5.6386   -0.0333 H         1 GLU         0.1875
    190 H90        41.0515    4.8846    0.3890 H         1 GLU         0.0727
    191 H91        40.2226    5.9932    2.7525 H         1 GLU         0.0323
    192 H92        39.1061    6.7849    1.5892 H         1 GLU         0.0323
    193 H93        41.2853    7.2644    0.2279 H         1 GLU         0.0432
    194 H94        42.1140    6.9452    1.7893 H         1 GLU         0.0432
@<TRIPOS>BOND
     1    1    2 1  
     2    2    3 1  
     3    2    5 1  
     4    3    4 2  
     5    3    7 am 
     6    5    6 1  
     7    7    8 1  
     8    8    9 1  
     9    8   11 1  
    10    9   10 2  
    11    9   16 am 
    12   11   12 1  
    13   12   13 1  
    14   13   14 2  
    15   13   15 am 
    16   16   17 1  
    17   17   18 1  
    18   18   19 2  
    19   18   20 am 
    20   20   21 1  
    21   21   22 1  
    22   21   24 1  
    23   22   23 2  
    24   22   27 am 
    25   24   25 1  
    26   24   26 1  
    27   27   28 1  
    28   28   29 1  
    29   28   31 1  
    30   29   30 2  
    31   29   36 am 
    32   31   32 1  
    33   32   33 1  
    34   33   34 1  
    35   34   35 1  
    36   36   37 1  
    37   37   38 1  
    38   37   40 1  
    39   38   39 2  
    40   38   47 am 
    41   40   41 1  
    42   41   42 1  
    43   42   43 1  
    44   43   44 ar 
    45   44   45 ar 
    46   44   46 ar 
    47   47   48 1  
    48   48   49 1  
    49   48   51 1  
    50   49   50 2  
    51   49   53 am 
    52   51   52 1  
    53   53   54 1  
    54   54   55 1  
    55   54   57 1  
    56   55   56 2  
    57   55   65 am 
    58   57   58 1  
    59   58   59 ar 
    60   58   60 ar 
    61   59   61 ar 
    62   60   62 ar 
    63   61   63 ar 
    64   62   63 ar 
    65   63   64 1  
    66   65   66 1  
    67   66   67 1  
    68   66   69 1  
    69   67   68 2  
    70   67   74 am 
    71   69   70 1  
    72   70   71 1  
    73   71   72 ar 
    74   71   73 ar 
    75   74   75 1  
    76   75   76 1  
    77   75   78 1  
    78   76   77 2  
    79   76   83 am 
    80   78   79 1  
    81   79   80 1  
    82   80   81 2  
    83   80   82 am 
    84   83   84 1  
    85   84   85 1  
    86   84   87 1  
    87   85   86 2  
    88   85   91 am 
    89   87   88 1  
    90   88   89 1  
    91   89   90 1  
    92   91   92 1  
    93   92   93 1  
    94   92   95 1  
    95   93   94 ar 
    96   93  100 ar 
    97   95   96 1  
    98   96   97 1  
    99   97   98 ar 
   100   97   99 ar 
   101    1  101 1  
   102    1  102 1  
   103    1  103 1  
   104    2  104 1  
   105    5  105 1  
   106    5  106 1  
   107    6  107 1  
   108    7  108 1  
   109    8  109 1  
   110   11  110 1  
   111   11  111 1  
   112   12  112 1  
   113   12  113 1  
   114   15  114 1  
   115   15  115 1  
   116   16  116 1  
   117   17  117 1  
   118   17  118 1  
   119   20  119 1  
   120   21  120 1  
   121   24  121 1  
   122   25  122 1  
   123   26  123 1  
   124   26  124 1  
   125   26  125 1  
   126   27  126 1  
   127   28  127 1  
   128   31  128 1  
   129   31  129 1  
   130   32  130 1  
   131   32  131 1  
   132   33  132 1  
   133   33  133 1  
   134   34  134 1  
   135   34  135 1  
   136   35  136 1  
   137   35  137 1  
   138   35  138 1  
   139   36  139 1  
   140   37  140 1  
   141   40  141 1  
   142   40  142 1  
   143   41  143 1  
   144   41  144 1  
   145   42  145 1  
   146   42  146 1  
   147   43  147 1  
   148   45  148 1  
   149   45  149 1  
   150   46  150 1  
   151   46  151 1  
   152   47  152 1  
   153   48  153 1  
   154   51  154 1  
   155   51  155 1  
   156   52  156 1  
   157   53  157 1  
   158   54  158 1  
   159   57  159 1  
   160   57  160 1  
   161   59  161 1  
   162   60  162 1  
   163   61  163 1  
   164   62  164 1  
   165   64  165 1  
   166   65  166 1  
   167   66  167 1  
   168   69  168 1  
   169   69  169 1  
   170   70  170 1  
   171   70  171 1  
   172   74  172 1  
   173   75  173 1  
   174   78  174 1  
   175   78  175 1  
   176   79  176 1  
   177   79  177 1  
   178   82  178 1  
   179   82  179 1  
   180   83  180 1  
   181   84  181 1  
   182   87  182 1  
   183   87  183 1  
   184   88  184 1  
   185   88  185 1  
   186   90  186 1  
   187   90  187 1  
   188   90  188 1  
   189   91  189 1  
   190   92  190 1  
   191   95  191 1  
   192   95  192 1  
   193   96  193 1  
   194   96  194 1  
@<TRIPOS>SUBSTRUCTURE
     1 SER         1

