5m9d_ligand
  -I-interpret- 

241246  0  0  0  0  0  0  0  0999 V2000
   20.2400  -22.5710   -5.3110 N   0  3  0  0  0
   20.7210  -23.7790   -6.0060 C   0  0  0  0  0
   21.3400  -23.4000   -7.3450 C   0  0  0  0  0
   21.0270  -22.3410   -7.8850 O   0  0  0  0  0
   19.5850  -24.7820   -6.2180 C   0  0  0  0  0
   18.7880  -24.8500   -5.0560 O   0  0  0  0  0
   20.1290  -26.1780   -6.5250 C   0  0  0  0  0
   22.2130  -24.2580   -7.8780 N   0  0  0  0  0
   22.8820  -24.0070   -9.1470 C   0  0  0  0  0
   22.7310  -25.1880  -10.1050 C   0  0  0  0  0
   23.6970  -25.9070  -10.3460 O   0  0  0  0  0
   24.3560  -23.6900   -8.8970 C   0  0  0  0  0
   24.4990  -22.3940   -8.3530 O   0  0  0  0  0
   21.5250  -25.3970  -10.6540 N   0  0  0  0  0
   21.2770  -26.4020  -11.6750 C   0  0  0  0  0
   21.8600  -25.9510  -13.0140 C   0  0  0  0  0
   22.4430  -24.8710  -13.1050 O   0  0  0  0  0
   19.7540  -26.5100  -11.7500 C   0  0  0  0  0
   19.2930  -25.0980  -11.4030 C   0  0  0  0  0
   20.3040  -24.6700  -10.3380 C   0  0  0  0  0
   21.7060  -26.7720  -14.0560 N   0  0  0  0  0
   22.1810  -26.4740  -15.4000 C   0  0  0  0  0
   21.8200  -27.6260  -16.3330 C   0  0  0  0  0
   22.3160  -28.8510  -15.8340 O   0  0  0  0  0
   21.5810  -25.1700  -15.9170 C   0  0  0  0  0
   20.4860  -24.7820  -15.5110 O   0  0  0  0  0
   21.3490  -29.9560  -15.1660 P   0  0  0  0  0
   20.4120  -30.2990  -16.2620 O   0  0  0  0  0
   22.2880  -31.0330  -14.7910 O   0  0  0  0  0
   20.7360  -29.2450  -14.0210 O   0  0  0  0  0
   22.2960  -24.4880  -16.8190 N   0  0  0  0  0
   21.8420  -23.2080  -17.3480 C   0  0  0  0  0
   22.4680  -22.8980  -18.7090 C   0  0  0  0  0
   23.6710  -23.0650  -18.9080 O   0  0  0  0  0
   22.1890  -22.1080  -16.3400 C   0  0  0  0  0
   21.9170  -20.6840  -16.7840 C   0  0  0  0  0
   20.8360  -20.3800  -17.6250 C   0  0  0  0  0
   22.7620  -19.6610  -16.3340 C   0  0  0  0  0
   20.5900  -19.0510  -18.0040 C   0  0  0  0  0
   22.5240  -18.3350  -16.7130 C   0  0  0  0  0
   21.4320  -18.0180  -17.5430 C   0  0  0  0  0
   21.1890  -16.7220  -17.8920 O   0  0  0  0  0
   21.6200  -22.4450  -19.6370 N   0  0  0  0  0
   21.9940  -21.9980  -20.9680 C   0  0  0  0  0
   21.9240  -23.2020  -21.9090 C   0  0  0  0  0
   22.6520  -23.0080  -23.1060 O   0  0  0  0  0
   21.0160  -20.8770  -21.3430 C   0  0  0  0  0
   19.8400  -21.1540  -21.5770 O   0  0  0  0  0
   22.0460  -22.2110  -24.3680 P   0  0  0  0  0
   22.8730  -22.6910  -25.4980 O   0  0  0  0  0
   20.6270  -22.6310  -24.4050 O   0  0  0  0  0
   22.2680  -20.7860  -24.0250 O   0  0  0  0  0
   21.4760  -19.6170  -21.4020 N   0  0  0  0  0
   20.6420  -18.4360  -21.5980 C   0  0  0  0  0
   19.7720  -18.4350  -22.8600 C   0  0  0  0  0
   18.9250  -17.5550  -23.0050 O   0  0  0  0  0
   21.6130  -17.2520  -21.6150 C   0  0  0  0  0
   22.8540  -17.7640  -20.8910 C   0  0  0  0  0
   22.8690  -19.2420  -21.2490 C   0  0  0  0  0
   19.9610  -19.3980  -23.7680 N   0  0  0  0  0
   19.1660  -19.4900  -24.9900 C   0  0  0  0  0
   17.9450  -20.3890  -24.7840 C   0  0  0  0  0
   17.0800  -20.4600  -25.6540 O   0  0  0  0  0
   20.0220  -20.0270  -26.1440 C   0  0  0  0  0
   21.3230  -19.4910  -26.0720 O   0  0  0  0  0
   19.4200  -19.6700  -27.5010 C   0  0  0  0  0
   17.8730  -21.0760  -23.6380 N   0  0  0  0  0
   16.7980  -22.0050  -23.3280 C   0  0  0  0  0
   15.5730  -21.3890  -22.6300 C   0  0  0  0  0
   14.4600  -21.8090  -22.9420 O   0  0  0  0  0
   17.3780  -23.1290  -22.4660 C   0  0  0  0  0
   16.3750  -24.0630  -22.1330 O   0  0  0  0  0
   15.7130  -20.4220  -21.7070 N   0  0  0  0  0
   14.5910  -19.9270  -20.9230 C   0  0  0  0  0
   13.6260  -19.0660  -21.7370 C   0  0  0  0  0
   13.8960  -18.7170  -22.8860 O   0  0  0  0  0
   15.2140  -19.1410  -19.7730 C   0  0  0  0  0
   16.4960  -18.5990  -20.3950 C   0  0  0  0  0
   16.9320  -19.7340  -21.3200 C   0  0  0  0  0
   12.4970  -18.7360  -21.1000 N   0  0  0  0  0
   11.3710  -17.9660  -21.6190 C   0  0  0  0  0
   10.5440  -17.4400  -20.4430 C   0  0  0  0  0
    9.9300  -18.4980  -19.7270 O   0  0  0  0  0
   11.7600  -16.7930  -22.5150 C   0  0  0  0  0
   12.8520  -16.2410  -22.4080 O   0  0  0  0  0
   10.4850  -19.0180  -18.3050 P   0  0  0  0  0
   11.9010  -19.3490  -18.5770 O   0  0  0  0  0
   10.2840  -17.8580  -17.4060 O   0  0  0  0  0
    9.6240  -20.1790  -18.0040 O   0  0  0  0  0
   10.8340  -16.4220  -23.4090 N   0  0  0  0  0
   10.9500  -15.2830  -24.3160 C   0  0  0  0  0
    9.5650  -14.8670  -24.8080 C   0  0  0  0  0
    9.3450  -13.6900  -25.0880 O   0  0  0  0  0
   11.8280  -15.6740  -25.5030 C   0  0  0  0  0
   11.7210  -14.7760  -26.7160 C   0  0  0  0  0
   11.1980  -15.2950  -27.9000 C   0  0  0  0  0
   12.1360  -13.4400  -26.6820 C   0  0  0  0  0
   11.1200  -14.5370  -29.0680 C   0  0  0  0  0
   12.0500  -12.6610  -27.8480 C   0  0  0  0  0
   11.5420  -13.2010  -29.0440 C   0  0  0  0  0
   11.4530  -12.4440  -30.1750 O   0  0  0  0  0
    8.6480  -15.8350  -24.9050 N   0  0  0  0  0
    7.2340  -15.6110  -25.1760 C   0  0  0  0  0
    6.9750  -15.7010  -26.6840 C   0  0  0  0  0
    7.6600  -14.6770  -27.3730 O   0  0  0  0  0
    6.4170  -16.6670  -24.4200 C   0  0  0  0  0
    5.6690  -17.4260  -25.0330 O   0  0  0  0  0
    7.5860  -14.5730  -28.9790 P   0  0  0  0  0
    8.2800  -15.7990  -29.4330 O   0  0  0  0  0
    6.1340  -14.5370  -29.2600 O   0  0  0  0  0
    8.2980  -13.3080  -29.2730 O   0  0  0  0  0
    6.5470  -16.7350  -23.0860 N   0  0  0  0  0
    5.9280  -17.7710  -22.2750 C   0  0  0  0  0
    4.4280  -17.5440  -22.0820 C   0  0  0  0  0
    3.6850  -18.5040  -21.8900 O   0  0  0  0  0
    6.6560  -17.6890  -20.9340 C   0  0  0  0  0
    6.9810  -16.1990  -20.8220 C   0  0  0  0  0
    7.3140  -15.8200  -22.2600 C   0  0  0  0  0
    3.9810  -16.2860  -22.1290 N   0  0  0  0  0
    2.5860  -15.9270  -21.9220 C   0  0  0  0  0
    2.3760  -14.4760  -22.3300 C   0  0  0  0  0
    3.3400  -13.7210  -22.4410 O   0  0  0  0  0
    2.2110  -16.0900  -20.4410 C   0  0  0  0  0
    0.9240  -15.5570  -20.2000 O   0  0  0  0  0
    3.1820  -15.3620  -19.5120 C   0  0  0  0  0
    1.1130  -14.0930  -22.5500 N   0  0  0  0  0
    0.7470  -12.6990  -22.7170 C   0  0  0  0  0
    0.6790  -12.0300  -21.3430 C   0  0  0  0  0
    0.9280  -12.7400  -20.3420 O   0  0  0  0  0
   -0.6020  -12.5920  -23.4220 C   0  0  0  0  0
   -0.9370  -11.2240  -23.4990 O   0  0  0  0  0
    0.3770  -10.8140  -21.3140 O   0  0  0  0  0
   21.0163  -21.9217   -5.1835 H   0  0  0  0  0
   19.5115  -22.1263   -5.8695 H   0  0  0  0  0
   19.8606  -22.8322   -4.4009 H   0  0  0  0  0
   21.4788  -24.2513   -5.3809 H   0  0  0  0  0
   18.9911  -24.4417   -7.0663 H   0  0  0  0  0
   18.4418  -23.9774   -4.8553 H   0  0  0  0  0
   20.7295  -26.5255   -5.6843 H   0  0  0  0  0
   19.2970  -26.8633   -6.6867 H   0  0  0  0  0
   20.7469  -26.1366   -7.4220 H   0  0  0  0  0
   22.4193  -25.1224   -7.3773 H   0  0  0  0  0
   22.4088  -23.1478   -9.6223 H   0  0  0  0  0
   24.8936  -23.7375   -9.8440 H   0  0  0  0  0
   24.7593  -24.4163   -8.1914 H   0  0  0  0  0
   25.4296  -22.2122   -8.2027 H   0  0  0  0  0
   21.7418  -27.3599  -11.4418 H   0  0  0  0  0
   19.3500  -27.2644  -11.0748 H   0  0  0  0  0
   19.4014  -26.8417  -12.7266 H   0  0  0  0  0
   18.2619  -25.0604  -11.0516 H   0  0  0  0  0
   19.2742  -24.4316  -12.2654 H   0  0  0  0  0
   20.4649  -23.5920  -10.3475 H   0  0  0  0  0
   19.9494  -24.8987   -9.3330 H   0  0  0  0  0
   21.2278  -27.6596  -13.9015 H   0  0  0  0  0
   23.2640  -26.3551  -15.3689 H   0  0  0  0  0
   22.2649  -27.4390  -17.3103 H   0  0  0  0  0
   20.7345  -27.6908  -16.4072 H   0  0  0  0  0
   19.8415  -29.5478  -16.4406 H   0  0  0  0  0
   20.1427  -28.5650  -14.3485 H   0  0  0  0  0
   23.1821  -24.8739  -17.1450 H   0  0  0  0  0
   20.7634  -23.2564  -17.4975 H   0  0  0  0  0
   23.2642  -22.1752  -16.1739 H   0  0  0  0  0
   21.5563  -22.2818  -15.4696 H   0  0  0  0  0
   20.1858  -21.1774  -17.9848 H   0  0  0  0  0
   23.6067  -19.8984  -15.6873 H   0  0  0  0  0
   19.7476  -18.8173  -18.6551 H   0  0  0  0  0
   23.1874  -17.5438  -16.3638 H   0  0  0  0  0
   21.8537  -16.1547  -17.4945 H   0  0  0  0  0
   20.6306  -22.4102  -19.3913 H   0  0  0  0  0
   23.0089  -21.6052  -21.0289 H   0  0  0  0  0
   20.8785  -23.3553  -22.1763 H   0  0  0  0  0
   22.3586  -24.0561  -21.3897 H   0  0  0  0  0
   20.1695  -22.2768  -23.6390 H   0  0  0  0  0
   21.7025  -20.5436  -23.2881 H   0  0  0  0  0
   19.9082  -18.3950  -20.7930 H   0  0  0  0  0
   21.1916  -16.3716  -21.1299 H   0  0  0  0  0
   21.8387  -16.9238  -22.6296 H   0  0  0  0  0
   22.8197  -17.5888  -19.8157 H   0  0  0  0  0
   23.7644  -17.2458  -21.1923 H   0  0  0  0  0
   23.4352  -19.4264  -22.1620 H   0  0  0  0  0
   23.3602  -19.8351  -20.4777 H   0  0  0  0  0
   20.6874  -20.0944  -23.6012 H   0  0  0  0  0
   18.8174  -18.4881  -25.2407 H   0  0  0  0  0
   20.0546  -21.1123  -26.0480 H   0  0  0  0  0
   21.8495  -19.8333  -26.7981 H   0  0  0  0  0
   18.4229  -20.1031  -27.5800 H   0  0  0  0  0
   19.3551  -18.5859  -27.5944 H   0  0  0  0  0
   20.0538  -20.0670  -28.2940 H   0  0  0  0  0
   18.6102  -20.9411  -22.9461 H   0  0  0  0  0
   16.4156  -22.3670  -24.2824 H   0  0  0  0  0
   17.7813  -22.7000  -21.5487 H   0  0  0  0  0
   18.1628  -23.6366  -23.0268 H   0  0  0  0  0
   16.7549  -24.7601  -21.5932 H   0  0  0  0  0
   13.9773  -20.7545  -20.5670 H   0  0  0  0  0
   15.3952  -19.7520  -18.8887 H   0  0  0  0  0
   14.5613  -18.3560  -19.3911 H   0  0  0  0  0
   17.2520  -18.3437  -19.6524 H   0  0  0  0  0
   16.3455  -17.6570  -20.9223 H   0  0  0  0  0
   17.4646  -19.3523  -22.1910 H   0  0  0  0  0
   17.6254  -20.4091  -20.8185 H   0  0  0  0  0
   12.4130  -19.0612  -20.1369 H   0  0  0  0  0
   10.8016  -18.6506  -22.2477 H   0  0  0  0  0
    9.7628  -16.7880  -20.8339 H   0  0  0  0  0
   11.2085  -16.9039  -19.7654 H   0  0  0  0  0
   12.3872  -18.5422  -18.7620 H   0  0  0  0  0
   10.8762  -17.1480  -17.6643 H   0  0  0  0  0
    9.9808  -16.9786  -23.4604 H   0  0  0  0  0
   11.4026  -14.4427  -23.7896 H   0  0  0  0  0
   11.4991  -16.6638  -25.8196 H   0  0  0  0  0
   12.8605  -15.6102  -25.1597 H   0  0  0  0  0
   10.8393  -16.3242  -27.9129 H   0  0  0  0  0
   12.5225  -13.0076  -25.7591 H   0  0  0  0  0
   10.7357  -14.9781  -29.9877 H   0  0  0  0  0
   12.3817  -11.6229  -27.8259 H   0  0  0  0  0
   11.7798  -11.5598  -29.9934 H   0  0  0  0  0
    8.9602  -16.7980  -24.7805 H   0  0  0  0  0
    6.9373  -14.6176  -24.8394 H   0  0  0  0  0
    5.9056  -15.5907  -26.8638 H   0  0  0  0  0
    7.3313  -16.6660  -27.0445 H   0  0  0  0  0
    9.2122  -15.7382  -29.2118 H   0  0  0  0  0
    9.2297  -13.4109  -29.0658 H   0  0  0  0  0
    6.0121  -18.7478  -22.7513 H   0  0  0  0  0
    7.5416  -18.3229  -20.8903 H   0  0  0  0  0
    6.0580  -18.0587  -20.1010 H   0  0  0  0  0
    7.7959  -15.9924  -20.1282 H   0  0  0  0  0
    6.1596  -15.6145  -20.4075 H   0  0  0  0  0
    7.0593  -14.7812  -22.4699 H   0  0  0  0  0
    8.3827  -15.9008  -22.4585 H   0  0  0  0  0
    4.6505  -15.5403  -22.3194 H   0  0  0  0  0
    1.9575  -16.5818  -22.5255 H   0  0  0  0  0
    2.2455  -17.1596  -20.2341 H   0  0  0  0  0
    0.7026  -15.6653  -19.2722 H   0  0  0  0  0
    4.1861  -15.7623  -19.6522 H   0  0  0  0  0
    3.1779  -14.2975  -19.7462 H   0  0  0  0  0
    2.8721  -15.5089  -18.4774 H   0  0  0  0  0
    0.3837  -14.8042  -22.6020 H   0  0  0  0  0
    1.4967  -12.1964  -23.3281 H   0  0  0  0  0
   -1.3646  -13.1391  -22.8677 H   0  0  0  0  0
   -0.5442  -13.0256  -24.4204 H   0  0  0  0  0
   -1.7844  -11.1275  -23.9397 H   0  0  0  0  0
    0.2344  -10.4994  -22.2097 H   0  0  0  0  0
  1  2  1  0  0  0
  2  3  1  0  0  0
  2  5  1  0  0  0
  3  4  2  0  0  0
  3  8  1  0  0  0
  5  6  1  0  0  0
  5  7  1  0  0  0
  8  9  1  0  0  0
  9 10  1  0  0  0
  9 12  1  0  0  0
 10 11  2  0  0  0
 10 14  1  0  0  0
 12 13  1  0  0  0
 14 15  1  0  0  0
 14 20  1  0  0  0
 15 16  1  0  0  0
 15 18  1  0  0  0
 16 17  2  0  0  0
 16 21  1  0  0  0
 18 19  1  0  0  0
 19 20  1  0  0  0
 21 22  1  0  0  0
 22 23  1  0  0  0
 22 25  1  0  0  0
 23 24  1  0  0  0
 24 27  1  0  0  0
 25 26  2  0  0  0
 25 31  1  0  0  0
 27 28  1  0  0  0
 27 29  2  0  0  0
 27 30  1  0  0  0
 31 32  1  0  0  0
 32 33  1  0  0  0
 32 35  1  0  0  0
 33 34  2  0  0  0
 33 43  1  0  0  0
 35 36  1  0  0  0
 36 37  4  0  0  0
 36 38  4  0  0  0
 37 39  4  0  0  0
 38 40  4  0  0  0
 39 41  4  0  0  0
 40 41  4  0  0  0
 41 42  1  0  0  0
 43 44  1  0  0  0
 44 45  1  0  0  0
 44 47  1  0  0  0
 45 46  1  0  0  0
 46 49  1  0  0  0
 47 48  2  0  0  0
 47 53  1  0  0  0
 49 50  2  0  0  0
 49 51  1  0  0  0
 49 52  1  0  0  0
 53 54  1  0  0  0
 53 59  1  0  0  0
 54 55  1  0  0  0
 54 57  1  0  0  0
 55 56  2  0  0  0
 55 60  1  0  0  0
 57 58  1  0  0  0
 58 59  1  0  0  0
 60 61  1  0  0  0
 61 62  1  0  0  0
 61 64  1  0  0  0
 62 63  2  0  0  0
 62 67  1  0  0  0
 64 65  1  0  0  0
 64 66  1  0  0  0
 67 68  1  0  0  0
 68 69  1  0  0  0
 68 71  1  0  0  0
 69 70  2  0  0  0
 69 73  1  0  0  0
 71 72  1  0  0  0
 73 74  1  0  0  0
 73 79  1  0  0  0
 74 75  1  0  0  0
 74 77  1  0  0  0
 75 76  2  0  0  0
 75 80  1  0  0  0
 77 78  1  0  0  0
 78 79  1  0  0  0
 80 81  1  0  0  0
 81 82  1  0  0  0
 81 84  1  0  0  0
 82 83  1  0  0  0
 83 86  1  0  0  0
 84 85  2  0  0  0
 84 90  1  0  0  0
 86 87  1  0  0  0
 86 88  1  0  0  0
 86 89  2  0  0  0
 90 91  1  0  0  0
 91 92  1  0  0  0
 91 94  1  0  0  0
 92 93  2  0  0  0
 92102  1  0  0  0
 94 95  1  0  0  0
 95 96  4  0  0  0
 95 97  4  0  0  0
 96 98  4  0  0  0
 97 99  4  0  0  0
 98100  4  0  0  0
 99100  4  0  0  0
100101  1  0  0  0
102103  1  0  0  0
103104  1  0  0  0
103106  1  0  0  0
104105  1  0  0  0
105108  1  0  0  0
106107  2  0  0  0
106112  1  0  0  0
108109  1  0  0  0
108110  2  0  0  0
108111  1  0  0  0
112113  1  0  0  0
112118  1  0  0  0
113114  1  0  0  0
113116  1  0  0  0
114115  2  0  0  0
114119  1  0  0  0
116117  1  0  0  0
117118  1  0  0  0
119120  1  0  0  0
120121  1  0  0  0
120123  1  0  0  0
121122  2  0  0  0
121126  1  0  0  0
123124  1  0  0  0
123125  1  0  0  0
126127  1  0  0  0
127128  1  0  0  0
127130  1  0  0  0
128129  2  0  0  0
128132  1  0  0  0
130131  1  0  0  0
  1133  1  0  0  0
  1134  1  0  0  0
  1135  1  0  0  0
  2136  1  0  0  0
  5137  1  0  0  0
  6138  1  0  0  0
  7139  1  0  0  0
  7140  1  0  0  0
  7141  1  0  0  0
  8142  1  0  0  0
  9143  1  0  0  0
 12144  1  0  0  0
 12145  1  0  0  0
 13146  1  0  0  0
 15147  1  0  0  0
 18148  1  0  0  0
 18149  1  0  0  0
 19150  1  0  0  0
 19151  1  0  0  0
 20152  1  0  0  0
 20153  1  0  0  0
 21154  1  0  0  0
 22155  1  0  0  0
 23156  1  0  0  0
 23157  1  0  0  0
 28158  1  0  0  0
 30159  1  0  0  0
 31160  1  0  0  0
 32161  1  0  0  0
 35162  1  0  0  0
 35163  1  0  0  0
 37164  1  0  0  0
 38165  1  0  0  0
 39166  1  0  0  0
 40167  1  0  0  0
 42168  1  0  0  0
 43169  1  0  0  0
 44170  1  0  0  0
 45171  1  0  0  0
 45172  1  0  0  0
 51173  1  0  0  0
 52174  1  0  0  0
 54175  1  0  0  0
 57176  1  0  0  0
 57177  1  0  0  0
 58178  1  0  0  0
 58179  1  0  0  0
 59180  1  0  0  0
 59181  1  0  0  0
 60182  1  0  0  0
 61183  1  0  0  0
 64184  1  0  0  0
 65185  1  0  0  0
 66186  1  0  0  0
 66187  1  0  0  0
 66188  1  0  0  0
 67189  1  0  0  0
 68190  1  0  0  0
 71191  1  0  0  0
 71192  1  0  0  0
 72193  1  0  0  0
 74194  1  0  0  0
 77195  1  0  0  0
 77196  1  0  0  0
 78197  1  0  0  0
 78198  1  0  0  0
 79199  1  0  0  0
 79200  1  0  0  0
 80201  1  0  0  0
 81202  1  0  0  0
 82203  1  0  0  0
 82204  1  0  0  0
 87205  1  0  0  0
 88206  1  0  0  0
 90207  1  0  0  0
 91208  1  0  0  0
 94209  1  0  0  0
 94210  1  0  0  0
 96211  1  0  0  0
 97212  1  0  0  0
 98213  1  0  0  0
 99214  1  0  0  0
101215  1  0  0  0
102216  1  0  0  0
103217  1  0  0  0
104218  1  0  0  0
104219  1  0  0  0
109220  1  0  0  0
111221  1  0  0  0
113222  1  0  0  0
116223  1  0  0  0
116224  1  0  0  0
117225  1  0  0  0
117226  1  0  0  0
118227  1  0  0  0
118228  1  0  0  0
119229  1  0  0  0
120230  1  0  0  0
123231  1  0  0  0
124232  1  0  0  0
125233  1  0  0  0
125234  1  0  0  0
125235  1  0  0  0
126236  1  0  0  0
127237  1  0  0  0
130238  1  0  0  0
130239  1  0  0  0
131240  1  0  0  0
132241  1  0  0  0
M  END
$$$$
