### 
### Created by X-TOOL on Mon Sep 10 21:13:34 2018
### 

@<TRIPOS>MOLECULE
5m9d_ligand
  232   237     1     0     0
SMALL
GAST_HUCK


@<TRIPOS>ATOM
      1 N          20.2400  -22.5710   -5.3110 N.4       1 THR         0.2398
      2 CA         20.7210  -23.7790   -6.0060 C.3       1 THR         0.0910
      3 C          21.3400  -23.4000   -7.3450 C.2       1 THR         0.2293
      4 O          21.0270  -22.3410   -7.8850 O.2       1 THR        -0.3906
      5 CB         19.5850  -24.7820   -6.2180 C.3       1 THR         0.1120
      6 OG1        18.7880  -24.8500   -5.0560 O.3       1 THR        -0.3840
      7 CG2        20.1290  -26.1780   -6.5250 C.3       1 THR        -0.0314
      8 N          22.2130  -24.2580   -7.8780 N.am      1 SER        -0.2588
      9 CA         22.8820  -24.0070   -9.1470 C.3       1 SER         0.1542
     10 C          22.7310  -25.1880  -10.1050 C.2       1 SER         0.2087
     11 O          23.6970  -25.9070  -10.3460 O.2       1 SER        -0.3941
     12 CB         24.3560  -23.6900   -8.8970 C.3       1 SER         0.0843
     13 OG         24.4990  -22.3940   -8.3530 O.3       1 SER        -0.3903
     14 N          21.5250  -25.3970  -10.6540 N.am      1 PRO        -0.2498
     15 CA         21.2770  -26.4020  -11.6750 C.3       1 PRO         0.1338
     16 C          21.8600  -25.9510  -13.0140 C.2       1 PRO         0.2042
     17 O          22.4430  -24.8710  -13.1050 O.2       1 PRO        -0.3944
     18 CB         19.7540  -26.5100  -11.7500 C.3       1 PRO        -0.0104
     19 CG         19.2930  -25.0980  -11.4030 C.3       1 PRO        -0.0281
     20 CD         20.3040  -24.6700  -10.3380 C.3       1 PRO         0.0369
     21 N          21.7060  -26.7720  -14.0560 N.am      1 SEP        -0.2613
     22 CA         22.1810  -26.4740  -15.4000 C.3       1 SEP         0.1586
     23 CB         21.8200  -27.6260  -16.3330 C.3       1 SEP         0.1184
     24 OG         22.3160  -28.8510  -15.8340 O.3       1 SEP        -0.2714
     25 C          21.5810  -25.1700  -15.9170 C.2       1 SEP         0.2066
     26 O          20.4860  -24.7820  -15.5110 O.2       1 SEP        -0.3943
     27 P          21.3490  -29.9560  -15.1660 P.3       1 SEP         0.2010
     28 O1P        20.4120  -30.2990  -16.2620 O.co2     1 SEP        -0.5537
     29 O2P        22.2880  -31.0330  -14.7910 O.co2     1 SEP        -0.5537
     30 O3P        20.7360  -29.2450  -14.0210 O.co2     1 SEP        -0.5537
     31 N          22.2960  -24.4880  -16.8190 N.am      1 TYR        -0.2621
     32 CA         21.8420  -23.2080  -17.3480 C.3       1 TYR         0.1390
     33 C          22.4680  -22.8980  -18.7090 C.2       1 TYR         0.2058
     34 O          23.6710  -23.0650  -18.9080 O.2       1 TYR        -0.3942
     35 CB         22.1890  -22.1080  -16.3400 C.3       1 TYR         0.0163
     36 CG         21.9170  -20.6840  -16.7840 C.ar      1 TYR        -0.0493
     37 CD1        20.8360  -20.3800  -17.6250 C.ar      1 TYR        -0.0685
     38 CD2        22.7620  -19.6610  -16.3340 C.ar      1 TYR        -0.0685
     39 CE1        20.5900  -19.0510  -18.0040 C.ar      1 TYR        -0.0398
     40 CE2        22.5240  -18.3350  -16.7130 C.ar      1 TYR        -0.0398
     41 CZ         21.4320  -18.0180  -17.5430 C.ar      1 TYR         0.0805
     42 OH         21.1890  -16.7220  -17.8920 O.3       1 TYR        -0.3376
     43 N          21.6200  -22.4450  -19.6370 N.am      1 SEP        -0.2611
     44 CA         21.9940  -21.9980  -20.9680 C.3       1 SEP         0.1588
     45 CB         21.9240  -23.2020  -21.9090 C.3       1 SEP         0.1184
     46 OG         22.6520  -23.0080  -23.1060 O.3       1 SEP        -0.2714
     47 C          21.0160  -20.8770  -21.3430 C.2       1 SEP         0.2090
     48 O          19.8400  -21.1540  -21.5770 O.2       1 SEP        -0.3941
     49 P          22.0460  -22.2110  -24.3680 P.3       1 SEP         0.2010
     50 O1P        22.8730  -22.6910  -25.4980 O.co2     1 SEP        -0.5537
     51 O2P        20.6270  -22.6310  -24.4050 O.co2     1 SEP        -0.5537
     52 O3P        22.2680  -20.7860  -24.0250 O.co2     1 SEP        -0.5537
     53 N          21.4760  -19.6170  -21.4020 N.am      1 PRO        -0.2498
     54 CA         20.6420  -18.4360  -21.5980 C.3       1 PRO         0.1338
     55 C          19.7720  -18.4350  -22.8600 C.2       1 PRO         0.2042
     56 O          18.9250  -17.5550  -23.0050 O.2       1 PRO        -0.3944
     57 CB         21.6130  -17.2520  -21.6150 C.3       1 PRO        -0.0104
     58 CG         22.8540  -17.7640  -20.8910 C.3       1 PRO        -0.0281
     59 CD         22.8690  -19.2420  -21.2490 C.3       1 PRO         0.0369
     60 N          19.9610  -19.3980  -23.7680 N.am      1 THR        -0.2613
     61 CA         19.1660  -19.4900  -24.9900 C.3       1 THR         0.1565
     62 C          17.9450  -20.3890  -24.7840 C.2       1 THR         0.2065
     63 O          17.0800  -20.4600  -25.6540 O.2       1 THR        -0.3943
     64 CB         20.0220  -20.0270  -26.1440 C.3       1 THR         0.0924
     65 OG1        21.3230  -19.4910  -26.0720 O.3       1 THR        -0.3874
     66 CG2        19.4200  -19.6700  -27.5010 C.3       1 THR        -0.0346
     67 N          17.8730  -21.0760  -23.6380 N.am      1 SER        -0.2615
     68 CA         16.7980  -22.0050  -23.3280 C.3       1 SER         0.1541
     69 C          15.5730  -21.3890  -22.6300 C.2       1 SER         0.2087
     70 O          14.4600  -21.8090  -22.9420 O.2       1 SER        -0.3941
     71 CB         17.3780  -23.1290  -22.4660 C.3       1 SER         0.0843
     72 OG         16.3750  -24.0630  -22.1330 O.3       1 SER        -0.3903
     73 N          15.7130  -20.4220  -21.7070 N.am      1 PRO        -0.2498
     74 CA         14.5910  -19.9270  -20.9230 C.3       1 PRO         0.1338
     75 C          13.6260  -19.0660  -21.7370 C.2       1 PRO         0.2042
     76 O          13.8960  -18.7170  -22.8860 O.2       1 PRO        -0.3944
     77 CB         15.2140  -19.1410  -19.7730 C.3       1 PRO        -0.0104
     78 CG         16.4960  -18.5990  -20.3950 C.3       1 PRO        -0.0281
     79 CD         16.9320  -19.7340  -21.3200 C.3       1 PRO         0.0369
     80 N          12.4970  -18.7360  -21.1000 N.am      1 SEP        -0.2613
     81 CA         11.3710  -17.9660  -21.6190 C.3       1 SEP         0.1586
     82 CB         10.5440  -17.4400  -20.4430 C.3       1 SEP         0.1184
     83 OG          9.9300  -18.4980  -19.7270 O.3       1 SEP        -0.2714
     84 C          11.7600  -16.7930  -22.5150 C.2       1 SEP         0.2066
     85 O          12.8520  -16.2410  -22.4080 O.2       1 SEP        -0.3943
     86 P          10.4850  -19.0180  -18.3050 P.3       1 SEP         0.2010
     87 O1P        11.9010  -19.3490  -18.5770 O.co2     1 SEP        -0.5537
     88 O2P        10.2840  -17.8580  -17.4060 O.co2     1 SEP        -0.5537
     89 O3P         9.6240  -20.1790  -18.0040 O.co2     1 SEP        -0.5537
     90 N          10.8340  -16.4220  -23.4090 N.am      1 TYR        -0.2621
     91 CA         10.9500  -15.2830  -24.3160 C.3       1 TYR         0.1390
     92 C           9.5650  -14.8670  -24.8080 C.2       1 TYR         0.2058
     93 O           9.3450  -13.6900  -25.0880 O.2       1 TYR        -0.3942
     94 CB         11.8280  -15.6740  -25.5030 C.3       1 TYR         0.0163
     95 CG         11.7210  -14.7760  -26.7160 C.ar      1 TYR        -0.0493
     96 CD1        11.1980  -15.2950  -27.9000 C.ar      1 TYR        -0.0685
     97 CD2        12.1360  -13.4400  -26.6820 C.ar      1 TYR        -0.0685
     98 CE1        11.1200  -14.5370  -29.0680 C.ar      1 TYR        -0.0398
     99 CE2        12.0500  -12.6610  -27.8480 C.ar      1 TYR        -0.0398
    100 CZ         11.5420  -13.2010  -29.0440 C.ar      1 TYR         0.0805
    101 OH         11.4530  -12.4440  -30.1750 O.3       1 TYR        -0.3376
    102 N           8.6480  -15.8350  -24.9050 N.am      1 SEP        -0.2611
    103 CA          7.2340  -15.6110  -25.1760 C.3       1 SEP         0.1588
    104 CB          6.9750  -15.7010  -26.6840 C.3       1 SEP         0.1184
    105 OG          7.6600  -14.6770  -27.3730 O.3       1 SEP        -0.2714
    106 C           6.4170  -16.6670  -24.4200 C.2       1 SEP         0.2090
    107 O           5.6690  -17.4260  -25.0330 O.2       1 SEP        -0.3941
    108 P           7.5860  -14.5730  -28.9790 P.3       1 SEP         0.2010
    109 O1P         8.2800  -15.7990  -29.4330 O.co2     1 SEP        -0.5537
    110 O2P         6.1340  -14.5370  -29.2600 O.co2     1 SEP        -0.5537
    111 O3P         8.2980  -13.3080  -29.2730 O.co2     1 SEP        -0.5537
    112 N           6.5470  -16.7350  -23.0860 N.am      1 PRO        -0.2498
    113 CA          5.9280  -17.7710  -22.2750 C.3       1 PRO         0.1338
    114 C           4.4280  -17.5440  -22.0820 C.2       1 PRO         0.2042
    115 O           3.6850  -18.5040  -21.8900 O.2       1 PRO        -0.3944
    116 CB          6.6560  -17.6890  -20.9340 C.3       1 PRO        -0.0104
    117 CG          6.9810  -16.1990  -20.8220 C.3       1 PRO        -0.0281
    118 CD          7.3140  -15.8200  -22.2600 C.3       1 PRO         0.0369
    119 N           3.9810  -16.2860  -22.1290 N.am      1 THR        -0.2613
    120 CA          2.5860  -15.9270  -21.9220 C.3       1 THR         0.1564
    121 C           2.3760  -14.4760  -22.3300 C.2       1 THR         0.2060
    122 O           3.3400  -13.7210  -22.4410 O.2       1 THR        -0.3943
    123 CB          2.2110  -16.0900  -20.4410 C.3       1 THR         0.0924
    124 OG1         0.9240  -15.5570  -20.2000 O.3       1 THR        -0.3874
    125 CG2         3.1820  -15.3620  -19.5120 C.3       1 THR        -0.0346
    126 N           1.1130  -14.0930  -22.5500 N.am      1 SER        -0.2672
    127 CA          0.7470  -12.6990  -22.7170 C.3       1 SER         0.1173
    128 C           0.6790  -12.0300  -21.3430 C.2       1 SER         0.0623
    129 O           0.9280  -12.7400  -20.3420 O.co2     1 SER        -0.5665
    130 CB         -0.6020  -12.5920  -23.4220 C.3       1 SER         0.0789
    131 OG         -0.9370  -11.2240  -23.4990 O.3       1 SER        -0.3910
    132 OXT         0.3770  -10.8140  -21.3140 O.co2     1 SER        -0.5665
    133 H1         21.0064  -21.9286   -5.1844 H         1 THR         0.2016
    134 H2         19.8649  -22.8278   -4.4114 H         1 THR         0.2016
    135 H3         19.5200  -22.1306   -5.8620 H         1 THR         0.2016
    136 H4         21.4932  -24.2544   -5.3834 H         1 THR         0.1125
    137 H5         18.9672  -24.4448   -7.0633 H         1 THR         0.0674
    138 H6         18.4219  -23.9925   -4.8738 H         1 THR         0.2102
    139 H7         19.2902  -26.8742   -6.6719 H         1 THR         0.0258
    140 H8         20.7489  -26.5230   -5.6844 H         1 THR         0.0258
    141 H9         20.7391  -26.1409   -7.4395 H         1 THR         0.0258
    142 H10        22.4153  -25.1054   -7.3871 H         1 SER         0.1885
    143 H11        22.4136  -23.1286   -9.6150 H         1 SER         0.0823
    144 H12        24.9045  -23.7453   -9.8489 H         1 SER         0.0606
    145 H13        24.7699  -24.4260   -8.1920 H         1 SER         0.0606
    146 H14        24.0283  -22.3438   -7.5293 H         1 SER         0.2097
    147 H15        21.7199  -27.3671  -11.3879 H         1 PRO         0.0802
    148 H16        19.3730  -27.2406  -11.0213 H         1 PRO         0.0313
    149 H17        19.4271  -26.7955  -12.7607 H         1 PRO         0.0313
    150 H18        18.2695  -25.1021  -11.0001 H         1 PRO         0.0287
    151 H19        19.3385  -24.4380  -12.2818 H         1 PRO         0.0287
    152 H20        20.4781  -23.5849  -10.3859 H         1 PRO         0.0524
    153 H21        19.9437  -24.9396   -9.3342 H         1 PRO         0.0524
    154 H22        21.2371  -27.6422  -13.9045 H         1 SEP         0.1884
    155 H23        23.2756  -26.3685  -15.3719 H         1 SEP         0.0827
    156 H24        22.2571  -27.4373  -17.3246 H         1 SEP         0.0662
    157 H25        20.7254  -27.6893  -16.4208 H         1 SEP         0.0662
    158 H26        23.1647  -24.8664  -17.1386 H         1 TYR         0.1885
    159 H27        20.7496  -23.2470  -17.4714 H         1 TYR         0.0821
    160 H28        23.2618  -22.1890  -16.1107 H         1 TYR         0.0453
    161 H29        21.6039  -22.2925  -15.4270 H         1 TYR         0.0453
    162 H30        20.1894  -21.1730  -17.9829 H         1 TYR         0.0530
    163 H31        23.6020  -19.8971  -15.6908 H         1 TYR         0.0530
    164 H32        19.7522  -18.8186  -18.6515 H         1 TYR         0.0525
    165 H33        23.1838  -17.5481  -16.3657 H         1 TYR         0.0525
    166 H34        20.4215  -16.6842  -18.4505 H         1 TYR         0.2458
    167 H35        20.6500  -22.4109  -19.3961 H         1 SEP         0.1884
    168 H36        23.0201  -21.6018  -20.9664 H         1 SEP         0.0827
    169 H37        20.8703  -23.3866  -22.1651 H         1 SEP         0.0662
    170 H38        22.3337  -24.0795  -21.3874 H         1 SEP         0.0662
    171 H39        19.9669  -18.3425  -20.7346 H         1 PRO         0.0802
    172 H40        21.1828  -16.3889  -21.0858 H         1 PRO         0.0313
    173 H41        21.8570  -16.9643  -22.6483 H         1 PRO         0.0313
    174 H42        22.7656  -17.6208  -19.8040 H         1 PRO         0.0287
    175 H43        23.7611  -17.2593  -21.2548 H         1 PRO         0.0287
    176 H44        23.4165  -19.4044  -22.1891 H         1 PRO         0.0524
    177 H45        23.3389  -19.8276  -20.4451 H         1 PRO         0.0524
    178 H46        20.6731  -20.0807  -23.6045 H         1 THR         0.1884
    179 H47        18.8156  -18.4810  -25.2529 H         1 THR         0.0826
    180 H48        20.0784  -21.1222  -26.0578 H         1 THR         0.0639
    181 H49        21.7213  -19.7392  -25.2460 H         1 THR         0.2101
    182 H50        20.0588  -20.0701  -28.3022 H         1 THR         0.0257
    183 H51        19.3540  -18.5762  -27.5966 H         1 THR         0.0257
    184 H52        18.4136  -20.1065  -27.5820 H         1 THR         0.0257
    185 H53        18.5958  -20.9438  -22.9597 H         1 SER         0.1884
    186 H54        16.4480  -22.4354  -24.2779 H         1 SER         0.0823
    187 H55        17.7937  -22.6995  -21.5426 H         1 SER         0.0606
    188 H56        18.1764  -23.6389  -23.0251 H         1 SER         0.0606
    189 H57        15.6851  -23.6257  -21.6479 H         1 SER         0.2097
    190 H58        14.0268  -20.7810  -20.5201 H         1 PRO         0.0802
    191 H59        15.4343  -19.7966  -18.9176 H         1 PRO         0.0313
    192 H60        14.5541  -18.3232  -19.4478 H         1 PRO         0.0313
    193 H61        17.2566  -18.4013  -19.6254 H         1 PRO         0.0287
    194 H62        16.3014  -17.6776  -20.9635 H         1 PRO         0.0287
    195 H63        17.4417  -19.3302  -22.2072 H         1 PRO         0.0524
    196 H64        17.6077  -20.4214  -20.7900 H         1 PRO         0.0524
    197 H65        12.4147  -19.0548  -20.1558 H         1 SEP         0.1884
    198 H66        10.7466  -18.6481  -22.2147 H         1 SEP         0.0827
    199 H67         9.7628  -16.7677  -20.8274 H         1 SEP         0.0662
    200 H68        11.2044  -16.8832  -19.7619 H         1 SEP         0.0662
    201 H69         9.9976  -16.9677  -23.4594 H         1 TYR         0.1885
    202 H70        11.4128  -14.4392  -23.7834 H         1 TYR         0.0821
    203 H71        11.5489  -16.6928  -25.8099 H         1 TYR         0.0453
    204 H72        12.8754  -15.6662  -25.1670 H         1 TYR         0.0453
    205 H73        10.8413  -16.3186  -27.9129 H         1 TYR         0.0530
    206 H74        12.5204  -13.0100  -25.7642 H         1 TYR         0.0530
    207 H75        10.7378  -14.9757  -29.9827 H         1 TYR         0.0525
    208 H76        12.3799  -11.6286  -27.8260 H         1 TYR         0.0525
    209 H77        12.3189  -12.1395  -30.4199 H         1 TYR         0.2458
    210 H78         8.9541  -16.7792  -24.7830 H         1 SEP         0.1884
    211 H79         6.9476  -14.6096  -24.8223 H         1 SEP         0.0827
    212 H80         5.8956  -15.6016  -26.8710 H         1 SEP         0.0662
    213 H81         7.3224  -16.6777  -27.0518 H         1 SEP         0.0662
    214 H82         6.0829  -18.7566  -22.7382 H         1 PRO         0.0802
    215 H83         7.5733  -18.2960  -20.9423 H         1 PRO         0.0313
    216 H84         6.0067  -18.0169  -20.1089 H         1 PRO         0.0313
    217 H85         7.8412  -16.0294  -20.1578 H         1 PRO         0.0287
    218 H86         6.1147  -15.6307  -20.4525 H         1 PRO         0.0287
    219 H87         7.0194  -14.7796  -22.4621 H         1 PRO         0.0524
    220 H88         8.3908  -15.9398  -22.4503 H         1 PRO         0.0524
    221 H89         4.6373  -15.5550  -22.3156 H         1 THR         0.1884
    222 H90         1.9465  -16.5791  -22.5350 H         1 THR         0.0826
    223 H91         2.2157  -17.1625  -20.1965 H         1 THR         0.0639
    224 H92         0.9182  -14.6334  -20.4224 H         1 THR         0.2101
    225 H93         2.8703  -15.5095  -18.4675 H         1 THR         0.0257
    226 H94         3.1787  -14.2875  -19.7474 H         1 THR         0.0257
    227 H95         4.1958  -15.7651  -19.6525 H         1 THR         0.0257
    228 H96         0.3980  -14.7903  -22.6010 H         1 SER         0.1876
    229 H97         1.5109  -12.1949  -23.3272 H         1 SER         0.0749
    230 H98        -1.3686  -13.1339  -22.8488 H         1 SER         0.0599
    231 H99        -0.5311  -13.0180  -24.4336 H         1 SER         0.0599
    232 H100       -0.9919  -10.8627  -22.6221 H         1 SER         0.2096
@<TRIPOS>BOND
     1    1    2 1  
     2    2    3 1  
     3    2    5 1  
     4    3    4 2  
     5    3    8 am 
     6    5    6 1  
     7    5    7 1  
     8    8    9 1  
     9    9   10 1  
    10    9   12 1  
    11   10   11 2  
    12   10   14 am 
    13   12   13 1  
    14   14   15 1  
    15   14   20 1  
    16   15   16 1  
    17   15   18 1  
    18   16   17 2  
    19   16   21 am 
    20   18   19 1  
    21   19   20 1  
    22   21   22 1  
    23   22   23 1  
    24   22   25 1  
    25   23   24 1  
    26   24   27 1  
    27   25   26 2  
    28   25   31 am 
    29   27   28 ar 
    30   27   29 ar 
    31   27   30 ar 
    32   31   32 1  
    33   32   33 1  
    34   32   35 1  
    35   33   34 2  
    36   33   43 am 
    37   35   36 1  
    38   36   37 ar 
    39   36   38 ar 
    40   37   39 ar 
    41   38   40 ar 
    42   39   41 ar 
    43   40   41 ar 
    44   41   42 1  
    45   43   44 1  
    46   44   45 1  
    47   44   47 1  
    48   45   46 1  
    49   46   49 1  
    50   47   48 2  
    51   47   53 am 
    52   49   50 ar 
    53   49   51 ar 
    54   49   52 ar 
    55   53   54 1  
    56   53   59 1  
    57   54   55 1  
    58   54   57 1  
    59   55   56 2  
    60   55   60 am 
    61   57   58 1  
    62   58   59 1  
    63   60   61 1  
    64   61   62 1  
    65   61   64 1  
    66   62   63 2  
    67   62   67 am 
    68   64   65 1  
    69   64   66 1  
    70   67   68 1  
    71   68   69 1  
    72   68   71 1  
    73   69   70 2  
    74   69   73 am 
    75   71   72 1  
    76   73   74 1  
    77   73   79 1  
    78   74   75 1  
    79   74   77 1  
    80   75   76 2  
    81   75   80 am 
    82   77   78 1  
    83   78   79 1  
    84   80   81 1  
    85   81   82 1  
    86   81   84 1  
    87   82   83 1  
    88   83   86 1  
    89   84   85 2  
    90   84   90 am 
    91   86   87 ar 
    92   86   88 ar 
    93   86   89 ar 
    94   90   91 1  
    95   91   92 1  
    96   91   94 1  
    97   92   93 2  
    98   92  102 am 
    99   94   95 1  
   100   95   96 ar 
   101   95   97 ar 
   102   96   98 ar 
   103   97   99 ar 
   104   98  100 ar 
   105   99  100 ar 
   106  100  101 1  
   107  102  103 1  
   108  103  104 1  
   109  103  106 1  
   110  104  105 1  
   111  105  108 1  
   112  106  107 2  
   113  106  112 am 
   114  108  109 ar 
   115  108  110 ar 
   116  108  111 ar 
   117  112  113 1  
   118  112  118 1  
   119  113  114 1  
   120  113  116 1  
   121  114  115 2  
   122  114  119 am 
   123  116  117 1  
   124  117  118 1  
   125  119  120 1  
   126  120  121 1  
   127  120  123 1  
   128  121  122 2  
   129  121  126 am 
   130  123  124 1  
   131  123  125 1  
   132  126  127 1  
   133  127  128 1  
   134  127  130 1  
   135  128  129 ar 
   136  128  132 ar 
   137  130  131 1  
   138    1  133 1  
   139    1  134 1  
   140    1  135 1  
   141    2  136 1  
   142    5  137 1  
   143    6  138 1  
   144    7  139 1  
   145    7  140 1  
   146    7  141 1  
   147    8  142 1  
   148    9  143 1  
   149   12  144 1  
   150   12  145 1  
   151   13  146 1  
   152   15  147 1  
   153   18  148 1  
   154   18  149 1  
   155   19  150 1  
   156   19  151 1  
   157   20  152 1  
   158   20  153 1  
   159   21  154 1  
   160   22  155 1  
   161   23  156 1  
   162   23  157 1  
   163   31  158 1  
   164   32  159 1  
   165   35  160 1  
   166   35  161 1  
   167   37  162 1  
   168   38  163 1  
   169   39  164 1  
   170   40  165 1  
   171   42  166 1  
   172   43  167 1  
   173   44  168 1  
   174   45  169 1  
   175   45  170 1  
   176   54  171 1  
   177   57  172 1  
   178   57  173 1  
   179   58  174 1  
   180   58  175 1  
   181   59  176 1  
   182   59  177 1  
   183   60  178 1  
   184   61  179 1  
   185   64  180 1  
   186   65  181 1  
   187   66  182 1  
   188   66  183 1  
   189   66  184 1  
   190   67  185 1  
   191   68  186 1  
   192   71  187 1  
   193   71  188 1  
   194   72  189 1  
   195   74  190 1  
   196   77  191 1  
   197   77  192 1  
   198   78  193 1  
   199   78  194 1  
   200   79  195 1  
   201   79  196 1  
   202   80  197 1  
   203   81  198 1  
   204   82  199 1  
   205   82  200 1  
   206   90  201 1  
   207   91  202 1  
   208   94  203 1  
   209   94  204 1  
   210   96  205 1  
   211   97  206 1  
   212   98  207 1  
   213   99  208 1  
   214  101  209 1  
   215  102  210 1  
   216  103  211 1  
   217  104  212 1  
   218  104  213 1  
   219  113  214 1  
   220  116  215 1  
   221  116  216 1  
   222  117  217 1  
   223  117  218 1  
   224  118  219 1  
   225  118  220 1  
   226  119  221 1  
   227  120  222 1  
   228  123  223 1  
   229  124  224 1  
   230  125  225 1  
   231  125  226 1  
   232  125  227 1  
   233  126  228 1  
   234  127  229 1  
   235  130  230 1  
   236  130  231 1  
   237  131  232 1  
@<TRIPOS>SUBSTRUCTURE
     1 THR         1

