6jof_ligand
  -I-interpret- 

 53 56  0  0  0  0  0  0  0  0999 V2000
    1.0050   14.6300  -16.0290 C   0  0  0  0  0
   -0.3690   14.6610  -16.7560 C   0  0  0  0  0
   -0.1820   14.5090  -18.2930 C   0  0  0  0  0
   -1.4630   14.6820  -19.0030 N   0  3  0  0  0
    0.8970   15.4870  -18.8400 C   0  0  0  0  0
    2.1840   15.4100  -17.9840 C   0  0  0  0  0
    1.9440   15.6690  -16.5400 N   0  3  0  0  0
    3.2570   15.5980  -15.8480 C   0  0  0  0  0
    3.4550   16.5170  -14.7930 C   0  0  0  0  0
    4.5620   17.3770  -14.8040 C   0  0  0  0  0
    4.7780   18.2620  -13.7330 C   0  0  0  0  0
    2.6170   16.5340  -13.6710 C   0  0  0  0  0
    2.8310   17.4200  -12.6050 C   0  0  0  0  0
    3.9260   18.2890  -12.6190 C   0  0  0  0  0
    4.1580   19.1940  -11.5560 C   0  0  0  0  0
    4.1990   18.5160  -10.2280 N   0  0  0  0  0
    4.7620   19.0350   -9.1060 C   0  0  0  0  0
    5.4420   20.0640   -9.1530 O   0  0  0  0  0
    4.7350   18.3150   -7.9410 C   0  0  0  0  0
    3.8420   17.3660   -7.4720 C   0  0  0  0  0
    2.7450   16.7440   -8.0120 C   0  0  0  0  0
    2.2710   17.0210   -9.1130 O   0  0  0  0  0
    2.0330   15.7340   -7.3070 N   0  0  0  0  0
    2.3970   15.3510   -6.0950 C   0  0  0  0  0
    3.5240   15.9740   -5.5420 N   0  0  0  0  0
    4.1840   16.9470   -6.2070 C   0  0  0  0  0
    5.5120   17.7510   -5.6830 S   0  0  0  0  0
    5.6710   18.6560   -7.0470 C   0  0  0  0  0
    1.4563   13.6533  -16.2038 H   0  0  0  0  0
    0.8304   14.8253  -14.9709 H   0  0  0  0  0
   -0.8534   15.6161  -16.5529 H   0  0  0  0  0
   -0.9788   13.8342  -16.3919 H   0  0  0  0  0
    0.1727   13.4953  -18.4791 H   0  0  0  0  0
   -2.1505   14.0301  -18.6252 H   0  0  0  0  0
   -1.7941   15.6384  -18.8764 H   0  0  0  0  0
   -1.3273   14.4967  -19.9968 H   0  0  0  0  0
    0.5058   16.5036  -18.7998 H   0  0  0  0  0
    1.1378   15.2099  -19.8663 H   0  0  0  0  0
    2.8685   16.1764  -18.3475 H   0  0  0  0  0
    2.5819   14.3994  -18.0764 H   0  0  0  0  0
    1.5294   16.5866  -16.3774 H   0  0  0  0  0
    4.0111   15.8300  -16.6001 H   0  0  0  0  0
    3.3134   14.6050  -15.4021 H   0  0  0  0  0
    5.2563   17.3596  -15.6441 H   0  0  0  0  0
    5.6279   18.9435  -13.7692 H   0  0  0  0  0
    1.7770   15.8409  -13.6250 H   0  0  0  0  0
    2.1404   17.4311  -11.7618 H   0  0  0  0  0
    3.3390   19.9131  -11.5415 H   0  0  0  0  0
    5.1257   19.6673  -11.7222 H   0  0  0  0  0
    3.7718   17.5925  -10.1570 H   0  0  0  0  0
    1.8452   14.5849   -5.5503 H   0  0  0  0  0
    3.8521   15.6872   -4.6198 H   0  0  0  0  0
    6.4297   19.4233   -7.2009 H   0  0  0  0  0
  1  2  1  0  0  0
  1  7  1  0  0  0
  2  3  1  0  0  0
  3  4  1  0  0  0
  3  5  1  0  0  0
  5  6  1  0  0  0
  6  7  1  0  0  0
  7  8  1  0  0  0
  8  9  1  0  0  0
  9 10  4  0  0  0
  9 12  4  0  0  0
 10 11  4  0  0  0
 11 14  4  0  0  0
 12 13  4  0  0  0
 13 14  4  0  0  0
 14 15  1  0  0  0
 15 16  1  0  0  0
 16 17  1  0  0  0
 17 18  2  0  0  0
 17 19  1  0  0  0
 19 20  4  0  0  0
 19 28  4  0  0  0
 20 21  1  0  0  0
 20 26  4  0  0  0
 21 22  2  0  0  0
 21 23  1  0  0  0
 23 24  2  0  0  0
 24 25  1  0  0  0
 25 26  1  0  0  0
 26 27  4  0  0  0
 27 28  4  0  0  0
  1 29  1  0  0  0
  1 30  1  0  0  0
  2 31  1  0  0  0
  2 32  1  0  0  0
  3 33  1  0  0  0
  4 34  1  0  0  0
  4 35  1  0  0  0
  4 36  1  0  0  0
  5 37  1  0  0  0
  5 38  1  0  0  0
  6 39  1  0  0  0
  6 40  1  0  0  0
  7 41  1  0  0  0
  8 42  1  0  0  0
  8 43  1  0  0  0
 10 44  1  0  0  0
 11 45  1  0  0  0
 12 46  1  0  0  0
 13 47  1  0  0  0
 15 48  1  0  0  0
 15 49  1  0  0  0
 16 50  1  0  0  0
 24 51  1  0  0  0
 25 52  1  0  0  0
 28 53  1  0  0  0
M  END
$$$$
