5xvf_ligand
  -I-interpret- 

 46 49  0  0  0  0  0  0  0  0999 V2000
   77.9940   25.5310  193.5300 C   0  0  0  0  0
   77.1090   25.7880  194.5590 C   0  0  0  0  0
   76.9190   27.1110  194.9470 C   0  0  0  0  0
   77.5660   28.1320  194.3230 N   0  0  0  0  0
   78.6310   26.5810  192.9420 N   0  0  0  0  0
   78.4360   27.8720  193.3510 C   0  0  0  0  0
   76.4260   24.7490  195.2080 C   0  0  0  0  0
   76.6690   23.4140  194.7850 C   0  0  0  0  0
   77.5590   23.1310  193.7560 C   0  0  0  0  0
   78.2290   24.2020  193.1200 C   0  0  0  0  0
   75.8570   28.5650  196.7260 C   0  0  0  0  0
   76.6310   29.7230  196.5830 C   0  0  0  0  0
   75.0680   30.1200  198.1540 C   0  0  0  0  0
   76.6210   32.0100  197.6470 C   0  0  0  0  0
   80.3400   29.5720  193.0330 C   0  0  0  0  0
   81.2310   29.9180  191.8240 C   0  0  0  0  0
   80.4960   30.3170  190.5450 C   0  0  0  0  0
   79.0530   30.6140  190.7720 C   0  0  0  0  0
   78.4080   29.4330  191.4860 C   0  0  0  0  0
   76.0030   27.3070  196.0060 N   0  0  0  0  0
   76.1290   30.6900  197.4660 N   0  0  0  0  0
   74.8990   28.8000  197.7050 N   0  0  0  0  0
   79.1040   28.9660  192.6470 N   0  0  0  0  0
   81.0580   31.5140  189.9600 N   0  3  0  0  0
   75.8130   22.1280  195.5680 Cl  0  0  0  0  0
   75.7263   24.9601  196.0166 H   0  0  0  0  0
   77.7376   22.1018  193.4445 H   0  0  0  0  0
   78.9296   23.9996  192.3099 H   0  0  0  0  0
   77.4749   29.8504  195.9050 H   0  0  0  0  0
   74.4657   30.6142  198.9162 H   0  0  0  0  0
   77.6603   31.9675  197.9728 H   0  0  0  0  0
   76.5564   32.5529  196.7041 H   0  0  0  0  0
   76.0226   32.5190  198.4026 H   0  0  0  0  0
   80.1103   30.4994  193.5577 H   0  0  0  0  0
   80.8819   28.8619  193.6577 H   0  0  0  0  0
   81.7908   29.0134  191.5866 H   0  0  0  0  0
   81.8256   30.7827  192.1186 H   0  0  0  0  0
   80.6067   29.4551  189.8871 H   0  0  0  0  0
   78.5575   30.7795  189.8153 H   0  0  0  0  0
   78.9548   31.5108  191.3838 H   0  0  0  0  0
   78.3967   28.6067  190.7752 H   0  0  0  0  0
   77.4279   29.7698  191.8239 H   0  0  0  0  0
   75.4110   26.5234  196.2814 H   0  0  0  0  0
   80.5442   31.7496  189.1110 H   0  0  0  0  0
   80.9863   32.2827  190.6266 H   0  0  0  0  0
   82.0386   31.3511  189.7312 H   0  0  0  0  0
  1  2  4  0  0  0
  5  1  4  0  0  0
  1 10  4  0  0  0
  3  2  4  0  0  0
  2  7  4  0  0  0
  4  3  4  0  0  0
  3 20  1  0  0  0
  6  4  4  0  0  0
  6  5  4  0  0  0
 23  6  1  0  0  0
  7  8  4  0  0  0
  9  8  4  0  0  0
  8 25  1  0  0  0
 10  9  4  0  0  0
 11 12  4  0  0  0
 20 11  1  0  0  0
 11 22  4  0  0  0
 12 21  4  0  0  0
 13 21  4  0  0  0
 22 13  4  0  0  0
 21 14  1  0  0  0
 15 16  1  0  0  0
 15 23  1  0  0  0
 16 17  1  0  0  0
 17 18  1  0  0  0
 17 24  1  0  0  0
 18 19  1  0  0  0
 19 23  1  0  0  0
  7 26  1  0  0  0
  9 27  1  0  0  0
 10 28  1  0  0  0
 12 29  1  0  0  0
 13 30  1  0  0  0
 14 31  1  0  0  0
 14 32  1  0  0  0
 14 33  1  0  0  0
 15 34  1  0  0  0
 15 35  1  0  0  0
 16 36  1  0  0  0
 16 37  1  0  0  0
 17 38  1  0  0  0
 18 39  1  0  0  0
 18 40  1  0  0  0
 19 41  1  0  0  0
 19 42  1  0  0  0
 20 43  1  0  0  0
 24 44  1  0  0  0
 24 45  1  0  0  0
 24 46  1  0  0  0
M  END
$$$$
