4ch8_ligand
  -I-interpret- 

 62 62  0  0  0  0  0  0  0  0999 V2000
   42.5380   -2.2680   63.4350 N   0  3  0  0  0
   41.5080   -2.5700   62.4050 C   0  0  0  0  0
   40.4950   -3.7100   62.7660 C   0  0  0  0  0
   39.5620   -3.9600   62.0070 O   0  0  0  0  0
   42.1850   -2.8490   61.0580 C   0  0  0  0  0
   43.1570   -4.0280   60.9480 C   0  0  0  0  0
   43.1220   -4.5610   59.5170 C   0  0  0  0  0
   44.5980   -3.6740   61.3670 C   0  0  0  0  0
   40.6960   -4.4020   63.8840 N   0  0  0  0  0
   39.6970   -5.3520   64.3910 C   0  0  0  0  0
   39.4330   -4.9640   65.8040 C   0  0  0  0  0
   40.3560   -4.5700   66.5400 O   0  0  0  0  0
   40.1540   -6.8140   64.3400 C   0  0  0  0  0
   40.1650   -7.4060   62.9230 C   0  0  0  0  0
   38.9910   -7.8420   62.2790 C   0  0  0  0  0
   41.3970   -7.5450   62.2740 C   0  0  0  0  0
   39.0370   -8.4100   60.9990 C   0  0  0  0  0
   41.4660   -8.0710   60.9950 C   0  0  0  0  0
   40.2880   -8.5180   60.3670 C   0  0  0  0  0
   40.3280   -9.0500   59.1090 O   0  0  0  0  0
   41.4310  -10.0880   58.5530 P   0  0  0  0  0
   40.7390  -10.7050   57.3690 O   0  0  0  0  0
   41.8110  -11.1430   59.5710 O   0  0  0  0  0
   42.5700   -9.1300   58.2910 O   0  0  0  0  0
   38.1760   -5.0650   66.2080 N   0  0  0  0  0
   37.7980   -4.8770   67.5660 C   0  0  0  0  0
   38.6170   -5.7250   68.5180 C   0  0  0  0  0
   38.4310   -6.9709   68.4924 O   0  0  0  0  0
   36.3430   -5.2690   67.7010 C   0  0  0  0  0
   35.8260   -5.0560   69.0240 C   0  0  0  0  0
   35.8970   -3.9180   69.5340 O   0  0  0  0  0
   35.2020   -5.9820   69.5510 O   0  0  0  0  0
   39.4520   -5.2042   69.3049 O   0  0  0  0  0
   42.0805   -2.0836   64.3278 H   0  0  0  0  0
   43.1650   -3.0667   63.5315 H   0  0  0  0  0
   43.0723   -1.4474   63.1495 H   0  0  0  0  0
   40.8896   -1.6741   62.3490 H   0  0  0  0  0
   42.7909   -1.9650   60.8589 H   0  0  0  0  0
   41.3689   -3.0925   60.3777 H   0  0  0  0  0
   42.8296   -4.7960   61.6488 H   0  0  0  0  0
   43.5088   -3.8011   58.8380 H   0  0  0  0  0
   43.7379   -5.4577   59.4495 H   0  0  0  0  0
   42.0944   -4.8032   59.2459 H   0  0  0  0  0
   45.2215   -4.5662   61.3090 H   0  0  0  0  0
   44.9923   -2.9095   60.6975 H   0  0  0  0  0
   44.5954   -3.2969   62.3897 H   0  0  0  0  0
   41.5648   -4.2698   64.4018 H   0  0  0  0  0
   38.8102   -5.3004   63.7593 H   0  0  0  0  0
   39.4492   -7.3975   64.9324 H   0  0  0  0  0
   41.1761   -6.8501   64.7171 H   0  0  0  0  0
   38.0311   -7.7359   62.7844 H   0  0  0  0  0
   42.3115   -7.2361   62.7804 H   0  0  0  0  0
   38.1287   -8.7582   60.5073 H   0  0  0  0  0
   42.4238   -8.1384   60.4790 H   0  0  0  0  0
   42.2501  -10.7246   60.3151 H   0  0  0  0  0
   42.9187   -8.8129   59.1273 H   0  0  0  0  0
   37.4542   -5.2852   65.5217 H   0  0  0  0  0
   37.9687   -3.8325   67.8268 H   0  0  0  0  0
   36.2636   -6.3335   67.4804 H   0  0  0  0  0
   35.7665   -4.6486   67.0149 H   0  0  0  0  0
   36.4251   -3.3482   68.9700 H   0  0  0  0  0
   39.4552   -4.2521   69.1820 H   0  0  0  0  0
  1  2  1  0  0  0
  2  3  1  0  0  0
  2  5  1  0  0  0
  3  4  2  0  0  0
  3  9  1  0  0  0
  5  6  1  0  0  0
  6  7  1  0  0  0
  6  8  1  0  0  0
  9 10  1  0  0  0
 10 11  1  0  0  0
 10 13  1  0  0  0
 11 12  2  0  0  0
 11 25  1  0  0  0
 13 14  1  0  0  0
 14 15  4  0  0  0
 14 16  4  0  0  0
 15 17  4  0  0  0
 16 18  4  0  0  0
 17 19  4  0  0  0
 18 19  4  0  0  0
 19 20  1  0  0  0
 20 21  1  0  0  0
 21 22  2  0  0  0
 21 23  1  0  0  0
 21 24  1  0  0  0
 25 26  1  0  0  0
 26 27  1  0  0  0
 26 29  1  0  0  0
 27 28  2  0  0  0
 29 30  1  0  0  0
 30 31  1  0  0  0
 30 32  2  0  0  0
 27 33  1  0  0  0
  1 34  1  0  0  0
  1 35  1  0  0  0
  1 36  1  0  0  0
  2 37  1  0  0  0
  5 38  1  0  0  0
  5 39  1  0  0  0
  6 40  1  0  0  0
  7 41  1  0  0  0
  7 42  1  0  0  0
  7 43  1  0  0  0
  8 44  1  0  0  0
  8 45  1  0  0  0
  8 46  1  0  0  0
  9 47  1  0  0  0
 10 48  1  0  0  0
 13 49  1  0  0  0
 13 50  1  0  0  0
 15 51  1  0  0  0
 16 52  1  0  0  0
 17 53  1  0  0  0
 18 54  1  0  0  0
 23 55  1  0  0  0
 24 56  1  0  0  0
 25 57  1  0  0  0
 26 58  1  0  0  0
 29 59  1  0  0  0
 29 60  1  0  0  0
 31 61  1  0  0  0
 33 62  1  0  0  0
M  END
$$$$
