### 
### Created by X-TOOL on Mon Sep 10 21:13:15 2018
### 

@<TRIPOS>MOLECULE
4ch8_ligand
   58    58     1     0     0
SMALL
GAST_HUCK


@<TRIPOS>ATOM
      1 N          42.5380   -2.2680   63.4350 N.4       1 LEU         0.2379
      2 CA         41.5080   -2.5700   62.4050 C.3       1 LEU         0.0652
      3 C          40.4950   -3.7100   62.7660 C.2       1 LEU         0.2269
      4 O          39.5620   -3.9600   62.0070 O.2       1 LEU        -0.3907
      5 CB         42.1850   -2.8490   61.0580 C.3       1 LEU         0.0102
      6 CG         43.1570   -4.0280   60.9480 C.3       1 LEU        -0.0394
      7 CD1        43.1220   -4.5610   59.5170 C.3       1 LEU        -0.0623
      8 CD2        44.5980   -3.6740   61.3670 C.3       1 LEU        -0.0623
      9 N          40.6960   -4.4020   63.8840 N.am      1 PTR        -0.2580
     10 CA         39.6970   -5.3520   64.3910 C.3       1 PTR         0.1469
     11 C          39.4330   -4.9640   65.8040 C.2       1 PTR         0.2069
     12 O          40.3560   -4.5700   66.5400 O.2       1 PTR        -0.3941
     13 CB         40.1540   -6.8140   64.3400 C.3       1 PTR         0.0400
     14 CG         40.1650   -7.4060   62.9230 C.ar      1 PTR        -0.0004
     15 CD1        38.9910   -7.8420   62.2790 C.ar      1 PTR        -0.0239
     16 CD2        41.3970   -7.5450   62.2740 C.ar      1 PTR        -0.0239
     17 CE1        39.0370   -8.4100   60.9990 C.ar      1 PTR         0.0115
     18 CE2        41.4660   -8.0710   60.9950 C.ar      1 PTR         0.0115
     19 CZ         40.2880   -8.5180   60.3670 C.ar      1 PTR         0.1728
     20 OH         40.3280   -9.0500   59.1090 O.3       1 PTR        -0.2040
     21 P          41.4310  -10.0880   58.5530 P.3       1 PTR         0.1348
     22 O1P        40.7390  -10.7050   57.3690 O.co2     1 PTR        -0.6653
     23 O2P        41.8110  -11.1430   59.5710 O.co2     1 PTR        -0.6653
     24 O3P        42.5700   -9.1300   58.2910 O.co2     1 PTR        -0.6653
     25 N          38.1760   -5.0650   66.2080 N.am      1 ASP        -0.2677
     26 CA         37.7980   -4.8770   67.5660 C.3       1 ASP         0.1058
     27 C          38.6170   -5.7250   68.5180 C.2       1 ASP         0.0618
     28 O          38.4310   -6.9709   68.4924 O.co2     1 ASP        -0.5665
     29 CB         36.3430   -5.2690   67.7010 C.3       1 ASP         0.0351
     30 CG         35.8260   -5.0560   69.0240 C.2       1 ASP         0.0387
     31 OD1        35.8970   -3.9180   69.5340 O.co2     1 ASP        -0.5688
     32 OD2        35.2020   -5.9820   69.5510 O.co2     1 ASP        -0.5688
     33 O          39.4520   -5.2042   69.3049 O.co2     1 ASP        -0.5665
     34 H1         43.1346   -1.5251   63.1059 H         1 LEU         0.2015
     35 H2         43.0920   -3.0921   63.6080 H         1 LEU         0.2015
     36 H3         42.0854   -1.9820   64.2891 H         1 LEU         0.2015
     37 H4         40.9096   -1.6545   62.2878 H         1 LEU         0.1098
     38 H5         42.7448   -1.9426   60.7842 H         1 LEU         0.0348
     39 H6         41.3842   -3.0213   60.3238 H         1 LEU         0.0348
     40 H7         42.8028   -4.8216   61.6224 H         1 LEU         0.0299
     41 H8         43.8165   -5.4090   59.4245 H         1 LEU         0.0232
     42 H9         43.4222   -3.7636   58.8213 H         1 LEU         0.0232
     43 H10        42.1021   -4.8943   59.2747 H         1 LEU         0.0232
     44 H11        44.5967   -3.2933   62.3990 H         1 LEU         0.0232
     45 H12        44.9971   -2.9025   60.6921 H         1 LEU         0.0232
     46 H13        45.2283   -4.5736   61.3089 H         1 LEU         0.0232
     47 H14        41.5478   -4.2724   64.3916 H         1 PTR         0.1887
     48 H15        38.7760   -5.2550   63.7975 H         1 PTR         0.0840
     49 H16        39.4726   -7.4132   64.9618 H         1 PTR         0.0584
     50 H17        41.1730   -6.8743   64.7499 H         1 PTR         0.0584
     51 H18        38.0364   -7.7365   62.7816 H         1 PTR         0.0703
     52 H19        42.3064   -7.2378   62.7776 H         1 PTR         0.0703
     53 H20        38.1337   -8.7563   60.5100 H         1 PTR         0.0736
     54 H21        42.4185   -8.1380   60.4819 H         1 PTR         0.0736
     55 H22        37.4684   -5.2808   65.5352 H         1 ASP         0.1877
     56 H23        37.9259   -3.8172   67.8316 H         1 ASP         0.0745
     57 H24        36.2427   -6.3359   67.4528 H         1 ASP         0.0471
     58 H25        35.7513   -4.6705   66.9927 H         1 ASP         0.0471
@<TRIPOS>BOND
     1    1    2 1  
     2    2    3 1  
     3    2    5 1  
     4    3    4 2  
     5    3    9 am 
     6    5    6 1  
     7    6    7 1  
     8    6    8 1  
     9    9   10 1  
    10   10   11 1  
    11   10   13 1  
    12   11   12 2  
    13   11   25 am 
    14   13   14 1  
    15   14   15 ar 
    16   14   16 ar 
    17   15   17 ar 
    18   16   18 ar 
    19   17   19 ar 
    20   18   19 ar 
    21   19   20 1  
    22   20   21 1  
    23   21   22 ar 
    24   21   23 ar 
    25   21   24 ar 
    26   25   26 1  
    27   26   27 1  
    28   26   29 1  
    29   27   28 ar 
    30   29   30 1  
    31   30   31 ar 
    32   30   32 ar 
    33   27   33 ar 
    34    1   34 1  
    35    1   35 1  
    36    1   36 1  
    37    2   37 1  
    38    5   38 1  
    39    5   39 1  
    40    6   40 1  
    41    7   41 1  
    42    7   42 1  
    43    7   43 1  
    44    8   44 1  
    45    8   45 1  
    46    8   46 1  
    47    9   47 1  
    48   10   48 1  
    49   13   49 1  
    50   13   50 1  
    51   15   51 1  
    52   16   52 1  
    53   17   53 1  
    54   18   54 1  
    55   25   55 1  
    56   26   56 1  
    57   29   57 1  
    58   29   58 1  
@<TRIPOS>SUBSTRUCTURE
     1 LEU         1

