4yxd_ligand
  -I-interpret- 

 39 40  0  0  0  0  0  0  0  0999 V2000
  -20.2530  -24.0300   61.1400 N   0  0  0  0  0
  -22.3350  -27.0410   58.8570 C   0  0  0  0  0
  -21.0700  -26.7180   58.6900 F   0  0  0  0  0
  -20.0940  -26.2700   60.8430 O   0  0  0  0  0
  -23.0160  -26.1520   59.8650 C   0  0  0  0  0
  -22.3480  -28.2860   59.2870 F   0  0  0  0  0
  -16.7110  -20.8000   60.8030 O   0  0  0  0  0
  -22.2740  -25.3070   60.8430 C   0  0  0  0  0
  -22.9780  -26.9520   57.7060 F   0  0  0  0  0
  -23.0170  -24.5350   61.7370 C   0  0  0  0  0
  -24.4070  -24.5430   61.7180 C   0  0  0  0  0
  -25.0940  -25.3290   60.8090 C   0  0  0  0  0
  -24.4050  -26.1180   59.8970 C   0  0  0  0  0
  -20.7680  -25.2440   60.9400 C   0  0  0  0  0
  -18.8990  -23.7210   61.3190 C   0  0  0  0  0
  -18.4650  -22.4430   60.9710 C   0  0  0  0  0
  -17.1350  -22.0680   61.1710 C   0  0  0  0  0
  -16.2450  -22.9870   61.7350 C   0  0  0  0  0
  -16.6760  -24.2570   62.1060 C   0  0  0  0  0
  -18.0040  -24.6240   61.9060 C   0  0  0  0  0
  -15.9820  -19.9000   61.6710 C   0  0  0  0  0
  -14.6720  -19.4700   61.0070 C   0  0  0  0  0
  -16.8430  -18.6890   62.0400 C   0  0  0  0  0
  -20.9099  -23.2501   61.1650 H   0  0  0  0  0
  -22.4967  -23.9129   62.4653 H   0  0  0  0  0
  -24.9606  -23.9251   62.4249 H   0  0  0  0  0
  -26.1840  -25.3287   60.8089 H   0  0  0  0  0
  -24.9678  -26.7258   59.1885 H   0  0  0  0  0
  -19.1689  -21.7313   60.5397 H   0  0  0  0  0
  -15.2027  -22.7057   61.8856 H   0  0  0  0  0
  -15.9755  -24.9629   62.5522 H   0  0  0  0  0
  -18.3470  -25.6141   62.2063 H   0  0  0  0  0
  -15.7373  -20.4246   62.5946 H   0  0  0  0  0
  -14.0600  -20.3502   60.8100 H   0  0  0  0  0
  -14.8918  -18.9612   60.0684 H   0  0  0  0  0
  -14.1344  -18.7934   61.6713 H   0  0  0  0  0
  -17.1237  -18.1543   61.1326 H   0  0  0  0  0
  -17.7413  -19.0273   62.5565 H   0  0  0  0  0
  -16.2749  -18.0262   62.6928 H   0  0  0  0  0
  1 14  1  0  0  0
 15  1  1  0  0  0
  2  3  1  0  0  0
  5  2  1  0  0  0
  2  6  1  0  0  0
  2  9  1  0  0  0
 14  4  2  0  0  0
  8  5  4  0  0  0
  5 13  4  0  0  0
 17  7  1  0  0  0
  7 21  1  0  0  0
  8 10  4  0  0  0
 14  8  1  0  0  0
 10 11  4  0  0  0
 11 12  4  0  0  0
 13 12  4  0  0  0
 16 15  4  0  0  0
 15 20  4  0  0  0
 16 17  4  0  0  0
 17 18  4  0  0  0
 18 19  4  0  0  0
 19 20  4  0  0  0
 21 22  1  0  0  0
 21 23  1  0  0  0
  1 24  1  0  0  0
 10 25  1  0  0  0
 11 26  1  0  0  0
 12 27  1  0  0  0
 13 28  1  0  0  0
 16 29  1  0  0  0
 18 30  1  0  0  0
 19 31  1  0  0  0
 20 32  1  0  0  0
 21 33  1  0  0  0
 22 34  1  0  0  0
 22 35  1  0  0  0
 22 36  1  0  0  0
 23 37  1  0  0  0
 23 38  1  0  0  0
 23 39  1  0  0  0
M  END
$$$$
