5f20_ligand
  -I-interpret- 

 39 42  0  0  0  0  0  0  0  0999 V2000
   20.2340  -19.5720    7.6380 C   0  0  0  0  0
   20.3600  -20.1390    6.3770 C   0  0  0  0  0
   21.6130  -20.4560    5.8870 C   0  0  0  0  0
   22.7470  -20.1990    6.6600 C   0  0  0  0  0
   25.3930  -22.3400    5.4470 C   0  0  0  0  0
   25.0430  -25.9200    4.9800 C   0  0  0  0  0
   27.2470  -26.9150    4.4470 C   0  0  0  0  0
   26.4110  -21.3860    5.0250 C   0  0  0  0  0
   27.3490  -19.3450    4.6000 C   0  0  0  0  0
   24.8960  -19.5950    5.6850 C   0  0  0  0  0
   23.7540  -19.3200    8.8680 C   0  0  0  0  0
   22.6000  -19.6280    7.9460 C   0  0  0  0  0
   21.3430  -19.3140    8.4220 C   0  0  0  0  0
   23.9970  -20.5490    6.1050 N   0  0  0  0  0
   24.2260  -21.8850    5.9610 C   0  0  0  0  0
   25.5940  -23.7910    5.2250 C   0  0  0  0  0
   24.5350  -24.7110    5.2480 C   0  0  0  0  0
   26.3650  -25.7850    4.7690 N   0  0  0  0  0
   26.7080  -24.4330    4.9180 N   0  0  0  0  0
   27.6390  -21.5340    4.4790 N   0  0  0  0  0
   28.1900  -20.2740    4.2340 N   0  0  0  0  0
   27.6100  -17.9880    4.4880 N   0  0  0  0  0
   26.1480  -20.0080    5.1300 C   0  0  0  0  0
   24.6520  -18.3880    5.7970 O   0  0  0  0  0
   19.2421  -19.3257    8.0169 H   0  0  0  0  0
   19.4727  -20.3338    5.7746 H   0  0  0  0  0
   21.7156  -20.9056    4.8994 H   0  0  0  0  0
   24.4820  -26.8537    4.9396 H   0  0  0  0  0
   27.2143  -27.6424    5.2582 H   0  0  0  0  0
   26.9110  -27.3845    3.5225 H   0  0  0  0  0
   28.2677  -26.5535    4.3223 H   0  0  0  0  0
   24.2944  -20.2399    9.0915 H   0  0  0  0  0
   24.4255  -18.6113    8.3833 H   0  0  0  0  0
   23.3729  -18.8872    9.7929 H   0  0  0  0  0
   21.2257  -18.8660    9.4087 H   0  0  0  0  0
   23.4586  -22.5973    6.2640 H   0  0  0  0  0
   23.4881  -24.4826    5.4479 H   0  0  0  0  0
   28.4990  -17.6698    4.1023 H   0  0  0  0  0
   26.9130  -17.3079    4.7913 H   0  0  0  0  0
  2  1  4  0  0  0
 13  1  4  0  0  0
  3  2  4  0  0  0
  4  3  4  0  0  0
  4 12  4  0  0  0
 14  4  1  0  0  0
  5  8  1  0  0  0
  5 15  2  0  0  0
 16  5  1  0  0  0
 17  6  4  0  0  0
  6 18  4  0  0  0
 18  7  1  0  0  0
  8 20  4  0  0  0
  8 23  4  0  0  0
  9 21  4  0  0  0
  9 22  1  0  0  0
 23  9  4  0  0  0
 14 10  1  0  0  0
 23 10  1  0  0  0
 10 24  2  0  0  0
 12 11  1  0  0  0
 12 13  4  0  0  0
 15 14  1  0  0  0
 16 17  4  0  0  0
 16 19  4  0  0  0
 18 19  4  0  0  0
 20 21  4  0  0  0
  1 25  1  0  0  0
  2 26  1  0  0  0
  3 27  1  0  0  0
  6 28  1  0  0  0
  7 29  1  0  0  0
  7 30  1  0  0  0
  7 31  1  0  0  0
 11 32  1  0  0  0
 11 33  1  0  0  0
 11 34  1  0  0  0
 13 35  1  0  0  0
 15 36  1  0  0  0
 17 37  1  0  0  0
 22 38  1  0  0  0
 22 39  1  0  0  0
M  END
$$$$
