3ipx_ligand
  -I-interpret- 

 29 30  0  0  0  0  0  0  0  0999 V2000
   24.9410   -6.7820   18.0740 C   0  0  0  0  0
   25.7120   -7.8870   18.1210 N   0  0  0  0  0
   26.9810   -7.7890   18.5860 C   0  0  0  0  0
   27.5320   -6.5490   19.0100 N   0  0  0  0  0
   26.8040   -5.4330   18.9670 C   0  0  0  0  0
   25.5070   -5.4960   18.5070 C   0  0  0  0  0
   23.6690   -6.8080   17.6300 N   0  0  0  0  0
   24.7320   -4.4080   18.4250 F   0  0  0  0  0
   27.6640   -8.8220   18.6210 O   0  0  0  0  0
   28.8970   -6.4970   19.5480 C   0  0  0  0  0
   28.8070   -5.8660   20.8320 O   0  0  0  0  0
   29.9810   -5.1060   21.1120 C   0  0  0  0  0
   30.8460   -5.2060   19.8920 C   0  0  0  0  0
   31.8340   -6.1960   20.2080 O   0  0  0  0  0
   29.9290   -5.6840   18.7860 C   0  0  0  0  0
   29.6120   -3.6630   21.3680 C   0  0  0  0  0
   28.9010   -3.1620   20.2420 O   0  0  0  0  0
   25.3444   -8.7862   17.8102 H   0  0  0  0  0
   27.2293   -4.4833   19.2915 H   0  0  0  0  0
   23.1216   -5.9478   17.5999 H   0  0  0  0  0
   29.2412   -7.5308   19.5177 H   0  0  0  0  0
   30.4967   -5.4797   21.9966 H   0  0  0  0  0
   31.3335   -4.2784   19.5919 H   0  0  0  0  0
   32.4245   -6.3075   19.4594 H   0  0  0  0  0
   29.4916   -4.8686   18.2098 H   0  0  0  0  0
   30.4469   -6.2600   18.0191 H   0  0  0  0  0
   30.5156   -3.0740   21.5249 H   0  0  0  0  0
   28.9869   -3.5950   22.2584 H   0  0  0  0  0
   28.6630   -2.2450   20.3973 H   0  0  0  0  0
  1  2  1  0  0  0
  1  6  1  0  0  0
  1  7  2  0  0  0
  2  3  1  0  0  0
  3  4  1  0  0  0
  3  9  2  0  0  0
  4  5  1  0  0  0
  4 10  1  0  0  0
  5  6  2  0  0  0
  6  8  1  0  0  0
 10 11  1  0  0  0
 10 15  1  0  0  0
 11 12  1  0  0  0
 12 13  1  0  0  0
 12 16  1  0  0  0
 13 14  1  0  0  0
 13 15  1  0  0  0
 16 17  1  0  0  0
  2 18  1  0  0  0
  5 19  1  0  0  0
  7 20  1  0  0  0
 10 21  1  0  0  0
 12 22  1  0  0  0
 13 23  1  0  0  0
 14 24  1  0  0  0
 15 25  1  0  0  0
 15 26  1  0  0  0
 16 27  1  0  0  0
 16 28  1  0  0  0
 17 29  1  0  0  0
M  END
$$$$
