### 
### Created by X-TOOL on Mon Sep 10 21:13:04 2018
### 

@<TRIPOS>MOLECULE
3ipx_ligand
   29    30     1     0     0
SMALL
GAST_HUCK


@<TRIPOS>ATOM
      1 C1         24.9410   -6.7820   18.0740 C.2       1 B86         0.1230
      2 N2         25.7120   -7.8870   18.1210 N.am      1 B86        -0.1900
      3 C3         26.9810   -7.7890   18.5860 C.2       1 B86         0.3458
      4 N4         27.5320   -6.5490   19.0100 N.am      1 B86        -0.1525
      5 C5         26.8040   -5.4330   18.9670 C.2       1 B86         0.1038
      6 C6         25.5070   -5.4960   18.5070 C.2       1 B86         0.1883
      7 N7         23.6690   -6.8080   17.6300 N.2       1 B86        -0.4259
      8 F8         24.7320   -4.4080   18.4250 F         1 B86        -0.2113
      9 O9         27.6640   -8.8220   18.6210 O.2       1 B86        -0.3793
     10 C10        28.8970   -6.4970   19.5480 C.3       1 B86         0.1829
     11 O11        28.8070   -5.8660   20.8320 O.3       1 B86        -0.3383
     12 C12        29.9810   -5.1060   21.1120 C.3       1 B86         0.1111
     13 C13        30.8460   -5.2060   19.8920 C.3       1 B86         0.0887
     14 O13        31.8340   -6.1960   20.2080 O.3       1 B86        -0.3890
     15 C14        29.9290   -5.6840   18.7860 C.3       1 B86         0.0325
     16 C15        29.6120   -3.6630   21.3680 C.3       1 B86         0.0729
     17 O16        28.9010   -3.1620   20.2420 O.3       1 B86        -0.3924
     18 H1         25.3516   -8.7686   17.8163 H         1 B86         0.2413
     19 H2         27.2290   -4.4842   19.2912 H         1 B86         0.1233
     20 H3         23.1246   -5.9599   17.6103 H         1 B86         0.0348
     21 H4         29.2672   -7.5283   19.6443 H         1 B86         0.0981
     22 H5         30.5043   -5.5159   21.9884 H         1 B86         0.0646
     23 H6         31.3148   -4.2456   19.6317 H         1 B86         0.0622
     24 H7         32.3319   -5.9141   20.9663 H         1 B86         0.2099
     25 H8         29.4613   -4.8370   18.2627 H         1 B86         0.0346
     26 H9         30.4716   -6.3085   18.0610 H         1 B86         0.0346
     27 H10        30.5256   -3.0699   21.5214 H         1 B86         0.0584
     28 H11        28.9775   -3.5976   22.2642 H         1 B86         0.0584
     29 H12        28.6655   -2.2545   20.3957 H         1 B86         0.2095
@<TRIPOS>BOND
     1    1    2 1  
     2    1    6 1  
     3    1    7 2  
     4    2    3 am 
     5    3    4 am 
     6    3    9 2  
     7    4    5 1  
     8    4   10 1  
     9    5    6 2  
    10    6    8 1  
    11   10   11 1  
    12   10   15 1  
    13   11   12 1  
    14   12   13 1  
    15   12   16 1  
    16   13   14 1  
    17   13   15 1  
    18   16   17 1  
    19    2   18 1  
    20    5   19 1  
    21    7   20 1  
    22   10   21 1  
    23   12   22 1  
    24   13   23 1  
    25   14   24 1  
    26   15   25 1  
    27   15   26 1  
    28   16   27 1  
    29   16   28 1  
    30   17   29 1  
@<TRIPOS>SUBSTRUCTURE
     1 B86         1

