2qtg_ligand
  -I-interpret- 

 36 38  0  0  0  0  0  0  0  0999 V2000
   14.1960   -4.3820    1.1750 C   0  0  0  0  0
   12.5660   -4.2730    0.4290 S   0  0  0  0  0
   12.5340   -2.5080    0.2870 C   0  0  0  0  0
   12.1040   -1.7240    1.5360 C   0  0  0  0  0
   12.2240   -0.3130    1.2310 O   0  0  0  0  0
    9.8930   -0.9370    1.1070 C   0  0  0  0  0
    8.7340   -0.3160    1.7140 O   0  0  0  0  0
   10.6520   -1.9330    1.9740 C   0  0  0  0  0
   10.5890   -1.6670    3.3860 O   0  0  0  0  0
   10.9230    0.1670    0.7700 C   0  0  0  0  0
   10.9960    0.3970   -0.6590 N   0  0  0  0  0
   11.9570    0.9910   -1.2840 C   0  0  0  0  0
   11.7020    1.2460   -2.4900 C   0  0  0  0  0
   10.7810    0.4730   -2.9710 C   0  0  0  0  0
   10.2600    0.2540   -4.2160 C   0  0  0  0  0
   10.8260    0.7840   -5.3360 N   0  0  0  0  0
    9.1710   -0.5720   -4.2260 N   0  0  0  0  0
    8.6330   -1.0980   -3.0730 C   0  0  0  0  0
    9.1620   -0.8640   -1.8320 N   0  0  0  0  0
   10.2380   -0.0430   -1.7750 C   0  0  0  0  0
   14.9335   -3.9504    0.4983 H   0  0  0  0  0
   14.2005   -3.8335    2.1169 H   0  0  0  0  0
   14.4398   -5.4280    1.3610 H   0  0  0  0  0
   11.7932   -2.2815   -0.4798 H   0  0  0  0  0
   13.5602   -2.2045    0.0801 H   0  0  0  0  0
   12.7443   -2.0817    2.3424 H   0  0  0  0  0
    9.4892   -1.4791    0.2519 H   0  0  0  0  0
    8.3318    0.2898    1.0872 H   0  0  0  0  0
   10.2358   -2.9321    1.8445 H   0  0  0  0  0
   11.0894   -2.3358    3.8591 H   0  0  0  0  0
   10.6321    1.1019    1.2491 H   0  0  0  0  0
   12.9041    1.2485   -0.8099 H   0  0  0  0  0
   12.1994    2.0279   -3.0638 H   0  0  0  0  0
   11.6625    1.3627   -5.2597 H   0  0  0  0  0
   10.4133    0.6021   -6.2509 H   0  0  0  0  0
    7.7472   -1.7283   -3.1516 H   0  0  0  0  0
  2  1  1  0  0  0
  3  2  1  0  0  0
  4  3  1  0  0  0
  4  5  1  0  0  0
  8  4  1  0  0  0
  5 10  1  0  0  0
  6  7  1  0  0  0
  6  8  1  0  0  0
  6 10  1  0  0  0
  8  9  1  0  0  0
 10 11  1  0  0  0
 11 12  4  0  0  0
 11 20  4  0  0  0
 12 13  4  0  0  0
 13 14  4  0  0  0
 14 15  4  0  0  0
 14 20  4  0  0  0
 15 16  1  0  0  0
 15 17  4  0  0  0
 17 18  4  0  0  0
 18 19  4  0  0  0
 19 20  4  0  0  0
  1 21  1  0  0  0
  1 22  1  0  0  0
  1 23  1  0  0  0
  3 24  1  0  0  0
  3 25  1  0  0  0
  4 26  1  0  0  0
  6 27  1  0  0  0
  7 28  1  0  0  0
  8 29  1  0  0  0
  9 30  1  0  0  0
 10 31  1  0  0  0
 12 32  1  0  0  0
 13 33  1  0  0  0
 16 34  1  0  0  0
 16 35  1  0  0  0
 18 36  1  0  0  0
M  END
$$$$
