5f2u_ligand
  -I-interpret- 

117117  0  0  0  0  0  0  0  0999 V2000
   -8.0260   21.8750    6.6140 N   0  3  0  0  0
   -8.4090   21.2890    7.9780 C   0  0  0  0  0
   -8.3130   19.7580    8.0290 C   0  0  0  0  0
   -8.2850   19.0850    6.9630 O   0  0  0  0  0
   -9.7610   21.8300    8.5270 C   0  0  0  0  0
  -10.8600   21.2420    7.8770 O   0  0  0  0  0
   -8.2210   19.1690    9.2420 N   0  0  0  0  0
   -7.8600   17.7420    9.3220 C   0  0  0  0  0
   -8.3710   17.0330   10.5800 C   0  0  0  0  0
   -8.3700   17.6190   11.6190 O   0  0  0  0  0
   -6.3650   17.5260    9.3670 C   0  0  0  0  0
   -6.0790   16.1500    9.2230 O   0  0  0  0  0
   -8.7770   15.7980   10.3590 N   0  0  0  0  0
   -9.2230   14.9050   11.4600 C   0  0  0  0  0
   -8.0710   14.0720   11.9980 C   0  0  0  0  0
   -8.2620   13.2750   12.9340 O   0  0  0  0  0
  -10.3490   13.9590   10.9790 C   0  0  0  0  0
   -9.8660   13.1140    9.9280 O   0  0  0  0  0
  -11.5950   14.7210   10.5780 C   0  0  0  0  0
   -6.8650   14.2190   11.4090 N   0  0  0  0  0
   -5.6980   13.3630   11.8120 C   0  0  0  0  0
   -4.5300   14.1940   12.3230 C   0  0  0  0  0
   -3.4240   13.7360   12.4950 O   0  0  0  0  0
   -5.1670   12.4650   10.7250 C   0  0  0  0  0
   -4.5580   13.2830    9.5550 C   0  0  0  0  0
   -6.2720   11.5120   10.2640 C   0  0  0  0  0
   -3.5370   12.5110    8.8000 C   0  0  0  0  0
   -4.6280   15.3690   12.5920 O   0  0  0  0  0
   -4.7140   15.7230   12.2200 N   0  0  0  0  0
   -3.6170   16.6270   12.4510 C   0  0  0  0  0
   -4.2720   17.8060   13.1750 C   0  0  0  0  0
   -5.1770   18.4650   12.6530 O   0  0  0  0  0
   -2.9980   16.9960   11.0720 C   0  0  0  0  0
   -1.8050   18.2990   11.4060 S   0  0  0  0  0
   -3.8590   17.9340   14.4340 O   0  0  0  0  0
   -4.8030   18.6270   15.2780 C   0  0  0  0  0
   -0.4920   17.0840   11.7280 C   0  0  0  0  0
   -0.0310   16.5240   10.4150 C   0  0  0  0  0
    0.3400   15.0740   10.3040 C   0  0  0  0  0
    0.9430   14.5160    9.0020 C   0  0  0  0  0
    1.6330   15.6290    8.1690 C   0  0  0  0  0
    2.4680   14.9990    7.0430 C   0  0  0  0  0
    3.7390   14.2260    7.3820 C   0  0  0  0  0
    4.6280   13.5390    6.3400 C   0  0  0  0  0
    4.3970   13.8730    4.8580 C   0  0  0  0  0
    4.7060   15.2990    4.5310 C   0  0  0  0  0
    5.4090   15.6600    3.2320 C   0  0  0  0  0
    5.5450   17.1040    2.9640 C   0  0  0  0  0
    5.9150   14.6350    2.2090 C   0  0  0  0  0
   -0.0240   14.1310   11.4010 C   0  0  0  0  0
    4.2610   14.1690    8.7960 C   0  0  0  0  0
   -7.1346   21.4804    6.3140 H   0  0  0  0  0
   -8.7481   21.6446    5.9314 H   0  0  0  0  0
   -7.9414   22.8885    6.6923 H   0  0  0  0  0
   -7.6479   21.6551    8.6670 H   0  0  0  0  0
   -9.7956   22.9057    8.3542 H   0  0  0  0  0
   -9.8212   21.5892    9.5884 H   0  0  0  0  0
  -11.6737   21.5987    8.2406 H   0  0  0  0  0
   -8.3991   19.7051   10.0913 H   0  0  0  0  0
   -8.3231   17.3336    8.4237 H   0  0  0  0  0
   -5.9774   17.8778   10.3231 H   0  0  0  0  0
   -5.8949   18.0800    8.5545 H   0  0  0  0  0
   -5.1287   16.0171    9.2521 H   0  0  0  0  0
   -8.7852   15.4445    9.4023 H   0  0  0  0  0
   -9.6008   15.5439   12.2582 H   0  0  0  0  0
  -10.6430   13.3223   11.8135 H   0  0  0  0  0
  -10.5717   12.5317    9.6372 H   0  0  0  0  0
  -11.9653   15.2855   11.4338 H   0  0  0  0  0
  -11.3543   15.4066    9.7655 H   0  0  0  0  0
  -12.3589   14.0174   10.2472 H   0  0  0  0  0
   -6.7444   14.9217   10.6796 H   0  0  0  0  0
   -6.1122   12.7356   12.6013 H   0  0  0  0  0
   -4.3493   11.8653   11.1249 H   0  0  0  0  0
   -4.0738   14.1649    9.9745 H   0  0  0  0  0
   -5.3634   13.5418    8.8676 H   0  0  0  0  0
   -6.6024   10.9057   11.1074 H   0  0  0  0  0
   -7.1120   12.0906    9.8796 H   0  0  0  0  0
   -5.8859   10.8633    9.4777 H   0  0  0  0  0
   -2.7273   12.2274    9.4723 H   0  0  0  0  0
   -3.9960   11.6144    8.3834 H   0  0  0  0  0
   -3.1415   13.1270    7.9924 H   0  0  0  0  0
   -3.7625   17.3279   10.3695 H   0  0  0  0  0
   -2.5231   16.1326   10.6060 H   0  0  0  0  0
   -4.9728   19.6292   14.8845 H   0  0  0  0  0
   -5.7444   18.0778   15.2953 H   0  0  0  0  0
   -4.4022   18.6955   16.2893 H   0  0  0  0  0
   -0.8729   16.2829   12.3615 H   0  0  0  0  0
    0.3413   17.5634   12.2417 H   0  0  0  0  0
    0.8947   17.0585   10.2016 H   0  0  0  0  0
   -0.8912   16.6357    9.7549 H   0  0  0  0  0
    1.3288   15.3569   10.6650 H   0  0  0  0  0
    0.1375   14.0884    8.4050 H   0  0  0  0  0
    1.6908   13.7669    9.2622 H   0  0  0  0  0
    2.2868   16.2109    8.8187 H   0  0  0  0  0
    0.8716   16.2756    7.7329 H   0  0  0  0  0
    2.8127   15.8466    6.4506 H   0  0  0  0  0
    1.8075   14.2569    6.5946 H   0  0  0  0  0
    2.7404   14.0062    7.0043 H   0  0  0  0  0
    4.4112   12.4748    6.4328 H   0  0  0  0  0
    5.6411   13.8776    6.5572 H   0  0  0  0  0
    3.3437   13.7003    4.6369 H   0  0  0  0  0
    5.0612   13.2431    4.2662 H   0  0  0  0  0
    5.4055   15.6064    5.3084 H   0  0  0  0  0
    3.7278   15.7723    4.4465 H   0  0  0  0  0
    5.9321   14.7066    3.1574 H   0  0  0  0  0
    4.5552   17.5580    2.9153 H   0  0  0  0  0
    6.1201   17.5683    3.7651 H   0  0  0  0  0
    6.0598   17.2491    2.0142 H   0  0  0  0  0
    6.6483   13.9824    2.6827 H   0  0  0  0  0
    5.0764   14.0396    1.8479 H   0  0  0  0  0
    6.3785   15.1573    1.3720 H   0  0  0  0  0
    0.4462   14.4564   12.3290 H   0  0  0  0  0
   -1.1069   14.1205   11.5250 H   0  0  0  0  0
    0.3237   13.1295   11.1477 H   0  0  0  0  0
    4.4784   15.1793    9.1427 H   0  0  0  0  0
    3.5087   13.7160    9.4417 H   0  0  0  0  0
    5.1718   13.5707    8.8219 H   0  0  0  0  0
  1  2  1  0  0  0
  2  3  1  0  0  0
  2  5  1  0  0  0
  3  4  2  0  0  0
  3  7  1  0  0  0
  5  6  1  0  0  0
  7  8  1  0  0  0
  8  9  1  0  0  0
  8 11  1  0  0  0
  9 10  2  0  0  0
  9 13  1  0  0  0
 11 12  1  0  0  0
 13 14  1  0  0  0
 14 15  1  0  0  0
 14 17  1  0  0  0
 15 16  2  0  0  0
 15 20  1  0  0  0
 17 18  1  0  0  0
 17 19  1  0  0  0
 20 21  1  0  0  0
 21 22  1  0  0  0
 21 24  1  0  0  0
 22 23  2  0  0  0
 22 29  1  0  0  0
 24 25  1  0  0  0
 24 26  1  0  0  0
 25 27  1  0  0  0
 29 28  1  0  0  0
 28 30  1  0  0  0
 29 30  1  0  0  0
 30 31  1  0  0  0
 30 33  1  0  0  0
 31 32  2  0  0  0
 31 35  1  0  0  0
 33 34  1  0  0  0
 34 37  1  0  0  0
 35 36  1  0  0  0
 37 38  1  0  0  0
 38 39  1  0  0  0
 39 40  1  0  0  0
 39 50  1  0  0  0
 40 41  1  0  0  0
 41 42  1  0  0  0
 42 43  1  0  0  0
 43 44  1  0  0  0
 43 51  1  0  0  0
 44 45  1  0  0  0
 45 46  1  0  0  0
 46 47  1  0  0  0
 47 48  1  0  0  0
 47 49  1  0  0  0
  1 52  1  0  0  0
  1 53  1  0  0  0
  1 54  1  0  0  0
  2 55  1  0  0  0
  5 56  1  0  0  0
  5 57  1  0  0  0
  6 58  1  0  0  0
  7 59  1  0  0  0
  8 60  1  0  0  0
 11 61  1  0  0  0
 11 62  1  0  0  0
 12 63  1  0  0  0
 13 64  1  0  0  0
 14 65  1  0  0  0
 17 66  1  0  0  0
 18 67  1  0  0  0
 19 68  1  0  0  0
 19 69  1  0  0  0
 19 70  1  0  0  0
 20 71  1  0  0  0
 21 72  1  0  0  0
 24 73  1  0  0  0
 25 74  1  0  0  0
 25 75  1  0  0  0
 26 76  1  0  0  0
 26 77  1  0  0  0
 26 78  1  0  0  0
 27 79  1  0  0  0
 27 80  1  0  0  0
 27 81  1  0  0  0
 33 82  1  0  0  0
 33 83  1  0  0  0
 36 84  1  0  0  0
 36 85  1  0  0  0
 36 86  1  0  0  0
 37 87  1  0  0  0
 37 88  1  0  0  0
 38 89  1  0  0  0
 38 90  1  0  0  0
 39 91  1  0  0  0
 40 92  1  0  0  0
 40 93  1  0  0  0
 41 94  1  0  0  0
 41 95  1  0  0  0
 42 96  1  0  0  0
 42 97  1  0  0  0
 43 98  1  0  0  0
 44 99  1  0  0  0
 44100  1  0  0  0
 45101  1  0  0  0
 45102  1  0  0  0
 46103  1  0  0  0
 46104  1  0  0  0
 47105  1  0  0  0
 48106  1  0  0  0
 48107  1  0  0  0
 48108  1  0  0  0
 49109  1  0  0  0
 49110  1  0  0  0
 49111  1  0  0  0
 50112  1  0  0  0
 50113  1  0  0  0
 50114  1  0  0  0
 51115  1  0  0  0
 51116  1  0  0  0
 51117  1  0  0  0
M  END
$$$$
