3zmv_ligand
  -I-interpret- 

103104  0  0  0  0  0  0  0  0999 V2000
   -1.6580   51.8650  -32.6570 N   0  3  0  0  0
   -1.3190   50.6110  -31.9890 C   0  0  0  0  0
   -1.6650   49.3740  -32.8260 C   0  0  0  0  0
   -2.2640   49.4970  -33.8990 O   0  0  0  0  0
   -2.1560   50.6520  -30.6970 C   0  0  0  0  0
   -3.1560   51.7530  -30.8780 C   0  0  0  0  0
   -2.9620   52.3870  -32.2270 C   0  0  0  0  0
   -1.2710   48.2000  -32.3320 N   0  0  0  0  0
   -1.5170   46.9350  -33.0220 C   0  0  0  0  0
   -2.9900   46.6650  -33.2460 C   0  0  0  0  0
   -3.3850   46.2530  -34.3400 O   0  0  0  0  0
   -0.9060   45.7590  -32.2570 C   0  0  0  0  0
    0.2070   44.9720  -32.9500 C   0  0  0  0  0
    0.7220   43.8720  -32.0310 C   0  0  0  0  0
   -0.2720   44.3920  -34.2750 C   0  0  0  0  0
   -3.7930   46.8970  -32.2090 N   0  0  0  0  0
   -5.2280   46.6110  -32.2530 C   0  0  0  0  0
   -5.9330   47.2800  -33.4410 C   0  0  0  0  0
   -7.0550   46.9110  -33.7910 O   0  0  0  0  0
   -5.8970   46.9860  -30.9270 C   0  0  0  0  0
   -5.6030   48.3210  -30.5540 O   0  0  0  0  0
   -5.2580   48.2430  -34.0660 N   0  0  0  0  0
   -5.7950   48.9430  -35.2280 C   0  0  0  0  0
   -5.5880   48.1660  -36.5250 C   0  0  0  0  0
   -6.2110   48.4950  -37.5320 O   0  0  0  0  0
   -5.1680   50.3320  -35.3670 C   0  0  0  0  0
   -5.7490   51.3810  -34.4470 C   0  0  0  0  0
   -6.0310   51.1020  -33.1120 C   0  0  0  0  0
   -5.9730   52.6720  -34.9150 C   0  0  0  0  0
   -6.5450   52.0810  -32.2750 C   0  0  0  0  0
   -6.4840   53.6560  -34.0810 C   0  0  0  0  0
   -6.7650   53.3600  -32.7590 C   0  0  0  0  0
   -4.7140   47.1540  -36.5080 N   0  0  0  0  0
   -4.4610   46.3140  -37.6970 C   0  0  0  0  0
   -5.7410   45.7680  -38.3070 C   0  0  0  0  0
   -6.5810   45.1970  -37.6080 O   0  0  0  0  0
   -3.5260   45.1380  -37.3910 C   0  0  0  0  0
   -2.1220   45.0810  -38.0010 C   0  0  0  0  0
   -1.7220   43.6320  -38.2200 C   0  0  0  0  0
   -2.0240   45.8360  -39.3160 C   0  0  0  0  0
   -5.8800   45.9450  -39.6130 N   0  0  0  0  0
   -7.0620   45.4770  -40.3200 C   0  0  0  0  0
   -6.9750   43.9720  -40.5580 C   0  0  0  0  0
   -5.9048   43.4287  -40.9417 O   0  0  0  0  0
   -7.2770   46.2620  -41.6290 C   0  0  0  0  0
   -8.0860   45.4620  -42.6370 C   0  0  0  0  0
   -7.9580   47.5830  -41.3230 C   0  0  0  0  0
   -7.9951   43.2575  -40.3668 O   0  0  0  0  0
   -1.7018   51.6885  -33.6607 H   0  0  0  0  0
   -0.9454   52.5547  -32.4184 H   0  0  0  0  0
   -0.2466   50.5272  -31.8130 H   0  0  0  0  0
   -1.5252   50.8347  -29.8271 H   0  0  0  0  0
   -2.6518   49.6974  -30.5208 H   0  0  0  0  0
   -3.0161   52.5033  -30.0998 H   0  0  0  0  0
   -4.1640   51.3440  -30.8097 H   0  0  0  0  0
   -3.7634   52.1451  -32.9251 H   0  0  0  0  0
   -2.9875   53.4760  -32.1880 H   0  0  0  0  0
   -0.7792   48.1839  -31.4386 H   0  0  0  0  0
   -1.0379   47.0313  -33.9963 H   0  0  0  0  0
   -1.7200   45.0494  -32.1086 H   0  0  0  0  0
   -0.4501   46.1919  -31.3665 H   0  0  0  0  0
    1.0267   45.6568  -33.1676 H   0  0  0  0  0
    1.1146   44.3180  -31.1171 H   0  0  0  0  0
   -0.0953   43.1943  -31.7841 H   0  0  0  0  0
    1.5140   43.3193  -32.5364 H   0  0  0  0  0
   -1.1123   43.7217  -34.0941 H   0  0  0  0  0
   -0.5870   45.2025  -34.9322 H   0  0  0  0  0
    0.5419   43.8383  -34.7432 H   0  0  0  0  0
   -3.3945   47.2873  -31.3550 H   0  0  0  0  0
   -5.3313   45.5362  -32.4023 H   0  0  0  0  0
   -5.5199   46.3204  -30.1506 H   0  0  0  0  0
   -6.9763   46.8915  -31.0468 H   0  0  0  0  0
   -6.0365   48.5223  -29.7214 H   0  0  0  0  0
   -4.3335   48.5001  -33.7203 H   0  0  0  0  0
   -6.8675   49.0384  -35.0586 H   0  0  0  0  0
   -5.3566   50.6650  -36.3876 H   0  0  0  0  0
   -4.1137   50.2319  -35.1089 H   0  0  0  0  0
   -5.8454   50.1019  -32.7202 H   0  0  0  0  0
   -5.7435   52.9140  -35.9527 H   0  0  0  0  0
   -6.7758   51.8440  -31.2364 H   0  0  0  0  0
   -6.6636   54.6597  -34.4663 H   0  0  0  0  0
   -7.1592   54.1327  -32.0989 H   0  0  0  0  0
   -4.2055   46.9555  -35.6463 H   0  0  0  0  0
   -3.9800   46.9784  -38.4149 H   0  0  0  0  0
   -4.0369   44.2724  -37.8127 H   0  0  0  0  0
   -3.3494   45.2081  -36.3177 H   0  0  0  0  0
   -1.4443   45.5642  -37.2972 H   0  0  0  0  0
   -1.7248   43.1073  -37.2646 H   0  0  0  0  0
   -2.4323   43.1588  -38.8980 H   0  0  0  0  0
   -0.7229   43.5938  -38.6540 H   0  0  0  0  0
   -2.7193   45.4027  -40.0349 H   0  0  0  0  0
   -2.2754   46.8838  -39.1515 H   0  0  0  0  0
   -1.0072   45.7612  -39.7015 H   0  0  0  0  0
   -5.1423   46.4196  -40.1336 H   0  0  0  0  0
   -7.9373   45.6630  -39.6976 H   0  0  0  0  0
   -5.2249   44.0990  -41.0416 H   0  0  0  0  0
   -6.3024   46.4531  -42.0781 H   0  0  0  0  0
   -7.5585   44.5378  -42.8728 H   0  0  0  0  0
   -9.0621   45.2266  -42.2128 H   0  0  0  0  0
   -8.2155   46.0499  -43.5456 H   0  0  0  0  0
   -8.9219   47.3926  -40.8511 H   0  0  0  0  0
   -7.3307   48.1660  -40.6487 H   0  0  0  0  0
   -8.1088   48.1359  -42.2502 H   0  0  0  0  0
  1  2  1  0  0  0
  1  7  1  0  0  0
  2  3  1  0  0  0
  2  5  1  0  0  0
  3  4  2  0  0  0
  3  8  1  0  0  0
  5  6  1  0  0  0
  6  7  1  0  0  0
  8  9  1  0  0  0
  9 10  1  0  0  0
  9 12  1  0  0  0
 10 11  2  0  0  0
 10 16  1  0  0  0
 12 13  1  0  0  0
 13 14  1  0  0  0
 13 15  1  0  0  0
 16 17  1  0  0  0
 17 18  1  0  0  0
 17 20  1  0  0  0
 18 19  2  0  0  0
 18 22  1  0  0  0
 20 21  1  0  0  0
 22 23  1  0  0  0
 23 24  1  0  0  0
 23 26  1  0  0  0
 24 25  2  0  0  0
 24 33  1  0  0  0
 26 27  1  0  0  0
 27 28  4  0  0  0
 27 29  4  0  0  0
 28 30  4  0  0  0
 29 31  4  0  0  0
 30 32  4  0  0  0
 31 32  4  0  0  0
 33 34  1  0  0  0
 34 35  1  0  0  0
 34 37  1  0  0  0
 35 36  2  0  0  0
 35 41  1  0  0  0
 37 38  1  0  0  0
 38 39  1  0  0  0
 38 40  1  0  0  0
 41 42  1  0  0  0
 42 43  1  0  0  0
 42 45  1  0  0  0
 43 44  1  0  0  0
 45 46  1  0  0  0
 45 47  1  0  0  0
 43 48  2  0  0  0
  1 49  1  0  0  0
  1 50  1  0  0  0
  2 51  1  0  0  0
  5 52  1  0  0  0
  5 53  1  0  0  0
  6 54  1  0  0  0
  6 55  1  0  0  0
  7 56  1  0  0  0
  7 57  1  0  0  0
  8 58  1  0  0  0
  9 59  1  0  0  0
 12 60  1  0  0  0
 12 61  1  0  0  0
 13 62  1  0  0  0
 14 63  1  0  0  0
 14 64  1  0  0  0
 14 65  1  0  0  0
 15 66  1  0  0  0
 15 67  1  0  0  0
 15 68  1  0  0  0
 16 69  1  0  0  0
 17 70  1  0  0  0
 20 71  1  0  0  0
 20 72  1  0  0  0
 21 73  1  0  0  0
 22 74  1  0  0  0
 23 75  1  0  0  0
 26 76  1  0  0  0
 26 77  1  0  0  0
 28 78  1  0  0  0
 29 79  1  0  0  0
 30 80  1  0  0  0
 31 81  1  0  0  0
 32 82  1  0  0  0
 33 83  1  0  0  0
 34 84  1  0  0  0
 37 85  1  0  0  0
 37 86  1  0  0  0
 38 87  1  0  0  0
 39 88  1  0  0  0
 39 89  1  0  0  0
 39 90  1  0  0  0
 40 91  1  0  0  0
 40 92  1  0  0  0
 40 93  1  0  0  0
 41 94  1  0  0  0
 42 95  1  0  0  0
 44 96  1  0  0  0
 45 97  1  0  0  0
 46 98  1  0  0  0
 46 99  1  0  0  0
 46100  1  0  0  0
 47101  1  0  0  0
 47102  1  0  0  0
 47103  1  0  0  0
M  END
$$$$
