5j3s_ligand
  -I-interpret- 

 38 42  0  0  0  0  0  0  0  0999 V2000
    9.9250   -7.8190   11.6220 N   0  0  0  0  0
    7.5360   -5.7880   14.3070 N   0  0  0  0  0
    9.1250   -5.7130   12.4910 C   0  0  0  0  0
    9.0950   -4.3230   12.5000 C   0  0  0  0  0
    7.5090   -4.3890   14.3240 C   0  0  0  0  0
    8.2930   -3.6490   13.4140 C   0  0  0  0  0
    8.2440   -2.2280   13.4530 C   0  0  0  0  0
    6.6780   -2.3280   15.2660 C   0  0  0  0  0
    6.7240   -6.5350   15.2550 C   0  0  0  0  0
    4.6730   -7.6150   15.8330 C   0  0  0  0  0
    6.4990   -7.5980   17.3950 C   0  0  0  0  0
    9.9630   -6.4400   11.5460 C   0  0  0  0  0
    9.1330   -8.4830   12.5390 C   0  0  0  0  0
    8.3390   -7.7860   13.4270 N   0  0  0  0  0
    8.3330   -6.4640   13.4100 C   0  0  0  0  0
    6.7010   -3.7080   15.2460 C   0  0  0  0  0
    7.4530   -1.5970   14.3650 C   0  0  0  0  0
    5.8470   -1.6420   16.2200 C   0  0  0  0  0
    5.1950   -1.0970   16.9840 N   0  0  0  0  0
    9.1620   -9.7090   12.5340 O   0  0  0  0  0
   10.6880   -5.8970   10.7120 O   0  0  0  0  0
    5.4330   -6.9000   14.9270 C   0  0  0  0  0
    5.2010   -7.9650   17.0620 C   0  0  0  0  0
    7.2610   -6.8820   16.4790 C   0  0  0  0  0
    7.0700   -7.9660   18.6880 C   0  0  0  0  0
    6.4720   -8.6830   19.6420 N   0  0  0  0  0
    8.2850   -7.6590   19.1170 N   0  0  0  0  0
    8.4040   -8.2030   20.3550 N   0  0  0  0  0
    7.3170   -8.8210   20.6750 N   0  0  0  0  0
   10.5003   -8.3646   10.9803 H   0  0  0  0  0
    9.7011   -3.7609   11.7895 H   0  0  0  0  0
    8.8401   -1.6433   12.7523 H   0  0  0  0  0
    3.6535   -7.9041   15.5778 H   0  0  0  0  0
    6.0883   -4.2710   15.9501 H   0  0  0  0  0
    7.4252   -0.5077   14.3912 H   0  0  0  0  0
    5.0156   -6.6254   13.9582 H   0  0  0  0  0
    4.5972   -8.5305   17.7717 H   0  0  0  0  0
    8.2827   -6.5944   16.7270 H   0  0  0  0  0
 12  1  1  0  0  0
  1 13  1  0  0  0
  2  5  1  0  0  0
  2  9  1  0  0  0
 15  2  1  0  0  0
  3  4  2  0  0  0
  3 12  1  0  0  0
  3 15  1  0  0  0
  4  6  1  0  0  0
  5  6  4  0  0  0
  5 16  4  0  0  0
  6  7  4  0  0  0
  7 17  4  0  0  0
 16  8  4  0  0  0
  8 17  4  0  0  0
  8 18  1  0  0  0
  9 22  4  0  0  0
  9 24  4  0  0  0
 22 10  4  0  0  0
 10 23  4  0  0  0
 23 11  4  0  0  0
 11 24  4  0  0  0
 11 25  1  0  0  0
 12 21  2  0  0  0
 13 14  1  0  0  0
 13 20  2  0  0  0
 14 15  2  0  0  0
 18 19  3  0  0  0
 25 26  4  0  0  0
 25 27  4  0  0  0
 26 29  4  0  0  0
 27 28  4  0  0  0
 28 29  4  0  0  0
  1 30  1  0  0  0
  4 31  1  0  0  0
  7 32  1  0  0  0
 10 33  1  0  0  0
 16 34  1  0  0  0
 17 35  1  0  0  0
 22 36  1  0  0  0
 23 37  1  0  0  0
 24 38  1  0  0  0
M  END
$$$$
