5h5s_ligand
  -I-interpret- 

217223  0  0  0  0  0  0  0  0999 V2000
   27.3680   -1.1870   30.0180 N   0  3  0  0  0
   26.8090    0.0650   30.6370 C   0  0  0  0  0
   25.4520   -0.2390   31.2820 C   0  0  0  0  0
   24.6880   -1.0590   30.7400 O   0  0  0  0  0
   26.6380    1.2000   29.5850 C   0  0  0  0  0
   25.5980    0.8350   28.5280 C   0  0  0  0  0
   26.2730    2.5250   30.2540 C   0  0  0  0  0
   25.1310    0.4170   32.4280 N   0  0  0  0  0
   23.7790    0.2080   32.9520 C   0  0  0  0  0
   22.6600    0.4570   31.9130 C   0  0  0  0  0
   22.7960    1.2600   30.9840 O   0  0  0  0  0
   23.7100    1.1670   34.1560 C   0  0  0  0  0
   25.1290    1.1790   34.6750 C   0  0  0  0  0
   26.0200    1.0150   33.4490 C   0  0  0  0  0
   21.5950   -0.3210   32.0540 N   0  0  0  0  0
   20.4560   -0.2810   31.1550 C   0  0  0  0  0
   19.7600    1.0650   31.3670 C   0  0  0  0  0
   19.4790    1.4220   32.5090 O   0  0  0  0  0
   19.5340   -1.4540   31.5060 C   0  0  0  0  0
   17.9070   -1.4690   30.7750 S   0  0  0  0  0
   19.5100    1.8170   30.2930 N   0  0  0  0  0
   19.0160    3.2070   30.4020 C   0  0  0  0  0
   17.5070    3.3540   30.6270 C   0  0  0  0  0
   16.9860    4.4700   30.5940 O   0  0  0  0  0
   19.3590    3.7810   29.0300 C   0  0  0  0  0
   19.1680    2.6220   28.1300 C   0  0  0  0  0
   19.7140    1.4500   28.8850 C   0  0  0  0  0
   16.8030    2.2430   30.7960 N   0  0  0  0  0
   15.3630    2.2780   31.0320 C   0  0  0  0  0
   14.9880    1.9290   32.4560 C   0  0  0  0  0
   13.8090    1.9810   32.8040 O   0  0  0  0  0
   14.6690    1.3250   30.0790 C   0  0  0  0  0
   14.9620    1.5160   28.5930 C   0  0  0  0  0
   14.2610    2.4420   27.8260 C   0  0  0  0  0
   15.9130    0.7360   27.9570 C   0  0  0  0  0
   14.5180    2.5950   26.4530 C   0  0  0  0  0
   16.1720    0.8630   26.6000 C   0  0  0  0  0
   15.4750    1.7930   25.8430 C   0  0  0  0  0
   15.7250    1.8980   24.4860 O   0  0  0  0  0
   15.9680    1.5860   33.2940 N   0  0  0  0  0
   15.6720    1.2050   34.6690 C   0  0  0  0  0
   15.0440    2.3750   35.4500 C   0  0  0  0  0
   15.4280    3.5200   35.2250 O   0  0  0  0  0
   16.9360    0.7150   35.3850 C   0  0  0  0  0
   17.5020   -0.6380   34.9490 C   0  0  0  0  0
   18.8760   -0.8320   35.5730 C   0  0  0  0  0
   16.5640   -1.7830   35.3310 C   0  0  0  0  0
   14.0960    2.0910   36.3650 N   0  0  0  0  0
   13.6000    0.7800   36.7900 C   0  0  0  0  0
   12.3790    0.2690   35.9820 C   0  0  0  0  0
   11.8790   -0.8160   36.2350 O   0  0  0  0  0
   13.2010    1.0390   38.2390 C   0  0  0  0  0
   12.7270    2.4510   38.2410 C   0  0  0  0  0
   13.4210    3.1680   37.1150 C   0  0  0  0  0
   11.9400    1.0350   35.0040 N   0  0  0  0  0
   10.7070    0.7610   34.2680 C   0  0  0  0  0
   10.8060   -0.4490   33.3440 C   0  0  0  0  0
    9.8270   -1.1740   33.1430 O   0  0  0  0  0
   10.3280    2.0050   33.4720 C   0  0  0  0  0
   10.1040    3.2970   34.2760 C   0  0  0  0  0
    9.6500    4.4040   33.3400 C   0  0  0  0  0
    9.0900    3.1140   35.3860 C   0  0  0  0  0
   11.9820   -0.6420   32.7530 N   0  0  0  0  0
   12.3150   -1.8620   32.0010 C   0  0  0  0  0
   13.8210   -2.1220   32.2030 C   0  0  0  0  0
   14.6020   -1.1690   32.4280 O   0  0  0  0  0
   11.9470   -1.6920   30.5240 C   0  0  0  0  0
   12.1840   -2.9270   29.6660 C   0  0  0  0  0
   11.7710   -4.2050   29.9320 C   0  0  0  0  0
   12.8870   -2.9840   28.4190 C   0  0  0  0  0
   12.1810   -5.0510   28.9250 N   0  0  0  0  0
   12.8560   -4.3300   27.9800 C   0  0  0  0  0
   13.5370   -2.0260   27.6150 C   0  0  0  0  0
   13.4660   -4.7450   26.7840 C   0  0  0  0  0
   14.1380   -2.4350   26.4220 C   0  0  0  0  0
   14.1000   -3.7850   26.0150 C   0  0  0  0  0
   14.1990   -3.3920   32.1690 N   0  0  0  0  0
   15.5640   -3.8100   32.4810 C   0  0  0  0  0
   16.2980   -4.3740   31.2540 C   0  0  0  0  0
   17.2370   -5.1420   31.4040 O   0  0  0  0  0
   15.5440   -4.8230   33.6370 C   0  0  0  0  0
   14.8500   -6.1290   33.2670 C   0  0  0  0  0
   13.9060   -6.1320   32.4960 O   0  0  0  0  0
   15.3270   -7.2350   33.8060 N   0  0  0  0  0
   15.8810   -3.9540   30.0490 N   0  0  0  0  0
   16.5090   -4.3580   28.8060 C   0  0  0  0  0
   16.4310   -5.8710   28.5610 C   0  0  0  0  0
   17.3180   -6.4360   27.9590 O   0  0  0  0  0
   17.9720   -3.8640   28.7450 C   0  0  0  0  0
   18.1390   -2.0520   28.7950 S   0  0  0  0  0
   15.4080   -6.5430   29.0680 N   0  0  0  0  0
   15.3230   -7.9990   28.9170 C   0  0  0  0  0
   14.5000   -8.3120   27.6510 C   0  0  0  0  0
   13.2990   -8.0340   27.6000 O   0  0  0  0  0
   14.6910   -8.6280   30.1520 C   0  0  0  0  0
   15.1750   -8.8420   26.6290 N   0  0  0  0  0
   14.5250   -9.3020   25.4060 C   0  0  0  0  0
   14.1110   -8.2180   24.4410 C   0  0  0  0  0
   14.6180   -7.0950   24.4800 O   0  0  0  0  0
   13.2150   -8.5800   23.5310 N   0  0  0  0  0
   12.6970   -7.6570   22.5240 C   0  0  0  0  0
   11.3810   -8.1360   21.9370 C   0  0  0  0  0
   10.8880   -9.2520   22.2140 O   0  0  0  0  0
   13.7240   -7.4580   21.4110 C   0  0  0  0  0
   13.9960   -8.6700   20.5520 C   0  0  0  0  0
   15.0240   -8.3300   19.4780 C   0  0  0  0  0
   14.9900   -9.3080   18.3290 C   0  0  0  0  0
   15.8170   -8.7430   17.2130 N   0  3  0  0  0
   10.8040   -7.4150   21.1410 O   0  0  0  0  0
   27.4655   -1.9053   30.7355 H   0  0  0  0  0
   26.7350   -1.5164   29.2892 H   0  0  0  0  0
   28.2813   -0.9851   29.6110 H   0  0  0  0  0
   27.5161    0.4070   31.3927 H   0  0  0  0  0
   27.5992    1.3200   29.0852 H   0  0  0  0  0
   24.6204    0.7382   29.0002 H   0  0  0  0  0
   25.5612    1.6181   27.7707 H   0  0  0  0  0
   25.8727   -0.1109   28.0612 H   0  0  0  0  0
   26.2381    3.3129   29.5016 H   0  0  0  0  0
   25.2973    2.4330   30.7311 H   0  0  0  0  0
   27.0242    2.7706   31.0046 H   0  0  0  0  0
   23.6052   -0.8315   33.2302 H   0  0  0  0  0
   22.9913    0.8432   34.9088 H   0  0  0  0  0
   23.3563    2.1605   33.8805 H   0  0  0  0  0
   25.2947    0.3785   35.3960 H   0  0  0  0  0
   25.3499    2.1055   35.2051 H   0  0  0  0  0
   26.4432    1.9639   33.1195 H   0  0  0  0  0
   26.8887    0.3892   33.6539 H   0  0  0  0  0
   21.5754   -0.9798   32.8325 H   0  0  0  0  0
   20.7444   -0.3731   30.1079 H   0  0  0  0  0
   19.3719   -1.3883   32.5819 H   0  0  0  0  0
   20.0346   -2.3447   31.1264 H   0  0  0  0  0
   19.4622    3.6971   31.2673 H   0  0  0  0  0
   20.3675    4.1918   28.9830 H   0  0  0  0  0
   18.7361    4.6338   28.7601 H   0  0  0  0  0
   19.6790    2.7621   27.1774 H   0  0  0  0  0
   18.1188    2.4814   27.8700 H   0  0  0  0  0
   19.2153    0.5171   28.6220 H   0  0  0  0  0
   20.7615    1.2574   28.6531 H   0  0  0  0  0
   17.2795    1.3418   30.7602 H   0  0  0  0  0
   15.0369    3.3033   30.8572 H   0  0  0  0  0
   13.6002    1.5003   30.2013 H   0  0  0  0  0
   15.0296    0.3281   30.3325 H   0  0  0  0  0
   13.4982    3.0602   28.2993 H   0  0  0  0  0
   16.4728    0.0029   28.5378 H   0  0  0  0  0
   13.9711    3.3368   25.8711 H   0  0  0  0  0
   16.9243    0.2310   26.1281 H   0  0  0  0  0
   16.4108    1.2734   24.2388 H   0  0  0  0  0
   16.9347    1.5905   32.9687 H   0  0  0  0  0
   14.9505    0.3888   34.6336 H   0  0  0  0  0
   16.6577    0.5973   36.4323 H   0  0  0  0  0
   17.7097    1.4482   35.1574 H   0  0  0  0  0
   17.5945   -0.6469   33.8630 H   0  0  0  0  0
   19.5401   -0.0337   35.2416 H   0  0  0  0  0
   18.7874   -0.8054   36.6591 H   0  0  0  0  0
   19.2813   -1.7954   35.2638 H   0  0  0  0  0
   16.4296   -1.7954   36.4126 H   0  0  0  0  0
   15.5990   -1.6379   34.8454 H   0  0  0  0  0
   16.9969   -2.7293   35.0065 H   0  0  0  0  0
   14.3504    0.0032   36.6433 H   0  0  0  0  0
   14.0309    0.8829   38.9282 H   0  0  0  0  0
   12.4328    0.3469   38.5840 H   0  0  0  0  0
   12.9582    2.9274   39.1937 H   0  0  0  0  0
   11.6461    2.4885   38.1055 H   0  0  0  0  0
   12.7245    3.7298   36.4926 H   0  0  0  0  0
   14.1217    3.9211   37.4755 H   0  0  0  0  0
   12.4860    1.8577   34.7484 H   0  0  0  0  0
    9.9356    0.5152   34.9978 H   0  0  0  0  0
    9.3740    1.7781   32.9960 H   0  0  0  0  0
   11.1698    2.2057   32.8092 H   0  0  0  0  0
   11.0516    3.5643   34.7436 H   0  0  0  0  0
   10.4154    4.5746   32.5830 H   0  0  0  0  0
    8.7183    4.1101   32.8567 H   0  0  0  0  0
    9.4917    5.3188   33.9111 H   0  0  0  0  0
    8.1344    2.8122   34.9573 H   0  0  0  0  0
    9.4406    2.3441   36.0734 H   0  0  0  0  0
    8.9678    4.0544   35.9234 H   0  0  0  0  0
   12.6872    0.0915   32.8246 H   0  0  0  0  0
   11.7471   -2.7205   32.3595 H   0  0  0  0  0
   12.5834   -0.9014   30.1264 H   0  0  0  0  0
   10.8791   -1.4774   30.4848 H   0  0  0  0  0
   11.2019   -4.5083   30.8108 H   0  0  0  0  0
   13.5703   -0.9801   27.9200 H   0  0  0  0  0
   13.4406   -5.7891   26.4722 H   0  0  0  0  0
   14.6439   -1.6998   25.7962 H   0  0  0  0  0
   14.5777   -4.0767   25.0797 H   0  0  0  0  0
   13.5126   -4.1028   31.9160 H   0  0  0  0  0
   16.1240   -2.9277   32.7908 H   0  0  0  0  0
   14.9927   -4.3749   34.4637 H   0  0  0  0  0
   16.5773   -5.0557   33.8946 H   0  0  0  0  0
   14.9037   -8.1354   33.5815 H   0  0  0  0  0
   16.1190   -7.1895   34.4471 H   0  0  0  0  0
   15.0834   -3.3197   30.0057 H   0  0  0  0  0
   15.9441   -3.8849   28.0027 H   0  0  0  0  0
   18.3900   -4.2027   27.7970 H   0  0  0  0  0
   18.4859   -4.2619   29.6200 H   0  0  0  0  0
   14.6728   -6.0430   29.5679 H   0  0  0  0  0
   16.3222   -8.4220   28.8129 H   0  0  0  0  0
   15.2986   -8.3972   31.0270 H   0  0  0  0  0
   13.6869   -8.2266   30.2892 H   0  0  0  0  0
   14.6368   -9.7087   30.0204 H   0  0  0  0  0
   16.1883   -8.9293   26.7059 H   0  0  0  0  0
   13.6104   -9.8091   25.7132 H   0  0  0  0  0
   15.2532   -9.9214   24.8823 H   0  0  0  0  0
   12.8744   -9.5414   23.5350 H   0  0  0  0  0
   12.5102   -6.7048   23.0205 H   0  0  0  0  0
   11.4508   -9.7003   22.8495 H   0  0  0  0  0
   14.6655   -7.2063   21.8992 H   0  0  0  0  0
   13.3191   -6.6930   20.7486 H   0  0  0  0  0
   13.0688   -8.9849   20.0732 H   0  0  0  0  0
   14.3848   -9.4728   21.1784 H   0  0  0  0  0
   16.0147   -8.3717   19.9306 H   0  0  0  0  0
   14.7926   -7.3390   19.0877 H   0  0  0  0  0
   13.9635   -9.4614   17.9960 H   0  0  0  0  0
   15.3908  -10.2716   18.6434 H   0  0  0  0  0
   15.8080   -9.3893   16.4239 H   0  0  0  0  0
   15.4277   -7.8457   16.9236 H   0  0  0  0  0
   16.7758   -8.6110   17.5351 H   0  0  0  0  0
  1  2  1  0  0  0
  2  3  1  0  0  0
  2  5  1  0  0  0
  3  4  2  0  0  0
  3  8  1  0  0  0
  5  6  1  0  0  0
  5  7  1  0  0  0
  8  9  1  0  0  0
  8 14  1  0  0  0
  9 10  1  0  0  0
  9 12  1  0  0  0
 10 11  2  0  0  0
 10 15  1  0  0  0
 12 13  1  0  0  0
 13 14  1  0  0  0
 15 16  1  0  0  0
 16 17  1  0  0  0
 16 19  1  0  0  0
 17 18  2  0  0  0
 17 21  1  0  0  0
 19 20  1  0  0  0
 20 90  1  0  0  0
 21 22  1  0  0  0
 21 27  1  0  0  0
 22 23  1  0  0  0
 22 25  1  0  0  0
 23 24  2  0  0  0
 23 28  1  0  0  0
 25 26  1  0  0  0
 26 27  1  0  0  0
 28 29  1  0  0  0
 29 30  1  0  0  0
 29 32  1  0  0  0
 30 31  2  0  0  0
 30 40  1  0  0  0
 32 33  1  0  0  0
 33 34  4  0  0  0
 33 35  4  0  0  0
 34 36  4  0  0  0
 35 37  4  0  0  0
 36 38  4  0  0  0
 37 38  4  0  0  0
 38 39  1  0  0  0
 40 41  1  0  0  0
 41 42  1  0  0  0
 41 44  1  0  0  0
 42 43  2  0  0  0
 42 48  1  0  0  0
 44 45  1  0  0  0
 45 46  1  0  0  0
 45 47  1  0  0  0
 48 49  1  0  0  0
 48 54  1  0  0  0
 49 50  1  0  0  0
 49 52  1  0  0  0
 50 51  2  0  0  0
 50 55  1  0  0  0
 52 53  1  0  0  0
 53 54  1  0  0  0
 55 56  1  0  0  0
 56 57  1  0  0  0
 56 59  1  0  0  0
 57 58  2  0  0  0
 57 63  1  0  0  0
 59 60  1  0  0  0
 60 61  1  0  0  0
 60 62  1  0  0  0
 63 64  1  0  0  0
 64 65  1  0  0  0
 64 67  1  0  0  0
 65 66  2  0  0  0
 65 77  1  0  0  0
 67 68  1  0  0  0
 68 69  4  0  0  0
 68 70  4  0  0  0
 69 71  4  0  0  0
 70 72  4  0  0  0
 70 73  4  0  0  0
 71 72  4  0  0  0
 72 74  4  0  0  0
 73 75  4  0  0  0
 74 76  4  0  0  0
 75 76  4  0  0  0
 77 78  1  0  0  0
 78 79  1  0  0  0
 78 81  1  0  0  0
 79 80  2  0  0  0
 79 85  1  0  0  0
 81 82  1  0  0  0
 82 83  2  0  0  0
 82 84  1  0  0  0
 85 86  1  0  0  0
 86 87  1  0  0  0
 86 89  1  0  0  0
 87 88  2  0  0  0
 87 91  1  0  0  0
 89 90  1  0  0  0
 91 92  1  0  0  0
 92 93  1  0  0  0
 92 95  1  0  0  0
 93 94  2  0  0  0
 93 96  1  0  0  0
 96 97  1  0  0  0
 97 98  1  0  0  0
 98 99  2  0  0  0
 98100  1  0  0  0
100101  1  0  0  0
101102  1  0  0  0
101104  1  0  0  0
102103  1  0  0  0
102109  2  0  0  0
104105  1  0  0  0
105106  1  0  0  0
106107  1  0  0  0
107108  1  0  0  0
  1110  1  0  0  0
  1111  1  0  0  0
  1112  1  0  0  0
  2113  1  0  0  0
  5114  1  0  0  0
  6115  1  0  0  0
  6116  1  0  0  0
  6117  1  0  0  0
  7118  1  0  0  0
  7119  1  0  0  0
  7120  1  0  0  0
  9121  1  0  0  0
 12122  1  0  0  0
 12123  1  0  0  0
 13124  1  0  0  0
 13125  1  0  0  0
 14126  1  0  0  0
 14127  1  0  0  0
 15128  1  0  0  0
 16129  1  0  0  0
 19130  1  0  0  0
 19131  1  0  0  0
 22132  1  0  0  0
 25133  1  0  0  0
 25134  1  0  0  0
 26135  1  0  0  0
 26136  1  0  0  0
 27137  1  0  0  0
 27138  1  0  0  0
 28139  1  0  0  0
 29140  1  0  0  0
 32141  1  0  0  0
 32142  1  0  0  0
 34143  1  0  0  0
 35144  1  0  0  0
 36145  1  0  0  0
 37146  1  0  0  0
 39147  1  0  0  0
 40148  1  0  0  0
 41149  1  0  0  0
 44150  1  0  0  0
 44151  1  0  0  0
 45152  1  0  0  0
 46153  1  0  0  0
 46154  1  0  0  0
 46155  1  0  0  0
 47156  1  0  0  0
 47157  1  0  0  0
 47158  1  0  0  0
 49159  1  0  0  0
 52160  1  0  0  0
 52161  1  0  0  0
 53162  1  0  0  0
 53163  1  0  0  0
 54164  1  0  0  0
 54165  1  0  0  0
 55166  1  0  0  0
 56167  1  0  0  0
 59168  1  0  0  0
 59169  1  0  0  0
 60170  1  0  0  0
 61171  1  0  0  0
 61172  1  0  0  0
 61173  1  0  0  0
 62174  1  0  0  0
 62175  1  0  0  0
 62176  1  0  0  0
 63177  1  0  0  0
 64178  1  0  0  0
 67179  1  0  0  0
 67180  1  0  0  0
 69181  1  0  0  0
 73182  1  0  0  0
 74183  1  0  0  0
 75184  1  0  0  0
 76185  1  0  0  0
 77186  1  0  0  0
 78187  1  0  0  0
 81188  1  0  0  0
 81189  1  0  0  0
 84190  1  0  0  0
 84191  1  0  0  0
 85192  1  0  0  0
 86193  1  0  0  0
 89194  1  0  0  0
 89195  1  0  0  0
 91196  1  0  0  0
 92197  1  0  0  0
 95198  1  0  0  0
 95199  1  0  0  0
 95200  1  0  0  0
 96201  1  0  0  0
 97202  1  0  0  0
 97203  1  0  0  0
100204  1  0  0  0
101205  1  0  0  0
103206  1  0  0  0
104207  1  0  0  0
104208  1  0  0  0
105209  1  0  0  0
105210  1  0  0  0
106211  1  0  0  0
106212  1  0  0  0
107213  1  0  0  0
107214  1  0  0  0
108215  1  0  0  0
108216  1  0  0  0
108217  1  0  0  0
M  END
$$$$
