### 
### Created by X-TOOL on Mon Sep 10 21:13:26 2018
### 

@<TRIPOS>MOLECULE
5h5s_ligand
  217   223     1     0     0
SMALL
GAST_HUCK


@<TRIPOS>ATOM
      1 N          27.3680   -1.1870   30.0180 N.4       1 VAL         0.2381
      2 CA         26.8090    0.0650   30.6370 C.3       1 VAL         0.0675
      3 C          25.4520   -0.2390   31.2820 C.2       1 VAL         0.2295
      4 O          24.6880   -1.0590   30.7400 O.2       1 VAL        -0.3905
      5 CB         26.6380    1.2000   29.5850 C.3       1 VAL         0.0139
      6 CG1        25.5980    0.8350   28.5280 C.3       1 VAL        -0.0553
      7 CG2        26.2730    2.5250   30.2540 C.3       1 VAL        -0.0553
      8 N          25.1310    0.4170   32.4280 N.am      1 PRO        -0.2471
      9 CA         23.7790    0.2080   32.9520 C.3       1 PRO         0.1339
     10 C          22.6600    0.4570   31.9130 C.2       1 PRO         0.2041
     11 O          22.7960    1.2600   30.9840 O.2       1 PRO        -0.3944
     12 CB         23.7100    1.1670   34.1560 C.3       1 PRO        -0.0104
     13 CG         25.1290    1.1790   34.6750 C.3       1 PRO        -0.0281
     14 CD         26.0200    1.0150   33.4490 C.3       1 PRO         0.0371
     15 N          21.5950   -0.3210   32.0540 N.am      1 CYS        -0.2629
     16 CA         20.4560   -0.2810   31.1550 C.3       1 CYS         0.1408
     17 C          19.7600    1.0650   31.3670 C.2       1 CYS         0.2072
     18 O          19.4790    1.4220   32.5090 O.2       1 CYS        -0.3942
     19 CB         19.5340   -1.4540   31.5060 C.3       1 CYS         0.0443
     20 SG         17.9070   -1.4690   30.7750 S.3       1 CYS        -0.0882
     21 N          19.5100    1.8170   30.2930 N.am      1 PRO        -0.2498
     22 CA         19.0160    3.2070   30.4020 C.3       1 PRO         0.1338
     23 C          17.5070    3.3540   30.6270 C.2       1 PRO         0.2042
     24 O          16.9860    4.4700   30.5940 O.2       1 PRO        -0.3944
     25 CB         19.3590    3.7810   29.0300 C.3       1 PRO        -0.0104
     26 CG         19.1680    2.6220   28.1300 C.3       1 PRO        -0.0281
     27 CD         19.7140    1.4500   28.8850 C.3       1 PRO         0.0369
     28 N          16.8030    2.2430   30.7960 N.am      1 TYR        -0.2621
     29 CA         15.3630    2.2780   31.0320 C.3       1 TYR         0.1390
     30 C          14.9880    1.9290   32.4560 C.2       1 TYR         0.2057
     31 O          13.8090    1.9810   32.8040 O.2       1 TYR        -0.3942
     32 CB         14.6690    1.3250   30.0790 C.3       1 TYR         0.0163
     33 CG         14.9620    1.5160   28.5930 C.ar      1 TYR        -0.0493
     34 CD1        14.2610    2.4420   27.8260 C.ar      1 TYR        -0.0685
     35 CD2        15.9130    0.7360   27.9570 C.ar      1 TYR        -0.0685
     36 CE1        14.5180    2.5950   26.4530 C.ar      1 TYR        -0.0398
     37 CE2        16.1720    0.8630   26.6000 C.ar      1 TYR        -0.0398
     38 CZ         15.4750    1.7930   25.8430 C.ar      1 TYR         0.0805
     39 OH         15.7250    1.8980   24.4860 O.3       1 TYR        -0.3376
     40 N          15.9680    1.5860   33.2940 N.am      1 LEU        -0.2636
     41 CA         15.6720    1.2050   34.6690 C.3       1 LEU         0.1314
     42 C          15.0440    2.3750   35.4500 C.2       1 LEU         0.2064
     43 O          15.4280    3.5200   35.2250 O.2       1 LEU        -0.3942
     44 CB         16.9360    0.7150   35.3850 C.3       1 LEU        -0.0101
     45 CG         17.5020   -0.6380   34.9490 C.3       1 LEU        -0.0425
     46 CD1        18.8760   -0.8320   35.5730 C.3       1 LEU        -0.0625
     47 CD2        16.5640   -1.7830   35.3310 C.3       1 LEU        -0.0625
     48 N          14.0960    2.0910   36.3650 N.am      1 PRO        -0.2498
     49 CA         13.6000    0.7800   36.7900 C.3       1 PRO         0.1338
     50 C          12.3790    0.2690   35.9820 C.2       1 PRO         0.2041
     51 O          11.8790   -0.8160   36.2350 O.2       1 PRO        -0.3944
     52 CB         13.2010    1.0390   38.2390 C.3       1 PRO        -0.0104
     53 CG         12.7270    2.4510   38.2410 C.3       1 PRO        -0.0281
     54 CD         13.4210    3.1680   37.1150 C.3       1 PRO         0.0369
     55 N          11.9400    1.0350   35.0040 N.am      1 LEU        -0.2637
     56 CA         10.7070    0.7610   34.2680 C.3       1 LEU         0.1312
     57 C          10.8060   -0.4490   33.3440 C.2       1 LEU         0.2040
     58 O           9.8270   -1.1740   33.1430 O.2       1 LEU        -0.3944
     59 CB         10.3280    2.0050   33.4720 C.3       1 LEU        -0.0101
     60 CG         10.1040    3.2970   34.2760 C.3       1 LEU        -0.0425
     61 CD1         9.6500    4.4040   33.3400 C.3       1 LEU        -0.0625
     62 CD2         9.0900    3.1140   35.3860 C.3       1 LEU        -0.0625
     63 N          11.9820   -0.6420   32.7530 N.am      1 TRP        -0.2627
     64 CA         12.3150   -1.8620   32.0010 C.3       1 TRP         0.1352
     65 C          13.8210   -2.1220   32.2030 C.2       1 TRP         0.2053
     66 O          14.6020   -1.1690   32.4280 O.2       1 TRP        -0.3942
     67 CB         11.9470   -1.6920   30.5240 C.3       1 TRP         0.0042
     68 CG         12.1840   -2.9270   29.6660 C.2       1 TRP        -0.0418
     69 CD1        11.7710   -4.2050   29.9320 C.2       1 TRP         0.0167
     70 CD2        12.8870   -2.9840   28.4190 C.ar      1 TRP        -0.0214
     71 NE1        12.1810   -5.0510   28.9250 N.pl3     1 TRP        -0.2890
     72 CE2        12.8560   -4.3300   27.9800 C.ar      1 TRP         0.0603
     73 CE3        13.5370   -2.0260   27.6150 C.ar      1 TRP        -0.0747
     74 CZ2        13.4660   -4.7450   26.7840 C.ar      1 TRP        -0.0443
     75 CZ3        14.1380   -2.4350   26.4220 C.ar      1 TRP        -0.0792
     76 CH2        14.1000   -3.7850   26.0150 C.ar      1 TRP        -0.0768
     77 N          14.1990   -3.3920   32.1690 N.am      1 ASN        -0.2615
     78 CA         15.5640   -3.8100   32.4810 C.3       1 ASN         0.1476
     79 C          16.2980   -4.3740   31.2540 C.2       1 ASN         0.2063
     80 O          17.2370   -5.1420   31.4040 O.2       1 ASN        -0.3942
     81 CB         15.5440   -4.8230   33.6370 C.3       1 ASN         0.0773
     82 CG         14.8500   -6.1290   33.2670 C.2       1 ASN         0.1780
     83 OD1        13.9060   -6.1320   32.4960 O.2       1 ASN        -0.3970
     84 ND2        15.3270   -7.2350   33.8060 N.am      1 ASN        -0.3007
     85 N          15.8810   -3.9540   30.0490 N.am      1 CYS        -0.2628
     86 CA         16.5090   -4.3580   28.8060 C.3       1 CYS         0.1406
     87 C          16.4310   -5.8710   28.5610 C.2       1 CYS         0.2047
     88 O          17.3180   -6.4360   27.9590 O.2       1 CYS        -0.3944
     89 CB         17.9720   -3.8640   28.7450 C.3       1 CYS         0.0443
     90 SG         18.1390   -2.0520   28.7950 S.3       1 CYS        -0.0882
     91 N          15.4080   -6.5430   29.0680 N.am      1 ALA        -0.2640
     92 CA         15.3230   -7.9990   28.9170 C.3       1 ALA         0.1282
     93 C          14.5000   -8.3120   27.6510 C.2       1 ALA         0.2034
     94 O          13.2990   -8.0340   27.6000 O.2       1 ALA        -0.3944
     95 CB         14.6910   -8.6280   30.1520 C.3       1 ALA        -0.0244
     96 N          15.1750   -8.8420   26.6290 N.am      1 GLY        -0.2664
     97 CA         14.5250   -9.3020   25.4060 C.3       1 GLY         0.1201
     98 C          14.1110   -8.2180   24.4410 C.2       1 GLY         0.2002
     99 O          14.6180   -7.0950   24.4800 O.2       1 GLY        -0.3947
    100 N          13.2150   -8.5800   23.5310 N.am      1 LYS        -0.2697
    101 CA         12.6970   -7.6570   22.5240 C.3       1 LYS         0.0944
    102 C          11.3810   -8.1360   21.9370 C.2       1 LYS         0.0601
    103 O          10.8880   -9.2520   22.2140 O.co2     1 LYS        -0.5666
    104 CB         13.7240   -7.4580   21.4110 C.3       1 LYS        -0.0177
    105 CG         13.9960   -8.6700   20.5520 C.3       1 LYS        -0.0446
    106 CD         15.0240   -8.3300   19.4780 C.3       1 LYS        -0.0125
    107 CE         14.9900   -9.3080   18.3290 C.3       1 LYS        -0.0354
    108 NZ         15.8170   -8.7430   17.2130 N.4       1 LYS         0.2185
    109 OXT        10.8040   -7.4150   21.1410 O.co2     1 LYS        -0.5666
    110 H1         27.4648   -1.8977   30.7263 H         1 VAL         0.2015
    111 H2         28.2706   -0.9888   29.6155 H         1 VAL         0.2015
    112 H3         26.7432   -1.5135   29.2976 H         1 VAL         0.2015
    113 H4         27.5053    0.4107   31.4152 H         1 VAL         0.1101
    114 H5         27.6042    1.3324   29.0762 H         1 VAL         0.0376
    115 H6         25.5055    1.6587   27.8048 H         1 VAL         0.0236
    116 H7         24.6262    0.6628   29.0138 H         1 VAL         0.0236
    117 H8         25.9131   -0.0793   28.0039 H         1 VAL         0.0236
    118 H9         27.0305    2.7740   31.0118 H         1 VAL         0.0236
    119 H10        25.2885    2.4335   30.7360 H         1 VAL         0.0236
    120 H11        26.2375    3.3211   29.4957 H         1 VAL         0.0236
    121 H12        23.6799   -0.8299   33.3025 H         1 PRO         0.0802
    122 H13        23.0145    0.7901   34.9203 H         1 PRO         0.0313
    123 H14        23.3977    2.1734   33.8404 H         1 PRO         0.0313
    124 H15        25.2871    0.3475   35.3776 H         1 PRO         0.0287
    125 H16        25.3442    2.1321   35.1803 H         1 PRO         0.0287
    126 H17        26.4010    1.9900   33.1110 H         1 PRO         0.0524
    127 H18        26.8658    0.3469   33.6687 H         1 PRO         0.0524
    128 H19        21.5758   -0.9669   32.8172 H         1 CYS         0.1884
    129 H20        20.7860   -0.3697   30.1094 H         1 CYS         0.0809
    130 H21        19.4045   -1.4561   32.5983 H         1 CYS         0.0432
    131 H22        20.0434   -2.3781   31.1953 H         1 CYS         0.0432
    132 H23        19.5492    3.7355   31.2060 H         1 PRO         0.0802
    133 H24        20.3987    4.1388   28.9993 H         1 PRO         0.0313
    134 H25        18.6798    4.6045   28.7644 H         1 PRO         0.0313
    135 H26        19.7204    2.7675   27.1900 H         1 PRO         0.0287
    136 H27        18.1004    2.4760   27.9091 H         1 PRO         0.0287
    137 H28        19.1629    0.5314   28.6353 H         1 PRO         0.0524
    138 H29        20.7828    1.3070   28.6678 H         1 PRO         0.0524
    139 H30        17.2701    1.3595   30.7609 H         1 TYR         0.1885
    140 H31        15.0101    3.2997   30.8281 H         1 TYR         0.0821
    141 H32        13.5844    1.4385   30.2233 H         1 TYR         0.0453
    142 H33        14.9700    0.3024   30.3504 H         1 TYR         0.0453
    143 H34        13.5024    3.0568   28.2967 H         1 TYR         0.0530
    144 H35        16.4698    0.0070   28.5346 H         1 TYR         0.0530
    145 H36        13.9741    3.3328   25.8743 H         1 TYR         0.0525
    146 H37        16.9202    0.2345   26.1307 H         1 TYR         0.0525
    147 H38        15.1714    2.5748   24.1146 H         1 TYR         0.2458
    148 H39        16.9158    1.5904   32.9750 H         1 LEU         0.1883
    149 H40        14.9464    0.3786   34.6450 H         1 LEU         0.0800
    150 H41        16.7041    0.6472   36.4581 H         1 LEU         0.0315
    151 H42        17.7207    1.4694   35.2263 H         1 LEU         0.0315
    152 H43        17.6111   -0.6344   33.8544 H         1 LEU         0.0298
    153 H44        19.2861   -1.8040   35.2616 H         1 LEU         0.0232
    154 H45        18.7880   -0.8054   36.6691 H         1 LEU         0.0232
    155 H46        19.5473   -0.0270   35.2393 H         1 LEU         0.0232
    156 H47        15.5793   -1.6200   34.8687 H         1 LEU         0.0232
    157 H48        16.4542   -1.8176   36.4249 H         1 LEU         0.0232
    158 H49        16.9835   -2.7352   34.9742 H         1 LEU         0.0232
    159 H50        14.4030    0.0307   36.7282 H         1 PRO         0.0802
    160 H51        14.0646    0.9165   38.9092 H         1 PRO         0.0313
    161 H52        12.3959    0.3569   38.5498 H         1 PRO         0.0313
    162 H53        12.9769    2.9288   39.1998 H         1 PRO         0.0287
    163 H54        11.6379    2.4808   38.0893 H         1 PRO         0.0287
    164 H55        12.6930    3.6909   36.4774 H         1 PRO         0.0524
    165 H56        14.1530    3.8907   37.5046 H         1 PRO         0.0524
    166 H57        12.4753    1.8416   34.7534 H         1 LEU         0.1883
    167 H58         9.9123    0.5572   35.0007 H         1 LEU         0.0800
    168 H59         9.3965    1.7835   32.9306 H         1 LEU         0.0315
    169 H60        11.1350    2.1975   32.7497 H         1 LEU         0.0315
    170 H61        11.0617    3.5898   34.7311 H         1 LEU         0.0298
    171 H62         9.4899    5.3278   33.9152 H         1 LEU         0.0232
    172 H63         8.7097    4.1086   32.8516 H         1 LEU         0.0232
    173 H64        10.4217    4.5772   32.5755 H         1 LEU         0.0232
    174 H65         9.4247    2.3114   36.0597 H         1 LEU         0.0232
    175 H66         8.1155    2.8457   34.9519 H         1 LEU         0.0232
    176 H67         8.9933    4.0518   35.9526 H         1 LEU         0.0232
    177 H68        12.6734    0.0771   32.8232 H         1 TRP         0.1884
    178 H69        11.7454   -2.7110   32.4068 H         1 TRP         0.0815
    179 H70        12.5488   -0.8680   30.1130 H         1 TRP         0.0397
    180 H71        10.8798   -1.4321   30.4639 H         1 TRP         0.0397
    181 H72        11.2024   -4.5080   30.8099 H         1 TRP         0.0795
    182 H73        12.0066   -6.0655   28.8898 H         1 TRP         0.2216
    183 H74        13.5701   -0.9858   27.9183 H         1 TRP         0.0540
    184 H75        13.4407   -5.7834   26.4739 H         1 TRP         0.0541
    185 H76        14.6411   -1.7038   25.7997 H         1 TRP         0.0510
    186 H77        14.5751   -4.0751   25.0849 H         1 TRP         0.0530
    187 H78        13.5261   -4.0889   31.9210 H         1 ASN         0.1885
    188 H79        16.1187   -2.9218   32.8176 H         1 ASN         0.0826
    189 H80        15.0142   -4.3729   34.4895 H         1 ASN         0.0551
    190 H81        16.5815   -5.0463   33.9265 H         1 ASN         0.0551
    191 H82        14.9055   -8.1167   33.5939 H         1 ASN         0.1814
    192 H83        16.1099   -7.1915   34.4266 H         1 ASN         0.1814
    193 H84        15.0990   -3.3321   30.0066 H         1 CYS         0.1884
    194 H85        15.9585   -3.8681   27.9894 H         1 CYS         0.0808
    195 H86        18.4221   -4.2279   27.8096 H         1 CYS         0.0432
    196 H87        18.5165   -4.2861   29.6025 H         1 CYS         0.0432
    197 H88        14.6872   -6.0528   29.5581 H         1 ALA         0.1883
    198 H89        16.3367   -8.4082   28.7951 H         1 ALA         0.0797
    199 H90        14.6358   -9.7187   30.0204 H         1 ALA         0.0277
    200 H91        13.6775   -8.2238   30.2915 H         1 ALA         0.0277
    201 H92        15.3033   -8.3959   31.0358 H         1 ALA         0.0277
    202 H93        16.1685   -8.9276   26.7044 H         1 GLY         0.1881
    203 H94        13.6231   -9.8629   25.6923 H         1 GLY         0.0763
    204 H95        15.2231   -9.9722   24.8830 H         1 GLY         0.0763
    205 H96        12.8811   -9.5226   23.5349 H         1 LYS         0.1875
    206 H97        12.5201   -6.6866   23.0109 H         1 LYS         0.0726
    207 H98        14.6729   -7.1527   21.8762 H         1 LYS         0.0305
    208 H99        13.3613   -6.6527   20.7554 H         1 LYS         0.0305
    209 H100       13.0607   -8.9928   20.0714 H         1 LYS         0.0269
    210 H101       14.3840   -9.4835   21.1826 H         1 LYS         0.0269
    211 H102       16.0271   -8.3476   19.9290 H         1 LYS         0.0317
    212 H103       14.8132   -7.3218   19.0918 H         1 LYS         0.0317
    213 H104       13.9531   -9.4495   17.9901 H         1 LYS         0.0813
    214 H105       15.4063  -10.2745   18.6493 H         1 LYS         0.0813
    215 H106       15.8089   -9.3809   16.4326 H         1 LYS         0.1994
    216 H107       16.7648   -8.6122   17.5301 H         1 LYS         0.1994
    217 H108       15.4332   -7.8562   16.9261 H         1 LYS         0.1994
@<TRIPOS>BOND
     1    1    2 1  
     2    2    3 1  
     3    2    5 1  
     4    3    4 2  
     5    3    8 am 
     6    5    6 1  
     7    5    7 1  
     8    8    9 1  
     9    8   14 1  
    10    9   10 1  
    11    9   12 1  
    12   10   11 2  
    13   10   15 am 
    14   12   13 1  
    15   13   14 1  
    16   15   16 1  
    17   16   17 1  
    18   16   19 1  
    19   17   18 2  
    20   17   21 am 
    21   19   20 1  
    22   20   90 1  
    23   21   22 1  
    24   21   27 1  
    25   22   23 1  
    26   22   25 1  
    27   23   24 2  
    28   23   28 am 
    29   25   26 1  
    30   26   27 1  
    31   28   29 1  
    32   29   30 1  
    33   29   32 1  
    34   30   31 2  
    35   30   40 am 
    36   32   33 1  
    37   33   34 ar 
    38   33   35 ar 
    39   34   36 ar 
    40   35   37 ar 
    41   36   38 ar 
    42   37   38 ar 
    43   38   39 1  
    44   40   41 1  
    45   41   42 1  
    46   41   44 1  
    47   42   43 2  
    48   42   48 am 
    49   44   45 1  
    50   45   46 1  
    51   45   47 1  
    52   48   49 1  
    53   48   54 1  
    54   49   50 1  
    55   49   52 1  
    56   50   51 2  
    57   50   55 am 
    58   52   53 1  
    59   53   54 1  
    60   55   56 1  
    61   56   57 1  
    62   56   59 1  
    63   57   58 2  
    64   57   63 am 
    65   59   60 1  
    66   60   61 1  
    67   60   62 1  
    68   63   64 1  
    69   64   65 1  
    70   64   67 1  
    71   65   66 2  
    72   65   77 am 
    73   67   68 1  
    74   68   69 2  
    75   68   70 1  
    76   69   71 1  
    77   70   72 ar 
    78   70   73 ar 
    79   71   72 1  
    80   72   74 ar 
    81   73   75 ar 
    82   74   76 ar 
    83   75   76 ar 
    84   77   78 1  
    85   78   79 1  
    86   78   81 1  
    87   79   80 2  
    88   79   85 am 
    89   81   82 1  
    90   82   83 2  
    91   82   84 am 
    92   85   86 1  
    93   86   87 1  
    94   86   89 1  
    95   87   88 2  
    96   87   91 am 
    97   89   90 1  
    98   91   92 1  
    99   92   93 1  
   100   92   95 1  
   101   93   94 2  
   102   93   96 am 
   103   96   97 1  
   104   97   98 1  
   105   98   99 2  
   106   98  100 am 
   107  100  101 1  
   108  101  102 1  
   109  101  104 1  
   110  102  103 ar 
   111  102  109 ar 
   112  104  105 1  
   113  105  106 1  
   114  106  107 1  
   115  107  108 1  
   116    1  110 1  
   117    1  111 1  
   118    1  112 1  
   119    2  113 1  
   120    5  114 1  
   121    6  115 1  
   122    6  116 1  
   123    6  117 1  
   124    7  118 1  
   125    7  119 1  
   126    7  120 1  
   127    9  121 1  
   128   12  122 1  
   129   12  123 1  
   130   13  124 1  
   131   13  125 1  
   132   14  126 1  
   133   14  127 1  
   134   15  128 1  
   135   16  129 1  
   136   19  130 1  
   137   19  131 1  
   138   22  132 1  
   139   25  133 1  
   140   25  134 1  
   141   26  135 1  
   142   26  136 1  
   143   27  137 1  
   144   27  138 1  
   145   28  139 1  
   146   29  140 1  
   147   32  141 1  
   148   32  142 1  
   149   34  143 1  
   150   35  144 1  
   151   36  145 1  
   152   37  146 1  
   153   39  147 1  
   154   40  148 1  
   155   41  149 1  
   156   44  150 1  
   157   44  151 1  
   158   45  152 1  
   159   46  153 1  
   160   46  154 1  
   161   46  155 1  
   162   47  156 1  
   163   47  157 1  
   164   47  158 1  
   165   49  159 1  
   166   52  160 1  
   167   52  161 1  
   168   53  162 1  
   169   53  163 1  
   170   54  164 1  
   171   54  165 1  
   172   55  166 1  
   173   56  167 1  
   174   59  168 1  
   175   59  169 1  
   176   60  170 1  
   177   61  171 1  
   178   61  172 1  
   179   61  173 1  
   180   62  174 1  
   181   62  175 1  
   182   62  176 1  
   183   63  177 1  
   184   64  178 1  
   185   67  179 1  
   186   67  180 1  
   187   69  181 1  
   188   71  182 1  
   189   73  183 1  
   190   74  184 1  
   191   75  185 1  
   192   76  186 1  
   193   77  187 1  
   194   78  188 1  
   195   81  189 1  
   196   81  190 1  
   197   84  191 1  
   198   84  192 1  
   199   85  193 1  
   200   86  194 1  
   201   89  195 1  
   202   89  196 1  
   203   91  197 1  
   204   92  198 1  
   205   95  199 1  
   206   95  200 1  
   207   95  201 1  
   208   96  202 1  
   209   97  203 1  
   210   97  204 1  
   211  100  205 1  
   212  101  206 1  
   213  104  207 1  
   214  104  208 1  
   215  105  209 1  
   216  105  210 1  
   217  106  211 1  
   218  106  212 1  
   219  107  213 1  
   220  107  214 1  
   221  108  215 1  
   222  108  216 1  
   223  108  217 1  
@<TRIPOS>SUBSTRUCTURE
     1 VAL         1

