2r2m_ligand
  -I-interpret- 

 51 52  0  0  0  0  0  0  0  0999 V2000
   11.2820  -11.8930   24.1440 C   0  0  0  0  0
   12.8320  -10.8210   22.8090 O   0  0  0  0  0
   13.5960  -11.6280   20.7120 C   0  0  0  0  0
   15.9110  -12.6250   20.6430 C   0  0  0  0  0
   17.4290  -12.4680   20.7380 C   0  0  0  0  0
   18.0500  -13.6860   21.4320 C   0  0  0  0  0
   17.3890  -14.3750   22.4770 C   0  0  0  0  0
   18.0100  -15.4820   23.0830 C   0  0  0  0  0
   19.2980  -15.9110   22.6540 C   0  0  0  0  0
   19.9610  -15.2270   21.6180 C   0  0  0  0  0
   17.9920  -17.4000   24.6850 C   0  0  0  0  0
   18.5950  -17.1030   26.0710 C   0  0  0  0  0
   22.2290  -15.9830   25.3400 C   0  0  0  0  0
   19.7770  -14.8320   26.1720 C   0  0  0  0  0
   11.0940  -10.7580   24.6540 N   0  0  0  0  0
   10.3040  -12.9490   24.3330 N   0  0  0  0  0
   12.3530  -12.0830   23.1850 N   0  0  0  0  0
   12.9150  -10.4740   21.4530 C   0  0  0  0  0
   15.0380  -11.4860   20.8980 N   0  0  0  0  0
   15.4670  -13.6050   20.1460 O   0  0  0  0  0
   19.3340  -14.1170   21.0090 C   0  0  0  0  0
   20.1610  -13.2430   19.6960 Cl  0  0  0  0  0
   16.1630  -13.9770   22.9160 F   0  0  0  0  0
   17.3490  -16.1960   24.1720 N   0  0  0  0  0
   19.8580  -16.2290   25.9150 C   0  0  0  0  0
   21.0880  -16.7970   25.4930 C   0  0  0  0  0
   22.1470  -14.5890   25.5970 C   0  0  0  0  0
   20.9160  -14.0200   26.0160 C   0  0  0  0  0
   17.6690  -16.4360   26.8250 F   0  0  0  0  0
   18.8830  -18.3030   26.6480 F   0  0  0  0  0
   13.3456  -11.5980   19.6516 H   0  0  0  0  0
   13.2552  -12.5854   21.1062 H   0  0  0  0  0
   17.6578  -11.5740   21.3181 H   0  0  0  0  0
   17.8408  -12.3842   19.7323 H   0  0  0  0  0
   19.7713  -16.7705   23.1287 H   0  0  0  0  0
   20.9485  -15.5504   21.2887 H   0  0  0  0  0
   17.2556  -18.1990   24.7708 H   0  0  0  0  0
   18.7824  -17.7112   24.0020 H   0  0  0  0  0
   23.1745  -16.4240   25.0243 H   0  0  0  0  0
   18.8325  -14.3904   26.4898 H   0  0  0  0  0
   10.2527  -10.5781   25.2019 H   0  0  0  0  0
    9.4617  -12.7720   24.8804 H   0  0  0  0  0
   10.4591  -13.8679   23.9184 H   0  0  0  0  0
   12.6979  -12.9800   22.8433 H   0  0  0  0  0
   13.4910   -9.5565   21.3330 H   0  0  0  0  0
   11.9187  -10.3003   21.0464 H   0  0  0  0  0
   15.4312  -10.5960   21.2042 H   0  0  0  0  0
   16.4666  -15.8635   24.5609 H   0  0  0  0  0
   21.1509  -17.8654   25.2866 H   0  0  0  0  0
   23.0268  -13.9576   25.4729 H   0  0  0  0  0
   20.8525  -12.9507   26.2176 H   0  0  0  0  0
  1 15  2  0  0  0
  1 16  1  0  0  0
 17  1  1  0  0  0
  2 17  1  0  0  0
 18  2  1  0  0  0
  3 18  1  0  0  0
 19  3  1  0  0  0
  5  4  1  0  0  0
  4 19  1  0  0  0
  4 20  2  0  0  0
  6  5  1  0  0  0
  7  6  4  0  0  0
  6 21  4  0  0  0
  8  7  4  0  0  0
  7 23  1  0  0  0
  8  9  4  0  0  0
 24  8  1  0  0  0
  9 10  4  0  0  0
 10 21  4  0  0  0
 12 11  1  0  0  0
 11 24  1  0  0  0
 25 12  1  0  0  0
 12 29  1  0  0  0
 12 30  1  0  0  0
 26 13  4  0  0  0
 13 27  4  0  0  0
 25 14  4  0  0  0
 14 28  4  0  0  0
 21 22  1  0  0  0
 25 26  4  0  0  0
 27 28  4  0  0  0
  3 31  1  0  0  0
  3 32  1  0  0  0
  5 33  1  0  0  0
  5 34  1  0  0  0
  9 35  1  0  0  0
 10 36  1  0  0  0
 11 37  1  0  0  0
 11 38  1  0  0  0
 13 39  1  0  0  0
 14 40  1  0  0  0
 15 41  1  0  0  0
 16 42  1  0  0  0
 16 43  1  0  0  0
 17 44  1  0  0  0
 18 45  1  0  0  0
 18 46  1  0  0  0
 19 47  1  0  0  0
 24 48  1  0  0  0
 26 49  1  0  0  0
 27 50  1  0  0  0
 28 51  1  0  0  0
M  END
$$$$
