2f1b_ligand
  -I-interpret- 

 43 44  0  0  0  0  0  0  0  0999 V2000
   27.4810   68.3060   12.0960 C   0  0  0  0  0
   27.3250   69.7320   12.1940 C   0  0  0  0  0
   28.3190   70.5480   12.7780 C   0  0  0  0  0
   29.4780   69.9120   13.2620 C   0  0  0  0  0
   29.6910   68.5010   13.1980 C   0  0  0  0  0
   28.6690   67.6640   12.6020 C   0  0  0  0  0
   28.8020   66.1330   12.5260 C   0  0  0  0  0
   28.9440   65.5020   13.9280 C   0  0  0  0  0
   28.9820   64.0920   13.7690 O   0  0  0  0  0
   29.9360   65.9340   11.6160 N   0  3  0  0  0
   30.0320   66.3680   10.2220 C   0  0  0  0  0
   31.1520   65.7870    9.3650 C   0  0  0  0  0
   30.7950   65.9120    7.9400 N   0  3  0  0  0
   31.2730   67.1820    7.4060 C   0  0  0  0  0
   32.6690   67.1900    7.9950 C   0  0  0  0  0
   33.7240   66.5390    7.2960 O   0  0  0  0  0
   32.4220   66.6410    9.4000 C   0  0  0  0  0
   33.4740   65.7680    9.7860 O   0  0  0  0  0
   31.3380   67.1790    5.8990 C   0  0  0  0  0
   26.6958   67.7060   11.6360 H   0  0  0  0  0
   26.4168   70.1949   11.8079 H   0  0  0  0  0
   28.1936   71.6283   12.8511 H   0  0  0  0  0
   30.2557   70.5304   13.7103 H   0  0  0  0  0
   30.6075   68.0609   13.5911 H   0  0  0  0  0
   27.9189   65.6215   12.1432 H   0  0  0  0  0
   28.1022   65.7886   14.5584 H   0  0  0  0  0
   29.8568   65.8527   14.4095 H   0  0  0  0  0
   29.0702   63.6763   14.6298 H   0  0  0  0  0
   29.9390   64.9191   11.5137 H   0  0  0  0  0
   30.6543   66.5080   12.0576 H   0  0  0  0  0
   30.2285   67.4392   10.2662 H   0  0  0  0  0
   29.1066   66.0353    9.7518 H   0  0  0  0  0
   31.2972   64.7748    9.7425 H   0  0  0  0  0
   29.7800   65.8734    7.8471 H   0  0  0  0  0
   31.2287   65.1488    7.4206 H   0  0  0  0  0
   30.6441   68.0390    7.6472 H   0  0  0  0  0
   33.0870   68.1955    7.9469 H   0  0  0  0  0
   34.5402   66.6312    7.7928 H   0  0  0  0  0
   32.3471   67.4801   10.0916 H   0  0  0  0  0
   34.2982   66.2588    9.8231 H   0  0  0  0  0
   32.0182   66.3944    5.5675 H   0  0  0  0  0
   30.3431   66.9940    5.4941 H   0  0  0  0  0
   31.6995   68.1464    5.5503 H   0  0  0  0  0
  1  2  4  0  0  0
  1  6  4  0  0  0
  2  3  4  0  0  0
  3  4  4  0  0  0
  4  5  4  0  0  0
  5  6  4  0  0  0
  6  7  1  0  0  0
  7  8  1  0  0  0
  7 10  1  0  0  0
  8  9  1  0  0  0
 10 11  1  0  0  0
 11 12  1  0  0  0
 12 13  1  0  0  0
 12 17  1  0  0  0
 13 14  1  0  0  0
 14 15  1  0  0  0
 14 19  1  0  0  0
 15 16  1  0  0  0
 15 17  1  0  0  0
 17 18  1  0  0  0
  1 20  1  0  0  0
  2 21  1  0  0  0
  3 22  1  0  0  0
  4 23  1  0  0  0
  5 24  1  0  0  0
  7 25  1  0  0  0
  8 26  1  0  0  0
  8 27  1  0  0  0
  9 28  1  0  0  0
 10 29  1  0  0  0
 10 30  1  0  0  0
 11 31  1  0  0  0
 11 32  1  0  0  0
 12 33  1  0  0  0
 13 34  1  0  0  0
 13 35  1  0  0  0
 14 36  1  0  0  0
 15 37  1  0  0  0
 16 38  1  0  0  0
 17 39  1  0  0  0
 18 40  1  0  0  0
 19 41  1  0  0  0
 19 42  1  0  0  0
 19 43  1  0  0  0
M  END
$$$$
