6uii_ligand
  -I-interpret- 

 33 32  0  0  0  0  0  0  0  0999 V2000
  -28.9480  -41.0630   33.1180 C   0  0  0  0  0
  -28.0980  -39.8320   33.4210 C   0  0  0  0  0
  -27.3730  -40.0070   34.7400 C   0  0  0  0  0
  -24.9960  -40.1330   35.1610 C   0  0  0  0  0
  -23.6880  -39.4210   34.9190 C   0  0  0  0  0
  -22.8940  -40.2260   33.9560 C   0  0  0  0  0
  -21.6120  -39.5520   33.6870 C   0  0  0  0  0
  -20.4990  -40.4890   33.9380 C   0  0  0  0  0
  -29.6610  -41.0380   31.8440 N   0  3  0  0  0
  -26.1020  -39.2910   34.6820 N   0  3  0  0  0
  -19.0500  -39.5980   33.4110 S   0  0  0  0  0
  -29.7081  -41.1143   33.8976 H   0  0  0  0  0
  -28.2627  -41.9094   33.0731 H   0  0  0  0  0
  -28.7463  -38.9580   33.4839 H   0  0  0  0  0
  -27.3642  -39.7010   32.6257 H   0  0  0  0  0
  -27.1904  -41.0662   34.9215 H   0  0  0  0  0
  -27.9830  -39.6083   35.5506 H   0  0  0  0  0
  -25.1168  -40.3228   36.2275 H   0  0  0  0  0
  -25.0002  -41.0818   34.6244 H   0  0  0  0  0
  -23.1419  -39.3110   35.8559 H   0  0  0  0  0
  -23.8719  -38.4259   34.5141 H   0  0  0  0  0
  -23.4510  -40.3295   33.0248 H   0  0  0  0  0
  -22.7028  -41.2120   34.3795 H   0  0  0  0  0
  -21.5126  -38.6869   34.3426 H   0  0  0  0  0
  -21.5846  -39.2266   32.6471 H   0  0  0  0  0
  -20.6228  -41.4283   33.3990 H   0  0  0  0  0
  -20.4404  -40.7869   34.9849 H   0  0  0  0  0
  -30.1957  -41.9001   31.7380 H   0  0  0  0  0
  -30.2948  -40.2390   31.8261 H   0  0  0  0  0
  -28.9888  -40.9574   31.0811 H   0  0  0  0  0
  -26.1653  -38.4659   35.2783 H   0  0  0  0  0
  -25.9180  -39.0317   33.7128 H   0  0  0  0  0
  -17.9735  -40.3573   33.5943 H   0  0  0  0  0
  2  1  1  0  0  0
  1  9  1  0  0  0
  3  2  1  0  0  0
 10  3  1  0  0  0
  4  5  1  0  0  0
  4 10  1  0  0  0
  5  6  1  0  0  0
  6  7  1  0  0  0
  7  8  1  0  0  0
  8 11  1  0  0  0
  1 12  1  0  0  0
  1 13  1  0  0  0
  2 14  1  0  0  0
  2 15  1  0  0  0
  3 16  1  0  0  0
  3 17  1  0  0  0
  4 18  1  0  0  0
  4 19  1  0  0  0
  5 20  1  0  0  0
  5 21  1  0  0  0
  6 22  1  0  0  0
  6 23  1  0  0  0
  7 24  1  0  0  0
  7 25  1  0  0  0
  8 26  1  0  0  0
  8 27  1  0  0  0
  9 28  1  0  0  0
  9 29  1  0  0  0
  9 30  1  0  0  0
 10 31  1  0  0  0
 10 32  1  0  0  0
 11 33  1  0  0  0
M  END
$$$$
