5lrg_ligand
  -I-interpret- 

122125  0  0  0  0  0  0  0  0999 V2000
   26.9640   -3.7210   -0.4980 C   0  0  0  0  0
   24.6540   -1.6360    2.8210 C   0  0  0  0  0
   23.2290   -2.0750    3.1870 C   0  0  0  0  0
   22.8410   -3.3540    2.4290 C   0  0  0  0  0
   23.1470   -2.2400    4.6360 N   0  0  0  0  0
   26.3590   -4.7700    0.0250 N   0  0  0  0  0
   27.2370   -3.7160   -1.7840 N   0  0  0  0  0
   27.2990   -2.6520    0.2780 N   0  0  0  0  0
   26.2400   -1.8150    0.8640 C   0  0  0  0  0
   25.4200   -2.5700    1.9030 C   0  0  0  0  0
   22.9960   -4.4370    2.9940 O   0  0  0  0  0
   22.3650   -3.2530    1.2760 O   0  0  0  0  0
   21.9200   -2.4640    5.1420 C   0  0  0  0  0
   20.9250   -2.6260    4.4420 O   0  0  0  0  0
   21.8330   -2.5030    6.4630 N   0  0  0  0  0
   20.5410   -2.2750    7.0840 C   0  0  0  0  0
   19.7090   -3.5440    7.2010 C   0  0  0  0  0
   18.5140   -3.4860    7.4900 O   0  0  0  0  0
   20.7520   -1.6700    8.4760 C   0  0  0  0  0
   21.1940   -2.6810    9.5170 C   0  0  0  0  0
   21.4510   -2.0580   10.8730 C   0  0  0  0  0
   22.4580   -2.8530   11.7030 C   0  0  0  0  0
   22.1370   -4.2920   11.7120 N   0  3  0  0  0
   20.3690   -4.6990    6.9640 N   0  0  0  0  0
   19.6230   -5.9590    7.1440 C   0  0  0  0  0
   19.3980   -6.2990    8.5870 C   0  0  0  0  0
   20.3310   -6.2680    9.3890 O   0  0  0  0  0
   20.3920   -7.1260    6.4580 C   0  0  0  0  0
   19.6960   -8.4560    6.7410 C   0  0  0  0  0
   20.4700   -6.8880    4.9600 C   0  0  0  0  0
   18.1200   -6.6380    8.9150 N   0  0  0  0  0
   17.9730   -7.1280   10.3050 C   0  0  0  0  0
   18.5750   -8.5070   10.4980 C   0  0  0  0  0
   16.4870   -7.1710   10.6780 C   0  0  0  0  0
   15.7100   -5.9060   10.3430 C   0  0  0  0  0
   14.2500   -6.2170   10.6050 C   0  0  0  0  0
   13.6530   -5.9730   11.9500 C   0  0  0  0  0
   12.2590   -6.3450   12.2270 C   0  0  0  0  0
   11.4610   -7.0240   11.2230 C   0  0  0  0  0
   12.0640   -7.3410    9.9130 C   0  0  0  0  0
   13.4480   -6.8900    9.5890 C   0  0  0  0  0
   10.1610   -7.3920   11.5180 O   0  0  0  0  0
   18.4130   -9.3830    9.6600 O   0  0  0  0  0
   19.2670   -8.6680   11.6420 N   0  0  0  0  0
   19.8740   -9.9180   12.0570 C   0  0  0  0  0
   19.3860   -7.5250   12.5640 C   0  0  0  0  0
   18.8010   -7.8990   13.9170 C   0  0  0  0  0
   20.8270   -7.1210   12.7430 C   0  0  0  0  0
   21.3290   -7.0540   13.8630 O   0  0  0  0  0
   21.4750   -6.8480   11.6050 N   0  0  0  0  0
   22.8910   -6.5880   11.7530 C   0  0  0  0  0
   23.1950   -5.1310   11.8500 C   0  0  0  0  0
   24.3490   -4.7480   12.0250 O   0  0  0  0  0
   23.6520   -7.1730   10.5620 C   0  0  0  0  0
   23.2780   -8.6100   10.3730 C   0  0  0  0  0
   23.8560   -9.6490   11.2470 C   0  0  0  0  0
   22.3730   -8.9870    9.2940 C   0  0  0  0  0
   23.5380  -11.0700   11.0100 C   0  0  0  0  0
   22.0650  -10.4070    9.0560 C   0  0  0  0  0
   22.6410  -11.4490    9.9130 C   0  0  0  0  0
   22.2940   -4.3010   11.7560 O   0  0  0  0  0
   25.2131   -1.5978    3.7559 H   0  0  0  0  0
   24.5563   -0.6915    2.2858 H   0  0  0  0  0
   22.5118   -1.3115    2.8856 H   0  0  0  0  0
   23.9736   -2.1883    5.2313 H   0  0  0  0  0
   26.1096   -5.5625   -0.5667 H   0  0  0  0  0
   26.1406   -4.7887    1.0212 H   0  0  0  0  0
   27.7009   -2.9104   -2.2038 H   0  0  0  0  0
   28.2799   -2.4329    0.4519 H   0  0  0  0  0
   25.5697   -1.5049    0.0624 H   0  0  0  0  0
   26.7124   -0.9651    1.3565 H   0  0  0  0  0
   24.6980   -3.1938    1.3761 H   0  0  0  0  0
   26.1058   -3.1573    2.5136 H   0  0  0  0  0
   22.3300   -2.3269    1.0255 H   0  0  0  0  0
   22.6580   -2.6897    7.0330 H   0  0  0  0  0
   19.9874   -1.5892    6.4426 H   0  0  0  0  0
   19.7960   -1.2610    8.8029 H   0  0  0  0  0
   21.5405   -0.9222    8.3912 H   0  0  0  0  0
   22.1277   -3.1259    9.1731 H   0  0  0  0  0
   20.3929   -3.4110    9.6328 H   0  0  0  0  0
   20.5072   -2.0393   11.4181 H   0  0  0  0  0
   21.8614   -1.0611   10.7120 H   0  0  0  0  0
   22.4251   -2.4861   12.7289 H   0  0  0  0  0
   23.4465   -2.7231   11.2625 H   0  0  0  0  0
   21.1456   -4.4452   11.5272 H   0  0  0  0  0
   21.3462   -4.6997    6.6717 H   0  0  0  0  0
   18.6450   -5.8182    6.6839 H   0  0  0  0  0
   21.4029   -7.1661    6.8636 H   0  0  0  0  0
   19.6699   -8.6293    7.8168 H   0  0  0  0  0
   18.6782   -8.4219    6.3524 H   0  0  0  0  0
   20.2450   -9.2625    6.2550 H   0  0  0  0  0
   19.4619   -6.8320    4.5493 H   0  0  0  0  0
   20.9940   -5.9515    4.7690 H   0  0  0  0  0
   21.0099   -7.7103    4.4904 H   0  0  0  0  0
   17.3380   -6.5616    8.2646 H   0  0  0  0  0
   18.5127   -6.4369   10.9524 H   0  0  0  0  0
   16.4350   -7.2981   11.7593 H   0  0  0  0  0
   16.0387   -7.9805   10.1019 H   0  0  0  0  0
   15.8671   -5.6146    9.3045 H   0  0  0  0  0
   16.0465   -5.0678   10.9531 H   0  0  0  0  0
   14.2561   -5.5149   12.7339 H   0  0  0  0  0
   11.8198   -6.1087   13.1962 H   0  0  0  0  0
   11.4936   -7.9086    9.1777 H   0  0  0  0  0
   13.8597   -7.0629    8.5947 H   0  0  0  0  0
    9.7720   -7.8272   10.7558 H   0  0  0  0  0
   19.1014  -10.6806   12.1554 H   0  0  0  0  0
   20.6032  -10.2319   11.3101 H   0  0  0  0  0
   20.3721   -9.7777   13.0163 H   0  0  0  0  0
   18.8388   -6.6844   12.1372 H   0  0  0  0  0
   17.7497   -8.1608   13.7970 H   0  0  0  0  0
   19.3450   -8.7516   14.3235 H   0  0  0  0  0
   18.8904   -7.0517   14.5968 H   0  0  0  0  0
   21.0057   -6.8248   10.6997 H   0  0  0  0  0
   23.2068   -7.0608   12.6830 H   0  0  0  0  0
   24.9303   -5.5088   12.0952 H   0  0  0  0  0
   24.7232   -7.1026   10.7507 H   0  0  0  0  0
   23.3954   -6.6138    9.6622 H   0  0  0  0  0
   24.5170   -9.3670   12.0666 H   0  0  0  0  0
   21.9249   -8.2185    8.6642 H   0  0  0  0  0
   23.9700  -11.8389   11.6506 H   0  0  0  0  0
   21.4034  -10.6864    8.2361 H   0  0  0  0  0
   22.4040  -12.4981    9.7358 H   0  0  0  0  0
  1  6  1  0  0  0
  1  7  2  0  0  0
  8  1  1  0  0  0
  2  3  1  0  0  0
 10  2  1  0  0  0
  3  4  1  0  0  0
  3  5  1  0  0  0
  4 11  2  0  0  0
  4 12  1  0  0  0
  5 13  1  0  0  0
  9  8  1  0  0  0
  9 10  1  0  0  0
 13 14  2  0  0  0
 13 15  1  0  0  0
 15 16  1  0  0  0
 16 17  1  0  0  0
 16 19  1  0  0  0
 17 18  2  0  0  0
 17 24  1  0  0  0
 19 20  1  0  0  0
 20 21  1  0  0  0
 21 22  1  0  0  0
 22 23  1  0  0  0
 23 52  1  0  0  0
 23 61  1  0  0  0
 24 25  1  0  0  0
 25 26  1  0  0  0
 25 28  1  0  0  0
 26 27  2  0  0  0
 26 31  1  0  0  0
 28 29  1  0  0  0
 28 30  1  0  0  0
 31 32  1  0  0  0
 32 33  1  0  0  0
 32 34  1  0  0  0
 33 43  2  0  0  0
 33 44  1  0  0  0
 34 35  1  0  0  0
 35 36  1  0  0  0
 36 37  4  0  0  0
 36 41  4  0  0  0
 37 38  4  0  0  0
 38 39  4  0  0  0
 39 40  4  0  0  0
 39 42  1  0  0  0
 40 41  4  0  0  0
 44 45  1  0  0  0
 44 46  1  0  0  0
 46 47  1  0  0  0
 46 48  1  0  0  0
 48 49  2  0  0  0
 48 50  1  0  0  0
 50 51  1  0  0  0
 51 52  1  0  0  0
 51 54  1  0  0  0
 52 53  1  0  0  0
 52 61  1  0  0  0
 54 55  1  0  0  0
 55 56  4  0  0  0
 55 57  4  0  0  0
 56 58  4  0  0  0
 57 59  4  0  0  0
 58 60  4  0  0  0
 59 60  4  0  0  0
  2 62  1  0  0  0
  2 63  1  0  0  0
  3 64  1  0  0  0
  5 65  1  0  0  0
  6 66  1  0  0  0
  6 67  1  0  0  0
  7 68  1  0  0  0
  8 69  1  0  0  0
  9 70  1  0  0  0
  9 71  1  0  0  0
 10 72  1  0  0  0
 10 73  1  0  0  0
 12 74  1  0  0  0
 15 75  1  0  0  0
 16 76  1  0  0  0
 19 77  1  0  0  0
 19 78  1  0  0  0
 20 79  1  0  0  0
 20 80  1  0  0  0
 21 81  1  0  0  0
 21 82  1  0  0  0
 22 83  1  0  0  0
 22 84  1  0  0  0
 23 85  1  0  0  0
 24 86  1  0  0  0
 25 87  1  0  0  0
 28 88  1  0  0  0
 29 89  1  0  0  0
 29 90  1  0  0  0
 29 91  1  0  0  0
 30 92  1  0  0  0
 30 93  1  0  0  0
 30 94  1  0  0  0
 31 95  1  0  0  0
 32 96  1  0  0  0
 34 97  1  0  0  0
 34 98  1  0  0  0
 35 99  1  0  0  0
 35100  1  0  0  0
 37101  1  0  0  0
 38102  1  0  0  0
 40103  1  0  0  0
 41104  1  0  0  0
 42105  1  0  0  0
 45106  1  0  0  0
 45107  1  0  0  0
 45108  1  0  0  0
 46109  1  0  0  0
 47110  1  0  0  0
 47111  1  0  0  0
 47112  1  0  0  0
 50113  1  0  0  0
 51114  1  0  0  0
 53115  1  0  0  0
 54116  1  0  0  0
 54117  1  0  0  0
 56118  1  0  0  0
 57119  1  0  0  0
 58120  1  0  0  0
 59121  1  0  0  0
 60122  1  0  0  0
M  END
$$$$
