4m5l_ligand
  -I-interpret- 

 34 36  0  0  0  0  0  0  0  0999 V2000
   54.2080   11.3910   34.9340 O   0  0  0  0  0
   54.6960   12.3860   34.4330 C   0  0  0  0  0
   53.9430   13.6830   34.3740 C   0  0  0  0  0
   52.5510   13.8260   34.4770 C   0  0  0  0  0
   51.5830   12.6790   34.6590 C   0  0  0  0  0
   51.9730   15.1020   34.4070 C   0  0  0  0  0
   52.7580   16.2340   34.2370 C   0  0  0  0  0
   54.1340   16.0990   34.1370 C   0  0  0  0  0
   54.7170   14.8380   34.2040 C   0  0  0  0  0
   56.0870   12.3050   33.8830 C   0  0  0  0  0
   57.1240   10.8320   33.9790 S   0  0  0  0  0
   56.1330    9.5640   33.3560 C   0  0  0  0  0
   56.0830    8.2880   33.7950 N   0  0  0  0  0
   55.1400    7.6780   32.9970 C   0  0  0  0  0
   54.6200    6.3670   32.9280 C   0  0  0  0  0
   55.0530    5.3820   33.7820 O   0  0  0  0  0
   53.6710    6.1110   32.0290 N   0  0  0  0  0
   53.2290    7.0570   31.1840 C   0  0  0  0  0
   52.2300    6.7010   30.2560 N   0  0  0  0  0
   53.6880    8.3120   31.1770 N   0  0  0  0  0
   54.6300    8.6120   32.0980 C   0  0  0  0  0
   55.2790    9.7910   32.3490 N   0  0  0  0  0
   51.6703   11.9942   33.8155 H   0  0  0  0  0
   51.8172   12.1508   35.5832 H   0  0  0  0  0
   50.5660   13.0680   34.7091 H   0  0  0  0  0
   50.8910   15.2063   34.4873 H   0  0  0  0  0
   52.2967   17.2201   34.1826 H   0  0  0  0  0
   54.7596   16.9819   34.0057 H   0  0  0  0  0
   55.8001   14.7465   34.1224 H   0  0  0  0  0
   56.6308   13.0227   34.4973 H   0  0  0  0  0
   55.9287   12.4184   32.8105 H   0  0  0  0  0
   53.2704    5.1742   31.9811 H   0  0  0  0  0
   51.8736    7.3950   29.5989 H   0  0  0  0  0
   51.8633    5.7493   30.2414 H   0  0  0  0  0
  1  2  2  0  0  0
  2  3  1  0  0  0
  2 10  1  0  0  0
  3  4  4  0  0  0
  3  9  4  0  0  0
  4  5  1  0  0  0
  4  6  4  0  0  0
  6  7  4  0  0  0
  7  8  4  0  0  0
  8  9  4  0  0  0
 10 11  1  0  0  0
 11 12  1  0  0  0
 12 13  4  0  0  0
 12 22  4  0  0  0
 13 14  4  0  0  0
 14 15  1  0  0  0
 14 21  4  0  0  0
 15 16  2  0  0  0
 15 17  1  0  0  0
 17 18  1  0  0  0
 18 19  1  0  0  0
 18 20  2  0  0  0
 20 21  1  0  0  0
 21 22  4  0  0  0
  5 23  1  0  0  0
  5 24  1  0  0  0
  5 25  1  0  0  0
  6 26  1  0  0  0
  7 27  1  0  0  0
  8 28  1  0  0  0
  9 29  1  0  0  0
 10 30  1  0  0  0
 10 31  1  0  0  0
 17 32  1  0  0  0
 19 33  1  0  0  0
 19 34  1  0  0  0
M  END
$$$$
