5dtk_ligand
  -I-interpret- 

 33 35  0  0  0  0  0  0  0  0999 V2000
    7.6630   39.1950  147.4080 C   0  0  0  0  0
    5.7120   39.1090  142.8560 C   0  0  0  0  0
    6.6040   38.4990  143.8700 C   0  0  0  0  0
    6.8600   39.1610  145.0630 C   0  0  0  0  0
    7.5980   38.5620  146.0720 C   0  0  0  0  0
    8.1640   37.3140  145.8600 C   0  0  0  0  0
    8.8150   32.9870  144.9420 C   0  0  0  0  0
    4.1660   40.4730  140.9590 N   0  0  0  0  0
    7.1590   37.2320  143.6850 C   0  0  0  0  0
    7.9560   36.6330  144.6640 C   0  0  0  0  0
    8.5850   35.3110  144.4380 C   0  0  0  0  0
    7.0100   40.1910  147.6720 O   0  0  0  0  0
    8.3620   38.5470  148.2810 O   0  0  0  0  0
    8.1250   34.1710  145.0860 C   0  0  0  0  0
    9.9190   32.8580  144.2010 N   0  0  0  0  0
   10.3480   33.9540  143.5670 C   0  0  0  0  0
    9.7210   35.1800  143.6510 C   0  0  0  0  0
    4.5910   39.8460  143.2280 C   0  0  0  0  0
    3.8670   40.5110  142.2590 C   0  0  0  0  0
    5.2270   39.7410  140.6060 C   0  0  0  0  0
    6.0160   39.0540  141.5030 C   0  0  0  0  0
    6.4738   40.1698  145.2089 H   0  0  0  0  0
    8.7784   36.8614  146.6383 H   0  0  0  0  0
    8.4388   32.1060  145.4620 H   0  0  0  0  0
    6.9663   36.6971  142.7550 H   0  0  0  0  0
    8.7913   37.8011  147.8557 H   0  0  0  0  0
    7.2269   34.2130  145.7023 H   0  0  0  0  0
   11.2427   33.8746  142.9495 H   0  0  0  0  0
   10.1138   36.0375  143.1047 H   0  0  0  0  0
    4.2881   39.8974  144.2738 H   0  0  0  0  0
    3.0044   41.0990  142.5726 H   0  0  0  0  0
    5.4829   39.6841  139.5480 H   0  0  0  0  0
    6.8698   38.4735  141.1535 H   0  0  0  0  0
  5  1  1  0  0  0
  1 12  2  0  0  0
  1 13  1  0  0  0
  2  3  1  0  0  0
 18  2  4  0  0  0
  2 21  4  0  0  0
  3  4  4  0  0  0
  3  9  4  0  0  0
  4  5  4  0  0  0
  5  6  4  0  0  0
 10  6  4  0  0  0
 14  7  4  0  0  0
  7 15  4  0  0  0
 19  8  4  0  0  0
  8 20  4  0  0  0
  9 10  4  0  0  0
 10 11  1  0  0  0
 11 14  4  0  0  0
 11 17  4  0  0  0
 16 15  4  0  0  0
 17 16  4  0  0  0
 18 19  4  0  0  0
 20 21  4  0  0  0
  4 22  1  0  0  0
  6 23  1  0  0  0
  7 24  1  0  0  0
  9 25  1  0  0  0
 13 26  1  0  0  0
 14 27  1  0  0  0
 16 28  1  0  0  0
 17 29  1  0  0  0
 18 30  1  0  0  0
 19 31  1  0  0  0
 20 32  1  0  0  0
 21 33  1  0  0  0
M  END
$$$$
