6fnr_ligand
  -I-interpret- 

 17 17  0  0  0  0  0  0  0  0999 V2000
    7.5300   15.7470   13.3260 O   0  0  0  0  0
    7.3130   15.9960   14.5350 C   0  0  0  0  0
    6.1470   16.2420   14.9330 O   0  0  0  0  0
    8.4620   16.0400   15.5190 C   0  0  0  0  0
    8.3800   17.5560   16.3820 Cl  0  0  0  0  0
    8.3700   14.9220   16.5340 C   0  0  0  0  0
    8.2350   13.5630   15.8900 C   0  0  0  0  0
    9.0160   13.0470   14.8700 C   0  0  0  0  0
    8.5620   11.7720   14.6020 N   0  0  0  0  0
    7.5170   11.5000   15.4470 C   0  0  0  0  0
    7.3190   12.6090   16.2480 N   0  0  0  0  0
    6.1613   16.4091   15.8782 H   0  0  0  0  0
    9.3946   15.9324   14.9651 H   0  0  0  0  0
    7.4827   15.0942   17.1432 H   0  0  0  0  0
    9.2885   14.9254   17.1210 H   0  0  0  0  0
    9.8400   13.5557   14.3695 H   0  0  0  0  0
    6.9439   10.5734   15.4811 H   0  0  0  0  0
  1  2  2  0  0  0
  2  3  1  0  0  0
  2  4  1  0  0  0
  4  5  1  0  0  0
  4  6  1  0  0  0
  6  7  1  0  0  0
  7  8  4  0  0  0
  7 11  4  0  0  0
  8  9  4  0  0  0
  9 10  4  0  0  0
 10 11  4  0  0  0
  3 12  1  0  0  0
  4 13  1  0  0  0
  6 14  1  0  0  0
  6 15  1  0  0  0
  8 16  1  0  0  0
 10 17  1  0  0  0
M  END
$$$$
