3u6j_ligand
  -I-interpret- 

 65 69  0  0  0  0  0  0  0  0999 V2000
    8.7040   -5.3390   21.7270 N   0  0  0  0  0
    4.7040   -0.1390   11.1590 N   0  3  0  0  0
    7.9670   -8.4990   20.0460 C   0  0  0  0  0
    8.2380   -7.1400   20.2290 C   0  0  0  0  0
    8.4370   -6.6410   21.5230 C   0  0  0  0  0
    8.7830   -4.4850   20.7170 C   0  0  0  0  0
    8.5960   -4.9180   19.4070 C   0  0  0  0  0
    7.7050   -5.7920   16.9630 C   0  0  0  0  0
    8.6170   -5.1250   16.1360 C   0  0  0  0  0
    6.7990   -3.8860   15.1380 C   0  0  0  0  0
    6.3430   -5.5110   16.8720 C   0  0  0  0  0
    5.7480   -0.9840   11.2170 C   0  0  0  0  0
    4.6560   -0.9750   13.1010 C   0  0  0  0  0
    6.7600   -1.2750   10.1050 C   0  0  0  0  0
    2.9630    0.5680   12.5450 C   0  0  0  0  0
    1.7710    2.2650   13.7950 C   0  0  0  0  0
    0.5730    0.9050   12.2130 C   0  0  0  0  0
    8.6620   -9.3220   24.7240 C   0  0  0  0  0
    7.9970   -9.7220   23.5030 O   0  0  0  0  0
    8.0880   -8.8570   22.4410 C   0  0  0  0  0
    8.3570   -7.4960   22.6170 C   0  0  0  0  0
    7.8850   -9.3560   21.1530 C   0  0  0  0  0
    7.6210  -10.6950   21.0240 O   0  0  0  0  0
    7.1340  -11.1160   19.7370 C   0  0  0  0  0
    8.3200   -6.2640   19.1450 C   0  0  0  0  0
    8.1400   -6.7250   17.8600 O   0  0  0  0  0
    8.1670   -4.1640   15.2240 C   0  0  0  0  0
    9.9350   -5.4020   16.2350 F   0  0  0  0  0
    5.8980   -4.5610   15.9610 C   0  0  0  0  0
    6.2690   -2.9880   14.3090 N   0  0  0  0  0
    6.7000   -2.5790   13.1130 C   0  0  0  0  0
    7.7170   -2.9820   12.5480 O   0  0  0  0  0
    5.7570   -1.5400   12.4820 C   0  0  0  0  0
    4.3030   -1.2040   14.2560 O   0  0  0  0  0
    4.3580    0.6650    9.9540 C   0  0  0  0  0
    4.0800   -0.1270   12.2420 N   0  0  0  0  0
    2.9570    1.5890   13.4950 C   0  0  0  0  0
    0.5780    1.9290   13.1570 C   0  0  0  0  0
    1.7590    0.2280   11.9190 C   0  0  0  0  0
    7.8191   -8.8935   19.0407 H   0  0  0  0  0
    8.9963   -3.4343   20.9134 H   0  0  0  0  0
    8.6648   -4.2067   18.5840 H   0  0  0  0  0
    5.6314   -6.0332   17.5115 H   0  0  0  0  0
    6.2376   -1.6730    9.2351 H   0  0  0  0  0
    7.2730   -0.3528    9.8319 H   0  0  0  0  0
    7.4872   -2.0055   10.4594 H   0  0  0  0  0
    1.7790    3.0641   14.5363 H   0  0  0  0  0
   -0.3526    0.6330   11.7057 H   0  0  0  0  0
    9.7278   -9.1982   24.5320 H   0  0  0  0  0
    8.2423   -8.3783   25.0725 H   0  0  0  0  0
    8.5152  -10.0892   25.4843 H   0  0  0  0  0
    8.5055   -7.1012   23.6221 H   0  0  0  0  0
    6.2007  -10.5981   19.5159 H   0  0  0  0  0
    7.8740  -10.8758   18.9736 H   0  0  0  0  0
    6.9597  -12.1919   19.7501 H   0  0  0  0  0
    8.8764   -3.6367   14.5862 H   0  0  0  0  0
    4.8329   -4.3409   15.8888 H   0  0  0  0  0
    5.4083   -2.5486   14.6354 H   0  0  0  0  0
    6.6173   -2.1553   12.7454 H   0  0  0  0  0
    5.1933    1.3187    9.7028 H   0  0  0  0  0
    4.1548   -0.0045    9.1182 H   0  0  0  0  0
    3.4736    1.2671   10.1622 H   0  0  0  0  0
    3.8809    1.8609   14.0056 H   0  0  0  0  0
   -0.3422    2.4626   13.3947 H   0  0  0  0  0
    1.7461   -0.5805   11.1880 H   0  0  0  0  0
  5  1  4  0  0  0
  6  1  4  0  0  0
 12  2  2  0  0  0
  2 35  1  0  0  0
 36  2  1  0  0  0
  4  3  4  0  0  0
  3 22  4  0  0  0
  4  5  4  0  0  0
 25  4  4  0  0  0
  5 21  4  0  0  0
  7  6  4  0  0  0
 25  7  4  0  0  0
  9  8  4  0  0  0
 11  8  4  0  0  0
  8 26  1  0  0  0
 27  9  4  0  0  0
  9 28  1  0  0  0
 10 27  4  0  0  0
 10 29  4  0  0  0
 30 10  1  0  0  0
 29 11  4  0  0  0
 12 14  1  0  0  0
 33 12  1  0  0  0
 33 13  1  0  0  0
 13 34  2  0  0  0
 13 36  1  0  0  0
 36 15  1  0  0  0
 15 37  4  0  0  0
 15 39  4  0  0  0
 37 16  4  0  0  0
 16 38  4  0  0  0
 17 38  4  0  0  0
 39 17  4  0  0  0
 19 18  1  0  0  0
 20 19  1  0  0  0
 21 20  4  0  0  0
 22 20  4  0  0  0
 22 23  1  0  0  0
 23 24  1  0  0  0
 26 25  1  0  0  0
 31 30  1  0  0  0
 31 32  2  0  0  0
 31 33  1  0  0  0
  3 40  1  0  0  0
  6 41  1  0  0  0
  7 42  1  0  0  0
 11 43  1  0  0  0
 14 44  1  0  0  0
 14 45  1  0  0  0
 14 46  1  0  0  0
 16 47  1  0  0  0
 17 48  1  0  0  0
 18 49  1  0  0  0
 18 50  1  0  0  0
 18 51  1  0  0  0
 21 52  1  0  0  0
 24 53  1  0  0  0
 24 54  1  0  0  0
 24 55  1  0  0  0
 27 56  1  0  0  0
 29 57  1  0  0  0
 30 58  1  0  0  0
 33 59  1  0  0  0
 35 60  1  0  0  0
 35 61  1  0  0  0
 35 62  1  0  0  0
 37 63  1  0  0  0
 38 64  1  0  0  0
 39 65  1  0  0  0
M  END
$$$$
