4y4g_ligand
  -I-interpret- 

 25 24  0  0  0  0  0  0  0  0999 V2000
   -4.9180    2.6540   11.4810 N   0  3  0  0  0
   -3.6570    3.1500   10.8980 C   0  0  0  0  0
   -2.5690    2.0910   10.9040 C   0  0  0  0  0
   -1.5230    2.7350   10.0290 C   0  0  0  0  0
   -3.9310    3.5280    9.4270 C   0  0  0  0  0
   -0.4560    3.1040   10.9080 O   0  0  0  0  0
    0.6340    3.8490   10.4160 N   0  0  0  0  0
    0.7660    4.5920    9.3190 C   0  0  0  0  0
   -0.3010    5.0490    8.6540 N   0  0  0  0  0
    1.9770    4.8340    8.8150 N   0  0  0  0  0
   -4.6630    2.8610    8.7250 O   0  0  0  0  0
   -3.2910    4.6050    9.0140 O   0  0  0  0  0
   -4.7626    2.3969   12.4558 H   0  0  0  0  0
   -5.6260    3.3865   11.4301 H   0  0  0  0  0
   -5.2343    1.8368   10.9589 H   0  0  0  0  0
   -3.3176    3.9977   11.4933 H   0  0  0  0  0
   -2.9030    1.1182   10.5431 H   0  0  0  0  0
   -2.2099    1.8381   11.9016 H   0  0  0  0  0
   -1.9233    3.6023    9.5040 H   0  0  0  0  0
   -1.1796    2.0520    9.2520 H   0  0  0  0  0
    1.4676    3.8128   11.0027 H   0  0  0  0  0
   -0.1764    5.5679    7.7847 H   0  0  0  0  0
   -1.2392    4.8786    9.0162 H   0  0  0  0  0
    2.0718    5.3557    7.9436 H   0  0  0  0  0
   -2.7742    4.9661    9.7380 H   0  0  0  0  0
  1  2  1  0  0  0
  2  3  1  0  0  0
  2  5  1  0  0  0
  3  4  1  0  0  0
  4  6  1  0  0  0
  5 11  2  0  0  0
  5 12  1  0  0  0
  6  7  1  0  0  0
  7  8  1  0  0  0
  8  9  1  0  0  0
  8 10  2  0  0  0
  1 13  1  0  0  0
  1 14  1  0  0  0
  1 15  1  0  0  0
  2 16  1  0  0  0
  3 17  1  0  0  0
  3 18  1  0  0  0
  4 19  1  0  0  0
  4 20  1  0  0  0
  7 21  1  0  0  0
  9 22  1  0  0  0
  9 23  1  0  0  0
 10 24  1  0  0  0
 12 25  1  0  0  0
M  END
$$$$
