2wey_ligand
  -I-interpret- 

 46 48  0  0  0  0  0  0  0  0999 V2000
  -10.8550  -28.8440   35.4010 C   0  0  0  0  0
   -9.4850  -28.4850   35.2120 O   0  0  0  0  0
   -8.4470  -29.3780   35.0680 C   0  0  0  0  0
   -8.3790  -30.6490   35.8540 C   0  0  0  0  0
   -9.3750  -30.9920   36.7430 O   0  0  0  0  0
   -9.1380  -31.8070   37.8950 C   0  0  0  0  0
   -7.2830  -31.4880   35.6520 C   0  0  0  0  0
   -6.2830  -31.1370   34.7440 C   0  0  0  0  0
   -7.4120  -29.0700   34.1770 C   0  0  0  0  0
   -6.3330  -29.9430   34.0200 C   0  0  0  0  0
   -5.2030  -29.6460   33.0510 C   0  0  0  0  0
   -4.3500  -28.4280   33.3700 C   0  0  0  0  0
   -4.0100  -27.6120   32.3380 N   0  0  0  0  0
   -3.2490  -26.5100   32.4930 C   0  0  0  0  0
   -2.7390  -26.1070   33.7300 C   0  0  0  0  0
   -3.0040  -26.8550   34.8720 C   0  0  0  0  0
   -3.8380  -28.0840   34.7390 C   0  0  0  0  0
   -4.1120  -28.8400   35.8720 C   0  0  0  0  0
   -3.6140  -28.4630   37.1170 C   0  0  0  0  0
   -3.9060  -29.2310   38.2190 O   0  0  0  0  0
   -3.7490  -30.6510   38.2070 C   0  0  0  0  0
   -2.7840  -27.2240   37.2500 C   0  0  0  0  0
   -2.5060  -26.4630   36.1120 C   0  0  0  0  0
   -2.2870  -26.8590   38.4860 O   0  0  0  0  0
   -2.1940  -25.4990   38.9180 C   0  0  0  0  0
  -11.1961  -29.4319   34.5489 H   0  0  0  0  0
  -10.9524  -29.4331   36.3129 H   0  0  0  0  0
  -11.4580  -27.9398   35.4849 H   0  0  0  0  0
   -8.7583  -32.7787   37.5792 H   0  0  0  0  0
   -8.4046  -31.3204   38.5381 H   0  0  0  0  0
  -10.0712  -31.9405   38.4422 H   0  0  0  0  0
   -7.2072  -32.4233   36.2066 H   0  0  0  0  0
   -5.4404  -31.8124   34.5956 H   0  0  0  0  0
   -7.4484  -28.1442   33.6029 H   0  0  0  0  0
   -5.6720  -29.4461   32.0876 H   0  0  0  0  0
   -4.5339  -30.5056   33.0900 H   0  0  0  0  0
   -3.0214  -25.9065   31.6143 H   0  0  0  0  0
   -2.1321  -25.2043   33.7999 H   0  0  0  0  0
   -4.7235  -29.7382   35.7857 H   0  0  0  0  0
   -4.3846  -31.0790   37.4318 H   0  0  0  0  0
   -2.7074  -30.8984   38.0022 H   0  0  0  0  0
   -4.0356  -31.0552   39.1779 H   0  0  0  0  0
   -1.8988  -25.5616   36.1947 H   0  0  0  0  0
   -1.5503  -24.9452   38.2345 H   0  0  0  0  0
   -3.1883  -25.0525   38.9248 H   0  0  0  0  0
   -1.7727  -25.4663   39.9228 H   0  0  0  0  0
  1  2  1  0  0  0
  2  3  1  0  0  0
  3  4  4  0  0  0
  3  9  4  0  0  0
  4  5  1  0  0  0
  4  7  4  0  0  0
  5  6  1  0  0  0
  7  8  4  0  0  0
  8 10  4  0  0  0
  9 10  4  0  0  0
 10 11  1  0  0  0
 11 12  1  0  0  0
 12 13  4  0  0  0
 12 17  4  0  0  0
 13 14  4  0  0  0
 14 15  4  0  0  0
 15 16  4  0  0  0
 16 17  4  0  0  0
 16 23  4  0  0  0
 17 18  4  0  0  0
 18 19  4  0  0  0
 19 20  1  0  0  0
 19 22  4  0  0  0
 20 21  1  0  0  0
 22 23  4  0  0  0
 22 24  1  0  0  0
 24 25  1  0  0  0
  1 26  1  0  0  0
  1 27  1  0  0  0
  1 28  1  0  0  0
  6 29  1  0  0  0
  6 30  1  0  0  0
  6 31  1  0  0  0
  7 32  1  0  0  0
  8 33  1  0  0  0
  9 34  1  0  0  0
 11 35  1  0  0  0
 11 36  1  0  0  0
 14 37  1  0  0  0
 15 38  1  0  0  0
 18 39  1  0  0  0
 21 40  1  0  0  0
 21 41  1  0  0  0
 21 42  1  0  0  0
 23 43  1  0  0  0
 25 44  1  0  0  0
 25 45  1  0  0  0
 25 46  1  0  0  0
M  END
$$$$
