4n70_ligand
  -I-interpret- 

 56 59  0  0  0  0  0  0  0  0999 V2000
  -18.9280   37.0040   -4.8710 C   0  0  0  0  0
  -18.3960   35.7790   -4.1200 C   0  0  0  0  0
  -16.9570   35.9070   -3.7820 N   0  0  0  0  0
  -16.0240   36.2020   -4.8740 C   0  0  0  0  0
  -16.4900   37.4920   -5.5700 C   0  0  0  0  0
  -17.9850   37.3370   -6.0680 C   0  0  0  0  0
  -16.5040   35.1370   -2.7190 C   0  0  0  0  0
  -15.5390   34.1490   -2.9500 C   0  0  0  0  0
  -15.0920   33.3670   -1.8910 C   0  0  0  0  0
  -15.5810   33.4920   -0.6480 N   0  0  0  0  0
  -16.5070   34.4520   -0.4270 C   0  0  0  0  0
  -17.0230   35.2730   -1.4350 C   0  0  0  0  0
  -17.9840   36.2680   -1.2130 N   0  0  0  0  0
  -20.3760   36.7320   -5.2990 C   0  0  0  0  0
  -18.3790   36.7390    0.0190 C   0  0  0  0  0
  -19.3030   37.9030   -0.0040 C   0  0  0  0  0
  -18.0220   36.3280    1.1060 O   0  0  0  0  0
  -19.7720   38.4960    1.2040 C   0  0  0  0  0
  -20.5960   39.6200    1.0390 C   0  0  0  0  0
  -20.9000   40.0940   -0.2680 C   0  0  0  0  0
  -20.3980   39.4380   -1.3920 C   0  0  0  0  0
  -19.5950   38.3340   -1.2670 N   0  0  0  0  0
  -20.7370   39.8740   -2.7570 C   0  0  0  0  0
  -21.7040   41.1730   -0.4340 F   0  0  0  0  0
  -15.6420   37.8590   -6.7170 N   0  3  0  0  0
  -22.1080   40.0160   -3.1920 C   0  0  0  0  0
  -22.4820   40.4490   -4.5010 C   0  0  0  0  0
  -21.4930   40.8040   -5.4680 C   0  0  0  0  0
  -20.2390   40.5610   -4.9410 C   0  0  0  0  0
  -19.7390   40.2170   -3.7000 C   0  0  0  0  0
  -18.4530   40.0890   -3.4400 F   0  0  0  0  0
  -23.0650   39.6880   -2.2890 F   0  0  0  0  0
  -18.3500   38.5910   -6.6960 O   0  0  0  0  0
  -18.9372   37.8849   -4.2291 H   0  0  0  0  0
  -18.5158   34.9085   -4.7650 H   0  0  0  0  0
  -18.9549   35.6840   -3.1890 H   0  0  0  0  0
  -16.0083   35.3770   -5.5862 H   0  0  0  0  0
  -15.0159   36.3321   -4.4803 H   0  0  0  0  0
  -16.4142   38.2874   -4.8286 H   0  0  0  0  0
  -18.0811   36.5159   -6.7784 H   0  0  0  0  0
  -15.1411   33.9941   -3.9529 H   0  0  0  0  0
  -14.3156   32.6250   -2.0775 H   0  0  0  0  0
  -16.8707   34.5937    0.5907 H   0  0  0  0  0
  -18.4289   36.6784   -2.0340 H   0  0  0  0  0
  -20.7772   37.6133   -5.7994 H   0  0  0  0  0
  -20.3982   35.8830   -5.9822 H   0  0  0  0  0
  -20.9777   36.5072   -4.4184 H   0  0  0  0  0
  -19.5093   38.1043    2.1867 H   0  0  0  0  0
  -21.0032   40.1300    1.9120 H   0  0  0  0  0
  -14.6762   37.9611   -6.4053 H   0  0  0  0  0
  -15.6962   37.1278   -7.4261 H   0  0  0  0  0
  -15.9684   38.7413   -7.1111 H   0  0  0  0  0
  -23.5377   40.5093   -4.7655 H   0  0  0  0  0
  -21.6949   41.2026   -6.4622 H   0  0  0  0  0
  -19.4515   40.6666   -5.6872 H   0  0  0  0  0
  -19.2545   38.5374   -7.0131 H   0  0  0  0  0
  1  2  1  0  0  0
  1  6  1  0  0  0
  1 14  1  0  0  0
  2  3  1  0  0  0
  3  4  1  0  0  0
  3  7  1  0  0  0
  4  5  1  0  0  0
  5  6  1  0  0  0
  5 25  1  0  0  0
  6 33  1  0  0  0
  7  8  4  0  0  0
  7 12  4  0  0  0
  8  9  4  0  0  0
  9 10  4  0  0  0
 10 11  4  0  0  0
 11 12  4  0  0  0
 12 13  1  0  0  0
 13 15  1  0  0  0
 15 16  1  0  0  0
 15 17  2  0  0  0
 16 18  4  0  0  0
 16 22  4  0  0  0
 18 19  4  0  0  0
 19 20  4  0  0  0
 20 21  4  0  0  0
 20 24  1  0  0  0
 21 22  4  0  0  0
 21 23  1  0  0  0
 23 26  4  0  0  0
 23 30  4  0  0  0
 26 27  4  0  0  0
 26 32  1  0  0  0
 27 28  4  0  0  0
 28 29  4  0  0  0
 29 30  4  0  0  0
 30 31  1  0  0  0
  1 34  1  0  0  0
  2 35  1  0  0  0
  2 36  1  0  0  0
  4 37  1  0  0  0
  4 38  1  0  0  0
  5 39  1  0  0  0
  6 40  1  0  0  0
  8 41  1  0  0  0
  9 42  1  0  0  0
 11 43  1  0  0  0
 13 44  1  0  0  0
 14 45  1  0  0  0
 14 46  1  0  0  0
 14 47  1  0  0  0
 18 48  1  0  0  0
 19 49  1  0  0  0
 25 50  1  0  0  0
 25 51  1  0  0  0
 25 52  1  0  0  0
 27 53  1  0  0  0
 28 54  1  0  0  0
 29 55  1  0  0  0
 33 56  1  0  0  0
M  END
$$$$
