5vds_ligand
  -I-interpret- 

 66 70  0  0  0  0  0  0  0  0999 V2000
  -23.3830    3.0540   27.6090 C   0  0  0  0  0
  -21.3790    1.6380   24.5500 C   0  0  0  0  0
  -27.5060   -1.5240   25.3700 C   0  0  0  0  0
  -28.7250   -1.2350   25.6270 C   0  0  0  0  0
  -24.2460   -2.4460   26.3010 O   0  0  0  0  0
  -25.3760   -1.7550   27.0360 P   0  0  0  0  0
  -25.1950   -0.0910   27.1540 O   0  0  0  0  0
  -25.5540    0.5490   28.3820 C   0  0  0  0  0
  -25.1710    1.8800   28.3400 C   0  0  0  0  0
  -25.5780    2.5680   26.9340 C   0  0  0  0  0
  -26.9950    3.0580   26.9740 O   0  0  0  0  0
  -24.7900    3.5210   26.8300 C   0  0  0  0  0
  -25.3500    4.7200   27.4820 O   0  0  0  0  0
  -22.4470    2.9640   26.4610 N   0  0  0  0  0
  -22.3280    1.7230   25.7090 C   0  0  0  0  0
  -20.5550    2.8290   24.1750 C   0  0  0  0  0
  -20.6780    4.0640   24.9330 N   0  0  0  0  0
  -21.6230    4.1450   26.0830 C   0  0  0  0  0
  -21.7190    5.1550   26.6970 O   0  0  0  0  0
  -19.8010    2.7650   23.2580 O   0  0  0  0  0
  -23.6730    2.0150   28.3770 O   0  0  0  0  0
  -26.8920   -2.2430   26.5280 O   0  0  0  0  0
  -28.8220    0.1750   26.1640 C   0  0  0  0  0
  -28.0420    1.0400   25.3330 O   0  0  0  0  0
  -27.9830    2.6830   25.6800 P   0  0  0  0  0
  -27.7510    3.5530   24.4620 O   0  0  0  0  0
  -29.3770    3.0440   26.1370 O   0  0  0  0  0
  -29.5700   -1.3740   24.1940 O   0  0  0  0  0
  -28.7930   -1.9310   23.3140 C   0  0  0  0  0
  -28.1260   -1.1610   22.2210 N   0  0  0  0  0
  -27.7470   -1.8340   20.9470 C   0  0  0  0  0
  -27.0920   -1.0540   19.8540 N   0  0  0  0  0
  -26.8220    0.3660   20.0250 C   0  0  0  0  0
  -27.2030    1.0480   21.3000 C   0  0  0  0  0
  -27.8600    0.2600   22.3930 C   0  0  0  0  0
  -26.2990    0.9870   19.1560 O   0  0  0  0  0
  -27.9640   -2.9920   20.7970 O   0  0  0  0  0
  -27.5760   -2.4680   24.1140 C   0  0  0  0  0
  -27.7980   -3.7260   24.4970 O   0  0  0  0  0
  -25.2780   -2.2530   28.4560 O   0  0  0  0  0
  -22.9009    3.6914   28.3503 H   0  0  0  0  0
  -22.0182    1.4633   23.6845 H   0  0  0  0  0
  -20.6508    0.8832   24.8467 H   0  0  0  0  0
  -26.8980   -0.6381   25.1867 H   0  0  0  0  0
  -29.1360   -1.9042   26.3829 H   0  0  0  0  0
  -24.2492   -2.1718   25.3810 H   0  0  0  0  0
  -25.0496    0.0524   29.2109 H   0  0  0  0  0
  -26.6332    0.4863   28.5218 H   0  0  0  0  0
  -25.6614    2.3471   29.1941 H   0  0  0  0  0
  -25.5179    1.8759   26.0941 H   0  0  0  0  0
  -24.6059    3.7680   25.7844 H   0  0  0  0  0
  -24.7314    5.4489   27.3944 H   0  0  0  0  0
  -21.9431    1.0023   26.4305 H   0  0  0  0  0
  -23.3133    1.5763   25.2665 H   0  0  0  0  0
  -20.1166    4.8763   24.6773 H   0  0  0  0  0
  -28.4458    0.2074   27.1865 H   0  0  0  0  0
  -29.8624    0.5002   26.1617 H   0  0  0  0  0
  -26.8753    3.3801   24.1088 H   0  0  0  0  0
  -29.4929   -2.5928   22.8038 H   0  0  0  0  0
  -26.8328   -1.5188   18.9838 H   0  0  0  0  0
  -27.9487    1.7866   21.0058 H   0  0  0  0  0
  -26.2574    1.3795   21.7289 H   0  0  0  0  0
  -27.1499    0.3024   23.2189 H   0  0  0  0  0
  -28.8486    0.7085   22.4906 H   0  0  0  0  0
  -26.6536   -2.4709   23.5333 H   0  0  0  0  0
  -27.0399   -4.0476   24.9903 H   0  0  0  0  0
  1 12  1  0  0  0
 14  1  1  0  0  0
  1 21  1  0  0  0
 15  2  1  0  0  0
  2 16  1  0  0  0
  3  4  1  0  0  0
 22  3  1  0  0  0
  3 38  1  0  0  0
  4 23  1  0  0  0
  4 28  1  0  0  0
  6  5  1  0  0  0
  7  6  1  0  0  0
  6 22  1  0  0  0
  6 40  2  0  0  0
  8  7  1  0  0  0
  9  8  1  0  0  0
  9 10  1  0  0  0
 21  9  1  0  0  0
 10 11  1  0  0  0
 12 10  1  0  0  0
 11 25  1  0  0  0
 12 13  1  0  0  0
 14 15  1  0  0  0
 14 18  1  0  0  0
 16 17  1  0  0  0
 16 20  2  0  0  0
 17 18  1  0  0  0
 18 19  2  0  0  0
 23 24  1  0  0  0
 24 25  1  0  0  0
 25 26  1  0  0  0
 25 27  2  0  0  0
 28 29  1  0  0  0
 29 30  1  0  0  0
 29 38  1  0  0  0
 30 31  1  0  0  0
 30 35  1  0  0  0
 31 32  1  0  0  0
 31 37  2  0  0  0
 32 33  1  0  0  0
 33 34  1  0  0  0
 33 36  2  0  0  0
 34 35  1  0  0  0
 38 39  1  0  0  0
  1 41  1  0  0  0
  2 42  1  0  0  0
  2 43  1  0  0  0
  3 44  1  0  0  0
  4 45  1  0  0  0
  5 46  1  0  0  0
  8 47  1  0  0  0
  8 48  1  0  0  0
  9 49  1  0  0  0
 10 50  1  0  0  0
 12 51  1  0  0  0
 13 52  1  0  0  0
 15 53  1  0  0  0
 15 54  1  0  0  0
 17 55  1  0  0  0
 23 56  1  0  0  0
 23 57  1  0  0  0
 26 58  1  0  0  0
 29 59  1  0  0  0
 32 60  1  0  0  0
 34 61  1  0  0  0
 34 62  1  0  0  0
 35 63  1  0  0  0
 35 64  1  0  0  0
 38 65  1  0  0  0
 39 66  1  0  0  0
M  END
$$$$
