### 
### Created by X-TOOL on Mon Sep 10 21:13:33 2018
### 

@<TRIPOS>MOLECULE
5vds_ligand
   64    68     1     0     0
SMALL
GAST_HUCK


@<TRIPOS>ATOM
      1 C10       -23.3830    3.0540   27.6090 C.3       1 9BJ         0.1755
      2 C13       -21.3790    1.6380   24.5500 C.3       1 9BJ         0.0625
      3 C21       -27.5060   -1.5240   25.3700 C.3       1 9BJ         0.1532
      4 C22       -28.7250   -1.2350   25.6270 C.3       1 9BJ         0.1235
      5 O01       -24.2460   -2.4460   26.3010 O.co2     1 9BJ        -0.6177
      6 P02       -25.3760   -1.7550   27.0360 P.3       1 9BJ         0.2557
      7 O03       -25.1950   -0.0910   27.1540 O.3       1 9BJ        -0.2514
      8 C04       -25.5540    0.5490   28.3820 C.3       1 9BJ         0.1128
      9 C05       -25.1710    1.8800   28.3400 C.3       1 9BJ         0.1235
     10 C06       -25.5780    2.5680   26.9340 C.3       1 9BJ         0.1532
     11 O07       -26.9950    3.0580   26.9740 O.3       1 9BJ        -0.2453
     12 C08       -24.7900    3.5210   26.8300 C.3       1 9BJ         0.1361
     13 O09       -25.3500    4.7200   27.4820 O.3       1 9BJ        -0.3840
     14 N11       -22.4470    2.9640   26.4610 N.am      1 9BJ        -0.2233
     15 C12       -22.3280    1.7230   25.7090 C.3       1 9BJ         0.0545
     16 C14       -20.5550    2.8290   24.1750 C.2       1 9BJ         0.2063
     17 N15       -20.6780    4.0640   24.9330 N.am      1 9BJ        -0.1851
     18 C16       -21.6230    4.1450   26.0830 C.2       1 9BJ         0.2924
     19 O17       -21.7190    5.1550   26.6970 O.2       1 9BJ        -0.3913
     20 O18       -19.8010    2.7650   23.2580 O.2       1 9BJ        -0.3868
     21 O19       -23.6730    2.0150   28.3770 O.3       1 9BJ        -0.3428
     22 O20       -26.8920   -2.2430   26.5280 O.3       1 9BJ        -0.2453
     23 C23       -28.8220    0.1750   26.1640 C.3       1 9BJ         0.1128
     24 O24       -28.0420    1.0400   25.3330 O.3       1 9BJ        -0.2514
     25 P25       -27.9830    2.6830   25.6800 P.3       1 9BJ         0.2557
     26 O26       -27.7510    3.5530   24.4620 O.co2     1 9BJ        -0.6177
     27 O27       -29.3770    3.0440   26.1370 O.co2     1 9BJ        -0.6177
     28 O28       -29.5700   -1.3740   24.1940 O.3       1 9BJ        -0.3428
     29 C29       -28.7930   -1.9310   23.3140 C.3       1 9BJ         0.1755
     30 N30       -28.1260   -1.1610   22.2210 N.am      1 9BJ        -0.2233
     31 C31       -27.7470   -1.8340   20.9470 C.2       1 9BJ         0.2924
     32 N32       -27.0920   -1.0540   19.8540 N.am      1 9BJ        -0.1851
     33 C33       -26.8220    0.3660   20.0250 C.2       1 9BJ         0.2063
     34 C34       -27.2030    1.0480   21.3000 C.3       1 9BJ         0.0625
     35 C35       -27.8600    0.2600   22.3930 C.3       1 9BJ         0.0545
     36 O36       -26.2990    0.9870   19.1560 O.2       1 9BJ        -0.3868
     37 O37       -27.9640   -2.9920   20.7970 O.2       1 9BJ        -0.3913
     38 C38       -27.5760   -2.4680   24.1140 C.3       1 9BJ         0.1361
     39 O39       -27.7980   -3.7260   24.4970 O.3       1 9BJ        -0.3840
     40 O40       -25.2780   -2.2530   28.4560 O.co2     1 9BJ        -0.6177
     41 H1        -23.0204    3.8479   28.2784 H         1 9BJ         0.0895
     42 H2        -21.9784    1.3744   23.6662 H         1 9BJ         0.0527
     43 H3        -20.6761    0.8219   24.7731 H         1 9BJ         0.0527
     44 H4        -26.9264   -0.6164   25.1458 H         1 9BJ         0.0712
     45 H5        -29.1299   -1.9367   26.3711 H         1 9BJ         0.0655
     46 H6        -25.0455    0.0477   29.2187 H         1 9BJ         0.0647
     47 H7        -26.6430    0.4855   28.5236 H         1 9BJ         0.0647
     48 H8        -25.6317    2.4159   29.1829 H         1 9BJ         0.0655
     49 H9        -25.4544    1.8617   26.0998 H         1 9BJ         0.0712
     50 H10       -24.5885    3.7367   25.7704 H         1 9BJ         0.0672
     51 H11       -26.1728    4.9499   27.0665 H         1 9BJ         0.2101
     52 H12       -22.0254    0.9451   26.4254 H         1 9BJ         0.0546
     53 H13       -23.3295    1.4914   25.3175 H         1 9BJ         0.0546
     54 H14       -20.1276    4.8604   24.6823 H         1 9BJ         0.2254
     55 H15       -28.4367    0.2056   27.1939 H         1 9BJ         0.0647
     56 H16       -29.8721    0.5024   26.1554 H         1 9BJ         0.0647
     57 H17       -29.3626   -2.7497   22.8500 H         1 9BJ         0.0895
     58 H18       -26.8379   -1.5097   19.0009 H         1 9BJ         0.2254
     59 H19       -27.8936    1.8616   21.0333 H         1 9BJ         0.0527
     60 H20       -26.2809    1.4735   21.7228 H         1 9BJ         0.0527
     61 H21       -27.2172    0.3553   23.2805 H         1 9BJ         0.0546
     62 H22       -28.8297    0.7408   22.5892 H         1 9BJ         0.0546
     63 H23       -26.6516   -2.4123   23.5204 H         1 9BJ         0.0672
     64 H24       -27.0478   -4.0443   24.9852 H         1 9BJ         0.2101
@<TRIPOS>BOND
     1    1   12 1  
     2   14    1 1  
     3    1   21 1  
     4   15    2 1  
     5    2   16 1  
     6    3    4 1  
     7   22    3 1  
     8    3   38 1  
     9    4   23 1  
    10    4   28 1  
    11    6    5 ar 
    12    7    6 1  
    13    6   22 1  
    14    6   40 ar 
    15    8    7 1  
    16    9    8 1  
    17    9   10 1  
    18   21    9 1  
    19   10   11 1  
    20   12   10 1  
    21   11   25 1  
    22   12   13 1  
    23   14   15 1  
    24   14   18 am 
    25   16   17 am 
    26   16   20 2  
    27   17   18 am 
    28   18   19 2  
    29   23   24 1  
    30   24   25 1  
    31   25   26 ar 
    32   25   27 ar 
    33   28   29 1  
    34   29   30 1  
    35   29   38 1  
    36   30   31 am 
    37   30   35 1  
    38   31   32 am 
    39   31   37 2  
    40   32   33 am 
    41   33   34 1  
    42   33   36 2  
    43   34   35 1  
    44   38   39 1  
    45    1   41 1  
    46    2   42 1  
    47    2   43 1  
    48    3   44 1  
    49    4   45 1  
    50    8   46 1  
    51    8   47 1  
    52    9   48 1  
    53   10   49 1  
    54   12   50 1  
    55   13   51 1  
    56   15   52 1  
    57   15   53 1  
    58   17   54 1  
    59   23   55 1  
    60   23   56 1  
    61   29   57 1  
    62   32   58 1  
    63   34   59 1  
    64   34   60 1  
    65   35   61 1  
    66   35   62 1  
    67   38   63 1  
    68   39   64 1  
@<TRIPOS>SUBSTRUCTURE
     1 9BJ         1

