4o0v_ligand
  -I-interpret- 

 56 59  0  0  0  0  0  0  0  0999 V2000
  -40.9260   11.3530  -11.2700 C   0  0  0  0  0
  -40.4830   12.5880  -11.8320 O   0  0  0  0  0
  -39.4690   13.2490  -11.0700 C   0  0  0  0  0
  -38.7850   14.2990  -11.9510 C   0  0  0  0  0
  -38.3650   13.6690  -13.2060 N   0  0  0  0  0
  -37.0250   13.4410  -13.4320 C   0  0  0  0  0
  -36.0520   14.1340  -12.8920 N   0  0  0  0  0
  -34.8540   13.6590  -13.3200 C   0  0  0  0  0
  -33.5330   14.0330  -13.0550 C   0  0  0  0  0
  -32.5020   13.3580  -13.6430 C   0  0  0  0  0
  -32.7580   12.2920  -14.5110 C   0  0  0  0  0
  -34.0640   11.9070  -14.7800 C   0  0  0  0  0
  -35.1220   12.5840  -14.1930 C   0  0  0  0  0
  -36.5110   12.4640  -14.2500 N   0  0  0  0  0
  -37.2590   11.5320  -14.9880 C   0  0  0  0  0
  -36.7620   10.9610  -16.1660 C   0  0  0  0  0
  -37.5420   10.0450  -16.8480 C   0  0  0  0  0
  -38.7400    9.7340  -16.3730 N   0  0  0  0  0
  -39.1910   10.2860  -15.2570 C   0  0  0  0  0
  -38.4710   11.1670  -14.5710 N   0  0  0  0  0
  -40.4460    9.9260  -14.7980 N   0  0  0  0  0
  -31.6680   11.5920  -15.1290 C   0  0  0  0  0
  -30.7940   10.9980  -15.6350 C   0  0  0  0  0
  -29.6950   10.2520  -16.2780 C   0  0  0  0  0
  -30.0230    8.7580  -16.2790 C   0  0  0  0  0
  -28.9700    7.9690  -17.0810 C   0  0  0  0  0
  -28.8880    8.5060  -18.5100 C   0  0  0  0  0
  -28.4800    9.9760  -18.4690 C   0  0  0  0  0
  -29.5530   10.7680  -17.7250 C   0  0  0  0  0
  -28.4790   10.4990  -15.5810 O   0  0  0  0  0
  -40.0829   10.6663  -11.1950 H   0  0  0  0  0
  -41.3382   11.5341  -10.2773 H   0  0  0  0  0
  -41.6941   10.9188  -11.9100 H   0  0  0  0  0
  -38.7332   12.5208  -10.7289 H   0  0  0  0  0
  -39.9188   13.7338  -10.2035 H   0  0  0  0  0
  -37.9149   14.7026  -11.4333 H   0  0  0  0  0
  -39.4808   15.1110  -12.1623 H   0  0  0  0  0
  -39.0579   13.4020  -13.9053 H   0  0  0  0  0
  -33.3264   14.8630  -12.3793 H   0  0  0  0  0
  -31.4733   13.6519  -13.4345 H   0  0  0  0  0
  -34.2580   11.0719  -15.4531 H   0  0  0  0  0
  -35.7753   11.2343  -16.5398 H   0  0  0  0  0
  -37.1760    9.5841  -17.7654 H   0  0  0  0  0
  -41.0038    9.2479  -15.3171 H   0  0  0  0  0
  -40.8132   10.3388  -13.9406 H   0  0  0  0  0
  -30.9994    8.6122  -16.7410 H   0  0  0  0  0
  -30.0252    8.3973  -15.2504 H   0  0  0  0  0
  -29.2559    6.9175  -17.1096 H   0  0  0  0  0
  -27.9977    8.0795  -16.6008 H   0  0  0  0  0
  -29.8596    8.4087  -18.9944 H   0  0  0  0  0
  -28.1493    7.9362  -19.0738 H   0  0  0  0  0
  -28.3785   10.3582  -19.4847 H   0  0  0  0  0
  -27.5243   10.0784  -17.9550 H   0  0  0  0  0
  -29.2659   11.8192  -17.7007 H   0  0  0  0  0
  -30.5057   10.6466  -18.2405 H   0  0  0  0  0
  -27.7660   10.0126  -16.0014 H   0  0  0  0  0
  1  2  1  0  0  0
  2  3  1  0  0  0
  3  4  1  0  0  0
  4  5  1  0  0  0
  5  6  1  0  0  0
  6  7  4  0  0  0
  6 14  4  0  0  0
  7  8  4  0  0  0
  8  9  4  0  0  0
  8 13  4  0  0  0
  9 10  4  0  0  0
 10 11  4  0  0  0
 11 12  4  0  0  0
 11 22  1  0  0  0
 12 13  4  0  0  0
 13 14  4  0  0  0
 14 15  1  0  0  0
 15 16  4  0  0  0
 15 20  4  0  0  0
 16 17  4  0  0  0
 17 18  4  0  0  0
 18 19  4  0  0  0
 19 20  4  0  0  0
 19 21  1  0  0  0
 22 23  3  0  0  0
 23 24  1  0  0  0
 24 25  1  0  0  0
 24 29  1  0  0  0
 24 30  1  0  0  0
 25 26  1  0  0  0
 26 27  1  0  0  0
 27 28  1  0  0  0
 28 29  1  0  0  0
  1 31  1  0  0  0
  1 32  1  0  0  0
  1 33  1  0  0  0
  3 34  1  0  0  0
  3 35  1  0  0  0
  4 36  1  0  0  0
  4 37  1  0  0  0
  5 38  1  0  0  0
  9 39  1  0  0  0
 10 40  1  0  0  0
 12 41  1  0  0  0
 16 42  1  0  0  0
 17 43  1  0  0  0
 21 44  1  0  0  0
 21 45  1  0  0  0
 25 46  1  0  0  0
 25 47  1  0  0  0
 26 48  1  0  0  0
 26 49  1  0  0  0
 27 50  1  0  0  0
 27 51  1  0  0  0
 28 52  1  0  0  0
 28 53  1  0  0  0
 29 54  1  0  0  0
 29 55  1  0  0  0
 30 56  1  0  0  0
M  END
$$$$
