2jkq_ligand
  -I-interpret- 

 77 82  0  0  0  0  0  0  0  0999 V2000
   15.2250   -3.5540   26.7410 C   0  0  0  0  0
   16.0350   -4.8540   27.1440 C   0  0  0  0  0
   16.9640   -4.5870   28.3480 C   0  0  0  0  0
   17.9690   -3.4470   28.0440 C   0  0  0  0  0
   17.3060   -2.3690   27.1230 C   0  0  0  0  0
   15.8500   -2.3730   27.4100 N   0  3  0  0  0
   15.2620   -1.0410   27.0540 C   0  0  0  0  0
   14.5800   -1.0050   25.6590 C   0  0  0  0  0
   13.9790    0.3890   25.4110 C   0  0  0  0  0
   14.3000   -0.5350   28.1710 C   0  0  0  0  0
   12.8770   -0.2280   27.6590 C   0  0  0  0  0
   12.9030    0.6190   26.4170 N   0  0  0  0  0
   11.8850    1.5970   26.2480 C   0  0  0  0  0
   11.0940    1.9120   27.3500 C   0  0  0  0  0
   10.0730    2.8440   27.2590 C   0  0  0  0  0
   11.6200    2.2470   25.0400 C   0  0  0  0  0
   12.3090    2.1150   23.6760 C   0  0  0  0  0
   11.5450    3.0710   22.8750 N   0  0  0  0  0
   11.7750    3.3480   21.4510 C   0  0  0  0  0
   10.6050    3.6520   23.6130 C   0  0  0  0  0
    9.8360    4.5000   23.1600 O   0  0  0  0  0
   10.6000    3.1930   24.9350 C   0  0  0  0  0
    9.8100    3.4890   26.0560 C   0  0  0  0  0
    8.8040    4.3870   26.0220 N   0  0  0  0  0
    7.5110    3.9950   26.0630 C   0  0  0  0  0
    7.1600    2.8460   26.6750 N   0  0  0  0  0
    6.4950    4.7500   25.4790 C   0  0  0  0  0
    6.8220    6.2570   24.6740 Cl  0  0  0  0  0
    5.1860    4.2720   25.5570 C   0  0  0  0  0
    4.9090    3.1280   26.1670 N   0  0  0  0  0
    5.8860    2.4140   26.7300 C   0  0  0  0  0
    5.5760    1.2660   27.3240 N   0  0  0  0  0
    6.4320    0.5420   28.0550 C   0  0  0  0  0
    7.7160    0.2490   27.6040 C   0  0  0  0  0
    8.5860   -0.5070   28.3860 C   0  0  0  0  0
    8.1770   -0.9960   29.6200 C   0  0  0  0  0
    6.8920   -0.7120   30.0690 C   0  0  0  0  0
    6.0200    0.0500   29.2890 C   0  0  0  0  0
    4.7630    0.3210   29.7180 O   0  0  0  0  0
    4.3780   -0.6870   30.6870 C   0  0  0  0  0
   14.1866   -3.6520   27.0574 H   0  0  0  0  0
   15.2501   -3.4228   25.6592 H   0  0  0  0  0
   16.6470   -5.1581   26.2948 H   0  0  0  0  0
   15.3246   -5.6331   27.4205 H   0  0  0  0  0
   17.5258   -5.4966   28.5604 H   0  0  0  0  0
   16.3512   -4.2907   29.1993 H   0  0  0  0  0
   18.8373   -3.8648   27.5345 H   0  0  0  0  0
   18.2692   -2.9782   28.9811 H   0  0  0  0  0
   17.4886   -2.5994   26.0734 H   0  0  0  0  0
   17.7311   -1.3849   27.3204 H   0  0  0  0  0
   15.6568   -2.4874   28.4050 H   0  0  0  0  0
   16.1054   -0.3541   26.9828 H   0  0  0  0  0
   13.7865   -1.7515   25.6256 H   0  0  0  0  0
   15.3208   -1.2210   24.8892 H   0  0  0  0  0
   13.5676    0.4455   24.4032 H   0  0  0  0  0
   14.7512    1.1522   25.5076 H   0  0  0  0  0
   14.7144    0.3920   28.5673 H   0  0  0  0  0
   14.2180   -1.3250   28.9175 H   0  0  0  0  0
   12.3431    0.3188   28.4362 H   0  0  0  0  0
   12.3869   -1.1720   27.4205 H   0  0  0  0  0
   11.2817    1.4159   28.3022 H   0  0  0  0  0
    9.4708    3.0735   28.1381 H   0  0  0  0  0
   12.2983    1.1011   23.2761 H   0  0  0  0  0
   13.3787    2.3227   23.7036 H   0  0  0  0  0
   12.7913    3.7172   21.3135 H   0  0  0  0  0
   11.6394    2.4312   20.8773 H   0  0  0  0  0
   11.0644    4.1005   21.1091 H   0  0  0  0  0
    9.0233    5.3815   25.9642 H   0  0  0  0  0
    4.3774    4.8493   25.1086 H   0  0  0  0  0
    4.6247    0.9143   27.2158 H   0  0  0  0  0
    8.0433    0.6143   26.6306 H   0  0  0  0  0
    9.5939   -0.7161   28.0274 H   0  0  0  0  0
    8.8546   -1.5947   30.2286 H   0  0  0  0  0
    6.5627   -1.0874   31.0379 H   0  0  0  0  0
    4.4068   -1.6703   30.2175 H   0  0  0  0  0
    5.0710   -0.6641   31.5280 H   0  0  0  0  0
    3.3678   -0.4816   31.0412 H   0  0  0  0  0
  1  2  1  0  0  0
  1  6  1  0  0  0
  2  3  1  0  0  0
  3  4  1  0  0  0
  4  5  1  0  0  0
  5  6  1  0  0  0
  6  7  1  0  0  0
  7  8  1  0  0  0
  7 10  1  0  0  0
  8  9  1  0  0  0
  9 12  1  0  0  0
 10 11  1  0  0  0
 11 12  1  0  0  0
 12 13  1  0  0  0
 13 14  4  0  0  0
 13 16  4  0  0  0
 14 15  4  0  0  0
 15 23  4  0  0  0
 16 17  1  0  0  0
 16 22  4  0  0  0
 17 18  1  0  0  0
 18 19  1  0  0  0
 18 20  1  0  0  0
 20 21  2  0  0  0
 20 22  1  0  0  0
 22 23  4  0  0  0
 23 24  1  0  0  0
 24 25  1  0  0  0
 25 26  4  0  0  0
 25 27  4  0  0  0
 26 31  4  0  0  0
 27 28  1  0  0  0
 27 29  4  0  0  0
 29 30  4  0  0  0
 30 31  4  0  0  0
 31 32  1  0  0  0
 32 33  1  0  0  0
 33 34  4  0  0  0
 33 38  4  0  0  0
 34 35  4  0  0  0
 35 36  4  0  0  0
 36 37  4  0  0  0
 37 38  4  0  0  0
 38 39  1  0  0  0
 39 40  1  0  0  0
  1 41  1  0  0  0
  1 42  1  0  0  0
  2 43  1  0  0  0
  2 44  1  0  0  0
  3 45  1  0  0  0
  3 46  1  0  0  0
  4 47  1  0  0  0
  4 48  1  0  0  0
  5 49  1  0  0  0
  5 50  1  0  0  0
  6 51  1  0  0  0
  7 52  1  0  0  0
  8 53  1  0  0  0
  8 54  1  0  0  0
  9 55  1  0  0  0
  9 56  1  0  0  0
 10 57  1  0  0  0
 10 58  1  0  0  0
 11 59  1  0  0  0
 11 60  1  0  0  0
 14 61  1  0  0  0
 15 62  1  0  0  0
 17 63  1  0  0  0
 17 64  1  0  0  0
 19 65  1  0  0  0
 19 66  1  0  0  0
 19 67  1  0  0  0
 24 68  1  0  0  0
 29 69  1  0  0  0
 32 70  1  0  0  0
 34 71  1  0  0  0
 35 72  1  0  0  0
 36 73  1  0  0  0
 37 74  1  0  0  0
 40 75  1  0  0  0
 40 76  1  0  0  0
 40 77  1  0  0  0
M  END
$$$$
