3k2f_ligand
  -I-interpret- 

 53 54  0  0  0  0  0  0  0  0999 V2000
   -3.2360    6.7890   14.1940 C   0  0  0  0  0
   -7.0170    5.9590   12.9240 O   0  0  0  0  0
   -5.2880    1.0350   18.1010 O   0  0  0  0  0
   -4.2970    6.4700   13.1430 C   0  0  0  0  0
   -5.8840    5.9750   13.9000 S   0  0  0  0  0
   -5.5960    4.3610   14.5190 C   0  0  0  0  0
   -6.4610    3.5580   15.6960 S   0  0  0  0  0
   -5.5530    2.2090   15.6930 C   0  0  0  0  0
   -5.9310    0.8710   16.7560 S   0  0  0  0  0
   -5.4320   -0.3870   16.0890 N   0  0  0  0  0
   -6.2250    6.9120   15.0270 O   0  0  0  0  0
   -7.5070    0.8350   16.9290 O   0  0  0  0  0
   -3.8460    5.3110   12.2520 C   0  0  0  0  0
   -3.5040    3.9790   13.0060 C   0  0  0  0  0
   -4.5450    3.5160   14.0990 C   0  0  0  0  0
   -4.5700    2.3380   14.7840 C   0  0  0  0  0
   -3.2390    2.9770   11.9360 N   0  0  0  0  0
   -4.3770    2.1420   11.4930 C   0  0  0  0  0
   -5.1720    2.8920   10.4400 C   0  0  0  0  0
   -1.0430    3.5340   11.7060 O   0  0  0  0  0
   -2.0190    2.8610   11.3740 C   0  0  0  0  0
   -1.8190    1.9600   10.3760 O   0  0  0  0  0
   -0.5590    2.1990    9.6040 C   0  0  0  0  0
   -0.4810    4.5570    6.6470 O   0  0  0  0  0
    0.1840    3.5720    9.4300 C   0  0  0  0  0
   -0.7160    4.6640    9.0720 O   0  0  0  0  0
   -1.2960    4.6320    7.8250 N   0  0  0  0  0
   -2.7450    4.7140    7.7010 O   0  0  0  0  0
    1.4000    3.4910    8.4660 C   0  0  0  0  0
    2.6230    3.8780    9.1160 O   0  0  0  0  0
    3.6180    3.9680    8.1930 N   0  0  0  0  0
    3.8240    5.1940    7.4930 O   0  0  0  0  0
    4.4630    2.8450    7.9170 O   0  0  0  0  0
   -3.0677    5.9104   14.8168 H   0  0  0  0  0
   -2.3065    7.0673   13.6973 H   0  0  0  0  0
   -3.5791    7.6162   14.8154 H   0  0  0  0  0
   -4.4315    7.3832   12.5634 H   0  0  0  0  0
   -4.7520   -0.9807   16.5639 H   0  0  0  0  0
   -5.7746   -0.6437   15.1632 H   0  0  0  0  0
   -2.9292    5.6348   11.7594 H   0  0  0  0  0
   -4.6792    5.0872   11.5858 H   0  0  0  0  0
   -2.6292    4.1248   13.6397 H   0  0  0  0  0
   -3.8388    1.5494   14.6063 H   0  0  0  0  0
   -5.0195    1.9204   12.3451 H   0  0  0  0  0
   -4.0020    1.2097   11.0707 H   0  0  0  0  0
   -5.5465    3.8235   10.8644 H   0  0  0  0  0
   -4.5279    3.1121    9.5887 H   0  0  0  0  0
   -6.0106    2.2771   10.1133 H   0  0  0  0  0
   -0.8825    1.9921    8.5839 H   0  0  0  0  0
    0.1664    1.6272   10.1827 H   0  0  0  0  0
    0.5852    3.8047   10.4164 H   0  0  0  0  0
    1.2236    4.1725    7.6338 H   0  0  0  0  0
    1.5024    2.4594    8.1293 H   0  0  0  0  0
  4  1  1  0  0  0
  5  2  2  0  0  0
  9  3  2  0  0  0
  4  5  1  0  0  0
 13  4  1  0  0  0
  6  5  1  0  0  0
  5 11  2  0  0  0
  6  7  4  0  0  0
 15  6  4  0  0  0
  8  7  4  0  0  0
  8  9  1  0  0  0
 16  8  4  0  0  0
  9 10  1  0  0  0
  9 12  2  0  0  0
 14 13  1  0  0  0
 14 15  1  0  0  0
 17 14  1  0  0  0
 15 16  4  0  0  0
 17 18  1  0  0  0
 21 17  1  0  0  0
 18 19  1  0  0  0
 21 20  2  0  0  0
 22 21  1  0  0  0
 23 22  1  0  0  0
 25 23  1  0  0  0
 27 24  2  0  0  0
 26 25  1  0  0  0
 25 29  1  0  0  0
 26 27  1  0  0  0
 27 28  2  0  0  0
 29 30  1  0  0  0
 30 31  1  0  0  0
 31 32  2  0  0  0
 31 33  2  0  0  0
  1 34  1  0  0  0
  1 35  1  0  0  0
  1 36  1  0  0  0
  4 37  1  0  0  0
 10 38  1  0  0  0
 10 39  1  0  0  0
 13 40  1  0  0  0
 13 41  1  0  0  0
 14 42  1  0  0  0
 16 43  1  0  0  0
 18 44  1  0  0  0
 18 45  1  0  0  0
 19 46  1  0  0  0
 19 47  1  0  0  0
 19 48  1  0  0  0
 23 49  1  0  0  0
 23 50  1  0  0  0
 25 51  1  0  0  0
 29 52  1  0  0  0
 29 53  1  0  0  0
M  END
$$$$
