1mqg_ligand
  -I-interpret- 

 24 24  0  0  0  0  0  0  0  0999 V2000
   18.7120    3.0980   21.0510 N   0  0  0  0  0
   17.8410    3.7760   20.1570 C   0  0  0  0  0
   18.1940    4.3340   19.1470 O   0  0  0  0  0
   16.4840    3.7430   20.5520 N   0  0  0  0  0
   15.9350    3.1450   21.6550 C   0  0  0  0  0
   14.7440    3.1970   21.9020 O   0  0  0  0  0
   16.9670    2.4460   22.5360 C   0  0  0  0  0
   16.3750    1.4200   24.2420 I   0  0  0  0  0
   18.2580    2.4620   22.1520 C   0  0  0  0  0
   20.1530    2.9810   20.7490 C   0  0  0  0  0
   20.4560    2.0730   19.5690 C   0  0  0  0  0
   20.1600    0.6510   19.9600 N   0  3  0  0  0
   21.8790    2.1940   18.9970 C   0  0  0  0  0
   22.5640    1.1890   18.8910 O   0  0  0  0  0
   22.2350    3.3980   18.7140 O   0  0  0  0  0
   15.8299    4.2266   19.9366 H   0  0  0  0  0
   18.9812    1.9282   22.7686 H   0  0  0  0  0
   20.6365    2.5497   21.6256 H   0  0  0  0  0
   20.5156    3.9773   20.4961 H   0  0  0  0  0
   19.8091    2.4022   18.7558 H   0  0  0  0  0
   20.3609    0.0343   19.1728 H   0  0  0  0  0
   20.7429    0.3900   20.7553 H   0  0  0  0  0
   19.1762    0.5678   20.2161 H   0  0  0  0  0
   21.5048    3.9960   18.8895 H   0  0  0  0  0
  1  2  1  0  0  0
  1  9  1  0  0  0
  1 10  1  0  0  0
  2  3  2  0  0  0
  2  4  1  0  0  0
  4  5  1  0  0  0
  5  6  2  0  0  0
  5  7  1  0  0  0
  7  8  1  0  0  0
  7  9  2  0  0  0
 10 11  1  0  0  0
 11 12  1  0  0  0
 11 13  1  0  0  0
 13 14  2  0  0  0
 13 15  1  0  0  0
  4 16  1  0  0  0
  9 17  1  0  0  0
 10 18  1  0  0  0
 10 19  1  0  0  0
 11 20  1  0  0  0
 12 21  1  0  0  0
 12 22  1  0  0  0
 12 23  1  0  0  0
 15 24  1  0  0  0
M  END
$$$$
