4whh_ligand
  -I-interpret- 

111113  0  0  0  0  0  0  0  0999 V2000
  -21.6370   22.6730  -10.4210 C   0  0  0  0  0
  -22.8450   23.1030  -10.9010 C   0  0  0  0  0
  -22.9230   24.3560  -11.5020 C   0  0  0  0  0
  -24.1600   24.7370  -12.0450 C   0  0  0  0  0
  -24.4980   26.0610  -11.7150 O   0  0  0  0  0
  -21.7380   25.0820  -11.6190 C   0  0  0  0  0
  -20.5350   24.6570  -11.1010 C   0  0  0  0  0
  -20.4660   23.4130  -10.5190 C   0  0  0  0  0
  -19.2900   22.9810   -9.9810 C   0  0  0  0  0
  -18.4430   23.8190   -9.7050 O   0  0  0  0  0
  -19.1680   21.6490   -9.7330 N   0  0  0  0  0
  -18.0100   21.0300   -9.1610 C   0  0  0  0  0
  -16.8930   21.1170  -10.2240 C   0  0  0  0  0
  -17.1460   20.0660  -11.3230 C   0  0  0  0  0
  -18.1750   19.3770  -11.3400 O   0  0  0  0  0
  -15.0640   18.7930  -13.9890 C   0  0  0  0  0
  -16.2240   20.1000  -12.3040 N   0  0  0  0  0
  -13.9420   19.4980  -13.5960 O   0  0  0  0  0
  -16.4340   19.1660  -13.4160 C   0  0  0  0  0
  -17.3100   19.6870  -14.5510 C   0  0  0  0  0
  -16.8810   21.1340  -14.9940 C   0  0  0  0  0
  -18.7280   22.2330  -13.7960 C   0  0  0  0  0
  -19.7750   22.1370  -14.8560 C   0  0  0  0  0
  -21.0340   21.9180  -14.0520 C   0  0  0  0  0
  -22.3300   22.2150  -14.7030 C   0  0  0  0  0
  -23.0270   21.2810  -15.5020 C   0  0  0  0  0
  -24.5750   21.1900  -15.2340 C   0  0  0  0  0
  -24.7680   19.7030  -15.7210 C   0  0  0  0  0
  -25.9140   19.4530  -16.7280 C   0  0  0  0  0
  -27.1770   19.4120  -16.0580 C   0  0  0  0  0
  -28.1450   20.4200  -16.2300 C   0  0  0  0  0
  -29.3690   20.3650  -15.5280 C   0  0  0  0  0
  -29.6430   19.2910  -14.6860 C   0  0  0  0  0
  -28.7050   18.2800  -14.5330 C   0  0  0  0  0
  -27.4880   18.3450  -15.2380 C   0  0  0  0  0
  -17.5010   22.2610  -14.5920 N   0  0  0  0  0
  -15.8410   21.4560  -15.7620 C   0  0  0  0  0
  -16.8530   23.2900  -15.1820 C   0  0  0  0  0
  -15.7940   22.7810  -15.8770 N   0  0  0  0  0
  -14.9460   17.6120  -14.8640 N   0  0  0  0  0
  -13.6800   17.1510  -15.3670 C   0  0  0  0  0
  -13.2120   18.1620  -16.4600 C   0  0  0  0  0
  -13.8670   19.2110  -16.7940 O   0  0  0  0  0
  -13.8530   15.7240  -15.8660 C   0  0  0  0  0
  -14.7890   15.7850  -16.9280 O   0  0  0  0  0
  -12.0280   17.8740  -16.9490 N   0  0  0  0  0
  -11.3140   18.7820  -17.8180 C   0  0  0  0  0
   -9.9220   18.2300  -18.1240 C   0  0  0  0  0
   -9.1630   19.1650  -19.0850 C   0  0  0  0  0
   -9.2030   18.1100  -16.8790 O   0  0  0  0  0
   -8.8000   16.6760  -16.3000 P   0  0  0  0  0
   -7.9960   15.9820  -17.3250 O   0  0  0  0  0
   -8.0240   16.9640  -15.0140 O   0  0  0  0  0
  -10.1190   15.9760  -16.0690 O   0  0  0  0  0
  -12.0950   19.0320  -19.0880 C   0  0  0  0  0
  -12.5420   18.0890  -19.7480 O   0  0  0  0  0
  -12.3490   20.3800  -19.6420 N   0  0  0  0  0
  -21.5920   21.6978   -9.9361 H   0  0  0  0  0
  -23.7312   22.4743  -10.8139 H   0  0  0  0  0
  -24.9272   24.0788  -11.6371 H   0  0  0  0  0
  -24.0913   24.6644  -13.1304 H   0  0  0  0  0
  -25.3476   26.2798  -12.1048 H   0  0  0  0  0
  -21.7655   26.0348  -12.1477 H   0  0  0  0  0
  -19.6530   25.2954  -11.1514 H   0  0  0  0  0
  -19.9573   21.0485   -9.9713 H   0  0  0  0  0
  -18.2143   19.9929   -8.8948 H   0  0  0  0  0
  -17.7128   21.5346   -8.2417 H   0  0  0  0  0
  -15.9284   20.9258   -9.7538 H   0  0  0  0  0
  -16.8903   22.1127  -10.6674 H   0  0  0  0  0
  -15.4276   20.7367  -12.2757 H   0  0  0  0  0
  -16.9714   18.3147  -12.9982 H   0  0  0  0  0
  -18.3416   19.7251  -14.2009 H   0  0  0  0  0
  -17.2017   19.0185  -15.4051 H   0  0  0  0  0
  -18.7610   21.4140  -13.0775 H   0  0  0  0  0
  -18.8449   23.1012  -13.1475 H   0  0  0  0  0
  -19.5833   21.3406  -15.5750 H   0  0  0  0  0
  -19.8222   23.0215  -15.4913 H   0  0  0  0  0
  -20.9659   22.6087  -13.2115 H   0  0  0  0  0
  -21.0568   20.8505  -13.8327 H   0  0  0  0  0
  -22.0751   23.0034  -15.4112 H   0  0  0  0  0
  -23.0015   22.3658  -13.8577 H   0  0  0  0  0
  -22.6118   20.3003  -15.2699 H   0  0  0  0  0
  -22.9077   21.6043  -16.5361 H   0  0  0  0  0
  -25.1912   21.9397  -15.7303 H   0  0  0  0  0
  -24.8975   21.4054  -14.2153 H   0  0  0  0  0
  -25.0144   19.1228  -14.8318 H   0  0  0  0  0
  -23.8470   19.4314  -16.2369 H   0  0  0  0  0
  -25.7462   18.4958  -17.2217 H   0  0  0  0  0
  -25.9273   20.2651  -17.4549 H   0  0  0  0  0
  -27.9481   21.2488  -16.9100 H   0  0  0  0  0
  -30.1003   21.1647  -15.6456 H   0  0  0  0  0
  -30.5904   19.2444  -14.1491 H   0  0  0  0  0
  -28.9094   17.4393  -13.8700 H   0  0  0  0  0
  -26.7712   17.5305  -15.1337 H   0  0  0  0  0
  -15.1454   20.7523  -16.2193 H   0  0  0  0  0
  -17.1280   24.3426  -15.1146 H   0  0  0  0  0
  -15.7922   17.1041  -15.1216 H   0  0  0  0  0
  -12.9009   17.1168  -14.6054 H   0  0  0  0  0
  -14.2065   15.0700  -15.0689 H   0  0  0  0  0
  -12.9034   15.3088  -16.2036 H   0  0  0  0  0
  -14.9321   14.9026  -17.2780 H   0  0  0  0  0
  -11.5983   16.9809  -16.7079 H   0  0  0  0  0
  -11.1981   19.7385  -17.3083 H   0  0  0  0  0
  -10.0102   17.2570  -18.6072 H   0  0  0  0  0
   -9.7195   19.2545  -20.0179 H   0  0  0  0  0
   -9.0592   20.1485  -18.6266 H   0  0  0  0  0
   -8.1752   18.7512  -19.2879 H   0  0  0  0  0
   -8.5976   17.4142  -14.3895 H   0  0  0  0  0
  -10.6181   16.4492  -15.3993 H   0  0  0  0  0
  -12.8644   20.4833  -20.5161 H   0  0  0  0  0
  -12.0087   21.2061  -19.1499 H   0  0  0  0  0
  1  2  4  0  0  0
  8  1  4  0  0  0
  2  3  4  0  0  0
  3  4  1  0  0  0
  6  3  4  0  0  0
  4  5  1  0  0  0
  7  6  4  0  0  0
  8  7  4  0  0  0
  9  8  1  0  0  0
  9 10  2  0  0  0
 11  9  1  0  0  0
 12 11  1  0  0  0
 13 12  1  0  0  0
 14 13  1  0  0  0
 14 15  2  0  0  0
 17 14  1  0  0  0
 16 18  2  0  0  0
 19 16  1  0  0  0
 16 40  1  0  0  0
 19 17  1  0  0  0
 20 19  1  0  0  0
 21 20  1  0  0  0
 36 21  4  0  0  0
 21 37  4  0  0  0
 22 23  1  0  0  0
 22 36  1  0  0  0
 23 24  1  0  0  0
 24 25  1  0  0  0
 25 26  1  0  0  0
 26 27  1  0  0  0
 27 28  1  0  0  0
 28 29  1  0  0  0
 29 30  1  0  0  0
 30 31  4  0  0  0
 30 35  4  0  0  0
 31 32  4  0  0  0
 32 33  4  0  0  0
 33 34  4  0  0  0
 34 35  4  0  0  0
 36 38  4  0  0  0
 37 39  4  0  0  0
 38 39  4  0  0  0
 40 41  1  0  0  0
 41 42  1  0  0  0
 41 44  1  0  0  0
 42 43  2  0  0  0
 42 46  1  0  0  0
 44 45  1  0  0  0
 46 47  1  0  0  0
 47 48  1  0  0  0
 47 55  1  0  0  0
 48 49  1  0  0  0
 48 50  1  0  0  0
 50 51  1  0  0  0
 51 52  2  0  0  0
 51 53  1  0  0  0
 51 54  1  0  0  0
 55 56  2  0  0  0
 55 57  1  0  0  0
  1 58  1  0  0  0
  2 59  1  0  0  0
  4 60  1  0  0  0
  4 61  1  0  0  0
  5 62  1  0  0  0
  6 63  1  0  0  0
  7 64  1  0  0  0
 11 65  1  0  0  0
 12 66  1  0  0  0
 12 67  1  0  0  0
 13 68  1  0  0  0
 13 69  1  0  0  0
 17 70  1  0  0  0
 19 71  1  0  0  0
 20 72  1  0  0  0
 20 73  1  0  0  0
 22 74  1  0  0  0
 22 75  1  0  0  0
 23 76  1  0  0  0
 23 77  1  0  0  0
 24 78  1  0  0  0
 24 79  1  0  0  0
 25 80  1  0  0  0
 25 81  1  0  0  0
 26 82  1  0  0  0
 26 83  1  0  0  0
 27 84  1  0  0  0
 27 85  1  0  0  0
 28 86  1  0  0  0
 28 87  1  0  0  0
 29 88  1  0  0  0
 29 89  1  0  0  0
 31 90  1  0  0  0
 32 91  1  0  0  0
 33 92  1  0  0  0
 34 93  1  0  0  0
 35 94  1  0  0  0
 37 95  1  0  0  0
 38 96  1  0  0  0
 40 97  1  0  0  0
 41 98  1  0  0  0
 44 99  1  0  0  0
 44100  1  0  0  0
 45101  1  0  0  0
 46102  1  0  0  0
 47103  1  0  0  0
 48104  1  0  0  0
 49105  1  0  0  0
 49106  1  0  0  0
 49107  1  0  0  0
 53108  1  0  0  0
 54109  1  0  0  0
 57110  1  0  0  0
 57111  1  0  0  0
M  END
$$$$
