### 
### Created by X-TOOL on Mon Sep 10 21:13:18 2018
### 

@<TRIPOS>MOLECULE
4whh_ligand
  109   111     1     0     0
SMALL
GAST_HUCK


@<TRIPOS>ATOM
      1 C1        -21.6370   22.6730  -10.4210 C.ar      1 QAC        -0.0484
      2 C2        -22.8450   23.1030  -10.9010 C.ar      1 QAC        -0.0522
      3 C3        -22.9230   24.3560  -11.5020 C.ar      1 QAC        -0.0130
      4 C4        -24.1600   24.7370  -12.0450 C.3       1 QAC         0.0803
      5 O1        -24.4980   26.0610  -11.7150 O.3       1 QAC        -0.3817
      6 C5        -21.7380   25.0820  -11.6190 C.ar      1 QAC        -0.0522
      7 C6        -20.5350   24.6570  -11.1010 C.ar      1 QAC        -0.0484
      8 C7        -20.4660   23.4130  -10.5190 C.ar      1 QAC         0.0427
      9 C8        -19.2900   22.9810   -9.9810 C.2       1 QAC         0.2000
     10 O2        -18.4430   23.8190   -9.7050 O.2       1 QAC        -0.3878
     11 N1        -19.1680   21.6490   -9.7330 N.am      1 QAC        -0.2849
     12 C9        -18.0100   21.0300   -9.1610 C.3       1 QAC         0.0470
     13 C10       -16.8930   21.1170  -10.2240 C.3       1 QAC         0.0574
     14 C11       -17.1460   20.0660  -11.3230 C.2       1 QAC         0.1803
     15 O3        -18.1750   19.3770  -11.3400 O.2       1 QAC        -0.3969
     16 C         -15.0640   18.7930  -13.9890 C.2       1 56A         0.2061
     17 N         -16.2240   20.1000  -12.3040 N.am      1 56A        -0.2637
     18 O         -13.9420   19.4980  -13.5960 O.2       1 56A        -0.3942
     19 CA        -16.4340   19.1660  -13.4160 C.3       1 56A         0.1420
     20 CB        -17.3100   19.6870  -14.5510 C.3       1 56A         0.0429
     21 CG        -16.8810   21.1340  -14.9940 C.2       1 56A         0.0589
     22 C27       -18.7280   22.2330  -13.7960 C.3       1 56A         0.0580
     23 C28       -19.7750   22.1370  -14.8560 C.3       1 56A        -0.0249
     24 C29       -21.0340   21.9180  -14.0520 C.3       1 56A        -0.0505
     25 C30       -22.3300   22.2150  -14.7030 C.3       1 56A        -0.0530
     26 C31       -23.0270   21.2810  -15.5020 C.3       1 56A        -0.0529
     27 C32       -24.5750   21.1900  -15.2340 C.3       1 56A        -0.0513
     28 C33       -24.7680   19.7030  -15.7210 C.3       1 56A        -0.0433
     29 C34       -25.9140   19.4530  -16.7280 C.3       1 56A        -0.0192
     30 C35       -27.1770   19.4120  -16.0580 C.ar      1 56A        -0.0430
     31 C36       -28.1450   20.4200  -16.2300 C.ar      1 56A        -0.0603
     32 C37       -29.3690   20.3650  -15.5280 C.ar      1 56A        -0.0686
     33 C38       -29.6430   19.2910  -14.6860 C.ar      1 56A        -0.0687
     34 C39       -28.7050   18.2800  -14.5330 C.ar      1 56A        -0.0686
     35 C40       -27.4880   18.3450  -15.2380 C.ar      1 56A        -0.0603
     36 ND1       -17.5010   22.2610  -14.5920 N.pl3     1 56A        -0.2480
     37 CD2       -15.8410   21.4560  -15.7620 C.2       1 56A        -0.0274
     38 CE1       -16.8530   23.2900  -15.1820 C.2       1 56A         0.0900
     39 NE2       -15.7940   22.7810  -15.8770 N.2       1 56A        -0.3436
     40 N         -14.9460   17.6120  -14.8640 N.am      1 SER        -0.2614
     41 CA        -13.6800   17.1510  -15.3670 C.3       1 SER         0.1539
     42 C         -13.2120   18.1620  -16.4600 C.2       1 SER         0.2063
     43 O         -13.8670   19.2110  -16.7940 O.2       1 SER        -0.3943
     44 CB        -13.8530   15.7240  -15.8660 C.3       1 SER         0.0843
     45 OG        -14.7890   15.7850  -16.9280 O.3       1 SER        -0.3903
     46 N         -12.0280   17.8740  -16.9490 N.am      1 TPO        -0.2610
     47 CA        -11.3140   18.7820  -17.8180 C.3       1 TPO         0.1608
     48 CB         -9.9220   18.2300  -18.1240 C.3       1 TPO         0.1262
     49 CG2        -9.1630   19.1650  -19.0850 C.3       1 TPO        -0.0298
     50 OG1        -9.2030   18.1100  -16.8790 O.3       1 TPO        -0.2685
     51 P          -8.8000   16.6760  -16.3000 P.3       1 TPO         0.2014
     52 O1P        -7.9960   15.9820  -17.3250 O.co2     1 TPO        -0.5537
     53 O2P        -8.0240   16.9640  -15.0140 O.co2     1 TPO        -0.5537
     54 O3P       -10.1190   15.9760  -16.0690 O.co2     1 TPO        -0.5537
     55 C         -12.0950   19.0320  -19.0880 C.2       1 TPO         0.2021
     56 O         -12.5420   18.0890  -19.7480 O.2       1 TPO        -0.3946
     57 N         -12.3490   20.3800  -19.6420 N.am      1 NH2        -0.2989
     58 H         -21.5923   21.7032   -9.9388 H         1 QAC         0.0652
     59 H         -23.7263   22.4778  -10.8144 H         1 QAC         0.0570
     60 H         -24.9396   24.0649  -11.6571 H         1 QAC         0.0732
     61 H         -24.1095   24.6465  -13.1401 H         1 QAC         0.0732
     62 H         -25.3387   26.2775  -12.1007 H         1 QAC         0.2128
     63 H         -21.7654   26.0296  -12.1447 H         1 QAC         0.0570
     64 H         -19.6578   25.2919  -11.1511 H         1 QAC         0.0652
     65 H         -19.9418   21.0602   -9.9667 H         1 QAC         0.1844
     66 H         -18.2223   19.9782   -8.9188 H         1 QAC         0.0544
     67 H         -17.7070   21.5627   -8.2476 H         1 QAC         0.0544
     68 H         -15.9195   20.9241   -9.7495 H         1 QAC         0.0522
     69 H         -16.8902   22.1219  -10.6715 H         1 QAC         0.0522
     70 H         -15.4432   20.7242  -12.2763 H         1 56A         0.1884
     71 H         -16.9139   18.2631  -13.0106 H         1 56A         0.0824
     72 H         -18.3561   19.7126  -14.2120 H         1 56A         0.0491
     73 H         -17.2201   19.0084  -15.4121 H         1 56A         0.0491
     74 H         -18.7526   21.3594  -13.1280 H         1 56A         0.0620
     75 H         -18.8417   23.1520  -13.2023 H         1 56A         0.0620
     76 H         -19.5816   21.2898  -15.5304 H         1 56A         0.0293
     77 H         -19.8340   23.0661  -15.4419 H         1 56A         0.0293
     78 H         -20.9648   22.5513  -13.1553 H         1 56A         0.0266
     79 H         -21.0522   20.8596  -13.7530 H         1 56A         0.0266
     80 H         -22.1514   23.0890  -15.3466 H         1 56A         0.0265
     81 H         -23.0191   22.4918  -13.8915 H         1 56A         0.0265
     82 H         -22.5918   20.2871  -15.3210 H         1 56A         0.0265
     83 H         -22.8804   21.5591  -16.5561 H         1 56A         0.0265
     84 H         -25.1494   21.9082  -15.8375 H         1 56A         0.0267
     85 H         -24.8263   21.3205  -14.1711 H         1 56A         0.0267
     86 H         -24.9611   19.0825  -14.8335 H         1 56A         0.0287
     87 H         -23.8292   19.3818  -16.1959 H         1 56A         0.0287
     88 H         -25.7442   18.4928  -17.2370 H         1 56A         0.0426
     89 H         -25.9255   20.2646  -17.4704 H         1 56A         0.0426
     90 H         -27.9492   21.2443  -16.9063 H         1 56A         0.0557
     91 H         -30.0962   21.1603  -15.6450 H         1 56A         0.0599
     92 H         -30.5852   19.2446  -14.1520 H         1 56A         0.0559
     93 H         -28.9083   17.4439  -13.8737 H         1 56A         0.0599
     94 H         -26.7752   17.5350  -15.1343 H         1 56A         0.0557
     95 H         -15.1461   20.7530  -16.2189 H         1 56A         0.0324
     96 H         -17.1278   24.3416  -15.1147 H         1 56A         0.1150
     97 H         -15.7756   17.1140  -15.1166 H         1 SER         0.1884
     98 H         -12.9378   17.1461  -14.5552 H         1 SER         0.0823
     99 H         -14.2344   15.0817  -15.0586 H         1 SER         0.0606
    100 H         -12.8925   15.3277  -16.2271 H         1 SER         0.0606
    101 H         -14.4512   16.3482  -17.6144 H         1 SER         0.2097
    102 H         -11.6067   16.9984  -16.7127 H         1 TPO         0.1884
    103 H         -11.1963   19.7421  -17.2942 H         1 TPO         0.0830
    104 H         -10.0171   17.2383  -18.5903 H         1 TPO         0.0695
    105 H          -8.1659   18.7484  -19.2906 H         1 TPO         0.0260
    106 H          -9.0575   20.1579  -18.6235 H         1 TPO         0.0260
    107 H          -9.7236   19.2561  -20.0270 H         1 TPO         0.0260
    108 H         -12.8733   20.4825  -20.4873 H         1 NH2         0.1815
    109 H         -11.9964   21.1887  -19.1712 H         1 NH2         0.1815
@<TRIPOS>BOND
     1    1    2 ar 
     2    8    1 ar 
     3    2    3 ar 
     4    3    4 1  
     5    6    3 ar 
     6    4    5 1  
     7    7    6 ar 
     8    8    7 ar 
     9    9    8 1  
    10    9   10 2  
    11   11    9 am 
    12   12   11 1  
    13   13   12 1  
    14   14   13 1  
    15   14   15 2  
    16   17   14 am 
    17   16   18 2  
    18   19   16 1  
    19   16   40 am 
    20   19   17 1  
    21   20   19 1  
    22   21   20 1  
    23   36   21 1  
    24   21   37 2  
    25   22   23 1  
    26   22   36 1  
    27   23   24 1  
    28   24   25 1  
    29   25   26 1  
    30   26   27 1  
    31   27   28 1  
    32   28   29 1  
    33   29   30 1  
    34   30   31 ar 
    35   30   35 ar 
    36   31   32 ar 
    37   32   33 ar 
    38   33   34 ar 
    39   34   35 ar 
    40   36   38 1  
    41   37   39 1  
    42   38   39 2  
    43   40   41 1  
    44   41   42 1  
    45   41   44 1  
    46   42   43 2  
    47   42   46 am 
    48   44   45 1  
    49   46   47 1  
    50   47   48 1  
    51   47   55 1  
    52   48   49 1  
    53   48   50 1  
    54   50   51 1  
    55   51   52 ar 
    56   51   53 ar 
    57   51   54 ar 
    58   55   56 2  
    59   55   57 am 
    60    1   58 1  
    61    2   59 1  
    62    4   60 1  
    63    4   61 1  
    64    5   62 1  
    65    6   63 1  
    66    7   64 1  
    67   11   65 1  
    68   12   66 1  
    69   12   67 1  
    70   13   68 1  
    71   13   69 1  
    72   17   70 1  
    73   19   71 1  
    74   20   72 1  
    75   20   73 1  
    76   22   74 1  
    77   22   75 1  
    78   23   76 1  
    79   23   77 1  
    80   24   78 1  
    81   24   79 1  
    82   25   80 1  
    83   25   81 1  
    84   26   82 1  
    85   26   83 1  
    86   27   84 1  
    87   27   85 1  
    88   28   86 1  
    89   28   87 1  
    90   29   88 1  
    91   29   89 1  
    92   31   90 1  
    93   32   91 1  
    94   33   92 1  
    95   34   93 1  
    96   35   94 1  
    97   37   95 1  
    98   38   96 1  
    99   40   97 1  
   100   41   98 1  
   101   44   99 1  
   102   44  100 1  
   103   45  101 1  
   104   46  102 1  
   105   47  103 1  
   106   48  104 1  
   107   49  105 1  
   108   49  106 1  
   109   49  107 1  
   110   57  108 1  
   111   57  109 1  
@<TRIPOS>SUBSTRUCTURE
     1 QAC         1

