2wxp_ligand
  -I-interpret- 

 62 67  0  0  0  0  0  0  0  0999 V2000
   -5.9970    2.5050   27.6560 O   0  0  0  0  0
   -7.9800    0.5790   24.6830 C   0  0  0  0  0
   -6.7160   -2.9640   23.8270 C   0  0  0  0  0
   -7.9350   -2.7570   23.3360 C   0  0  0  0  0
   -9.6310   -1.0480   23.2290 N   0  0  0  0  0
   -5.8510   -4.2110   23.7280 C   0  0  0  0  0
  -11.2320    0.6570   23.2190 C   0  0  0  0  0
   -9.1600    1.0030   24.2860 N   0  0  0  0  0
   -5.7630   -5.9570   22.1500 C   0  0  0  0  0
   -5.8460   -6.2710   20.6410 C   0  0  0  0  0
   -3.9580   -4.6730   20.5110 C   0  0  0  0  0
   -4.2790   -4.0140   21.8760 C   0  0  0  0  0
   -7.1840    1.4710   25.3990 N   0  0  0  0  0
   -4.1790   -7.3910   18.2580 C   0  0  0  0  0
   -5.7460    1.2460   25.5190 C   0  0  0  0  0
   -5.1950    1.5730   26.9190 C   0  0  0  0  0
   -5.5780   -4.5120   22.3420 N   0  3  0  0  0
   -6.1870   -5.7400   17.5140 O   0  0  0  0  0
   -4.8840   -5.7400   18.2520 S   0  0  0  0  0
   -3.9200   -4.8000   17.5660 O   0  0  0  0  0
   -5.1730   -5.2130   19.8460 N   0  0  0  0  0
   -6.1620   -1.6210   24.6140 S   0  0  0  0  0
   -8.4340   -1.5370   23.5720 C   0  0  0  0  0
   -7.5790   -0.7110   24.3300 C   0  0  0  0  0
   -9.9740    0.2100   23.5640 C   0  0  0  0  0
  -11.8750    0.0980   22.1160 C   0  0  0  0  0
  -13.1780    0.5240   21.7810 C   0  0  0  0  0
  -13.8210    1.4830   22.5740 C   0  0  0  0  0
  -13.1820    2.0130   23.7010 C   0  0  0  0  0
  -13.5510    2.9060   24.6310 N   0  0  0  0  0
  -11.9050    1.5970   24.0170 C   0  0  0  0  0
  -11.6100    2.2800   25.1200 C   0  0  0  0  0
  -12.6470    3.0590   25.4530 N   0  0  0  0  0
   -6.8560    3.3550   26.9210 C   0  0  0  0  0
   -7.7840    2.7040   25.9460 C   0  0  0  0  0
   -8.4843   -3.5204   22.7850 H   0  0  0  0  0
   -6.3781   -5.0507   24.1809 H   0  0  0  0  0
   -4.9100   -4.0378   24.2501 H   0  0  0  0  0
   -4.9191   -6.4917   22.5858 H   0  0  0  0  0
   -6.6855   -6.2724   22.6373 H   0  0  0  0  0
   -6.8949   -6.3176   20.3483 H   0  0  0  0  0
   -5.3498   -7.2228   20.4517 H   0  0  0  0  0
   -3.2727   -5.5019   20.6883 H   0  0  0  0  0
   -3.5266   -3.9118   19.8610 H   0  0  0  0  0
   -4.3148   -2.9302   21.7657 H   0  0  0  0  0
   -3.5039   -4.2642   22.6004 H   0  0  0  0  0
   -4.8689   -8.0775   18.7487 H   0  0  0  0  0
   -4.0096   -7.7161   17.2315 H   0  0  0  0  0
   -3.2319   -7.3783   18.7974 H   0  0  0  0  0
   -5.2484    1.9039   24.8065 H   0  0  0  0  0
   -5.5604    0.1887   25.3299 H   0  0  0  0  0
   -5.1768    0.6421   27.4857 H   0  0  0  0  0
   -4.2133    2.0268   26.7831 H   0  0  0  0  0
   -6.2383   -4.0079   21.7502 H   0  0  0  0  0
  -11.3751   -0.6627   21.5165 H   0  0  0  0  0
  -13.6821    0.1084   20.9085 H   0  0  0  0  0
  -14.8245    1.8184   22.3121 H   0  0  0  0  0
  -10.6698    2.2155   25.6677 H   0  0  0  0  0
   -6.2039    3.9965   26.3282 H   0  0  0  0  0
   -7.4936    3.8431   27.6581 H   0  0  0  0  0
   -8.7110    2.4476   26.4588 H   0  0  0  0  0
   -7.9765    3.3962   25.1263 H   0  0  0  0  0
 16  1  1  0  0  0
  1 34  1  0  0  0
  8  2  4  0  0  0
  2 13  1  0  0  0
  2 24  4  0  0  0
  3  4  4  0  0  0
  6  3  1  0  0  0
  3 22  4  0  0  0
  4 23  4  0  0  0
 23  5  4  0  0  0
  5 25  4  0  0  0
 17  6  1  0  0  0
 25  7  1  0  0  0
  7 26  4  0  0  0
  7 31  4  0  0  0
 25  8  4  0  0  0
 10  9  1  0  0  0
  9 17  1  0  0  0
 21 10  1  0  0  0
 11 12  1  0  0  0
 21 11  1  0  0  0
 12 17  1  0  0  0
 13 15  1  0  0  0
 13 35  1  0  0  0
 19 14  1  0  0  0
 15 16  1  0  0  0
 19 18  2  0  0  0
 19 20  2  0  0  0
 19 21  1  0  0  0
 22 24  4  0  0  0
 23 24  4  0  0  0
 26 27  4  0  0  0
 27 28  4  0  0  0
 28 29  4  0  0  0
 29 30  4  0  0  0
 29 31  4  0  0  0
 30 33  4  0  0  0
 31 32  4  0  0  0
 32 33  4  0  0  0
 34 35  1  0  0  0
  4 36  1  0  0  0
  6 37  1  0  0  0
  6 38  1  0  0  0
  9 39  1  0  0  0
  9 40  1  0  0  0
 10 41  1  0  0  0
 10 42  1  0  0  0
 11 43  1  0  0  0
 11 44  1  0  0  0
 12 45  1  0  0  0
 12 46  1  0  0  0
 14 47  1  0  0  0
 14 48  1  0  0  0
 14 49  1  0  0  0
 15 50  1  0  0  0
 15 51  1  0  0  0
 16 52  1  0  0  0
 16 53  1  0  0  0
 17 54  1  0  0  0
 26 55  1  0  0  0
 27 56  1  0  0  0
 28 57  1  0  0  0
 32 58  1  0  0  0
 34 59  1  0  0  0
 34 60  1  0  0  0
 35 61  1  0  0  0
 35 62  1  0  0  0
M  END
$$$$
