### 
### Created by X-TOOL on Mon Sep 10 21:13:11 2018
### 

@<TRIPOS>MOLECULE
3ui2_ligand
  227   228     1     0     0
SMALL
GAST_HUCK


@<TRIPOS>ATOM
      1 N         -30.4900    5.1050   38.8890 N.4       1 GLN         0.2380
      2 CA        -31.1600    5.3970   37.6290 C.3       1 GLN         0.0671
      3 C         -32.6220    5.7420   37.8660 C.2       1 GLN         0.2269
      4 O         -33.5120    5.0680   37.3510 O.2       1 GLN        -0.3907
      5 CB        -31.0710    4.2030   36.6740 C.3       1 GLN         0.0247
      6 CG        -31.8030    2.9390   37.1690 C.3       1 GLN         0.0443
      7 CD        -32.2300    1.9980   36.0260 C.2       1 GLN         0.1738
      8 OE1       -31.8600    2.1970   34.8510 O.2       1 GLN        -0.3973
      9 NE2       -33.0100    0.9640   36.3730 N.am      1 GLN        -0.3009
     10 N         -32.8640    6.7980   38.6410 N.am      1 LYS        -0.2610
     11 CA        -34.2230    7.2100   39.0080 C.3       1 LYS         0.1311
     12 C         -35.0120    7.9700   37.9230 C.2       1 LYS         0.2039
     13 O         -34.4700    8.8420   37.2400 O.2       1 LYS        -0.3944
     14 CB        -34.1870    8.0450   40.2960 C.3       1 LYS        -0.0122
     15 CG        -34.1230    7.2300   41.5910 C.3       1 LYS        -0.0440
     16 CD        -34.3440    8.0980   42.8450 C.3       1 LYS        -0.0124
     17 CE        -34.2500    7.2620   44.1310 C.3       1 LYS        -0.0354
     18 NZ        -34.2560    8.0900   45.3790 N.4       1 LYS         0.2185
     19 N         -36.3030    7.6450   37.7990 N.am      1 ALA        -0.2640
     20 CA        -37.2220    8.3150   36.8640 C.3       1 ALA         0.1284
     21 C         -37.5050    9.7660   37.2550 C.2       1 ALA         0.2061
     22 O         -37.8800   10.0260   38.4030 O.2       1 ALA        -0.3942
     23 CB        -38.5450    7.5440   36.7550 C.3       1 ALA        -0.0244
     24 N         -37.3260   10.7120   36.2930 N.am      1 PRO        -0.2498
     25 CA        -37.6400   12.1430   36.4520 C.3       1 PRO         0.1340
     26 C         -38.9800   12.3870   37.1670 C.2       1 PRO         0.2066
     27 O         -39.8240   11.4920   37.2230 O.2       1 PRO        -0.3942
     28 CB        -37.7200   12.6470   35.0020 C.3       1 PRO        -0.0104
     29 CG        -36.8830   11.7490   34.2260 C.3       1 PRO        -0.0281
     30 CD        -36.7700   10.4290   34.9540 C.3       1 PRO         0.0369
     31 N         -39.1820   13.6020   37.6910 N.am      1 PRO        -0.2498
     32 CA        -40.3590   13.8820   38.5100 C.3       1 PRO         0.1338
     33 C         -41.6330   13.9650   37.6740 C.2       1 PRO         0.2039
     34 O         -41.7290   14.7830   36.7490 O.2       1 PRO        -0.3944
     35 CB        -40.0480   15.2570   39.1270 C.3       1 PRO        -0.0104
     36 CG        -38.6360   15.5590   38.7630 C.3       1 PRO        -0.0281
     37 CD        -38.3730   14.8100   37.5010 C.3       1 PRO         0.0369
     38 N         -42.6030   13.1170   38.0060 N.am      1 GLY        -0.2664
     39 CA        -43.8780   13.1090   37.3220 C.3       1 GLY         0.1201
     40 C         -43.8990   12.3220   36.0260 C.2       1 GLY         0.2008
     41 O         -44.8150   12.5090   35.2330 O.2       1 GLY        -0.3947
     42 N         -42.9160   11.4460   35.8040 N.am      1 THR        -0.2616
     43 CA        -42.8590   10.6730   34.5590 C.3       1 THR         0.1565
     44 C         -42.6830    9.1720   34.7960 C.2       1 THR         0.2065
     45 O         -42.4670    8.7380   35.9310 O.2       1 THR        -0.3943
     46 CB        -41.7290   11.1620   33.6240 C.3       1 THR         0.0924
     47 OG1       -40.4970   10.5260   33.9830 O.3       1 THR        -0.3874
     48 CG2       -41.5620   12.6610   33.7230 C.3       1 THR        -0.0346
     49 N         -42.7740    8.3970   33.7110 N.am      1 ALA        -0.2639
     50 CA        -42.5590    6.9450   33.7350 C.3       1 ALA         0.1282
     51 C         -42.0710    6.3980   32.3800 C.2       1 ALA         0.2036
     52 O         -42.4030    6.9330   31.3240 O.2       1 ALA        -0.3944
     53 CB        -43.8270    6.2230   34.1720 C.3       1 ALA        -0.0244
     54 N         -41.3000    5.3140   32.4230 N.am      1 ARG        -0.2637
     55 CA        -40.6410    4.7590   31.2360 C.3       1 ARG         0.1311
     56 C         -41.6030    4.1090   30.2270 C.2       1 ARG         0.2039
     57 O         -42.4300    3.2730   30.6020 O.2       1 ARG        -0.3944
     58 CB        -39.5690    3.7420   31.6750 C.3       1 ARG        -0.0092
     59 CG        -38.5720    3.2740   30.5970 C.3       1 ARG        -0.0156
     60 CD        -37.3680    2.5960   31.2570 C.3       1 ARG         0.0627
     61 NE        -37.1730    1.1990   30.8610 N.pl3     1 ARG        -0.2723
     62 CZ        -38.1300    0.2730   30.7690 C.cat     1 ARG         0.2882
     63 NH1       -39.3960    0.5630   31.0290 N.pl3     1 ARG        -0.2849
     64 NH2       -37.8140   -0.9640   30.4110 N.pl3     1 ARG        -0.2849
     65 N         -41.4760    4.4870   28.9510 N.am      1 ARG        -0.2637
     66 CA        -42.1620    3.7950   27.8480 C.3       1 ARG         0.1311
     67 C         -41.3360    3.7110   26.5410 C.2       1 ARG         0.2039
     68 O         -40.3330    4.4140   26.3740 O.2       1 ARG        -0.3944
     69 CB        -43.5110    4.4410   27.5680 C.3       1 ARG        -0.0092
     70 CG        -43.4090    5.7860   26.9140 C.3       1 ARG        -0.0156
     71 CD        -44.7730    6.2680   26.5240 C.3       1 ARG         0.0627
     72 NE        -44.6870    7.3040   25.5110 N.pl3     1 ARG        -0.2723
     73 CZ        -45.4160    8.4150   25.5170 C.cat     1 ARG         0.2882
     74 NH1       -46.2920    8.6450   26.4880 N.pl3     1 ARG        -0.2849
     75 NH2       -45.2660    9.3030   24.5440 N.pl3     1 ARG        -0.2849
     76 N         -41.7630    2.8480   25.6210 N.am      1 LYS        -0.2637
     77 CA        -41.0730    2.7160   24.3480 C.3       1 LYS         0.1310
     78 C         -41.3440    3.9260   23.4700 C.2       1 LYS         0.2039
     79 O         -42.3640    4.5920   23.6040 O.2       1 LYS        -0.3944
     80 CB        -41.4720    1.4290   23.6200 C.3       1 LYS        -0.0122
     81 CG        -40.9260    0.1480   24.2500 C.3       1 LYS        -0.0440
     82 CD        -40.9840   -1.0130   23.2530 C.3       1 LYS        -0.0124
     83 CE        -40.4120   -0.5980   21.8800 C.3       1 LYS        -0.0354
     84 NZ        -40.0350   -1.7500   20.9770 N.4       1 LYS         0.2185
     85 N         -40.4190    4.2040   22.5650 N.am      1 ARG        -0.2637
     86 CA        -40.5040    5.3970   21.7380 C.3       1 ARG         0.1310
     87 C         -41.2840    5.1240   20.4640 C.2       1 ARG         0.2033
     88 O         -41.1090    4.0850   19.8110 O.2       1 ARG        -0.3944
     89 CB        -39.1090    5.9310   21.4240 C.3       1 ARG        -0.0092
     90 CG        -38.8530    7.3130   21.9890 C.3       1 ARG        -0.0156
     91 CD        -37.3830    7.5230   22.3210 C.3       1 ARG         0.0627
     92 NE        -37.1110    8.9080   22.6990 N.pl3     1 ARG        -0.2723
     93 CZ        -36.2220    9.2840   23.6140 C.cat     1 ARG         0.2882
     94 NH1       -35.5080    8.3700   24.2600 N.pl3     1 ARG        -0.2849
     95 NH2       -36.0550   10.5760   23.8840 N.pl3     1 ARG        -0.2849
     96 N         -42.1410    6.0770   20.1150 N.am      1 LYS        -0.2695
     97 CA        -43.1530    5.8570   19.0910 C.3       1 LYS         0.0944
     98 C         -43.1990    6.9970   18.0740 C.2       1 LYS         0.0601
     99 O         -42.3910    7.0370   17.1400 O.co2     1 LYS        -0.5666
    100 CB        -44.5230    5.6640   19.7570 C.3       1 LYS        -0.0177
    101 CG        -44.4450    5.3220   21.2600 C.3       1 LYS        -0.0446
    102 CD        -45.4920    4.2970   21.6760 C.3       1 LYS        -0.0125
    103 CE        -45.3150    3.9130   23.1340 C.3       1 LYS        -0.0354
    104 NZ        -46.1780    2.7680   23.5190 N.4       1 LYS         0.2185
    105 OXT       -44.0450    7.8920   18.1740 O.co2     1 LYS        -0.5666
    106 H1        -29.5239    4.8791   38.7113 H         1 GLN         0.2015
    107 H2        -30.9413    4.3224   39.3361 H         1 GLN         0.2015
    108 H3        -30.5411    5.9115   39.4915 H         1 GLN         0.2015
    109 H4        -30.6635    6.2605   37.1623 H         1 GLN         0.1100
    110 H5        -30.0091    3.9531   36.5328 H         1 GLN         0.0370
    111 H6        -31.5093    4.4996   35.7097 H         1 GLN         0.0370
    112 H7        -32.7026    3.2494   37.7207 H         1 GLN         0.0506
    113 H8        -31.1313    2.3875   37.8433 H         1 GLN         0.0506
    114 H9        -33.3212    0.3168   35.6771 H         1 GLN         0.1814
    115 H10       -33.2805    0.8401   37.3277 H         1 GLN         0.1814
    116 H11       -32.0903    7.3297   38.9854 H         1 LYS         0.1884
    117 H12       -34.7846    6.2881   39.2192 H         1 LYS         0.0800
    118 H13       -35.0952    8.6649   40.3269 H         1 LYS         0.0312
    119 H14       -33.3005    8.6950   40.2572 H         1 LYS         0.0312
    120 H15       -33.1333    6.7550   41.6606 H         1 LYS         0.0269
    121 H16       -34.9011    6.4532   41.5579 H         1 LYS         0.0269
    122 H17       -35.3414    8.5585   42.7900 H         1 LYS         0.0317
    123 H18       -33.5773    8.8862   42.8741 H         1 LYS         0.0317
    124 H19       -33.3163    6.6812   44.1022 H         1 LYS         0.0813
    125 H20       -35.1084    6.5749   44.1641 H         1 LYS         0.0813
    126 H21       -34.1924    7.4858   46.1834 H         1 LYS         0.1994
    127 H22       -35.1109    8.6220   45.4252 H         1 LYS         0.1994
    128 H23       -33.4687    8.7194   45.3685 H         1 LYS         0.1994
    129 H24       -36.6632    6.9083   38.3713 H         1 ALA         0.1883
    130 H25       -36.7440    8.3198   35.8733 H         1 ALA         0.0797
    131 H26       -39.2144    8.0620   36.0525 H         1 ALA         0.0277
    132 H27       -39.0217    7.4919   37.7450 H         1 ALA         0.0277
    133 H28       -38.3469    6.5257   36.3893 H         1 ALA         0.0277
    134 H29       -36.8378   12.6537   37.0049 H         1 PRO         0.0802
    135 H30       -37.3428   13.6780   34.9331 H         1 PRO         0.0313
    136 H31       -38.7583   12.6115   34.6405 H         1 PRO         0.0313
    137 H32       -35.8826   12.1899   34.1046 H         1 PRO         0.0287
    138 H33       -37.3348   11.5867   33.2363 H         1 PRO         0.0287
    139 H34       -37.3553    9.6497   34.4441 H         1 PRO         0.0524
    140 H35       -35.7196   10.1106   35.0259 H         1 PRO         0.0524
    141 H36       -40.4816   13.1156   39.2894 H         1 PRO         0.0802
    142 H37       -40.1614   15.2200   40.2205 H         1 PRO         0.0313
    143 H38       -40.7214   16.0226   38.7142 H         1 PRO         0.0313
    144 H39       -37.9548   15.2213   39.5579 H         1 PRO         0.0287
    145 H40       -38.5045   16.6391   38.6018 H         1 PRO         0.0287
    146 H41       -38.7058   15.3799   36.6210 H         1 PRO         0.0524
    147 H42       -37.3059   14.5644   37.3967 H         1 PRO         0.0524
    148 H43       -42.4464   12.4667   38.7494 H         1 GLY         0.1881
    149 H44       -44.1510   14.1500   37.0947 H         1 GLY         0.0763
    150 H45       -44.6271   12.6730   37.9993 H         1 GLY         0.0763
    151 H46       -42.2076   11.3150   36.4975 H         1 THR         0.1884
    152 H47       -43.8176   10.8218   34.0404 H         1 THR         0.0826
    153 H48       -41.9845   10.8977   32.5873 H         1 THR         0.0639
    154 H49       -40.2795   10.7440   34.8817 H         1 THR         0.2101
    155 H50       -40.7542   12.9851   33.0504 H         1 THR         0.0257
    156 H51       -41.3090   12.9342   34.7580 H         1 THR         0.0257
    157 H52       -42.5011   13.1546   33.4325 H         1 THR         0.0257
    158 H53       -43.0002    8.8285   32.8377 H         1 ALA         0.1883
    159 H54       -41.7760    6.7375   34.4792 H         1 ALA         0.0797
    160 H55       -43.6457    5.1381   34.1835 H         1 ALA         0.0277
    161 H56       -44.6403    6.4513   33.4675 H         1 ALA         0.0277
    162 H57       -44.1107    6.5581   35.1806 H         1 ALA         0.0277
    163 H58       -41.1641    4.8582   33.3027 H         1 ARG         0.1883
    164 H59       -40.1374    5.5896   30.7198 H         1 ARG         0.0800
    165 H60       -40.0910    2.8512   32.0545 H         1 ARG         0.0313
    166 H61       -38.9881    4.2011   32.4885 H         1 ARG         0.0313
    167 H62       -38.2280    4.1430   30.0169 H         1 ARG         0.0301
    168 H63       -39.0701    2.5589   29.9258 H         1 ARG         0.0301
    169 H64       -37.5086    2.6289   32.3475 H         1 ARG         0.0689
    170 H65       -36.4634    3.1605   30.9868 H         1 ARG         0.0689
    171 H66       -36.2123    0.9054   30.6334 H         1 ARG         0.2642
    172 H67       -40.1180   -0.1675   30.9516 H         1 ARG         0.2615
    173 H68       -39.6584    1.5190   31.3086 H         1 ARG         0.2615
    174 H69       -36.8342   -1.2062   30.2053 H         1 ARG         0.2615
    175 H70       -38.5483   -1.6827   30.3386 H         1 ARG         0.2615
    176 H71       -40.8922    5.2704   28.7377 H         1 ARG         0.1883
    177 H72       -42.3458    2.7630   28.1813 H         1 ARG         0.0800
    178 H73       -44.0451    4.5582   28.5225 H         1 ARG         0.0313
    179 H74       -44.0845    3.7754   26.9062 H         1 ARG         0.0313
    180 H75       -42.7791    5.7080   26.0156 H         1 ARG         0.0301
    181 H76       -42.9571    6.5005   27.6178 H         1 ARG         0.0301
    182 H77       -45.2789    6.6742   27.4123 H         1 ARG         0.0689
    183 H78       -45.3534    5.4226   26.1259 H         1 ARG         0.0689
    184 H79       -44.0188    7.1695   24.7388 H         1 ARG         0.2642
    185 H80       -46.8517    9.5096   26.4825 H         1 ARG         0.2615
    186 H81       -46.4118    7.9588   27.2467 H         1 ARG         0.2615
    187 H82       -44.5879    9.1294   23.7884 H         1 ARG         0.2615
    188 H83       -45.8276   10.1664   24.5437 H         1 ARG         0.2615
    189 H84       -42.5675    2.2842   25.8079 H         1 LYS         0.1883
    190 H85       -39.9926    2.6717   24.5498 H         1 LYS         0.0800
    191 H86       -41.0994    1.4893   22.5868 H         1 LYS         0.0312
    192 H87       -42.5701    1.3660   23.6108 H         1 LYS         0.0312
    193 H88       -41.5293   -0.1051   25.1343 H         1 LYS         0.0269
    194 H89       -39.8814    0.3116   24.5533 H         1 LYS         0.0269
    195 H90       -42.0311   -1.3252   23.1261 H         1 LYS         0.0317
    196 H91       -40.3956   -1.8546   23.6474 H         1 LYS         0.0317
    197 H92       -39.5117    0.0097   22.0537 H         1 LYS         0.0813
    198 H93       -41.1697    0.0087   21.3626 H         1 LYS         0.0813
    199 H94       -39.6728   -1.3908   20.1076 H         1 LYS         0.1994
    200 H95       -40.8500   -2.3141   20.7939 H         1 LYS         0.1994
    201 H96       -39.3307   -2.3133   21.4272 H         1 LYS         0.1994
    202 H97       -39.6458    3.5808   22.4476 H         1 ARG         0.1883
    203 H98       -41.0439    6.1682   22.3070 H         1 ARG         0.0800
    204 H99       -38.9896    5.9734   20.3313 H         1 ARG         0.0313
    205 H100      -38.3669    5.2382   21.8474 H         1 ARG         0.0313
    206 H101      -39.4468    7.4385   22.9064 H         1 ARG         0.0301
    207 H102      -39.1614    8.0641   21.2469 H         1 ARG         0.0301
    208 H103      -36.7775    7.2680   21.4388 H         1 ARG         0.0689
    209 H104      -37.1079    6.8638   23.1575 H         1 ARG         0.0689
    210 H105      -37.6469    9.6471   22.2220 H         1 ARG         0.2642
    211 H106      -34.8194    8.6607   24.9687 H         1 ARG         0.2615
    212 H107      -35.6426    7.3701   24.0525 H         1 ARG         0.2615
    213 H108      -36.6102   11.2831   23.3814 H         1 ARG         0.2615
    214 H109      -35.3705   10.8691   24.5956 H         1 ARG         0.2615
    215 H110      -42.0900    6.9677   20.5666 H         1 LYS         0.1875
    216 H111      -42.8974    4.9335   18.5508 H         1 LYS         0.0726
    217 H112      -45.0461    4.8447   19.2421 H         1 LYS         0.0305
    218 H113      -45.0978    6.5949   19.6430 H         1 LYS         0.0305
    219 H114      -44.6017    6.2430   21.8407 H         1 LYS         0.0269
    220 H115      -43.4464    4.9160   21.4788 H         1 LYS         0.0269
    221 H116      -45.3867    3.3984   21.0503 H         1 LYS         0.0317
    222 H117      -46.4946    4.7268   21.5347 H         1 LYS         0.0317
    223 H118      -45.5727    4.7783   23.7624 H         1 LYS         0.0813
    224 H119      -44.2637    3.6372   23.3030 H         1 LYS         0.0813
    225 H120      -46.0293    2.5472   24.4912 H         1 LYS         0.1994
    226 H121      -45.9456    1.9669   22.9531 H         1 LYS         0.1994
    227 H122      -47.1451    3.0125   23.3742 H         1 LYS         0.1994
@<TRIPOS>BOND
     1    1    2 1  
     2    2    3 1  
     3    2    5 1  
     4    3    4 2  
     5    3   10 am 
     6    5    6 1  
     7    6    7 1  
     8    7    8 2  
     9    7    9 am 
    10   10   11 1  
    11   11   12 1  
    12   11   14 1  
    13   12   13 2  
    14   12   19 am 
    15   14   15 1  
    16   15   16 1  
    17   16   17 1  
    18   17   18 1  
    19   19   20 1  
    20   20   21 1  
    21   20   23 1  
    22   21   22 2  
    23   21   24 am 
    24   24   25 1  
    25   24   30 1  
    26   25   26 1  
    27   25   28 1  
    28   26   27 2  
    29   26   31 am 
    30   28   29 1  
    31   29   30 1  
    32   31   32 1  
    33   31   37 1  
    34   32   33 1  
    35   32   35 1  
    36   33   34 2  
    37   33   38 am 
    38   35   36 1  
    39   36   37 1  
    40   38   39 1  
    41   39   40 1  
    42   40   41 2  
    43   40   42 am 
    44   42   43 1  
    45   43   44 1  
    46   43   46 1  
    47   44   45 2  
    48   44   49 am 
    49   46   47 1  
    50   46   48 1  
    51   49   50 1  
    52   50   51 1  
    53   50   53 1  
    54   51   52 2  
    55   51   54 am 
    56   54   55 1  
    57   55   56 1  
    58   55   58 1  
    59   56   57 2  
    60   56   65 am 
    61   58   59 1  
    62   59   60 1  
    63   60   61 1  
    64   61   62 ar 
    65   62   63 ar 
    66   62   64 ar 
    67   65   66 1  
    68   66   67 1  
    69   66   69 1  
    70   67   68 2  
    71   67   76 am 
    72   69   70 1  
    73   70   71 1  
    74   71   72 1  
    75   72   73 ar 
    76   73   74 ar 
    77   73   75 ar 
    78   76   77 1  
    79   77   78 1  
    80   77   80 1  
    81   78   79 2  
    82   78   85 am 
    83   80   81 1  
    84   81   82 1  
    85   82   83 1  
    86   83   84 1  
    87   85   86 1  
    88   86   87 1  
    89   86   89 1  
    90   87   88 2  
    91   87   96 am 
    92   89   90 1  
    93   90   91 1  
    94   91   92 1  
    95   92   93 ar 
    96   93   94 ar 
    97   93   95 ar 
    98   96   97 1  
    99   97   98 1  
   100   97  100 1  
   101   98   99 ar 
   102   98  105 ar 
   103  100  101 1  
   104  101  102 1  
   105  102  103 1  
   106  103  104 1  
   107    1  106 1  
   108    1  107 1  
   109    1  108 1  
   110    2  109 1  
   111    5  110 1  
   112    5  111 1  
   113    6  112 1  
   114    6  113 1  
   115    9  114 1  
   116    9  115 1  
   117   10  116 1  
   118   11  117 1  
   119   14  118 1  
   120   14  119 1  
   121   15  120 1  
   122   15  121 1  
   123   16  122 1  
   124   16  123 1  
   125   17  124 1  
   126   17  125 1  
   127   18  126 1  
   128   18  127 1  
   129   18  128 1  
   130   19  129 1  
   131   20  130 1  
   132   23  131 1  
   133   23  132 1  
   134   23  133 1  
   135   25  134 1  
   136   28  135 1  
   137   28  136 1  
   138   29  137 1  
   139   29  138 1  
   140   30  139 1  
   141   30  140 1  
   142   32  141 1  
   143   35  142 1  
   144   35  143 1  
   145   36  144 1  
   146   36  145 1  
   147   37  146 1  
   148   37  147 1  
   149   38  148 1  
   150   39  149 1  
   151   39  150 1  
   152   42  151 1  
   153   43  152 1  
   154   46  153 1  
   155   47  154 1  
   156   48  155 1  
   157   48  156 1  
   158   48  157 1  
   159   49  158 1  
   160   50  159 1  
   161   53  160 1  
   162   53  161 1  
   163   53  162 1  
   164   54  163 1  
   165   55  164 1  
   166   58  165 1  
   167   58  166 1  
   168   59  167 1  
   169   59  168 1  
   170   60  169 1  
   171   60  170 1  
   172   61  171 1  
   173   63  172 1  
   174   63  173 1  
   175   64  174 1  
   176   64  175 1  
   177   65  176 1  
   178   66  177 1  
   179   69  178 1  
   180   69  179 1  
   181   70  180 1  
   182   70  181 1  
   183   71  182 1  
   184   71  183 1  
   185   72  184 1  
   186   74  185 1  
   187   74  186 1  
   188   75  187 1  
   189   75  188 1  
   190   76  189 1  
   191   77  190 1  
   192   80  191 1  
   193   80  192 1  
   194   81  193 1  
   195   81  194 1  
   196   82  195 1  
   197   82  196 1  
   198   83  197 1  
   199   83  198 1  
   200   84  199 1  
   201   84  200 1  
   202   84  201 1  
   203   85  202 1  
   204   86  203 1  
   205   89  204 1  
   206   89  205 1  
   207   90  206 1  
   208   90  207 1  
   209   91  208 1  
   210   91  209 1  
   211   92  210 1  
   212   94  211 1  
   213   94  212 1  
   214   95  213 1  
   215   95  214 1  
   216   96  215 1  
   217   97  216 1  
   218  100  217 1  
   219  100  218 1  
   220  101  219 1  
   221  101  220 1  
   222  102  221 1  
   223  102  222 1  
   224  103  223 1  
   225  103  224 1  
   226  104  225 1  
   227  104  226 1  
   228  104  227 1  
@<TRIPOS>SUBSTRUCTURE
     1 GLN         1

