3ui2_ligand
  -I-interpret- 

225226  0  0  0  0  0  0  0  0999 V2000
  -30.4900    5.1050   38.8890 N   0  3  0  0  0
  -31.1600    5.3970   37.6290 C   0  0  0  0  0
  -32.6220    5.7420   37.8660 C   0  0  0  0  0
  -33.5120    5.0680   37.3510 O   0  0  0  0  0
  -31.0710    4.2030   36.6740 C   0  0  0  0  0
  -31.8030    2.9390   37.1690 C   0  0  0  0  0
  -32.2300    1.9980   36.0260 C   0  0  0  0  0
  -31.8600    2.1970   34.8510 O   0  0  0  0  0
  -33.0100    0.9640   36.3730 N   0  0  0  0  0
  -32.8640    6.7980   38.6410 N   0  0  0  0  0
  -34.2230    7.2100   39.0080 C   0  0  0  0  0
  -35.0120    7.9700   37.9230 C   0  0  0  0  0
  -34.4700    8.8420   37.2400 O   0  0  0  0  0
  -34.1870    8.0450   40.2960 C   0  0  0  0  0
  -34.1230    7.2300   41.5910 C   0  0  0  0  0
  -34.3440    8.0980   42.8450 C   0  0  0  0  0
  -34.2500    7.2620   44.1310 C   0  0  0  0  0
  -34.2560    8.0900   45.3790 N   0  3  0  0  0
  -36.3030    7.6450   37.7990 N   0  0  0  0  0
  -37.2220    8.3150   36.8640 C   0  0  0  0  0
  -37.5050    9.7660   37.2550 C   0  0  0  0  0
  -37.8800   10.0260   38.4030 O   0  0  0  0  0
  -38.5450    7.5440   36.7550 C   0  0  0  0  0
  -37.3260   10.7120   36.2930 N   0  0  0  0  0
  -37.6400   12.1430   36.4520 C   0  0  0  0  0
  -38.9800   12.3870   37.1670 C   0  0  0  0  0
  -39.8240   11.4920   37.2230 O   0  0  0  0  0
  -37.7200   12.6470   35.0020 C   0  0  0  0  0
  -36.8830   11.7490   34.2260 C   0  0  0  0  0
  -36.7700   10.4290   34.9540 C   0  0  0  0  0
  -39.1820   13.6020   37.6910 N   0  0  0  0  0
  -40.3590   13.8820   38.5100 C   0  0  0  0  0
  -41.6330   13.9650   37.6740 C   0  0  0  0  0
  -41.7290   14.7830   36.7490 O   0  0  0  0  0
  -40.0480   15.2570   39.1270 C   0  0  0  0  0
  -38.6360   15.5590   38.7630 C   0  0  0  0  0
  -38.3730   14.8100   37.5010 C   0  0  0  0  0
  -42.6030   13.1170   38.0060 N   0  0  0  0  0
  -43.8780   13.1090   37.3220 C   0  0  0  0  0
  -43.8990   12.3220   36.0260 C   0  0  0  0  0
  -44.8150   12.5090   35.2330 O   0  0  0  0  0
  -42.9160   11.4460   35.8040 N   0  0  0  0  0
  -42.8590   10.6730   34.5590 C   0  0  0  0  0
  -42.6830    9.1720   34.7960 C   0  0  0  0  0
  -42.4670    8.7380   35.9310 O   0  0  0  0  0
  -41.7290   11.1620   33.6240 C   0  0  0  0  0
  -40.4970   10.5260   33.9830 O   0  0  0  0  0
  -41.5620   12.6610   33.7230 C   0  0  0  0  0
  -42.7740    8.3970   33.7110 N   0  0  0  0  0
  -42.5590    6.9450   33.7350 C   0  0  0  0  0
  -42.0710    6.3980   32.3800 C   0  0  0  0  0
  -42.4030    6.9330   31.3240 O   0  0  0  0  0
  -43.8270    6.2230   34.1720 C   0  0  0  0  0
  -41.3000    5.3140   32.4230 N   0  0  0  0  0
  -40.6410    4.7590   31.2360 C   0  0  0  0  0
  -41.6030    4.1090   30.2270 C   0  0  0  0  0
  -42.4300    3.2730   30.6020 O   0  0  0  0  0
  -39.5690    3.7420   31.6750 C   0  0  0  0  0
  -38.5720    3.2740   30.5970 C   0  0  0  0  0
  -37.3680    2.5960   31.2570 C   0  0  0  0  0
  -37.1730    1.1990   30.8610 N   0  0  0  0  0
  -38.1300    0.2730   30.7690 C   0  0  0  0  0
  -39.3960    0.5630   31.0290 N   0  0  0  0  0
  -37.8140   -0.9640   30.4110 N   0  0  0  0  0
  -41.4760    4.4870   28.9510 N   0  0  0  0  0
  -42.1620    3.7950   27.8480 C   0  0  0  0  0
  -41.3360    3.7110   26.5410 C   0  0  0  0  0
  -40.3330    4.4140   26.3740 O   0  0  0  0  0
  -43.5110    4.4410   27.5680 C   0  0  0  0  0
  -43.4090    5.7860   26.9140 C   0  0  0  0  0
  -44.7730    6.2680   26.5240 C   0  0  0  0  0
  -44.6870    7.3040   25.5110 N   0  0  0  0  0
  -45.4160    8.4150   25.5170 C   0  0  0  0  0
  -46.2920    8.6450   26.4880 N   0  0  0  0  0
  -45.2660    9.3030   24.5440 N   0  0  0  0  0
  -41.7630    2.8480   25.6210 N   0  0  0  0  0
  -41.0730    2.7160   24.3480 C   0  0  0  0  0
  -41.3440    3.9260   23.4700 C   0  0  0  0  0
  -42.3640    4.5920   23.6040 O   0  0  0  0  0
  -41.4720    1.4290   23.6200 C   0  0  0  0  0
  -40.9260    0.1480   24.2500 C   0  0  0  0  0
  -40.9840   -1.0130   23.2530 C   0  0  0  0  0
  -40.4120   -0.5980   21.8800 C   0  0  0  0  0
  -40.0350   -1.7500   20.9770 N   0  3  0  0  0
  -40.4190    4.2040   22.5650 N   0  0  0  0  0
  -40.5040    5.3970   21.7380 C   0  0  0  0  0
  -41.2840    5.1240   20.4640 C   0  0  0  0  0
  -41.1090    4.0850   19.8110 O   0  0  0  0  0
  -39.1090    5.9310   21.4240 C   0  0  0  0  0
  -38.8530    7.3130   21.9890 C   0  0  0  0  0
  -37.3830    7.5230   22.3210 C   0  0  0  0  0
  -37.1110    8.9080   22.6990 N   0  0  0  0  0
  -36.2220    9.2840   23.6140 C   0  0  0  0  0
  -35.5080    8.3700   24.2600 N   0  0  0  0  0
  -36.0550   10.5760   23.8840 N   0  0  0  0  0
  -42.1410    6.0770   20.1150 N   0  0  0  0  0
  -43.1530    5.8570   19.0910 C   0  0  0  0  0
  -43.1990    6.9970   18.0740 C   0  0  0  0  0
  -42.3910    7.0370   17.1400 O   0  0  0  0  0
  -44.5230    5.6640   19.7570 C   0  0  0  0  0
  -44.4450    5.3220   21.2600 C   0  0  0  0  0
  -45.4920    4.2970   21.6760 C   0  0  0  0  0
  -45.3150    3.9130   23.1340 C   0  0  0  0  0
  -46.1780    2.7680   23.5190 N   0  3  0  0  0
  -44.0450    7.8920   18.1740 O   0  0  0  0  0
  -30.5628    5.9134   39.5067 H   0  0  0  0  0
  -30.9327    4.2983   39.3291 H   0  0  0  0  0
  -29.5070    4.8995   38.7104 H   0  0  0  0  0
  -30.6567    6.2522   37.1779 H   0  0  0  0  0
  -30.0160    3.9462   36.5788 H   0  0  0  0  0
  -31.5453    4.5033   35.7397 H   0  0  0  0  0
  -32.7066    3.2618   37.6861 H   0  0  0  0  0
  -31.1147    2.3885   37.8103 H   0  0  0  0  0
  -33.3246    0.3019   35.6637 H   0  0  0  0  0
  -33.2887    0.8395   37.3462 H   0  0  0  0  0
  -32.0748    7.3403   38.9923 H   0  0  0  0  0
  -34.7651    6.2751   39.1503 H   0  0  0  0  0
  -35.1149    8.6160   40.3280 H   0  0  0  0  0
  -33.2791    8.6468   40.2567 H   0  0  0  0  0
  -33.1303    6.7853   41.6601 H   0  0  0  0  0
  -34.9139    6.4807   41.5566 H   0  0  0  0  0
  -35.3401    8.5371   42.7902 H   0  0  0  0  0
  -33.5709    8.8658   42.8746 H   0  0  0  0  0
  -33.3059    6.7181   44.1016 H   0  0  0  0  0
  -35.1231    6.6103   44.1643 H   0  0  0  0  0
  -34.1916    7.4776   46.1922 H   0  0  0  0  0
  -33.4590    8.7264   45.3672 H   0  0  0  0  0
  -35.1215    8.6278   45.4246 H   0  0  0  0  0
  -36.6704    6.8936   38.3827 H   0  0  0  0  0
  -36.7225    8.3250   35.8952 H   0  0  0  0  0
  -38.3473    6.5352   36.3926 H   0  0  0  0  0
  -39.0163    7.4931   37.7365 H   0  0  0  0  0
  -39.2074    8.0583   36.0587 H   0  0  0  0  0
  -36.8962   12.6506   37.0662 H   0  0  0  0  0
  -37.3777   13.6786   34.9207 H   0  0  0  0  0
  -38.7473   12.6467   34.6376 H   0  0  0  0  0
  -35.8922   12.1859   34.1013 H   0  0  0  0  0
  -37.3271   11.5899   33.2434 H   0  0  0  0  0
  -37.3060    9.6284   34.4443 H   0  0  0  0  0
  -35.7422   10.0690   35.0006 H   0  0  0  0  0
  -40.5385   13.0969   39.2445 H   0  0  0  0  0
  -40.1833   15.2446   40.2085 H   0  0  0  0  0
  -40.7259   16.0223   38.7490 H   0  0  0  0  0
  -37.9493   15.2571   39.5538 H   0  0  0  0  0
  -38.4814   16.6296   38.6284 H   0  0  0  0  0
  -38.6360   15.3696   36.6034 H   0  0  0  0  0
  -37.3163   14.6008   37.3347 H   0  0  0  0  0
  -42.4433   12.4537   38.7642 H   0  0  0  0  0
  -44.1074   14.1438   37.0677 H   0  0  0  0  0
  -44.5940   12.6339   37.9926 H   0  0  0  0  0
  -42.1934   11.3124   36.5114 H   0  0  0  0  0
  -43.8248   10.8379   34.0814 H   0  0  0  0  0
  -41.9959   10.9045   32.5990 H   0  0  0  0  0
  -39.7983   10.8323   33.4002 H   0  0  0  0  0
  -42.4932   13.1488   33.4350 H   0  0  0  0  0
  -41.3114   12.9304   34.7490 H   0  0  0  0  0
  -40.7614   12.9809   33.0561 H   0  0  0  0  0
  -43.0048    8.8371   32.8202 H   0  0  0  0  0
  -41.7691    6.7541   34.4615 H   0  0  0  0  0
  -44.1070    6.5559   35.1714 H   0  0  0  0  0
  -44.6321    6.4501   33.4731 H   0  0  0  0  0
  -43.6461    5.1482   34.1830 H   0  0  0  0  0
  -41.1614    4.8491   33.3202 H   0  0  0  0  0
  -40.1876    5.6005   30.7122 H   0  0  0  0  0
  -40.1126    2.8503   31.9871 H   0  0  0  0  0
  -38.9725    4.2456   32.4357 H   0  0  0  0  0
  -38.2294    4.1371   30.0262 H   0  0  0  0  0
  -39.0664    2.5625   29.9356 H   0  0  0  0  0
  -37.5447    2.6035   32.3326 H   0  0  0  0  0
  -36.4794    3.1453   30.9459 H   0  0  0  0  0
  -36.2217    0.9082   30.6356 H   0  0  0  0  0
  -39.6559    1.5097   31.3059 H   0  0  0  0  0
  -38.5412   -1.6757   30.3393 H   0  0  0  0  0
  -36.8438   -1.2039   30.2073 H   0  0  0  0  0
  -40.8805    5.2860   28.7334 H   0  0  0  0  0
  -42.3000    2.7687   28.1883 H   0  0  0  0  0
  -44.0112    4.5810   28.5263 H   0  0  0  0  0
  -44.0513    3.7858   26.8847 H   0  0  0  0  0
  -42.7873    5.7060   26.0222 H   0  0  0  0  0
  -42.9642    6.4934   27.6139 H   0  0  0  0  0
  -45.2642    6.6800   27.4055 H   0  0  0  0  0
  -45.3387    5.4287   26.1195 H   0  0  0  0  0
  -44.0253    7.1708   24.7463 H   0  0  0  0  0
  -46.8457    9.5016   26.4830 H   0  0  0  0  0
  -46.4112    7.9650   27.2389 H   0  0  0  0  0
  -44.5938    9.1315   23.7962 H   0  0  0  0  0
  -42.5836    2.2730   25.8116 H   0  0  0  0  0
  -40.0044    2.6612   24.5559 H   0  0  0  0  0
  -41.0579    1.4907   22.6136 H   0  0  0  0  0
  -42.5594    1.3649   23.6590 H   0  0  0  0  0
  -41.5333   -0.1036   25.1195 H   0  0  0  0  0
  -39.8881    0.3124   24.5394 H   0  0  0  0  0
  -42.0252   -1.3076   23.1218 H   0  0  0  0  0
  -40.3878   -1.8376   23.6437 H   0  0  0  0  0
  -39.4987   -0.0357   22.0742 H   0  0  0  0  0
  -41.1934   -0.0366   21.3678 H   0  0  0  0  0
  -39.6687   -1.3854   20.0976 H   0  0  0  0  0
  -39.3223   -2.3192   21.4336 H   0  0  0  0  0
  -40.8605   -2.3201   20.7925 H   0  0  0  0  0
  -39.6303    3.5683   22.4452 H   0  0  0  0  0
  -41.0432    6.1615   22.2974 H   0  0  0  0  0
  -39.0188    5.9973   20.3398 H   0  0  0  0  0
  -38.3872    5.2516   21.8775 H   0  0  0  0  0
  -39.4308    7.4208   22.9070 H   0  0  0  0  0
  -39.1440    8.0492   21.2398 H   0  0  0  0  0
  -36.7922    7.2844   21.4366 H   0  0  0  0  0
  -37.1237    6.8789   23.1612 H   0  0  0  0  0
  -37.6417    9.6399   22.2266 H   0  0  0  0  0
  -35.6413    7.3798   24.0545 H   0  0  0  0  0
  -35.3771   10.8663   24.5887 H   0  0  0  0  0
  -36.6048   11.2763   23.3863 H   0  0  0  0  0
  -42.0890    6.9856   20.5757 H   0  0  0  0  0
  -42.8870    4.9551   18.5397 H   0  0  0  0  0
  -41.8021    6.2808   17.1952 H   0  0  0  0  0
  -45.0105    4.8261   19.2587 H   0  0  0  0  0
  -45.0631    6.6065   19.6666 H   0  0  0  0  0
  -44.6252    6.2370   21.8243 H   0  0  0  0  0
  -43.4604    4.8990   21.4594 H   0  0  0  0  0
  -45.3773    3.4053   21.0597 H   0  0  0  0  0
  -46.4830    4.7309   21.5431 H   0  0  0  0  0
  -45.5936    4.7699   23.7474 H   0  0  0  0  0
  -44.2757    3.6211   23.2848 H   0  0  0  0  0
  -46.0267    2.5455   24.5029 H   0  0  0  0  0
  -47.1563    3.0166   23.3720 H   0  0  0  0  0
  -45.9419    1.9580   22.9458 H   0  0  0  0  0
  1  2  1  0  0  0
  2  3  1  0  0  0
  2  5  1  0  0  0
  3  4  2  0  0  0
  3 10  1  0  0  0
  5  6  1  0  0  0
  6  7  1  0  0  0
  7  8  2  0  0  0
  7  9  1  0  0  0
 10 11  1  0  0  0
 11 12  1  0  0  0
 11 14  1  0  0  0
 12 13  2  0  0  0
 12 19  1  0  0  0
 14 15  1  0  0  0
 15 16  1  0  0  0
 16 17  1  0  0  0
 17 18  1  0  0  0
 19 20  1  0  0  0
 20 21  1  0  0  0
 20 23  1  0  0  0
 21 22  2  0  0  0
 21 24  1  0  0  0
 24 25  1  0  0  0
 24 30  1  0  0  0
 25 26  1  0  0  0
 25 28  1  0  0  0
 26 27  2  0  0  0
 26 31  1  0  0  0
 28 29  1  0  0  0
 29 30  1  0  0  0
 31 32  1  0  0  0
 31 37  1  0  0  0
 32 33  1  0  0  0
 32 35  1  0  0  0
 33 34  2  0  0  0
 33 38  1  0  0  0
 35 36  1  0  0  0
 36 37  1  0  0  0
 38 39  1  0  0  0
 39 40  1  0  0  0
 40 41  2  0  0  0
 40 42  1  0  0  0
 42 43  1  0  0  0
 43 44  1  0  0  0
 43 46  1  0  0  0
 44 45  2  0  0  0
 44 49  1  0  0  0
 46 47  1  0  0  0
 46 48  1  0  0  0
 49 50  1  0  0  0
 50 51  1  0  0  0
 50 53  1  0  0  0
 51 52  2  0  0  0
 51 54  1  0  0  0
 54 55  1  0  0  0
 55 56  1  0  0  0
 55 58  1  0  0  0
 56 57  2  0  0  0
 56 65  1  0  0  0
 58 59  1  0  0  0
 59 60  1  0  0  0
 60 61  1  0  0  0
 61 62  1  0  0  0
 62 63  2  0  0  0
 62 64  1  0  0  0
 65 66  1  0  0  0
 66 67  1  0  0  0
 66 69  1  0  0  0
 67 68  2  0  0  0
 67 76  1  0  0  0
 69 70  1  0  0  0
 70 71  1  0  0  0
 71 72  1  0  0  0
 72 73  1  0  0  0
 73 74  1  0  0  0
 73 75  2  0  0  0
 76 77  1  0  0  0
 77 78  1  0  0  0
 77 80  1  0  0  0
 78 79  2  0  0  0
 78 85  1  0  0  0
 80 81  1  0  0  0
 81 82  1  0  0  0
 82 83  1  0  0  0
 83 84  1  0  0  0
 85 86  1  0  0  0
 86 87  1  0  0  0
 86 89  1  0  0  0
 87 88  2  0  0  0
 87 96  1  0  0  0
 89 90  1  0  0  0
 90 91  1  0  0  0
 91 92  1  0  0  0
 92 93  1  0  0  0
 93 94  2  0  0  0
 93 95  1  0  0  0
 96 97  1  0  0  0
 97 98  1  0  0  0
 97100  1  0  0  0
 98 99  1  0  0  0
 98105  2  0  0  0
100101  1  0  0  0
101102  1  0  0  0
102103  1  0  0  0
103104  1  0  0  0
  1106  1  0  0  0
  1107  1  0  0  0
  1108  1  0  0  0
  2109  1  0  0  0
  5110  1  0  0  0
  5111  1  0  0  0
  6112  1  0  0  0
  6113  1  0  0  0
  9114  1  0  0  0
  9115  1  0  0  0
 10116  1  0  0  0
 11117  1  0  0  0
 14118  1  0  0  0
 14119  1  0  0  0
 15120  1  0  0  0
 15121  1  0  0  0
 16122  1  0  0  0
 16123  1  0  0  0
 17124  1  0  0  0
 17125  1  0  0  0
 18126  1  0  0  0
 18127  1  0  0  0
 18128  1  0  0  0
 19129  1  0  0  0
 20130  1  0  0  0
 23131  1  0  0  0
 23132  1  0  0  0
 23133  1  0  0  0
 25134  1  0  0  0
 28135  1  0  0  0
 28136  1  0  0  0
 29137  1  0  0  0
 29138  1  0  0  0
 30139  1  0  0  0
 30140  1  0  0  0
 32141  1  0  0  0
 35142  1  0  0  0
 35143  1  0  0  0
 36144  1  0  0  0
 36145  1  0  0  0
 37146  1  0  0  0
 37147  1  0  0  0
 38148  1  0  0  0
 39149  1  0  0  0
 39150  1  0  0  0
 42151  1  0  0  0
 43152  1  0  0  0
 46153  1  0  0  0
 47154  1  0  0  0
 48155  1  0  0  0
 48156  1  0  0  0
 48157  1  0  0  0
 49158  1  0  0  0
 50159  1  0  0  0
 53160  1  0  0  0
 53161  1  0  0  0
 53162  1  0  0  0
 54163  1  0  0  0
 55164  1  0  0  0
 58165  1  0  0  0
 58166  1  0  0  0
 59167  1  0  0  0
 59168  1  0  0  0
 60169  1  0  0  0
 60170  1  0  0  0
 61171  1  0  0  0
 63172  1  0  0  0
 64173  1  0  0  0
 64174  1  0  0  0
 65175  1  0  0  0
 66176  1  0  0  0
 69177  1  0  0  0
 69178  1  0  0  0
 70179  1  0  0  0
 70180  1  0  0  0
 71181  1  0  0  0
 71182  1  0  0  0
 72183  1  0  0  0
 74184  1  0  0  0
 74185  1  0  0  0
 75186  1  0  0  0
 76187  1  0  0  0
 77188  1  0  0  0
 80189  1  0  0  0
 80190  1  0  0  0
 81191  1  0  0  0
 81192  1  0  0  0
 82193  1  0  0  0
 82194  1  0  0  0
 83195  1  0  0  0
 83196  1  0  0  0
 84197  1  0  0  0
 84198  1  0  0  0
 84199  1  0  0  0
 85200  1  0  0  0
 86201  1  0  0  0
 89202  1  0  0  0
 89203  1  0  0  0
 90204  1  0  0  0
 90205  1  0  0  0
 91206  1  0  0  0
 91207  1  0  0  0
 92208  1  0  0  0
 94209  1  0  0  0
 95210  1  0  0  0
 95211  1  0  0  0
 96212  1  0  0  0
 97213  1  0  0  0
 99214  1  0  0  0
100215  1  0  0  0
100216  1  0  0  0
101217  1  0  0  0
101218  1  0  0  0
102219  1  0  0  0
102220  1  0  0  0
103221  1  0  0  0
103222  1  0  0  0
104223  1  0  0  0
104224  1  0  0  0
104225  1  0  0  0
M  END
$$$$
