5epy_ligand
  -I-interpret- 

103108  0  0  0  0  0  0  0  0999 V2000
  -14.9650  -10.5520   12.9260 C   0  0  0  0  0
  -17.2500   -8.9460   13.8160 C   0  0  0  0  0
  -16.5580   -7.1300   12.1820 C   0  0  0  0  0
  -15.3580   -4.9750   12.5030 C   0  0  0  0  0
  -14.0490   -5.2430   15.3510 C   0  0  0  0  0
  -13.0850   -5.1240   16.4420 C   0  0  0  0  0
  -12.8540   -6.2690   17.3440 C   0  0  0  0  0
  -15.8080  -14.4470   16.1490 C   0  0  0  0  0
  -14.3980  -14.1160   16.4310 C   0  0  0  0  0
  -13.5150  -14.4440   15.2780 C   0  0  0  0  0
  -13.4270  -13.7200   14.0790 C   0  0  0  0  0
  -14.2370  -12.6210   13.9150 O   0  0  0  0  0
  -13.7670  -11.5930   13.0520 C   0  0  0  0  0
  -12.7470  -10.9100   13.4480 C   0  0  0  0  0
  -13.3640   -9.7830   14.3200 C   0  0  0  0  0
  -14.8440   -9.7430   13.9160 N   0  0  0  0  0
  -15.8730   -8.9160   14.4630 C   0  0  0  0  0
  -15.6480   -8.1870   15.3350 O   0  0  0  0  0
  -17.5870   -7.6170   13.1780 C   0  0  0  0  0
  -16.6200   -5.6290   12.0000 C   0  0  0  0  0
  -15.6150   -4.2710   13.7960 C   0  0  0  0  0
  -14.3060   -4.1740   14.5470 C   0  0  0  0  0
  -12.2780   -6.3870   15.9300 C   0  0  0  0  0
  -12.5790   -7.7780   15.6110 N   0  0  0  0  0
  -12.9860   -8.3150   14.3760 C   0  0  0  0  0
  -13.0820   -7.6610   13.4350 O   0  0  0  0  0
  -10.9780   -5.8310   15.2530 C   0  0  0  0  0
  -10.6640   -4.7370   15.4050 O   0  0  0  0  0
  -10.1320   -6.5960   14.4230 N   0  0  0  0  0
   -8.8330   -6.0530   13.7530 S   0  0  0  0  0
   -8.0250   -5.4660   14.6370 O   0  0  0  0  0
   -9.2120   -5.0870   12.9580 O   0  0  0  0  0
   -8.0580   -7.2920   12.6830 C   0  0  0  0  0
   -6.5820   -7.1110   12.5500 C   0  0  0  0  0
   -7.0850   -8.1030   13.4990 C   0  0  0  0  0
  -18.3310   -9.2430   14.6550 N   0  0  0  0  0
  -18.8170  -10.5420   14.7340 C   0  0  0  0  0
  -18.2210  -11.4560   14.2390 O   0  0  0  0  0
  -19.6730  -10.7330   15.8080 O   0  0  0  0  0
  -20.4540  -11.9280   15.8330 C   0  0  0  0  0
  -21.0190  -12.3220   14.4600 C   0  0  0  0  0
  -21.6220  -11.7010   16.7830 C   0  0  0  0  0
  -19.6140  -13.0540   16.3390 C   0  0  0  0  0
  -12.6050  -14.1560   13.1220 N   0  0  0  0  0
  -11.8840  -15.2930   13.4130 C   0  0  0  0  0
  -10.9800  -15.8230   12.4950 C   0  0  0  0  0
  -10.2400  -16.9740   12.8230 C   0  0  0  0  0
   -9.3280  -17.5610   11.9910 O   0  0  0  0  0
   -9.0150  -16.9210   10.7850 C   0  0  0  0  0
  -10.3920  -17.6090   14.0450 C   0  0  0  0  0
  -11.2600  -17.0890   14.9720 C   0  0  0  0  0
  -11.9980  -15.9430   14.6050 C   0  0  0  0  0
  -12.8330  -15.5180   15.5030 N   0  0  0  0  0
  -15.9296  -11.0591   12.9493 H   0  0  0  0  0
  -14.9233  -10.0188   11.9762 H   0  0  0  0  0
  -17.1432   -9.7613   13.1005 H   0  0  0  0  0
  -16.7619   -7.6008   11.2203 H   0  0  0  0  0
  -15.5680   -7.3894   12.5571 H   0  0  0  0  0
  -15.0165   -4.2488   11.7654 H   0  0  0  0  0
  -14.5997   -5.7419   12.6612 H   0  0  0  0  0
  -14.5634   -6.1886   15.1801 H   0  0  0  0  0
  -13.0889   -4.0737   16.7333 H   0  0  0  0  0
  -13.4631   -6.8899   18.0010 H   0  0  0  0  0
  -12.4843   -6.4098   18.3597 H   0  0  0  0  0
  -16.1472  -13.8783   15.2832 H   0  0  0  0  0
  -15.8950  -15.5135   15.9415 H   0  0  0  0  0
  -16.4197  -14.1928   17.0147 H   0  0  0  0  0
  -14.0727  -14.7019   17.2907 H   0  0  0  0  0
  -14.3282  -13.0455   16.6238 H   0  0  0  0  0
  -13.4476  -12.0964   12.1395 H   0  0  0  0  0
  -12.1655  -10.5157   12.6147 H   0  0  0  0  0
  -12.0335  -11.5183   14.0039 H   0  0  0  0  0
  -12.9751  -10.1109   15.2840 H   0  0  0  0  0
  -17.6352   -6.8786   13.9783 H   0  0  0  0  0
  -18.5232   -7.7484   12.6355 H   0  0  0  0  0
  -17.4664   -5.2413   12.5670 H   0  0  0  0  0
  -16.7306   -5.4084   10.9383 H   0  0  0  0  0
  -16.3462   -4.8239   14.3857 H   0  0  0  0  0
  -16.0148   -3.2745   13.6080 H   0  0  0  0  0
  -13.6290   -3.3249   14.4533 H   0  0  0  0  0
  -12.4825   -8.4435   16.3779 H   0  0  0  0  0
  -10.3868   -7.5683   14.2497 H   0  0  0  0  0
   -8.8712   -7.4720   11.9799 H   0  0  0  0  0
   -5.8673   -6.2881   12.5462 H   0  0  0  0  0
   -5.8441   -7.0623   11.7492 H   0  0  0  0  0
   -6.9092   -9.1478   13.7549 H   0  0  0  0  0
   -6.9320   -8.3844   14.5409 H   0  0  0  0  0
  -18.7627   -8.5037   15.2095 H   0  0  0  0  0
  -21.6591  -11.5217   14.0887 H   0  0  0  0  0
  -20.1967  -12.4842   13.7631 H   0  0  0  0  0
  -21.6007  -13.2387   14.5574 H   0  0  0  0  0
  -21.2403  -11.4771   17.7791 H   0  0  0  0  0
  -22.2218  -10.8639   16.4258 H   0  0  0  0  0
  -22.2371  -12.6000   16.8218 H   0  0  0  0  0
  -18.7566  -13.1907   15.6800 H   0  0  0  0  0
  -19.2666  -12.8225   17.3459 H   0  0  0  0  0
  -20.2077  -13.9679   16.3592 H   0  0  0  0  0
  -10.8461  -15.3466   11.5238 H   0  0  0  0  0
   -9.9182  -16.8211   10.1831 H   0  0  0  0  0
   -8.6057  -15.9328   10.9951 H   0  0  0  0  0
   -8.2783  -17.5128   10.2416 H   0  0  0  0  0
   -9.8269  -18.5140   14.2682 H   0  0  0  0  0
  -11.3754  -17.5442   15.9557 H   0  0  0  0  0
  1 13  1  0  0  0
 16  1  1  0  0  0
  2 17  1  0  0  0
 19  2  1  0  0  0
  2 36  1  0  0  0
  3 19  1  0  0  0
 20  3  1  0  0  0
  4 20  1  0  0  0
 21  4  1  0  0  0
  5  6  1  0  0  0
 22  5  2  0  0  0
  6  7  1  0  0  0
  6 23  1  0  0  0
 23  7  1  0  0  0
  9  8  1  0  0  0
 10  9  1  0  0  0
 11 10  4  0  0  0
 10 53  4  0  0  0
 12 11  1  0  0  0
 11 44  4  0  0  0
 13 12  1  0  0  0
 14 13  1  0  0  0
 15 14  1  0  0  0
 16 15  1  0  0  0
 15 25  1  0  0  0
 17 16  1  0  0  0
 17 18  2  0  0  0
 21 22  1  0  0  0
 23 24  1  0  0  0
 23 27  1  0  0  0
 24 25  1  0  0  0
 25 26  2  0  0  0
 27 28  2  0  0  0
 27 29  1  0  0  0
 29 30  1  0  0  0
 30 31  2  0  0  0
 30 32  2  0  0  0
 30 33  1  0  0  0
 33 34  1  0  0  0
 33 35  1  0  0  0
 34 35  1  0  0  0
 36 37  1  0  0  0
 37 38  2  0  0  0
 37 39  1  0  0  0
 39 40  1  0  0  0
 40 41  1  0  0  0
 40 42  1  0  0  0
 40 43  1  0  0  0
 44 45  4  0  0  0
 45 46  4  0  0  0
 45 52  4  0  0  0
 46 47  4  0  0  0
 47 48  1  0  0  0
 47 50  4  0  0  0
 48 49  1  0  0  0
 50 51  4  0  0  0
 51 52  4  0  0  0
 52 53  4  0  0  0
  1 54  1  0  0  0
  1 55  1  0  0  0
  2 56  1  0  0  0
  3 57  1  0  0  0
  3 58  1  0  0  0
  4 59  1  0  0  0
  4 60  1  0  0  0
  5 61  1  0  0  0
  6 62  1  0  0  0
  7 63  1  0  0  0
  7 64  1  0  0  0
  8 65  1  0  0  0
  8 66  1  0  0  0
  8 67  1  0  0  0
  9 68  1  0  0  0
  9 69  1  0  0  0
 13 70  1  0  0  0
 14 71  1  0  0  0
 14 72  1  0  0  0
 15 73  1  0  0  0
 19 74  1  0  0  0
 19 75  1  0  0  0
 20 76  1  0  0  0
 20 77  1  0  0  0
 21 78  1  0  0  0
 21 79  1  0  0  0
 22 80  1  0  0  0
 24 81  1  0  0  0
 29 82  1  0  0  0
 33 83  1  0  0  0
 34 84  1  0  0  0
 34 85  1  0  0  0
 35 86  1  0  0  0
 35 87  1  0  0  0
 36 88  1  0  0  0
 41 89  1  0  0  0
 41 90  1  0  0  0
 41 91  1  0  0  0
 42 92  1  0  0  0
 42 93  1  0  0  0
 42 94  1  0  0  0
 43 95  1  0  0  0
 43 96  1  0  0  0
 43 97  1  0  0  0
 46 98  1  0  0  0
 49 99  1  0  0  0
 49100  1  0  0  0
 49101  1  0  0  0
 50102  1  0  0  0
 51103  1  0  0  0
M  END
$$$$
