4pyq_ligand
  -I-interpret- 

 39 40  0  0  0  0  0  0  0  0999 V2000
    2.6760  -32.6790  -34.1180 C   0  0  0  0  0
    8.4890  -32.4080  -30.9730 C   0  0  0  0  0
    1.8610  -32.6590  -35.2900 N   0  0  0  0  0
    4.0690  -32.5760  -34.4310 N   0  0  0  0  0
    7.3250  -32.4800  -31.8650 C   0  0  0  0  0
    8.3710  -32.7870  -29.6110 N   0  0  0  0  0
    2.2230  -32.7590  -32.9900 O   0  0  0  0  0
    0.4410  -32.7720  -35.4300 C   0  0  0  0  0
    7.5260  -32.2950  -33.2140 C   0  0  0  0  0
    6.0690  -32.7020  -31.3420 C   0  0  0  0  0
    9.6070  -31.9500  -31.4500 N   0  0  0  0  0
    5.1760  -32.5470  -33.5420 C   0  0  0  0  0
   -0.0570  -32.6240  -36.7100 C   0  0  0  0  0
    6.4440  -32.3380  -34.0530 C   0  0  0  0  0
    4.9810  -32.7380  -32.1880 C   0  0  0  0  0
   -1.4090  -32.7380  -36.9600 C   0  0  0  0  0
   -3.3050  -32.7000  -38.4960 N   0  3  0  0  0
   -1.7880  -33.1690  -34.6280 C   0  0  0  0  0
   -0.4280  -33.0640  -34.3900 C   0  0  0  0  0
   -1.8810  -32.5550  -38.3680 C   0  0  0  0  0
   -2.2820  -33.0100  -35.9140 C   0  0  0  0  0
    2.3713  -32.5464  -36.1660 H   0  0  0  0  0
    4.2965  -32.5155  -35.4235 H   0  0  0  0  0
    9.1731  -32.7021  -28.9867 H   0  0  0  0  0
    7.4840  -33.1444  -29.2561 H   0  0  0  0  0
    8.5270  -32.1177  -33.6072 H   0  0  0  0  0
    5.9373  -32.8477  -30.2698 H   0  0  0  0  0
   10.4209  -31.8573  -30.8422 H   0  0  0  0  0
    0.6267  -32.4146  -37.5327 H   0  0  0  0  0
    6.5828  -32.2071  -35.1262 H   0  0  0  0  0
    3.9803  -32.9148  -31.7936 H   0  0  0  0  0
   -3.5729  -32.5664  -39.4711 H   0  0  0  0  0
   -3.5791  -33.6342  -38.1918 H   0  0  0  0  0
   -3.7702  -32.0020  -37.9156 H   0  0  0  0  0
   -2.4707  -33.3768  -33.8041 H   0  0  0  0  0
   -0.0396  -33.2113  -33.3823 H   0  0  0  0  0
   -1.4089  -33.3215  -38.9826 H   0  0  0  0  0
   -1.6168  -31.5452  -38.6820 H   0  0  0  0  0
   -3.3518  -33.0981  -36.1035 H   0  0  0  0  0
  1  3  1  0  0  0
  4  1  1  0  0  0
  1  7  2  0  0  0
  5  2  1  0  0  0
  2  6  1  0  0  0
  2 11  2  0  0  0
  3  8  1  0  0  0
 12  4  1  0  0  0
  9  5  4  0  0  0
  5 10  4  0  0  0
  8 13  4  0  0  0
  8 19  4  0  0  0
 14  9  4  0  0  0
 10 15  4  0  0  0
 12 14  4  0  0  0
 12 15  4  0  0  0
 13 16  4  0  0  0
 16 20  1  0  0  0
 16 21  4  0  0  0
 20 17  1  0  0  0
 19 18  4  0  0  0
 18 21  4  0  0  0
  3 22  1  0  0  0
  4 23  1  0  0  0
  6 24  1  0  0  0
  6 25  1  0  0  0
  9 26  1  0  0  0
 10 27  1  0  0  0
 11 28  1  0  0  0
 13 29  1  0  0  0
 14 30  1  0  0  0
 15 31  1  0  0  0
 17 32  1  0  0  0
 17 33  1  0  0  0
 17 34  1  0  0  0
 18 35  1  0  0  0
 19 36  1  0  0  0
 20 37  1  0  0  0
 20 38  1  0  0  0
 21 39  1  0  0  0
M  END
$$$$
