2jgs_ligand
  -I-interpret- 

 32 33  0  0  0  0  0  0  0  0999 V2000
   40.9760    9.8220   50.3020 C   0  0  0  0  0
   41.4350    8.9490   49.5410 O   0  0  0  0  0
   41.3020    9.7760   51.5150 O   0  0  0  0  0
   40.0800   10.9260   49.7680 C   0  0  0  0  0
   39.4860   11.7220   50.9350 C   0  0  0  0  0
   38.2060   11.0440   51.4210 C   0  0  0  0  0
   37.3790   12.0510   52.1780 C   0  0  0  0  0
   36.1640   11.3440   52.7510 C   0  0  0  0  0
   34.9530   11.1700   51.5790 S   0  0  0  0  0
   33.7920   10.8470   52.9300 C   0  0  0  0  0
   34.1860   11.6800   54.1370 C   0  0  0  0  0
   33.5500   12.9830   54.1100 N   0  0  0  0  0
   34.4400   13.9700   53.9950 C   0  0  0  0  0
   34.1050   15.3200   53.9810 O   0  0  0  0  0
   35.6780   13.5110   53.9260 N   0  0  0  0  0
   35.6590   12.0600   54.0010 C   0  0  0  0  0
   40.8826   10.5001   51.9856 H   0  0  0  0  0
   39.2721   10.4842   49.1847 H   0  0  0  0  0
   40.6674   11.5939   49.1380 H   0  0  0  0  0
   39.2552   12.7340   50.6022 H   0  0  0  0  0
   40.2074   11.7599   51.7512 H   0  0  0  0  0
   38.4564   10.2073   52.0731 H   0  0  0  0  0
   37.6406   10.6687   50.5681 H   0  0  0  0  0
   37.0625   12.8509   51.5086 H   0  0  0  0  0
   37.9698   12.4871   52.9835 H   0  0  0  0  0
   36.4601   10.3395   53.0532 H   0  0  0  0  0
   33.8196    9.7891   53.1909 H   0  0  0  0  0
   32.7825   11.1125   52.6161 H   0  0  0  0  0
   33.9256   11.0948   55.0190 H   0  0  0  0  0
   32.5422   13.1276   54.1716 H   0  0  0  0  0
   36.5157   14.0857   53.8344 H   0  0  0  0  0
   36.3115   11.7648   54.8227 H   0  0  0  0  0
  1  2  2  0  0  0
  1  3  1  0  0  0
  1  4  1  0  0  0
  4  5  1  0  0  0
  5  6  1  0  0  0
  6  7  1  0  0  0
  7  8  1  0  0  0
  8  9  1  0  0  0
  8 16  1  0  0  0
  9 10  1  0  0  0
 10 11  1  0  0  0
 11 12  1  0  0  0
 11 16  1  0  0  0
 12 13  1  0  0  0
 13 14  2  0  0  0
 13 15  1  0  0  0
 15 16  1  0  0  0
  3 17  1  0  0  0
  4 18  1  0  0  0
  4 19  1  0  0  0
  5 20  1  0  0  0
  5 21  1  0  0  0
  6 22  1  0  0  0
  6 23  1  0  0  0
  7 24  1  0  0  0
  7 25  1  0  0  0
  8 26  1  0  0  0
 10 27  1  0  0  0
 10 28  1  0  0  0
 11 29  1  0  0  0
 12 30  1  0  0  0
 15 31  1  0  0  0
 16 32  1  0  0  0
M  END
$$$$
