2j6m_ligand
  -I-interpret- 

 66 70  0  0  0  0  0  0  0  0999 V2000
  -50.7820   -0.6920  -12.4130 C   0  0  0  0  0
  -49.4830   -1.0040  -11.6760 C   0  0  0  0  0
  -49.1860   -2.4340  -11.7620 N   0  3  0  0  0
  -50.2950   -3.2120  -11.2020 C   0  0  0  0  0
  -50.3250   -3.0340   -9.6850 C   0  0  0  0  0
  -48.9970   -2.7720  -13.1700 C   0  0  0  0  0
  -50.3000   -2.5340  -13.9180 C   0  0  0  0  0
  -50.6950   -1.1260  -13.8110 N   0  3  0  0  0
  -49.8460   -0.2520  -14.6260 C   0  0  0  0  0
  -50.5050   -0.0850  -15.9900 C   0  0  0  0  0
  -51.5450    0.8070  -16.1470 C   0  0  0  0  0
  -52.1510    0.9550  -17.3830 C   0  0  0  0  0
  -50.0770   -0.8310  -17.0690 C   0  0  0  0  0
  -50.6790   -0.6800  -18.3070 C   0  0  0  0  0
  -51.7220    0.2090  -18.4630 C   0  0  0  0  0
  -52.3280    0.3730  -19.6960 C   0  0  0  0  0
  -53.3660    1.1590  -19.9400 N   0  0  0  0  0
  -51.9570   -0.2180  -20.8220 C   0  0  0  0  0
  -52.7630    0.1890  -21.7830 C   0  0  0  0  0
  -53.6530    1.0650  -21.2250 C   0  0  0  0  0
  -54.5870    1.6230  -21.9920 N   0  0  0  0  0
  -54.6590    1.3430  -23.2760 C   0  0  0  0  0
  -53.8170    0.5090  -23.8430 N   0  0  0  0  0
  -52.8630   -0.0780  -23.1290 C   0  0  0  0  0
  -52.0340   -0.9090  -23.7250 N   0  0  0  0  0
  -52.3410   -1.3270  -25.0890 C   0  0  0  0  0
  -51.2870   -2.3080  -25.5730 C   0  0  0  0  0
  -52.3440   -0.1220  -26.0010 C   0  0  0  0  0
  -52.2240    1.1440  -25.4670 C   0  0  0  0  0
  -52.2300    2.2450  -26.3050 C   0  0  0  0  0
  -52.3550    2.0790  -27.6710 C   0  0  0  0  0
  -52.4720    0.8110  -28.2030 C   0  0  0  0  0
  -52.4670   -0.2920  -27.3680 C   0  0  0  0  0
  -50.9554    0.3838  -12.3859 H   0  0  0  0  0
  -51.6013   -1.2223  -11.9275 H   0  0  0  0  0
  -49.5905   -0.7237  -10.6281 H   0  0  0  0  0
  -48.6688   -0.4418  -12.1333 H   0  0  0  0  0
  -48.3432   -2.6525  -11.2306 H   0  0  0  0  0
  -50.1575   -4.2663  -11.4420 H   0  0  0  0  0
  -51.2357   -2.8632  -11.6280 H   0  0  0  0  0
  -49.3838   -3.3836   -9.2608 H   0  0  0  0  0
  -50.4629   -1.9793   -9.4469 H   0  0  0  0  0
  -51.1497   -3.6126   -9.2688 H   0  0  0  0  0
  -48.7083   -3.8192  -13.2602 H   0  0  0  0  0
  -48.2110   -2.1476  -13.5947 H   0  0  0  0  0
  -51.0806   -3.1578  -13.4825 H   0  0  0  0  0
  -50.1594   -2.7864  -14.9690 H   0  0  0  0  0
  -51.6354   -1.0449  -14.1976 H   0  0  0  0  0
  -48.8553   -0.6921  -14.7399 H   0  0  0  0  0
  -49.7341    0.7185  -14.1426 H   0  0  0  0  0
  -51.8902    1.3960  -15.2973 H   0  0  0  0  0
  -52.9704    1.6635  -17.5042 H   0  0  0  0  0
  -49.2608   -1.5429  -16.9463 H   0  0  0  0  0
  -50.3286   -1.2637  -19.1582 H   0  0  0  0  0
  -51.1296   -0.9186  -20.9345 H   0  0  0  0  0
  -55.4337    1.8130  -23.8818 H   0  0  0  0  0
  -51.2005   -1.2511  -23.2468 H   0  0  0  0  0
  -53.3215   -1.8030  -25.1027 H   0  0  0  0  0
  -50.3088   -1.8275  -25.5531 H   0  0  0  0  0
  -51.2778   -3.1809  -24.9202 H   0  0  0  0  0
  -51.5207   -2.6171  -26.5918 H   0  0  0  0  0
  -52.1249    1.2766  -24.3896 H   0  0  0  0  0
  -52.1358    3.2469  -25.8861 H   0  0  0  0  0
  -52.3612    2.9488  -28.3279 H   0  0  0  0  0
  -52.5683    0.6786  -29.2806 H   0  0  0  0  0
  -52.5599   -1.2939  -27.7870 H   0  0  0  0  0
  1  2  1  0  0  0
  1  8  1  0  0  0
  2  3  1  0  0  0
  3  4  1  0  0  0
  3  6  1  0  0  0
  4  5  1  0  0  0
  6  7  1  0  0  0
  7  8  1  0  0  0
  8  9  1  0  0  0
  9 10  1  0  0  0
 10 11  4  0  0  0
 10 13  4  0  0  0
 11 12  4  0  0  0
 12 15  4  0  0  0
 13 14  4  0  0  0
 14 15  4  0  0  0
 15 16  1  0  0  0
 16 17  4  0  0  0
 16 18  4  0  0  0
 17 20  4  0  0  0
 18 19  4  0  0  0
 19 20  4  0  0  0
 19 24  4  0  0  0
 20 21  4  0  0  0
 21 22  4  0  0  0
 22 23  4  0  0  0
 23 24  4  0  0  0
 24 25  1  0  0  0
 25 26  1  0  0  0
 26 27  1  0  0  0
 26 28  1  0  0  0
 28 29  4  0  0  0
 28 33  4  0  0  0
 29 30  4  0  0  0
 30 31  4  0  0  0
 31 32  4  0  0  0
 32 33  4  0  0  0
  1 34  1  0  0  0
  1 35  1  0  0  0
  2 36  1  0  0  0
  2 37  1  0  0  0
  3 38  1  0  0  0
  4 39  1  0  0  0
  4 40  1  0  0  0
  5 41  1  0  0  0
  5 42  1  0  0  0
  5 43  1  0  0  0
  6 44  1  0  0  0
  6 45  1  0  0  0
  7 46  1  0  0  0
  7 47  1  0  0  0
  8 48  1  0  0  0
  9 49  1  0  0  0
  9 50  1  0  0  0
 11 51  1  0  0  0
 12 52  1  0  0  0
 13 53  1  0  0  0
 14 54  1  0  0  0
 18 55  1  0  0  0
 22 56  1  0  0  0
 25 57  1  0  0  0
 26 58  1  0  0  0
 27 59  1  0  0  0
 27 60  1  0  0  0
 27 61  1  0  0  0
 29 62  1  0  0  0
 30 63  1  0  0  0
 31 64  1  0  0  0
 32 65  1  0  0  0
 33 66  1  0  0  0
M  END
$$$$
