1g3d_ligand
  -I-interpret- 

 30 30  0  0  0  0  0  0  0  0999 V2000
   43.9870   -2.6970   26.3260 C   0  0  0  0  0
   43.3470   -3.2410   27.4360 C   0  0  0  0  0
   43.1980   -2.5080   28.6200 C   0  0  0  0  0
   43.7030   -1.2100   28.6780 C   0  0  0  0  0
   44.3390   -0.6740   27.5640 C   0  0  0  0  0
   44.4800   -1.4050   26.4040 C   0  0  0  0  0
   42.5220   -3.1200   29.7500 C   0  0  0  0  0
   44.2130   -3.4920   25.1320 C   0  0  0  0  0
   43.6210   -0.4010   29.7540 O   0  0  0  0  0
   44.6130   -2.9060   24.0120 N   0  0  0  0  0
   44.0270   -4.8040   25.1560 N   0  0  0  0  0
   42.3180   -2.5430   30.9020 N   0  0  0  0  0
   41.6190   -3.3180   31.9250 C   0  0  0  0  0
   42.5800   -4.2920   32.5890 C   0  0  0  0  0
   40.9930   -2.4060   32.9730 C   0  0  0  0  0
   40.2610   -2.9110   33.8330 O   0  0  0  0  0
   41.2740   -1.1530   32.8900 O   0  0  0  0  0
   42.9545   -4.2565   27.3827 H   0  0  0  0  0
   44.7328    0.3414   27.6087 H   0  0  0  0  0
   44.9823   -0.9638   25.5431 H   0  0  0  0  0
   42.1571   -4.1396   29.6262 H   0  0  0  0  0
   44.0389    0.4397   29.5535 H   0  0  0  0  0
   44.7761   -3.4646   23.1743 H   0  0  0  0  0
   44.7577   -1.8966   23.9881 H   0  0  0  0  0
   44.1915   -5.3579   24.3154 H   0  0  0  0  0
   40.8189   -3.8768   31.4395 H   0  0  0  0  0
   42.9837   -4.9711   31.8380 H   0  0  0  0  0
   43.3946   -3.7367   33.0539 H   0  0  0  0  0
   42.0480   -4.8639   33.3493 H   0  0  0  0  0
   41.8588   -1.0062   32.1430 H   0  0  0  0  0
  1  8  1  0  0  0
  1  6  4  0  0  0
  1  2  4  0  0  0
  2  3  4  0  0  0
  3  7  1  0  0  0
  3  4  4  0  0  0
  4  9  1  0  0  0
  4  5  4  0  0  0
  5  6  4  0  0  0
  7 12  2  0  0  0
 12 13  1  0  0  0
 13 15  1  0  0  0
 13 14  1  0  0  0
 15 17  1  0  0  0
 15 16  2  0  0  0
  8 11  2  0  0  0
  8 10  1  0  0  0
  2 18  1  0  0  0
  5 19  1  0  0  0
  6 20  1  0  0  0
  7 21  1  0  0  0
  9 22  1  0  0  0
 10 23  1  0  0  0
 10 24  1  0  0  0
 11 25  1  0  0  0
 13 26  1  0  0  0
 14 27  1  0  0  0
 14 28  1  0  0  0
 14 29  1  0  0  0
 17 30  1  0  0  0
M  END
$$$$
