6omu_ligand
  -I-interpret- 

 61 64  0  0  0  0  0  0  0  0999 V2000
   20.0530    5.6360    0.7920 N   0  0  0  0  0
   17.8130    4.9590    0.8230 N   0  0  0  0  0
   17.7020    5.1220    2.1550 C   0  0  0  0  0
   18.8020    5.5650    2.8840 C   0  0  0  0  0
   20.0450    5.8440    2.1240 C   0  0  0  0  0
   23.2110    7.7060    2.3440 C   0  0  0  0  0
   22.4280    9.0120    2.5470 C   0  0  0  0  0
   18.7350    6.9830    4.9550 C   0  0  0  0  0
   18.2090    4.7530    6.5330 C   0  0  0  0  0
   18.3830    4.6220    5.1590 C   0  0  0  0  0
   15.8940    7.1350    8.1780 C   0  0  0  0  0
   14.9400    8.1350   10.0350 C   0  0  0  0  0
   16.8640    7.2220   10.1940 C   0  0  0  0  0
   25.6680   11.1950    0.1300 O   0  0  0  0  0
   24.5940   11.1910    0.7160 C   0  0  0  0  0
   24.0090   12.4500    1.1680 C   0  0  0  0  0
   24.3420   13.6020    0.3580 C   0  0  0  0  0
   23.8240   10.1080    0.8300 N   0  0  0  0  0
   24.1920    8.8230    0.2790 C   0  0  0  0  0
   24.4150    7.8580    1.4200 C   0  0  0  0  0
   22.5220   10.1120    1.4880 C   0  0  0  0  0
   22.3110    6.5870    1.8080 C   0  0  0  0  0
   21.1910    6.2880    2.6890 N   0  0  0  0  0
   16.5210    4.8790    2.7630 N   0  0  0  0  0
   18.9530    5.2040    0.1700 C   0  0  0  0  0
   18.6560    5.7330    4.3660 C   0  0  0  0  0
   18.2750    6.0070    7.1150 C   0  0  0  0  0
   18.5570    7.1150    6.3320 C   0  0  0  0  0
   18.1020    6.1470    8.4730 O   0  0  0  0  0
   16.9290    6.8600    8.9810 C   0  0  0  0  0
   15.9260    7.8220   10.6580 C   0  0  0  0  0
   14.7940    7.8350    8.8210 C   0  0  0  0  0
   23.5810    7.4416    3.3346 H   0  0  0  0  0
   22.8533    9.4549    3.4475 H   0  0  0  0  0
   21.3801    8.7120    2.5450 H   0  0  0  0  0
   18.9360    7.8628    4.3437 H   0  0  0  0  0
   18.0217    3.8727    7.1479 H   0  0  0  0  0
   18.3046    3.6375    4.6978 H   0  0  0  0  0
   15.8772    6.8559    7.1245 H   0  0  0  0  0
   14.1521    8.6945   10.5393 H   0  0  0  0  0
   17.6985    6.9786   10.8516 H   0  0  0  0  0
   24.4038   12.6411    2.1659 H   0  0  0  0  0
   22.9267   12.3311    1.1177 H   0  0  0  0  0
   25.4230   13.7417    0.3542 H   0  0  0  0  0
   23.9916   13.4412   -0.6615 H   0  0  0  0  0
   23.8614   14.4878    0.7733 H   0  0  0  0  0
   25.1035    8.9185   -0.3110 H   0  0  0  0  0
   23.3970    8.4549   -0.3696 H   0  0  0  0  0
   24.6143    6.8795    0.9831 H   0  0  0  0  0
   25.2369    8.2490    2.0197 H   0  0  0  0  0
   22.3846   11.0762    1.9775 H   0  0  0  0  0
   21.7535    9.9346    0.7356 H   0  0  0  0  0
   22.9170    5.6850    1.7228 H   0  0  0  0  0
   21.9034    6.9171    0.8525 H   0  0  0  0  0
   21.2680    6.4093    3.6988 H   0  0  0  0  0
   15.7179    4.5734    2.2135 H   0  0  0  0  0
   16.4321    5.0011    3.7718 H   0  0  0  0  0
   18.9861    5.0457   -0.9079 H   0  0  0  0  0
   18.6404    8.0977    6.7961 H   0  0  0  0  0
   15.9715    8.1005   11.7108 H   0  0  0  0  0
   13.8842    8.0886    8.2768 H   0  0  0  0  0
  5  1  4  0  0  0
  1 25  4  0  0  0
  3  2  4  0  0  0
  2 25  4  0  0  0
  4  3  4  0  0  0
  3 24  1  0  0  0
  4  5  4  0  0  0
 26  4  1  0  0  0
  5 23  1  0  0  0
  6  7  1  0  0  0
  6 20  1  0  0  0
 22  6  1  0  0  0
  7 21  1  0  0  0
  8 26  4  0  0  0
 28  8  4  0  0  0
  9 10  4  0  0  0
 27  9  4  0  0  0
 10 26  4  0  0  0
 30 11  4  0  0  0
 11 32  4  0  0  0
 31 12  4  0  0  0
 32 12  4  0  0  0
 30 13  4  0  0  0
 13 31  4  0  0  0
 15 14  2  0  0  0
 15 16  1  0  0  0
 18 15  1  0  0  0
 16 17  1  0  0  0
 19 18  1  0  0  0
 21 18  1  0  0  0
 20 19  1  0  0  0
 23 22  1  0  0  0
 27 28  4  0  0  0
 29 27  1  0  0  0
 29 30  1  0  0  0
  6 33  1  0  0  0
  7 34  1  0  0  0
  7 35  1  0  0  0
  8 36  1  0  0  0
  9 37  1  0  0  0
 10 38  1  0  0  0
 11 39  1  0  0  0
 12 40  1  0  0  0
 13 41  1  0  0  0
 16 42  1  0  0  0
 16 43  1  0  0  0
 17 44  1  0  0  0
 17 45  1  0  0  0
 17 46  1  0  0  0
 19 47  1  0  0  0
 19 48  1  0  0  0
 20 49  1  0  0  0
 20 50  1  0  0  0
 21 51  1  0  0  0
 21 52  1  0  0  0
 22 53  1  0  0  0
 22 54  1  0  0  0
 23 55  1  0  0  0
 24 56  1  0  0  0
 24 57  1  0  0  0
 25 58  1  0  0  0
 28 59  1  0  0  0
 31 60  1  0  0  0
 32 61  1  0  0  0
M  END
$$$$
