3dv5_ligand
  -I-interpret- 

 85 86  0  0  0  0  0  0  0  0999 V2000
   27.3080    6.5180   16.8590 N   0  0  0  0  0
   27.3450    5.4120   15.9210 C   0  0  0  0  0
   28.4650    5.6510   14.9550 C   0  0  0  0  0
   29.7200    5.7230   15.4620 N   0  0  0  0  0
   30.8710    5.9170   14.5620 C   0  0  0  0  0
   31.8550    6.8270   15.3360 C   0  0  0  0  0
   31.1400    8.1530   15.8080 C   0  0  0  0  0
   32.2520    9.0140   16.4350 C   0  0  0  0  0
   31.7310   10.3030   17.1290 C   0  0  0  0  0
   30.7020   10.0510   18.2430 C   0  0  0  0  0
   31.2710    9.1130   19.3320 C   0  0  0  0  0
   30.3860    9.1930   20.6230 C   0  0  0  0  0
   28.8680    8.9940   20.3280 C   0  0  0  0  0
   28.6300    7.6050   19.6310 C   0  0  0  0  0
   27.1080    7.3890   19.2320 C   0  0  0  0  0
   27.0930    6.2370   18.1990 C   0  0  0  0  0
   26.8830    5.0960   18.6070 O   0  0  0  0  0
   30.4730    8.9090   14.5690 C   0  0  0  0  0
   31.5880    4.5730   14.2720 C   0  0  0  0  0
   32.8220    4.8200   13.5960 O   0  0  0  0  0
   30.7210    3.6020   13.4430 C   0  0  0  0  0
   31.4290    2.3110   13.1910 N   0  3  0  0  0
   30.7960    1.5220   12.0900 C   0  0  0  0  0
   30.7310    2.2940   10.7270 C   0  0  0  0  0
   31.8930    2.8580   10.1620 C   0  0  0  0  0
   31.8330    3.5250    8.9150 C   0  0  0  0  0
   30.6090    3.6510    8.2380 C   0  0  0  0  0
   29.4550    3.0950    8.8070 C   0  0  0  0  0
   29.4990    2.4210   10.0530 C   0  0  0  0  0
   33.0540    4.1100    8.2650 C   0  0  0  0  0
   34.0950    2.9830    8.0840 C   0  0  0  0  0
   33.6620    5.2340    9.1090 C   0  0  0  0  0
   28.2100    5.7650   13.7730 O   0  0  0  0  0
   25.9740    5.2100   15.1840 C   0  0  0  0  0
   27.4650    7.9260   16.4010 C   0  0  0  0  0
   27.5219    4.4855   16.4673 H   0  0  0  0  0
   29.8681    5.6428   16.4680 H   0  0  0  0  0
   30.5446    6.3393   13.6116 H   0  0  0  0  0
   32.6828    7.0896   14.6773 H   0  0  0  0  0
   32.2138    6.2898   16.2139 H   0  0  0  0  0
   30.3366    7.9488   16.5158 H   0  0  0  0  0
   32.9162    9.3248   15.6285 H   0  0  0  0  0
   32.7404    8.4085   17.1985 H   0  0  0  0  0
   31.2352   10.9007   16.3641 H   0  0  0  0  0
   32.5909   10.7882   17.5909 H   0  0  0  0  0
   29.8233    9.5791   17.8033 H   0  0  0  0  0
   30.4498   11.0057   18.7047 H   0  0  0  0  0
   32.2883    9.4203   19.5746 H   0  0  0  0  0
   31.2705    8.0887   18.9594 H   0  0  0  0  0
   30.5148   10.1853   21.0551 H   0  0  0  0  0
   30.7029    8.3954   21.2950 H   0  0  0  0  0
   28.5251    9.7894   19.6663 H   0  0  0  0  0
   28.3147    9.0224   21.2667 H   0  0  0  0  0
   28.9120    6.8200   20.3327 H   0  0  0  0  0
   29.2276    7.5752   18.7199 H   0  0  0  0  0
   26.6783    8.2988   18.8128 H   0  0  0  0  0
   26.5037    7.1424   20.1050 H   0  0  0  0  0
   30.0416    9.8505   14.9090 H   0  0  0  0  0
   31.2337    9.1080   13.8142 H   0  0  0  0  0
   29.6902    8.2825   14.1414 H   0  0  0  0  0
   31.7752    4.0939   15.2330 H   0  0  0  0  0
   33.3557    5.4243   14.1171 H   0  0  0  0  0
   30.5037    4.0689   12.4823 H   0  0  0  0  0
   29.8093    3.3914   14.0021 H   0  0  0  0  0
   31.3854    1.7544   14.0446 H   0  0  0  0  0
   32.3879    2.5244   12.9164 H   0  0  0  0  0
   29.7720    1.3013   12.3913 H   0  0  0  0  0
   31.4037    0.6308   11.9337 H   0  0  0  0  0
   32.8440    2.7799   10.6890 H   0  0  0  0  0
   30.5571    4.1740    7.2831 H   0  0  0  0  0
   28.5046    3.1827    8.2806 H   0  0  0  0  0
   28.5894    2.0049   10.4860 H   0  0  0  0  0
   32.7680    4.5371    7.3038 H   0  0  0  0  0
   34.3524    2.5679    9.0585 H   0  0  0  0  0
   33.6745    2.1996    7.4535 H   0  0  0  0  0
   34.9900    3.3891    7.6127 H   0  0  0  0  0
   32.9270    6.0286    9.2372 H   0  0  0  0  0
   33.9474    4.8404   10.0846 H   0  0  0  0  0
   34.5429    5.6302    8.6038 H   0  0  0  0  0
   25.7409    6.1017   14.6021 H   0  0  0  0  0
   26.0436    4.3489   14.5194 H   0  0  0  0  0
   25.1887    5.0396   15.9205 H   0  0  0  0  0
   26.5634    8.4883   16.6437 H   0  0  0  0  0
   28.3217    8.3764   16.9024 H   0  0  0  0  0
   27.6245    7.9404   15.3228 H   0  0  0  0  0
  1  2  1  0  0  0
  1 16  1  0  0  0
  1 35  1  0  0  0
  2  3  1  0  0  0
  2 34  1  0  0  0
  3  4  1  0  0  0
  3 33  2  0  0  0
  4  5  1  0  0  0
  5  6  1  0  0  0
  5 19  1  0  0  0
  6  7  1  0  0  0
  7  8  1  0  0  0
  7 18  1  0  0  0
  8  9  1  0  0  0
  9 10  1  0  0  0
 10 11  1  0  0  0
 11 12  1  0  0  0
 12 13  1  0  0  0
 13 14  1  0  0  0
 14 15  1  0  0  0
 15 16  1  0  0  0
 16 17  2  0  0  0
 19 20  1  0  0  0
 19 21  1  0  0  0
 21 22  1  0  0  0
 22 23  1  0  0  0
 23 24  1  0  0  0
 24 25  4  0  0  0
 24 29  4  0  0  0
 25 26  4  0  0  0
 26 27  4  0  0  0
 26 30  1  0  0  0
 27 28  4  0  0  0
 28 29  4  0  0  0
 30 31  1  0  0  0
 30 32  1  0  0  0
  2 36  1  0  0  0
  4 37  1  0  0  0
  5 38  1  0  0  0
  6 39  1  0  0  0
  6 40  1  0  0  0
  7 41  1  0  0  0
  8 42  1  0  0  0
  8 43  1  0  0  0
  9 44  1  0  0  0
  9 45  1  0  0  0
 10 46  1  0  0  0
 10 47  1  0  0  0
 11 48  1  0  0  0
 11 49  1  0  0  0
 12 50  1  0  0  0
 12 51  1  0  0  0
 13 52  1  0  0  0
 13 53  1  0  0  0
 14 54  1  0  0  0
 14 55  1  0  0  0
 15 56  1  0  0  0
 15 57  1  0  0  0
 18 58  1  0  0  0
 18 59  1  0  0  0
 18 60  1  0  0  0
 19 61  1  0  0  0
 20 62  1  0  0  0
 21 63  1  0  0  0
 21 64  1  0  0  0
 22 65  1  0  0  0
 22 66  1  0  0  0
 23 67  1  0  0  0
 23 68  1  0  0  0
 25 69  1  0  0  0
 27 70  1  0  0  0
 28 71  1  0  0  0
 29 72  1  0  0  0
 30 73  1  0  0  0
 31 74  1  0  0  0
 31 75  1  0  0  0
 31 76  1  0  0  0
 32 77  1  0  0  0
 32 78  1  0  0  0
 32 79  1  0  0  0
 34 80  1  0  0  0
 34 81  1  0  0  0
 34 82  1  0  0  0
 35 83  1  0  0  0
 35 84  1  0  0  0
 35 85  1  0  0  0
M  END
$$$$
