3tpu_ligand
  -I-interpret- 

163168  0  0  0  0  0  0  0  0999 V2000
   -8.1690   81.1410   79.2370 N   0  3  0  0  0
   -8.0470   79.9320   80.0280 C   0  0  0  0  0
   -7.2380   78.9050   79.2770 C   0  0  0  0  0
   -6.5620   79.2250   78.3100 O   0  0  0  0  0
   -9.4140   79.3630   80.3840 C   0  0  0  0  0
   -9.3760   78.3490   81.4880 C   0  0  0  0  0
   -8.5970   78.5540   82.6050 C   0  0  0  0  0
  -10.1390   77.2010   81.4190 C   0  0  0  0  0
   -8.5670   77.6320   83.6200 C   0  0  0  0  0
  -10.1120   76.2760   82.4380 C   0  0  0  0  0
   -9.3260   76.4940   83.5370 C   0  0  0  0  0
   -7.3130   77.6640   79.7250 N   0  0  0  0  0
   -6.4470   76.6400   79.1900 C   0  0  0  0  0
   -7.0090   75.6810   78.1680 C   0  0  0  0  0
   -8.0830   75.1270   78.3270 O   0  0  0  0  0
   -5.8040   75.8790   80.3400 C   0  0  0  0  0
   -4.7930   76.7090   81.1170 C   0  0  0  0  0
   -4.4650   76.0550   82.4320 C   0  0  0  0  0
   -3.5460   76.9170   80.2890 C   0  0  0  0  0
   -6.2300   75.4890   77.1180 N   0  0  0  0  0
   -6.4500   74.4790   76.1210 C   0  0  0  0  0
   -5.0890   73.8820   75.8050 C   0  0  0  0  0
   -4.4890   74.1390   74.7700 O   0  0  0  0  0
   -7.1040   75.0970   74.8900 C   0  0  0  0  0
   -7.3270   74.1600   73.8590 O   0  0  0  0  0
   -4.5720   73.1090   76.7480 N   0  0  0  0  0
   -3.2340   72.5290   76.5680 C   0  0  0  0  0
   -3.1100   71.7830   75.2410 C   0  0  0  0  0
   -4.1370   71.4810   74.6330 O   0  0  0  0  0
   -2.9990   71.6170   77.7730 C   0  0  0  0  0
   -3.8670   72.2430   78.8700 C   0  0  0  0  0
   -5.0850   72.7660   78.1530 C   0  0  0  0  0
   -1.8840   71.5270   74.7840 N   0  0  0  0  0
   -1.6890   70.8870   73.4870 C   0  0  0  0  0
   -0.7190   69.7250   73.5970 C   0  0  0  0  0
    0.4430   69.9210   73.9710 O   0  0  0  0  0
   -1.2050   71.8820   72.4330 C   0  0  0  0  0
   -1.2880   71.3540   71.0220 C   0  0  0  0  0
   -0.2830   70.5410   70.5010 C   0  0  0  0  0
   -2.3800   71.6560   70.2150 C   0  0  0  0  0
   -0.3520   70.0510   69.2010 C   0  0  0  0  0
   -2.4570   71.1660   68.9090 C   0  0  0  0  0
   -1.4360   70.3640   68.4040 C   0  0  0  0  0
   -1.2070   68.5260   73.2570 N   0  0  0  0  0
   -0.4890   67.2880   73.5190 C   0  0  0  0  0
   -0.2620   66.4000   72.3080 C   0  0  0  0  0
    0.5060   65.4460   72.3930 O   0  0  0  0  0
   -1.2570   66.4290   74.5090 C   0  0  0  0  0
   -1.8870   67.1020   75.6560 C   0  0  0  0  0
   -3.2120   67.3480   75.8270 C   0  0  0  0  0
   -1.2320   67.5610   76.8400 C   0  0  0  0  0
   -3.4300   67.9540   77.0490 N   0  0  0  0  0
   -2.2290   68.0980   77.6860 C   0  0  0  0  0
    0.0980   67.5770   77.2660 C   0  0  0  0  0
   -1.9330   68.6540   78.9240 C   0  0  0  0  0
    0.3900   68.1340   78.5000 C   0  0  0  0  0
   -0.6200   68.6660   79.3130 C   0  0  0  0  0
   -0.9640   66.6410   71.2090 N   0  0  0  0  0
   -0.8110   65.7680   70.0460 C   0  0  0  0  0
    0.6300   65.8170   69.5370 C   0  0  0  0  0
    1.2900   66.8540   69.6110 O   0  0  0  0  0
   -1.7980   66.1610   68.9520 C   0  0  0  0  0
   -3.2420   66.0050   69.3560 C   0  0  0  0  0
   -4.0250   64.9780   68.8230 C   0  0  0  0  0
   -3.8150   66.8840   70.2710 C   0  0  0  0  0
   -5.3500   64.8330   69.1960 C   0  0  0  0  0
   -5.1450   66.7460   70.6490 C   0  0  0  0  0
   -5.9190   65.7170   70.1120 C   0  0  0  0  0
    1.1290   64.6950   69.0560 N   0  0  0  0  0
    2.4930   64.6620   68.5880 C   0  0  0  0  0
    2.5940   65.5620   67.3760 C   0  0  0  0  0
    1.5940   65.9280   66.7780 O   0  0  0  0  0
    2.9090   63.2380   68.2550 C   0  0  0  0  0
    3.3350   62.4590   69.4690 C   0  0  0  0  0
    3.4410   63.0680   70.5540 O   0  0  0  0  0
    3.5770   61.2550   69.3400 O   0  0  0  0  0
    3.8220   65.9190   67.0150 N   0  0  0  0  0
    4.0620   66.7830   65.8650 C   0  0  0  0  0
    4.1830   65.9700   64.5810 C   0  0  0  0  0
    5.2860   65.6250   64.1540 O   0  0  0  0  0
    5.3370   67.6260   66.0500 C   0  0  0  0  0
    5.1380   68.6580   67.1620 C   0  0  0  0  0
    5.7180   68.3090   64.7450 C   0  0  0  0  0
    3.8480   69.4410   67.0440 C   0  0  0  0  0
    3.1810   65.6430   63.9440 O   0  0  0  0  0
   -7.2389   81.4963   79.0156 H   0  0  0  0  0
   -8.6689   80.9315   78.3729 H   0  0  0  0  0
   -8.6848   81.8427   79.7680 H   0  0  0  0  0
   -7.5363   80.1854   80.9570 H   0  0  0  0  0
   -9.8004   78.8633   79.4957 H   0  0  0  0  0
  -10.0336   80.1925   80.7246 H   0  0  0  0  0
   -7.9967   79.4604   82.6835 H   0  0  0  0  0
  -10.7700   77.0249   80.5479 H   0  0  0  0  0
   -7.9387   77.8046   84.4938 H   0  0  0  0  0
  -10.7158   75.3711   82.3697 H   0  0  0  0  0
   -9.3037   75.7632   84.3454 H   0  0  0  0  0
   -7.9870   77.4280   80.4534 H   0  0  0  0  0
   -5.7237   77.2010   78.5982 H   0  0  0  0  0
   -5.2747   75.0255   79.9163 H   0  0  0  0  0
   -6.5970   75.5927   81.0309 H   0  0  0  0  0
   -5.2311   77.6839   81.3308 H   0  0  0  0  0
   -5.3741   75.9601   83.0259 H   0  0  0  0  0
   -4.0438   75.0664   82.2496 H   0  0  0  0  0
   -3.7404   76.6665   82.9697 H   0  0  0  0  0
   -3.1058   75.9494   80.0481 H   0  0  0  0  0
   -3.8058   77.4388   79.3680 H   0  0  0  0  0
   -2.8302   77.5123   80.8558 H   0  0  0  0  0
   -5.4192   76.0981   77.0084 H   0  0  0  0  0
   -7.1259   73.6988   76.4710 H   0  0  0  0  0
   -6.4312   75.8630   74.5044 H   0  0  0  0  0
   -8.0720   75.4967   75.1922 H   0  0  0  0  0
   -7.7385   74.6001   73.1117 H   0  0  0  0  0
   -2.4721   73.3070   76.5211 H   0  0  0  0  0
   -1.9475   71.5590   78.0544 H   0  0  0  0  0
   -3.2656   70.5797   77.5702 H   0  0  0  0  0
   -3.3388   73.0357   79.3998 H   0  0  0  0  0
   -4.1316   71.5172   79.6390 H   0  0  0  0  0
   -5.8949   72.0369   78.1299 H   0  0  0  0  0
   -5.5204   73.6297   78.6555 H   0  0  0  0  0
   -1.0728   71.7814   75.3475 H   0  0  0  0  0
   -2.6584   70.5050   73.1669 H   0  0  0  0  0
   -0.1566   72.0952   72.6414 H   0  0  0  0  0
   -1.8482   72.7600   72.4921 H   0  0  0  0  0
    0.5736   70.2842   71.1242 H   0  0  0  0  0
   -3.1833   72.2809   70.6053 H   0  0  0  0  0
    0.4479   69.4211   68.8118 H   0  0  0  0  0
   -3.3163   71.4113   68.2849 H   0  0  0  0  0
   -1.4923   69.9848   67.3836 H   0  0  0  0  0
   -2.1162   68.4784   72.7971 H   0  0  0  0  0
    0.4778   67.6285   73.8897 H   0  0  0  0  0
   -0.5201   65.7503   74.9385 H   0  0  0  0  0
   -2.0783   65.9929   73.9403 H   0  0  0  0  0
   -3.9904   67.1027   75.1045 H   0  0  0  0  0
    0.8883   67.1605   76.6414 H   0  0  0  0  0
   -2.7158   69.0650   79.5615 H   0  0  0  0  0
    1.4237   68.1590   78.8450 H   0  0  0  0  0
   -0.3543   69.0993   80.2772 H   0  0  0  0  0
   -1.6076   67.4316   71.1751 H   0  0  0  0  0
   -1.0314   64.7421   70.3409 H   0  0  0  0  0
   -1.6236   65.5008   68.1024 H   0  0  0  0  0
   -1.6339   67.2149   68.7275 H   0  0  0  0  0
   -3.5877   64.2835   68.1057 H   0  0  0  0  0
   -3.2143   67.6886   70.6952 H   0  0  0  0  0
   -5.9494   64.0268   68.7732 H   0  0  0  0  0
   -5.5834   67.4414   71.3648 H   0  0  0  0  0
   -6.9624   65.6047   70.4067 H   0  0  0  0  0
    0.5529   63.8542   69.0151 H   0  0  0  0  0
    3.1692   65.0182   69.3652 H   0  0  0  0  0
    3.7588   63.2880   67.5742 H   0  0  0  0  0
    2.0487   62.7316   67.8173 H   0  0  0  0  0
    3.2051   63.9898   70.4266 H   0  0  0  0  0
    4.6173   65.5799   67.5563 H   0  0  0  0  0
    3.2040   67.4508   65.7881 H   0  0  0  0  0
    5.9713   65.9457   64.7449 H   0  0  0  0  0
    6.1522   66.9627   66.3393 H   0  0  0  0  0
    5.9591   69.3717   67.0942 H   0  0  0  0  0
    5.1041   68.1157   68.1069 H   0  0  0  0  0
    5.9000   67.5535   63.9807 H   0  0  0  0  0
    4.9046   68.9611   64.4267 H   0  0  0  0  0
    6.6214   68.9000   64.8959 H   0  0  0  0  0
    3.8364   69.9790   66.0961 H   0  0  0  0  0
    3.0026   68.7541   67.0837 H   0  0  0  0  0
    3.7793   70.1518   67.8675 H   0  0  0  0  0
  1  2  1  0  0  0
  2  3  1  0  0  0
  2  5  1  0  0  0
  3  4  2  0  0  0
  3 12  1  0  0  0
  5  6  1  0  0  0
  6  7  4  0  0  0
  6  8  4  0  0  0
  7  9  4  0  0  0
  8 10  4  0  0  0
  9 11  4  0  0  0
 10 11  4  0  0  0
 12 13  1  0  0  0
 13 14  1  0  0  0
 13 16  1  0  0  0
 14 15  2  0  0  0
 14 20  1  0  0  0
 16 17  1  0  0  0
 17 18  1  0  0  0
 17 19  1  0  0  0
 20 21  1  0  0  0
 21 22  1  0  0  0
 21 24  1  0  0  0
 22 23  2  0  0  0
 22 26  1  0  0  0
 24 25  1  0  0  0
 26 27  1  0  0  0
 26 32  1  0  0  0
 27 28  1  0  0  0
 27 30  1  0  0  0
 28 29  2  0  0  0
 28 33  1  0  0  0
 30 31  1  0  0  0
 31 32  1  0  0  0
 33 34  1  0  0  0
 34 35  1  0  0  0
 34 37  1  0  0  0
 35 36  2  0  0  0
 35 44  1  0  0  0
 37 38  1  0  0  0
 38 39  4  0  0  0
 38 40  4  0  0  0
 39 41  4  0  0  0
 40 42  4  0  0  0
 41 43  4  0  0  0
 42 43  4  0  0  0
 44 45  1  0  0  0
 45 46  1  0  0  0
 45 48  1  0  0  0
 46 47  2  0  0  0
 46 58  1  0  0  0
 48 49  1  0  0  0
 49 50  4  0  0  0
 49 51  4  0  0  0
 50 52  4  0  0  0
 51 53  4  0  0  0
 51 54  4  0  0  0
 52 53  4  0  0  0
 53 55  4  0  0  0
 54 56  4  0  0  0
 55 57  4  0  0  0
 56 57  4  0  0  0
 58 59  1  0  0  0
 59 60  1  0  0  0
 59 62  1  0  0  0
 60 61  2  0  0  0
 60 69  1  0  0  0
 62 63  1  0  0  0
 63 64  4  0  0  0
 63 65  4  0  0  0
 64 66  4  0  0  0
 65 67  4  0  0  0
 66 68  4  0  0  0
 67 68  4  0  0  0
 69 70  1  0  0  0
 70 71  1  0  0  0
 70 73  1  0  0  0
 71 72  2  0  0  0
 71 77  1  0  0  0
 73 74  1  0  0  0
 74 75  1  0  0  0
 74 76  2  0  0  0
 77 78  1  0  0  0
 78 79  1  0  0  0
 78 81  1  0  0  0
 79 80  1  0  0  0
 79 85  2  0  0  0
 81 82  1  0  0  0
 81 83  1  0  0  0
 82 84  1  0  0  0
  1 86  1  0  0  0
  1 87  1  0  0  0
  1 88  1  0  0  0
  2 89  1  0  0  0
  5 90  1  0  0  0
  5 91  1  0  0  0
  7 92  1  0  0  0
  8 93  1  0  0  0
  9 94  1  0  0  0
 10 95  1  0  0  0
 11 96  1  0  0  0
 12 97  1  0  0  0
 13 98  1  0  0  0
 16 99  1  0  0  0
 16100  1  0  0  0
 17101  1  0  0  0
 18102  1  0  0  0
 18103  1  0  0  0
 18104  1  0  0  0
 19105  1  0  0  0
 19106  1  0  0  0
 19107  1  0  0  0
 20108  1  0  0  0
 21109  1  0  0  0
 24110  1  0  0  0
 24111  1  0  0  0
 25112  1  0  0  0
 27113  1  0  0  0
 30114  1  0  0  0
 30115  1  0  0  0
 31116  1  0  0  0
 31117  1  0  0  0
 32118  1  0  0  0
 32119  1  0  0  0
 33120  1  0  0  0
 34121  1  0  0  0
 37122  1  0  0  0
 37123  1  0  0  0
 39124  1  0  0  0
 40125  1  0  0  0
 41126  1  0  0  0
 42127  1  0  0  0
 43128  1  0  0  0
 44129  1  0  0  0
 45130  1  0  0  0
 48131  1  0  0  0
 48132  1  0  0  0
 50133  1  0  0  0
 54134  1  0  0  0
 55135  1  0  0  0
 56136  1  0  0  0
 57137  1  0  0  0
 58138  1  0  0  0
 59139  1  0  0  0
 62140  1  0  0  0
 62141  1  0  0  0
 64142  1  0  0  0
 65143  1  0  0  0
 66144  1  0  0  0
 67145  1  0  0  0
 68146  1  0  0  0
 69147  1  0  0  0
 70148  1  0  0  0
 73149  1  0  0  0
 73150  1  0  0  0
 75151  1  0  0  0
 77152  1  0  0  0
 78153  1  0  0  0
 80154  1  0  0  0
 81155  1  0  0  0
 82156  1  0  0  0
 82157  1  0  0  0
 83158  1  0  0  0
 83159  1  0  0  0
 83160  1  0  0  0
 84161  1  0  0  0
 84162  1  0  0  0
 84163  1  0  0  0
M  END
$$$$
