### 
### Created by X-TOOL on Mon Sep 10 21:13:07 2018
### 

@<TRIPOS>MOLECULE
3tpu_ligand
  162   167     1     0     0
SMALL
GAST_HUCK


@<TRIPOS>ATOM
      1 N          -8.1690   81.1410   79.2370 N.4       1 PHE         0.2394
      2 CA         -8.0470   79.9320   80.0280 C.3       1 PHE         0.0744
      3 C          -7.2380   78.9050   79.2770 C.2       1 PHE         0.2288
      4 O          -6.5620   79.2250   78.3100 O.2       1 PHE        -0.3905
      5 CB         -9.4140   79.3630   80.3840 C.3       1 PHE         0.0416
      6 CG         -9.3760   78.3490   81.4880 C.ar      1 PHE        -0.0353
      7 CD1        -8.5970   78.5540   82.6050 C.ar      1 PHE        -0.0600
      8 CD2       -10.1390   77.2010   81.4190 C.ar      1 PHE        -0.0600
      9 CE1        -8.5670   77.6320   83.6200 C.ar      1 PHE        -0.0686
     10 CE2       -10.1120   76.2760   82.4380 C.ar      1 PHE        -0.0686
     11 CZ         -9.3260   76.4940   83.5370 C.ar      1 PHE        -0.0687
     12 N          -7.3130   77.6640   79.7250 N.am      1 LEU        -0.2609
     13 CA         -6.4470   76.6400   79.1900 C.3       1 LEU         0.1313
     14 C          -7.0090   75.6810   78.1680 C.2       1 LEU         0.2040
     15 O          -8.0830   75.1270   78.3270 O.2       1 LEU        -0.3944
     16 CB         -5.8040   75.8790   80.3400 C.3       1 LEU        -0.0101
     17 CG         -4.7930   76.7090   81.1170 C.3       1 LEU        -0.0425
     18 CD1        -4.4650   76.0550   82.4320 C.3       1 LEU        -0.0625
     19 CD2        -3.5460   76.9170   80.2890 C.3       1 LEU        -0.0625
     20 N          -6.2300   75.4890   77.1180 N.am      1 SER        -0.2616
     21 CA         -6.4500   74.4790   76.1210 C.3       1 SER         0.1541
     22 C          -5.0890   73.8820   75.8050 C.2       1 SER         0.2087
     23 O          -4.4890   74.1390   74.7700 O.2       1 SER        -0.3941
     24 CB         -7.1040   75.0970   74.8900 C.3       1 SER         0.0843
     25 OG         -7.3270   74.1600   73.8590 O.3       1 SER        -0.3903
     26 N          -4.5720   73.1090   76.7480 N.am      1 PRO        -0.2498
     27 CA         -3.2340   72.5290   76.5680 C.3       1 PRO         0.1338
     28 C          -3.1100   71.7830   75.2410 C.2       1 PRO         0.2042
     29 O          -4.1370   71.4810   74.6330 O.2       1 PRO        -0.3944
     30 CB         -2.9990   71.6170   77.7730 C.3       1 PRO        -0.0104
     31 CG         -3.8670   72.2430   78.8700 C.3       1 PRO        -0.0281
     32 CD         -5.0850   72.7660   78.1530 C.3       1 PRO         0.0369
     33 N          -1.8840   71.5270   74.7840 N.am      1 PHE        -0.2619
     34 CA         -1.6890   70.8870   73.4870 C.3       1 PHE         0.1404
     35 C          -0.7190   69.7250   73.5970 C.2       1 PHE         0.2060
     36 O           0.4430   69.9210   73.9710 O.2       1 PHE        -0.3942
     37 CB         -1.2050   71.8820   72.4330 C.3       1 PHE         0.0214
     38 CG         -1.2880   71.3540   71.0220 C.ar      1 PHE        -0.0386
     39 CD1        -0.2830   70.5410   70.5010 C.ar      1 PHE        -0.0601
     40 CD2        -2.3800   71.6560   70.2150 C.ar      1 PHE        -0.0601
     41 CE1        -0.3520   70.0510   69.2010 C.ar      1 PHE        -0.0686
     42 CE2        -2.4570   71.1660   68.9090 C.ar      1 PHE        -0.0686
     43 CZ         -1.4360   70.3640   68.4040 C.ar      1 PHE        -0.0687
     44 N          -1.2070   68.5260   73.2570 N.am      1 TRP        -0.2625
     45 CA         -0.4890   67.2880   73.5190 C.3       1 TRP         0.1352
     46 C          -0.2620   66.4000   72.3080 C.2       1 TRP         0.2053
     47 O           0.5060   65.4460   72.3930 O.2       1 TRP        -0.3942
     48 CB         -1.2570   66.4290   74.5090 C.3       1 TRP         0.0042
     49 CG         -1.8870   67.1020   75.6560 C.2       1 TRP        -0.0418
     50 CD1        -3.2120   67.3480   75.8270 C.2       1 TRP         0.0167
     51 CD2        -1.2320   67.5610   76.8400 C.ar      1 TRP        -0.0214
     52 NE1        -3.4300   67.9540   77.0490 N.pl3     1 TRP        -0.2890
     53 CE2        -2.2290   68.0980   77.6860 C.ar      1 TRP         0.0603
     54 CE3         0.0980   67.5770   77.2660 C.ar      1 TRP        -0.0747
     55 CZ2        -1.9330   68.6540   78.9240 C.ar      1 TRP        -0.0443
     56 CZ3         0.3900   68.1340   78.5000 C.ar      1 TRP        -0.0792
     57 CH2        -0.6200   68.6660   79.3130 C.ar      1 TRP        -0.0768
     58 N          -0.9640   66.6410   71.2090 N.am      1 PHE        -0.2618
     59 CA         -0.8110   65.7680   70.0460 C.3       1 PHE         0.1404
     60 C           0.6300   65.8170   69.5370 C.2       1 PHE         0.2060
     61 O           1.2900   66.8540   69.6110 O.2       1 PHE        -0.3942
     62 CB         -1.7980   66.1610   68.9520 C.3       1 PHE         0.0214
     63 CG         -3.2420   66.0050   69.3560 C.ar      1 PHE        -0.0386
     64 CD1        -4.0250   64.9780   68.8230 C.ar      1 PHE        -0.0601
     65 CD2        -3.8150   66.8840   70.2710 C.ar      1 PHE        -0.0601
     66 CE1        -5.3500   64.8330   69.1960 C.ar      1 PHE        -0.0686
     67 CE2        -5.1450   66.7460   70.6490 C.ar      1 PHE        -0.0686
     68 CZ         -5.9190   65.7170   70.1120 C.ar      1 PHE        -0.0687
     69 N           1.1290   64.6950   69.0560 N.am      1 ASP        -0.2620
     70 CA          2.4930   64.6620   68.5880 C.3       1 ASP         0.1423
     71 C           2.5940   65.5620   67.3760 C.2       1 ASP         0.2051
     72 O           1.5940   65.9280   66.7780 O.2       1 ASP        -0.3943
     73 CB          2.9090   63.2380   68.2550 C.3       1 ASP         0.0406
     74 CG          3.3350   62.4590   69.4690 C.2       1 ASP         0.0393
     75 OD1         3.4410   63.0680   70.5540 O.co2     1 ASP        -0.5688
     76 OD2         3.5770   61.2550   69.3400 O.co2     1 ASP        -0.5688
     77 N           3.8220   65.9190   67.0150 N.am      1 ILE        -0.2691
     78 CA          4.0620   66.7830   65.8650 C.3       1 ILE         0.0969
     79 C           4.1830   65.9700   64.5810 C.2       1 ILE         0.0604
     80 O           5.2860   65.6250   64.1540 O.co2     1 ILE        -0.5666
     81 CB          5.3370   67.6260   66.0500 C.3       1 ILE        -0.0092
     82 CG1         5.1380   68.6580   67.1620 C.3       1 ILE        -0.0497
     83 CG2         5.7180   68.3090   64.7450 C.3       1 ILE        -0.0588
     84 CD1         3.8480   69.4410   67.0440 C.3       1 ILE        -0.0649
     85 OXT         3.1810   65.6430   63.9440 O.co2     1 ILE        -0.5666
     86 H          -7.2389   81.4963   79.0156 H         1 PHE         0.2017
     87 H          -8.6689   80.9315   78.3729 H         1 PHE         0.2017
     88 H          -8.6848   81.8427   79.7680 H         1 PHE         0.2017
     89 H          -7.5363   80.1854   80.9570 H         1 PHE         0.1122
     90 H          -9.8004   78.8633   79.4957 H         1 PHE         0.0507
     91 H         -10.0336   80.1925   80.7246 H         1 PHE         0.0507
     92 H          -7.9967   79.4604   82.6835 H         1 PHE         0.0557
     93 H         -10.7700   77.0249   80.5479 H         1 PHE         0.0557
     94 H          -7.9387   77.8046   84.4938 H         1 PHE         0.0599
     95 H         -10.7158   75.3711   82.3697 H         1 PHE         0.0599
     96 H          -9.3037   75.7632   84.3454 H         1 PHE         0.0559
     97 H          -7.9870   77.4280   80.4534 H         1 LEU         0.1885
     98 H          -5.7237   77.2010   78.5982 H         1 LEU         0.0800
     99 H          -5.2747   75.0255   79.9163 H         1 LEU         0.0315
    100 H          -6.5970   75.5927   81.0309 H         1 LEU         0.0315
    101 H          -5.2311   77.6839   81.3308 H         1 LEU         0.0298
    102 H          -5.3741   75.9601   83.0259 H         1 LEU         0.0232
    103 H          -4.0438   75.0664   82.2496 H         1 LEU         0.0232
    104 H          -3.7404   76.6665   82.9697 H         1 LEU         0.0232
    105 H          -3.1058   75.9494   80.0481 H         1 LEU         0.0232
    106 H          -3.8058   77.4388   79.3680 H         1 LEU         0.0232
    107 H          -2.8302   77.5123   80.8558 H         1 LEU         0.0232
    108 H          -5.4192   76.0981   77.0084 H         1 SER         0.1884
    109 H          -7.1259   73.6988   76.4710 H         1 SER         0.0823
    110 H          -6.4312   75.8630   74.5044 H         1 SER         0.0606
    111 H          -8.0720   75.4967   75.1922 H         1 SER         0.0606
    112 H          -6.4885   73.7804   73.5862 H         1 SER         0.2097
    113 H          -2.4721   73.3070   76.5211 H         1 PRO         0.0802
    114 H          -1.9475   71.5590   78.0544 H         1 PRO         0.0313
    115 H          -3.2656   70.5797   77.5702 H         1 PRO         0.0313
    116 H          -3.3388   73.0357   79.3998 H         1 PRO         0.0287
    117 H          -4.1316   71.5172   79.6390 H         1 PRO         0.0287
    118 H          -5.8949   72.0369   78.1299 H         1 PRO         0.0524
    119 H          -5.5204   73.6297   78.6555 H         1 PRO         0.0524
    120 H          -1.0728   71.7814   75.3475 H         1 PHE         0.1885
    121 H          -2.6584   70.5050   73.1669 H         1 PHE         0.0823
    122 H          -0.1566   72.0952   72.6414 H         1 PHE         0.0474
    123 H          -1.8482   72.7600   72.4921 H         1 PHE         0.0474
    124 H           0.5736   70.2842   71.1242 H         1 PHE         0.0557
    125 H          -3.1833   72.2809   70.6053 H         1 PHE         0.0557
    126 H           0.4479   69.4211   68.8118 H         1 PHE         0.0599
    127 H          -3.3163   71.4113   68.2849 H         1 PHE         0.0599
    128 H          -1.4923   69.9848   67.3836 H         1 PHE         0.0559
    129 H          -2.1162   68.4784   72.7971 H         1 TRP         0.1884
    130 H           0.4778   67.6285   73.8897 H         1 TRP         0.0815
    131 H          -0.5201   65.7503   74.9385 H         1 TRP         0.0397
    132 H          -2.0783   65.9929   73.9403 H         1 TRP         0.0397
    133 H          -3.9904   67.1027   75.1045 H         1 TRP         0.0795
    134 H          -4.3363   68.2455   77.4152 H         1 TRP         0.2216
    135 H           0.8883   67.1605   76.6414 H         1 TRP         0.0540
    136 H          -2.7158   69.0650   79.5615 H         1 TRP         0.0541
    137 H           1.4237   68.1590   78.8450 H         1 TRP         0.0510
    138 H          -0.3543   69.0993   80.2772 H         1 TRP         0.0530
    139 H          -1.6076   67.4316   71.1751 H         1 PHE         0.1885
    140 H          -1.0314   64.7421   70.3409 H         1 PHE         0.0823
    141 H          -1.6236   65.5008   68.1024 H         1 PHE         0.0474
    142 H          -1.6339   67.2149   68.7275 H         1 PHE         0.0474
    143 H          -3.5877   64.2835   68.1057 H         1 PHE         0.0557
    144 H          -3.2143   67.6886   70.6952 H         1 PHE         0.0557
    145 H          -5.9494   64.0268   68.7732 H         1 PHE         0.0599
    146 H          -5.5834   67.4414   71.3648 H         1 PHE         0.0599
    147 H          -6.9624   65.6047   70.4067 H         1 PHE         0.0559
    148 H           0.5529   63.8542   69.0151 H         1 ASP         0.1884
    149 H           3.1692   65.0182   69.3652 H         1 ASP         0.0819
    150 H           3.7588   63.2880   67.5742 H         1 ASP         0.0478
    151 H           2.0487   62.7316   67.8173 H         1 ASP         0.0478
    152 H           4.6173   65.5799   67.5563 H         1 ILE         0.1875
    153 H           3.2040   67.4508   65.7881 H         1 ILE         0.0729
    154 H           6.1522   66.9627   66.3393 H         1 ILE         0.0338
    155 H           5.9591   69.3717   67.0942 H         1 ILE         0.0267
    156 H           5.1041   68.1157   68.1069 H         1 ILE         0.0267
    157 H           5.9000   67.5535   63.9807 H         1 ILE         0.0234
    158 H           4.9046   68.9611   64.4267 H         1 ILE         0.0234
    159 H           6.6214   68.9000   64.8959 H         1 ILE         0.0234
    160 H           3.8364   69.9790   66.0961 H         1 ILE         0.0230
    161 H           3.0026   68.7541   67.0837 H         1 ILE         0.0230
    162 H           3.7793   70.1518   67.8675 H         1 ILE         0.0230
@<TRIPOS>BOND
     1    1    2 1  
     2    2    3 1  
     3    2    5 1  
     4    3    4 2  
     5    3   12 am 
     6    5    6 1  
     7    6    7 ar 
     8    6    8 ar 
     9    7    9 ar 
    10    8   10 ar 
    11    9   11 ar 
    12   10   11 ar 
    13   12   13 1  
    14   13   14 1  
    15   13   16 1  
    16   14   15 2  
    17   14   20 am 
    18   16   17 1  
    19   17   18 1  
    20   17   19 1  
    21   20   21 1  
    22   21   22 1  
    23   21   24 1  
    24   22   23 2  
    25   22   26 am 
    26   24   25 1  
    27   26   27 1  
    28   26   32 1  
    29   27   28 1  
    30   27   30 1  
    31   28   29 2  
    32   28   33 am 
    33   30   31 1  
    34   31   32 1  
    35   33   34 1  
    36   34   35 1  
    37   34   37 1  
    38   35   36 2  
    39   35   44 am 
    40   37   38 1  
    41   38   39 ar 
    42   38   40 ar 
    43   39   41 ar 
    44   40   42 ar 
    45   41   43 ar 
    46   42   43 ar 
    47   44   45 1  
    48   45   46 1  
    49   45   48 1  
    50   46   47 2  
    51   46   58 am 
    52   48   49 1  
    53   49   50 2  
    54   49   51 1  
    55   50   52 1  
    56   51   53 ar 
    57   51   54 ar 
    58   52   53 1  
    59   53   55 ar 
    60   54   56 ar 
    61   55   57 ar 
    62   56   57 ar 
    63   58   59 1  
    64   59   60 1  
    65   59   62 1  
    66   60   61 2  
    67   60   69 am 
    68   62   63 1  
    69   63   64 ar 
    70   63   65 ar 
    71   64   66 ar 
    72   65   67 ar 
    73   66   68 ar 
    74   67   68 ar 
    75   69   70 1  
    76   70   71 1  
    77   70   73 1  
    78   71   72 2  
    79   71   77 am 
    80   73   74 1  
    81   74   75 ar 
    82   74   76 ar 
    83   77   78 1  
    84   78   79 1  
    85   78   81 1  
    86   79   80 ar 
    87   79   85 ar 
    88   81   82 1  
    89   81   83 1  
    90   82   84 1  
    91    1   86 1  
    92    1   87 1  
    93    1   88 1  
    94    2   89 1  
    95    5   90 1  
    96    5   91 1  
    97    7   92 1  
    98    8   93 1  
    99    9   94 1  
   100   10   95 1  
   101   11   96 1  
   102   12   97 1  
   103   13   98 1  
   104   16   99 1  
   105   16  100 1  
   106   17  101 1  
   107   18  102 1  
   108   18  103 1  
   109   18  104 1  
   110   19  105 1  
   111   19  106 1  
   112   19  107 1  
   113   20  108 1  
   114   21  109 1  
   115   24  110 1  
   116   24  111 1  
   117   25  112 1  
   118   27  113 1  
   119   30  114 1  
   120   30  115 1  
   121   31  116 1  
   122   31  117 1  
   123   32  118 1  
   124   32  119 1  
   125   33  120 1  
   126   34  121 1  
   127   37  122 1  
   128   37  123 1  
   129   39  124 1  
   130   40  125 1  
   131   41  126 1  
   132   42  127 1  
   133   43  128 1  
   134   44  129 1  
   135   45  130 1  
   136   48  131 1  
   137   48  132 1  
   138   50  133 1  
   139   52  134 1  
   140   54  135 1  
   141   55  136 1  
   142   56  137 1  
   143   57  138 1  
   144   58  139 1  
   145   59  140 1  
   146   62  141 1  
   147   62  142 1  
   148   64  143 1  
   149   65  144 1  
   150   66  145 1  
   151   67  146 1  
   152   68  147 1  
   153   69  148 1  
   154   70  149 1  
   155   73  150 1  
   156   73  151 1  
   157   77  152 1  
   158   78  153 1  
   159   81  154 1  
   160   82  155 1  
   161   82  156 1  
   162   83  157 1  
   163   83  158 1  
   164   83  159 1  
   165   84  160 1  
   166   84  161 1  
   167   84  162 1  
@<TRIPOS>SUBSTRUCTURE
     1 PHE         1

