1v2o_ligand
  -I-interpret- 

 54 55  0  0  0  0  0  0  0  0999 V2000
   -2.1790   19.1130   17.6980 N   0  0  0  0  0
   -3.3420   18.3880   18.2850 C   0  0  0  0  0
   -2.8130   17.4120   19.3340 C   0  0  0  0  0
   -4.5090   19.2760   18.9340 C   0  0  0  0  0
   -5.6930   19.0020   18.6310 O   0  0  0  0  0
   -4.1720   20.3490   19.8350 O   0  0  0  0  0
   -2.8160   20.7550   20.2600 C   0  0  0  0  0
   -1.9910   16.2300   18.8300 C   0  0  0  0  0
   -0.8850   15.8000   19.6050 C   0  0  0  0  0
   -0.0860   14.7030   19.1910 C   0  0  0  0  0
   -0.3960   14.0230   17.9840 C   0  0  0  0  0
   -1.5210   14.4150   17.1370 C   0  0  0  0  0
   -2.3140   15.5400   17.5950 C   0  0  0  0  0
   -1.8010   13.7190   15.9460 C   0  0  0  0  0
   -2.3870   14.2310   14.8820 N   0  0  0  0  0
   -1.5040   12.4400   15.7460 N   0  0  0  0  0
   -2.2490   20.0390   16.7340 C   0  0  0  0  0
   -0.9820   20.8100   16.4300 C   0  0  0  0  0
   -0.9290   21.3530   15.0530 N   0  0  0  0  0
   -3.2690   20.2760   16.0910 O   0  0  0  0  0
    3.1150   25.4620   18.6410 C   0  0  0  0  0
    2.1860   24.8390   17.6670 C   0  0  0  0  0
    2.6600   24.0330   16.5760 C   0  0  0  0  0
    1.7200   23.4480   15.6620 C   0  0  0  0  0
    0.3170   23.6990   15.8760 C   0  0  0  0  0
   -0.1430   24.5010   16.9570 C   0  0  0  0  0
    0.7910   25.0640   17.8440 C   0  0  0  0  0
   -0.8880   23.0200   14.8220 S   0  0  0  0  0
   -0.5890   23.2410   13.2730 O   0  0  0  0  0
   -2.3170   23.4660   15.2990 O   0  0  0  0  0
   -1.2536   18.8845   18.0610 H   0  0  0  0  0
   -3.8259   17.9013   17.4382 H   0  0  0  0  0
   -3.6939   16.9802   19.8091 H   0  0  0  0  0
   -2.1420   17.9919   19.9677 H   0  0  0  0  0
   -2.3283   19.9191   20.7615 H   0  0  0  0  0
   -2.2341   21.0452   19.3852 H   0  0  0  0  0
   -2.8891   21.5992   20.9457 H   0  0  0  0  0
   -0.6447   16.3196   20.5326 H   0  0  0  0  0
    0.7620   14.3838   19.7969 H   0  0  0  0  0
    0.2253   13.1810   17.6788 H   0  0  0  0  0
   -3.1661   15.8723   17.0020 H   0  0  0  0  0
   -2.6773   15.2088   14.8806 H   0  0  0  0  0
   -1.7352   11.9956   14.8575 H   0  0  0  0  0
   -1.0447   11.9021   16.4809 H   0  0  0  0  0
   -0.1465   20.1186   16.5393 H   0  0  0  0  0
   -0.9444   21.6569   17.1152 H   0  0  0  0  0
   -0.9174   20.7222   14.2515 H   0  0  0  0  0
    3.6896   24.6832   19.1424 H   0  0  0  0  0
    3.7932   26.1343   18.1155 H   0  0  0  0  0
    2.5426   26.0248   19.3784 H   0  0  0  0  0
    3.7289   23.8664   16.4428 H   0  0  0  0  0
    2.0580   22.8311   14.8293 H   0  0  0  0  0
   -1.2096   24.6773   17.0963 H   0  0  0  0  0
    0.4443   25.6784   18.6749 H   0  0  0  0  0
  1  2  1  0  0  0
 17  1  1  0  0  0
  2  3  1  0  0  0
  2  4  1  0  0  0
  3  8  1  0  0  0
  4  5  2  0  0  0
  4  6  1  0  0  0
  6  7  1  0  0  0
  8  9  4  0  0  0
  8 13  4  0  0  0
  9 10  4  0  0  0
 10 11  4  0  0  0
 12 11  4  0  0  0
 13 12  4  0  0  0
 12 14  1  0  0  0
 14 15  2  0  0  0
 14 16  1  0  0  0
 18 17  1  0  0  0
 17 20  2  0  0  0
 19 18  1  0  0  0
 28 19  1  0  0  0
 22 21  1  0  0  0
 23 22  4  0  0  0
 22 27  4  0  0  0
 24 23  4  0  0  0
 25 24  4  0  0  0
 25 26  4  0  0  0
 25 28  1  0  0  0
 26 27  4  0  0  0
 28 29  2  0  0  0
 28 30  2  0  0  0
  1 31  1  0  0  0
  2 32  1  0  0  0
  3 33  1  0  0  0
  3 34  1  0  0  0
  7 35  1  0  0  0
  7 36  1  0  0  0
  7 37  1  0  0  0
  9 38  1  0  0  0
 10 39  1  0  0  0
 11 40  1  0  0  0
 13 41  1  0  0  0
 15 42  1  0  0  0
 16 43  1  0  0  0
 16 44  1  0  0  0
 18 45  1  0  0  0
 18 46  1  0  0  0
 19 47  1  0  0  0
 21 48  1  0  0  0
 21 49  1  0  0  0
 21 50  1  0  0  0
 23 51  1  0  0  0
 24 52  1  0  0  0
 26 53  1  0  0  0
 27 54  1  0  0  0
M  END
$$$$
