### 
### Created by X-TOOL on Mon Aug  2 16:12:52 2021
### 

@<TRIPOS>MOLECULE
6d1i_ligand
   27    28     1     0     0
SMALL
GAST_HUCK


@<TRIPOS>ATOM
      1 C01        49.8780   14.8960   44.6560 C.3       1 T6Z         0.0488
      2 C03        50.7880   12.7110   44.2260 C.2       1 T6Z         0.1940
      3 C05        50.9680   11.3440   44.5990 C.2       1 T6Z         0.0003
      4 C06        50.4400   10.8430   45.7860 C.2       1 T6Z        -0.0115
      5 C07        50.6320    9.3920   46.2690 C.3       1 T6Z         0.0581
      6 C12        49.7170   11.7470   46.5650 C.ar      1 T6Z         0.0208
      7 C13        49.1970   11.3230   47.7410 C.ar      1 T6Z        -0.0587
      8 C14        48.4550   12.1530   48.5590 C.ar      1 T6Z        -0.0705
      9 C15        48.3110   13.4660   48.1750 C.ar      1 T6Z        -0.0696
     10 C16        48.8460   13.9220   46.9850 C.ar      1 T6Z        -0.0318
     11 C17        49.5690   13.0850   46.1620 C.ar      1 T6Z         0.0916
     12 N02        50.0730   13.4700   45.0020 N.am      1 T6Z        -0.2210
     13 O04        51.2060   13.1450   43.2230 O.2       1 T6Z        -0.4130
     14 O09        49.6580    6.8970   45.6900 O.co2     1 T6Z        -0.5604
     15 O10        48.5190    8.7460   44.6080 O.co2     1 T6Z        -0.5604
     16 O11        48.2450    8.4050   47.0380 O.co2     1 T6Z        -0.5604
     17 P08        49.1620    8.3540   45.8700 P.3       1 T6Z         0.0728
     18 H1         50.3350   15.1015   43.6767 H         1 T6Z         0.0570
     19 H2         50.3525   15.5273   45.4217 H         1 T6Z         0.0570
     20 H3         48.8017   15.1189   44.6124 H         1 T6Z         0.0570
     21 H4         51.5291   10.6808   43.9423 H         1 T6Z         0.0425
     22 H5         50.7842    9.3940   47.3584 H         1 T6Z         0.0651
     23 H6         51.5173    8.9642   45.7758 H         1 T6Z         0.0651
     24 H7         49.3685   10.2985   48.0509 H         1 T6Z         0.0619
     25 H8         48.0021   11.7825   49.4715 H         1 T6Z         0.0515
     26 H9         47.7699   14.1533   48.8152 H         1 T6Z         0.0614
     27 H10        48.6946   14.9551   46.6939 H         1 T6Z         0.0527
@<TRIPOS>BOND
     1   12    1 1  
     2    2    3 1  
     3    2   12 am 
     4    2   13 2  
     5    3    4 2  
     6    4    5 1  
     7    4    6 1  
     8    5   17 1  
     9    6    7 ar 
    10    6   11 ar 
    11    7    8 ar 
    12    8    9 ar 
    13    9   10 ar 
    14   10   11 ar 
    15   11   12 1  
    16   17   14 ar 
    17   17   15 ar 
    18   17   16 ar 
    19    1   18 1  
    20    1   19 1  
    21    1   20 1  
    22    3   21 1  
    23    5   22 1  
    24    5   23 1  
    25    7   24 1  
    26    8   25 1  
    27    9   26 1  
    28   10   27 1  
@<TRIPOS>SUBSTRUCTURE
     1 T6Z         1

