6d1i_ligand
  -I-interpret- 

 29 30  0  0  0  0  0  0  0  0999 V2000
   49.8780   14.8960   44.6560 C   0  0  0  0  0
   50.7880   12.7110   44.2260 C   0  0  0  0  0
   50.9680   11.3440   44.5990 C   0  0  0  0  0
   50.4400   10.8430   45.7860 C   0  0  0  0  0
   50.6320    9.3920   46.2690 C   0  0  0  0  0
   49.7170   11.7470   46.5650 C   0  0  0  0  0
   49.1970   11.3230   47.7410 C   0  0  0  0  0
   48.4550   12.1530   48.5590 C   0  0  0  0  0
   48.3110   13.4660   48.1750 C   0  0  0  0  0
   48.8460   13.9220   46.9850 C   0  0  0  0  0
   49.5690   13.0850   46.1620 C   0  0  0  0  0
   50.0730   13.4700   45.0020 N   0  0  0  0  0
   51.2060   13.1450   43.2230 O   0  0  0  0  0
   49.6580    6.8970   45.6900 O   0  0  0  0  0
   48.5190    8.7460   44.6080 O   0  0  0  0  0
   48.2450    8.4050   47.0380 O   0  0  0  0  0
   49.1620    8.3540   45.8700 P   0  0  0  0  0
   48.8112   15.1156   44.6131 H   0  0  0  0  0
   50.3485   15.5204   45.4155 H   0  0  0  0  0
   50.3312   15.0983   43.6855 H   0  0  0  0  0
   51.5296   10.6802   43.9417 H   0  0  0  0  0
   50.7673    9.4011   47.3505 H   0  0  0  0  0
   51.5017    8.9705   45.7650 H   0  0  0  0  0
   49.3695   10.2928   48.0526 H   0  0  0  0  0
   47.9996   11.7805   49.4766 H   0  0  0  0  0
   47.7669   14.1571   48.8188 H   0  0  0  0  0
   48.6937   14.9609   46.6923 H   0  0  0  0  0
   50.0860    6.6038   46.4977 H   0  0  0  0  0
   48.7205    8.1395   47.8286 H   0  0  0  0  0
 12  1  1  0  0  0
  2  3  1  0  0  0
  2 12  1  0  0  0
  2 13  2  0  0  0
  3  4  2  0  0  0
  4  5  1  0  0  0
  4  6  1  0  0  0
  5 17  1  0  0  0
  6  7  4  0  0  0
  6 11  4  0  0  0
  7  8  4  0  0  0
  8  9  4  0  0  0
  9 10  4  0  0  0
 10 11  4  0  0  0
 11 12  1  0  0  0
 17 14  1  0  0  0
 17 15  2  0  0  0
 17 16  1  0  0  0
  1 18  1  0  0  0
  1 19  1  0  0  0
  1 20  1  0  0  0
  3 21  1  0  0  0
  5 22  1  0  0  0
  5 23  1  0  0  0
  7 24  1  0  0  0
  8 25  1  0  0  0
  9 26  1  0  0  0
 10 27  1  0  0  0
 14 28  1  0  0  0
 16 29  1  0  0  0
M  END
$$$$
