5lay_ligand
  -I-interpret- 

 63 67  0  0  0  0  0  0  0  0999 V2000
   -0.2630  -26.5000    8.2940 C   0  0  0  0  0
   -0.7600  -27.7520    8.6140 C   0  0  0  0  0
   -0.1840  -28.4620    9.6530 C   0  0  0  0  0
    0.8840  -27.9200   10.3700 C   0  0  0  0  0
    1.3970  -26.6550   10.0570 C   0  0  0  0  0
    2.5670  -26.0100   10.8000 C   0  0  0  0  0
    4.1800  -25.8650   12.5830 C   0  0  0  0  0
    6.2690  -26.3150   11.2320 C   0  0  0  0  0
    7.1580  -25.2550   11.8290 C   0  0  0  0  0
    7.2540  -24.0260   11.1940 C   0  0  0  0  0
    8.0630  -23.0340   11.7190 C   0  0  0  0  0
    8.6950  -24.5040   13.5340 C   0  0  0  0  0
   10.7030  -24.3120   14.9290 C   0  0  0  0  0
   11.2250  -24.8350   16.2720 C   0  0  0  0  0
    4.2020  -25.8030    8.8990 C   0  0  0  0  0
    4.7340  -25.3150    6.2260 C   0  0  0  0  0
    4.6970  -26.6140    6.6860 C   0  0  0  0  0
    4.4270  -26.8700    8.0310 C   0  0  0  0  0
    4.0920  -27.9000   10.0300 C   0  0  0  0  0
    0.8040  -25.9510    9.0010 C   0  0  0  0  0
   -0.9590  -25.5910    6.9960 Cl  0  0  0  0  0
    2.7300  -26.3460   12.3070 C   0  0  0  0  0
    1.7440  -25.6390   13.1390 N   0  3  0  0  0
    4.1900  -24.4570   13.1910 C   0  0  0  0  0
    4.8710  -25.8370   11.2520 N   0  3  0  0  0
    8.7790  -23.2640   12.8860 C   0  0  0  0  0
    9.3690  -24.7740   14.6970 O   0  0  0  0  0
    7.8710  -25.4930   12.9940 C   0  0  0  0  0
    3.9470  -26.4150   10.2450 C   0  0  0  0  0
    4.2450  -24.5020    8.4310 C   0  0  0  0  0
    4.5060  -24.2580    7.0920 C   0  0  0  0  0
    5.0670  -25.0060    4.5590 Cl  0  0  0  0  0
    4.3520  -28.0730    8.7240 N   0  0  0  0  0
    3.9760  -28.7830   10.8500 O   0  0  0  0  0
    1.2420  -24.7220    8.6360 F   0  0  0  0  0
   -1.5950  -28.1735    8.0543 H   0  0  0  0  0
   -0.5662  -29.4492    9.9127 H   0  0  0  0  0
    1.3259  -28.4906   11.1868 H   0  0  0  0  0
    2.2945  -24.9645   10.6554 H   0  0  0  0  0
    4.6747  -26.5293   13.2916 H   0  0  0  0  0
    6.3518  -27.2340   11.8123 H   0  0  0  0  0
    6.5744  -26.5155   10.2050 H   0  0  0  0  0
    6.6909  -23.8411   10.2792 H   0  0  0  0  0
    8.1383  -22.0702   11.2155 H   0  0  0  0  0
   11.3488  -24.6779   14.1308 H   0  0  0  0  0
   10.7024  -23.2222   14.9490 H   0  0  0  0  0
   10.5806  -24.4773   17.0750 H   0  0  0  0  0
   11.2234  -25.9249   16.2614 H   0  0  0  0  0
   12.2409  -24.4734   16.4312 H   0  0  0  0  0
    4.8786  -27.4409    5.9994 H   0  0  0  0  0
    2.5642  -27.3969   12.5443 H   0  0  0  0  0
    0.8090  -25.9859   12.9248 H   0  0  0  0  0
    1.9516  -25.8036   14.1240 H   0  0  0  0  0
    1.7901  -24.6391   12.9430 H   0  0  0  0  0
    3.7174  -23.7603   12.4987 H   0  0  0  0  0
    3.6402  -24.4651   14.1322 H   0  0  0  0  0
    5.2195  -24.1484   13.3728 H   0  0  0  0  0
    5.0529  -24.8673   10.9933 H   0  0  0  0  0
    9.4092  -22.4769   13.3001 H   0  0  0  0  0
    7.7876  -26.4591   13.4917 H   0  0  0  0  0
    4.0739  -23.6701    9.1142 H   0  0  0  0  0
    4.5319  -23.2338    6.7200 H   0  0  0  0  0
    4.4803  -28.9863    8.2884 H   0  0  0  0  0
  1  2  4  0  0  0
 20  1  4  0  0  0
  1 21  1  0  0  0
  3  2  4  0  0  0
  4  3  4  0  0  0
  5  4  4  0  0  0
  6  5  1  0  0  0
  5 20  4  0  0  0
  6 22  1  0  0  0
 29  6  1  0  0  0
 22  7  1  0  0  0
  7 24  1  0  0  0
  7 25  1  0  0  0
  8  9  1  0  0  0
 25  8  1  0  0  0
  9 10  4  0  0  0
  9 28  4  0  0  0
 10 11  4  0  0  0
 11 26  4  0  0  0
 12 26  4  0  0  0
 12 27  1  0  0  0
 28 12  4  0  0  0
 13 14  1  0  0  0
 27 13  1  0  0  0
 18 15  4  0  0  0
 15 29  1  0  0  0
 15 30  4  0  0  0
 17 16  4  0  0  0
 16 31  4  0  0  0
 16 32  1  0  0  0
 17 18  4  0  0  0
 18 33  1  0  0  0
 29 19  1  0  0  0
 19 33  1  0  0  0
 19 34  2  0  0  0
 20 35  1  0  0  0
 22 23  1  0  0  0
 25 29  1  0  0  0
 30 31  4  0  0  0
  2 36  1  0  0  0
  3 37  1  0  0  0
  4 38  1  0  0  0
  6 39  1  0  0  0
  7 40  1  0  0  0
  8 41  1  0  0  0
  8 42  1  0  0  0
 10 43  1  0  0  0
 11 44  1  0  0  0
 13 45  1  0  0  0
 13 46  1  0  0  0
 14 47  1  0  0  0
 14 48  1  0  0  0
 14 49  1  0  0  0
 17 50  1  0  0  0
 22 51  1  0  0  0
 23 52  1  0  0  0
 23 53  1  0  0  0
 23 54  1  0  0  0
 24 55  1  0  0  0
 24 56  1  0  0  0
 24 57  1  0  0  0
 25 58  1  0  0  0
 26 59  1  0  0  0
 28 60  1  0  0  0
 30 61  1  0  0  0
 31 62  1  0  0  0
 33 63  1  0  0  0
M  END
$$$$
