5cuq_ligand
  -I-interpret- 

 48 51  0  0  0  0  0  0  0  0999 V2000
    5.4150   -3.0610    4.9900 C   0  0  0  0  0
    6.5760   -2.8640    4.1130 C   0  0  0  0  0
    7.5020   -1.7760    3.9380 C   0  0  0  0  0
    7.4210   -0.5290    4.6920 N   0  0  0  0  0
    8.5580   -1.9370    2.9450 C   0  0  0  0  0
    8.6500   -3.1280    2.1920 C   0  0  0  0  0
    9.7420   -3.3370    1.1330 C   0  0  0  0  0
    7.8060   -4.0550    2.3920 N   0  0  0  0  0
    6.8250   -4.1840    3.1560 C   0  0  0  0  0
    5.7630   -5.1690    3.5090 C   0  0  0  0  0
    4.8830   -4.9810    4.3660 C   0  0  0  0  0
    4.7700   -4.0790    4.9900 C   0  0  0  0  0
    3.6080   -4.2090    5.8520 N   0  0  0  0  0
    3.4680   -3.9690    7.2800 C   0  0  0  0  0
    4.3670   -3.6230    7.9410 O   0  0  0  0  0
    2.1230   -4.2120    7.8130 N   0  0  0  0  0
    1.1650   -4.6580    6.7890 C   0  0  0  0  0
    0.7890   -6.0000    6.7230 C   0  0  0  0  0
   -0.1050   -6.4430    5.7520 C   0  0  0  0  0
   -0.5080   -7.7550    5.6560 C   0  0  0  0  0
    0.0030   -8.7400    6.5910 N   0  0  0  0  0
   -1.3920   -8.1180    4.6710 C   0  0  0  0  0
   -1.8720   -7.1690    3.7830 C   0  0  0  0  0
   -2.8550   -7.5600    2.6840 C   0  0  0  0  0
   -1.4720   -5.9040    3.8890 N   0  0  0  0  0
   -0.6140   -5.5350    4.8440 C   0  0  0  0  0
   -0.2270   -4.2110    4.9050 C   0  0  0  0  0
    0.6560   -3.7640    5.8740 C   0  0  0  0  0
    5.1257   -2.2566    5.6662 H   0  0  0  0  0
    6.6816   -0.3975    5.3822 H   0  0  0  0  0
    8.1038    0.2110    4.5287 H   0  0  0  0  0
    9.2786   -1.1353    2.7836 H   0  0  0  0  0
    9.6537   -2.5683    0.3653 H   0  0  0  0  0
   10.7220   -3.2697    1.6053 H   0  0  0  0  0
    9.6227   -4.3208    0.6792 H   0  0  0  0  0
    5.7581   -6.1209    2.9781 H   0  0  0  0  0
    4.1569   -5.7803    4.5143 H   0  0  0  0  0
    2.7565   -4.5169    5.3823 H   0  0  0  0  0
    1.8767   -4.0846    8.7946 H   0  0  0  0  0
    1.2002   -6.7102    7.4404 H   0  0  0  0  0
    0.6604   -8.4595    7.3187 H   0  0  0  0  0
   -0.2952   -9.7129    6.5206 H   0  0  0  0  0
   -1.7171   -9.1550    4.5871 H   0  0  0  0  0
   -2.3969   -8.3091    2.0382 H   0  0  0  0  0
   -3.7581   -7.9709    3.1354 H   0  0  0  0  0
   -3.1100   -6.6784    2.0959 H   0  0  0  0  0
   -0.6240   -3.5040    4.1766 H   0  0  0  0  0
    0.9453   -2.7138    5.9118 H   0  0  0  0  0
  1  2  4  0  0  0
  1 12  4  0  0  0
  2  3  4  0  0  0
  2  9  4  0  0  0
  3  4  1  0  0  0
  3  5  4  0  0  0
  5  6  4  0  0  0
  6  7  1  0  0  0
  6  8  4  0  0  0
  8  9  4  0  0  0
  9 10  4  0  0  0
 10 11  4  0  0  0
 11 12  4  0  0  0
 12 13  1  0  0  0
 13 14  1  0  0  0
 14 15  2  0  0  0
 14 16  1  0  0  0
 16 17  1  0  0  0
 17 18  4  0  0  0
 17 28  4  0  0  0
 18 19  4  0  0  0
 19 20  4  0  0  0
 19 26  4  0  0  0
 20 21  1  0  0  0
 20 22  4  0  0  0
 22 23  4  0  0  0
 23 24  1  0  0  0
 23 25  4  0  0  0
 25 26  4  0  0  0
 26 27  4  0  0  0
 27 28  4  0  0  0
  1 29  1  0  0  0
  4 30  1  0  0  0
  4 31  1  0  0  0
  5 32  1  0  0  0
  7 33  1  0  0  0
  7 34  1  0  0  0
  7 35  1  0  0  0
 10 36  1  0  0  0
 11 37  1  0  0  0
 13 38  1  0  0  0
 16 39  1  0  0  0
 18 40  1  0  0  0
 21 41  1  0  0  0
 21 42  1  0  0  0
 22 43  1  0  0  0
 24 44  1  0  0  0
 24 45  1  0  0  0
 24 46  1  0  0  0
 27 47  1  0  0  0
 28 48  1  0  0  0
M  END
$$$$
