3u7k_ligand
  -I-interpret- 

 65 66  0  0  0  0  0  0  0  0999 V2000
  -16.7390   84.8790   68.7910 C   0  0  0  0  0
  -15.8440   86.3270   70.3670 N   0  0  0  0  0
  -15.9900   85.4150   67.9820 O   0  0  0  0  0
  -17.0930   85.6700   70.0330 C   0  0  0  0  0
  -18.2490   86.6640   69.8370 C   0  0  0  0  0
  -18.5860   87.3400   71.1680 C   0  0  0  0  0
  -17.9000   87.7850   68.8540 C   0  0  0  0  0
  -19.5090   85.9450   69.3590 C   0  0  0  0  0
  -15.1350   86.0770   71.4660 C   0  0  0  0  0
  -15.5220   85.2850   72.3130 O   0  0  0  0  0
  -13.9970   86.7650   71.5590 N   0  0  0  0  0
  -13.0740   86.7280   72.5670 C   0  0  0  0  0
  -13.2220   85.9280   73.7000 C   0  0  0  0  0
  -12.2490   85.9330   74.7050 C   0  0  0  0  0
  -11.1210   86.7440   74.5840 C   0  0  0  0  0
  -10.9670   87.5440   73.4490 C   0  0  0  0  0
  -11.9460   87.5330   72.4470 C   0  0  0  0  0
  -11.7950   88.3150   71.3330 O   0  0  0  0  0
  -10.5800   88.2480   70.5830 C   0  0  0  0  0
  -17.1970   83.6290   68.5680 N   0  0  0  0  0
  -16.7910   82.9620   67.3330 C   0  0  0  0  0
  -17.9580   82.5640   66.4440 C   0  0  0  0  0
  -18.9580   83.2610   66.3100 O   0  0  0  0  0
  -17.7880   81.4060   65.8170 N   0  0  0  0  0
  -18.7330   80.8890   64.9380 O   0  0  0  0  0
  -18.0860   82.8350   69.4290 C   0  0  0  0  0
  -17.2520   82.0260   70.4220 C   0  0  0  0  0
  -18.1510   81.4890   71.5380 C   0  0  0  0  0
  -17.5490   80.1600   71.9850 C   0  0  0  0  0
  -16.5180   79.7560   70.9430 C   0  0  0  0  0
  -16.6150   80.7840   69.8120 C   0  0  0  0  0
  -15.4850   87.0266   69.7173 H   0  0  0  0  0
  -17.4734   85.0295   70.8287 H   0  0  0  0  0
  -17.7223   87.9073   71.5149 H   0  0  0  0  0
  -19.4320   88.0129   71.0283 H   0  0  0  0  0
  -18.8429   86.5796   71.9055 H   0  0  0  0  0
  -17.7244   87.3588   67.8663 H   0  0  0  0  0
  -18.7272   88.4930   68.8037 H   0  0  0  0  0
  -17.0009   88.2984   69.1947 H   0  0  0  0  0
  -20.3340   86.6555   69.3080 H   0  0  0  0  0
  -19.3311   85.5213   68.3706 H   0  0  0  0  0
  -19.7578   85.1469   70.0585 H   0  0  0  0  0
  -13.7897   87.3954   70.7844 H   0  0  0  0  0
  -14.1027   85.2940   73.8031 H   0  0  0  0  0
  -12.3728   85.3015   75.5848 H   0  0  0  0  0
  -10.3650   86.7537   75.3692 H   0  0  0  0  0
  -10.0855   88.1764   73.3432 H   0  0  0  0  0
   -9.7435   88.5285   71.2230 H   0  0  0  0  0
  -10.4351   87.2310   70.2185 H   0  0  0  0  0
  -10.6381   88.9335   69.7376 H   0  0  0  0  0
  -16.2666   82.0482   67.6124 H   0  0  0  0  0
  -16.1757   83.6636   66.7698 H   0  0  0  0  0
  -16.9329   80.8764   65.9864 H   0  0  0  0  0
  -18.4218   80.0488   64.5933 H   0  0  0  0  0
  -18.6742   82.1553   68.8125 H   0  0  0  0  0
  -18.7516   83.5031   69.9756 H   0  0  0  0  0
  -16.4803   82.7135   70.7684 H   0  0  0  0  0
  -19.1722   81.3526   71.1822 H   0  0  0  0  0
  -18.2001   82.1922   72.3693 H   0  0  0  0  0
  -18.3243   79.3987   72.0713 H   0  0  0  0  0
  -17.0828   80.2616   72.9650 H   0  0  0  0  0
  -16.7120   78.7494   70.5725 H   0  0  0  0  0
  -15.5159   79.7413   71.3715 H   0  0  0  0  0
  -15.6316   81.0086   69.3990 H   0  0  0  0  0
  -17.2117   80.4023   68.9835 H   0  0  0  0  0
  1  3  2  0  0  0
  1  4  1  0  0  0
  1 20  1  0  0  0
  4  2  1  0  0  0
  2  9  1  0  0  0
  4  5  1  0  0  0
  5  6  1  0  0  0
  5  7  1  0  0  0
  5  8  1  0  0  0
  9 10  2  0  0  0
  9 11  1  0  0  0
 11 12  1  0  0  0
 12 13  4  0  0  0
 12 17  4  0  0  0
 13 14  4  0  0  0
 14 15  4  0  0  0
 15 16  4  0  0  0
 16 17  4  0  0  0
 17 18  1  0  0  0
 18 19  1  0  0  0
 20 21  1  0  0  0
 20 26  1  0  0  0
 21 22  1  0  0  0
 22 23  2  0  0  0
 22 24  1  0  0  0
 24 25  1  0  0  0
 26 27  1  0  0  0
 27 28  1  0  0  0
 27 31  1  0  0  0
 28 29  1  0  0  0
 29 30  1  0  0  0
 30 31  1  0  0  0
  2 32  1  0  0  0
  4 33  1  0  0  0
  6 34  1  0  0  0
  6 35  1  0  0  0
  6 36  1  0  0  0
  7 37  1  0  0  0
  7 38  1  0  0  0
  7 39  1  0  0  0
  8 40  1  0  0  0
  8 41  1  0  0  0
  8 42  1  0  0  0
 11 43  1  0  0  0
 13 44  1  0  0  0
 14 45  1  0  0  0
 15 46  1  0  0  0
 16 47  1  0  0  0
 19 48  1  0  0  0
 19 49  1  0  0  0
 19 50  1  0  0  0
 21 51  1  0  0  0
 21 52  1  0  0  0
 24 53  1  0  0  0
 25 54  1  0  0  0
 26 55  1  0  0  0
 26 56  1  0  0  0
 27 57  1  0  0  0
 28 58  1  0  0  0
 28 59  1  0  0  0
 29 60  1  0  0  0
 29 61  1  0  0  0
 30 62  1  0  0  0
 30 63  1  0  0  0
 31 64  1  0  0  0
 31 65  1  0  0  0
M  END
$$$$
