5o1d_ligand
  -I-interpret- 

 34 35  0  0  0  0  0  0  0  0999 V2000
   92.5950   89.8470  -47.8610 C   0  0  0  0  0
   92.7520   89.8650  -41.7790 C   0  0  0  0  0
   91.2490   94.0680  -45.5910 C   0  0  0  0  0
   92.5430   91.7420  -42.9720 N   0  0  0  0  0
   91.2860   96.3640  -42.7460 O   0  0  0  0  0
   91.7150   92.8740  -45.0240 C   0  0  0  0  0
   91.8630   91.7060  -45.7240 O   0  0  0  0  0
   92.0390   92.8670  -43.6590 C   0  0  0  0  0
   90.3210   96.3890  -46.7660 O   0  0  0  0  0
   91.8960   94.0390  -42.8930 C   0  0  0  0  0
   90.5000   97.5190  -44.8000 O   0  0  0  0  0
   91.4270   95.2200  -43.4880 C   0  0  0  0  0
   91.0990   95.2450  -44.8420 C   0  0  0  0  0
   90.5970   96.4850  -45.5240 C   0  0  0  0  0
   91.0440   91.5720  -46.8890 C   0  0  0  0  0
   91.1780   90.1490  -47.4050 C   0  0  0  0  0
   91.8570   90.6830  -42.4280 C   0  0  0  0  0
   94.0340   90.4450  -41.9100 C   0  0  0  0  0
   93.8760   91.6050  -42.6290 C   0  0  0  0  0
   92.3460   94.0900  -40.8190 I   0  0  0  0  0
   92.8704   90.5308  -48.6639 H   0  0  0  0  0
   93.2800   89.9742  -47.0227 H   0  0  0  0  0
   92.6479   88.8200  -48.2225 H   0  0  0  0  0
   92.5154   88.9373  -41.2579 H   0  0  0  0  0
   90.9942   94.0828  -46.6507 H   0  0  0  0  0
   90.9568   97.0697  -43.3075 H   0  0  0  0  0
   90.4864   95.4905  -47.0609 H   0  0  0  0  0
   91.3639   92.2790  -47.6544 H   0  0  0  0  0
   90.0038   91.7836  -46.6413 H   0  0  0  0  0
   90.9251   89.4650  -46.5949 H   0  0  0  0  0
   90.5101   90.0290  -48.2580 H   0  0  0  0  0
   90.7818   90.5185  -42.4991 H   0  0  0  0  0
   94.9695   90.0479  -41.5159 H   0  0  0  0  0
   94.6717   92.3038  -42.8872 H   0  0  0  0  0
 16  1  1  0  0  0
 17  2  4  0  0  0
  2 18  4  0  0  0
  6  3  4  0  0  0
  3 13  4  0  0  0
  8  4  1  0  0  0
  4 17  4  0  0  0
  4 19  4  0  0  0
 12  5  1  0  0  0
  7  6  1  0  0  0
  6  8  4  0  0  0
 15  7  1  0  0  0
  8 10  4  0  0  0
 14  9  1  0  0  0
 10 12  4  0  0  0
 10 20  1  0  0  0
 14 11  2  0  0  0
 13 12  4  0  0  0
 13 14  1  0  0  0
 15 16  1  0  0  0
 18 19  4  0  0  0
  1 21  1  0  0  0
  1 22  1  0  0  0
  1 23  1  0  0  0
  2 24  1  0  0  0
  3 25  1  0  0  0
  5 26  1  0  0  0
  9 27  1  0  0  0
 15 28  1  0  0  0
 15 29  1  0  0  0
 16 30  1  0  0  0
 16 31  1  0  0  0
 17 32  1  0  0  0
 18 33  1  0  0  0
 19 34  1  0  0  0
M  END
$$$$
