4cu8_ligand
  -I-interpret- 

 25 25  0  0  0  0  0  0  0  0999 V2000
   40.0920  -46.8890    8.2510 C   0  0  0  0  0
   39.6020  -45.4640    8.1750 C   0  0  0  0  0
   38.8340  -45.2390    9.3100 O   0  0  0  0  0
   38.7260  -45.2240    6.9050 C   0  0  0  0  0
   38.3840  -43.8020    6.7500 O   0  0  0  0  0
   39.5190  -45.6670    5.6890 C   0  0  0  0  0
   40.7700  -44.9250    5.6490 O   0  0  0  0  0
   39.8190  -47.1320    5.8650 C   0  0  0  0  0
   40.7470  -47.3100    6.9970 N   0  3  0  0  0
   40.3710  -47.7350    4.5830 C   0  0  0  0  0
   40.5620  -49.1450    4.8150 O   0  0  0  0  0
   39.2336  -47.5381    8.4243 H   0  0  0  0  0
   40.8207  -46.9585    9.0587 H   0  0  0  0  0
   40.4533  -44.7858    8.1165 H   0  0  0  0  0
   39.3706  -45.3860   10.0924 H   0  0  0  0  0
   37.8006  -45.7909    7.0063 H   0  0  0  0  0
   37.8816  -43.5098    7.5140 H   0  0  0  0  0
   38.9640  -45.4900    4.7678 H   0  0  0  0  0
   40.5828  -43.9901    5.5368 H   0  0  0  0  0
   38.8941  -47.6633    6.0893 H   0  0  0  0  0
   41.0092  -48.2933    7.0669 H   0  0  0  0  0
   41.5794  -46.7408    6.8436 H   0  0  0  0  0
   41.3153  -47.2614    4.3145 H   0  0  0  0  0
   39.6780  -47.5749    3.7570 H   0  0  0  0  0
   40.9111  -49.5545    4.0200 H   0  0  0  0  0
  1  2  1  0  0  0
  1  9  1  0  0  0
  2  3  1  0  0  0
  2  4  1  0  0  0
  4  5  1  0  0  0
  4  6  1  0  0  0
  6  7  1  0  0  0
  6  8  1  0  0  0
  8  9  1  0  0  0
  8 10  1  0  0  0
 10 11  1  0  0  0
  1 12  1  0  0  0
  1 13  1  0  0  0
  2 14  1  0  0  0
  3 15  1  0  0  0
  4 16  1  0  0  0
  5 17  1  0  0  0
  6 18  1  0  0  0
  7 19  1  0  0  0
  8 20  1  0  0  0
  9 21  1  0  0  0
  9 22  1  0  0  0
 10 23  1  0  0  0
 10 24  1  0  0  0
 11 25  1  0  0  0
M  END
$$$$
