1xgi_ligand
  -I-interpret- 

 29 30  0  0  0  0  0  0  0  0999 V2000
   79.3860    4.2620   31.1130 N   0  0  0  0  0
   80.6400    4.5900   31.6620 C   0  0  0  0  0
   80.8560    4.5430   33.0920 C   0  0  0  0  0
   81.7000    4.9560   30.7720 C   0  0  0  0  0
   82.1570    4.8730   33.6220 C   0  0  0  0  0
   83.0010    5.2820   31.2920 C   0  0  0  0  0
   83.2260    5.2380   32.7230 C   0  0  0  0  0
   84.0180    5.6230   30.4340 N   0  0  0  0  0
   78.2550    5.4970   30.6710 S   0  0  0  0  0
   78.6570    6.3530   29.0760 C   0  0  0  0  0
   76.9680    4.8510   30.5130 O   0  0  0  0  0
   78.1730    6.4570   31.7230 O   0  0  0  0  0
   78.8410    5.7610   27.8110 C   0  0  0  0  0
   78.8350    7.7460   28.9260 C   0  0  0  0  0
   79.1370    6.8230   26.8680 S   0  0  0  0  0
   78.7460    4.2950   27.4830 C   0  0  0  0  0
   79.1300    8.0340   27.5850 C   0  0  0  0  0
   78.4750    3.3870   28.4250 O   0  0  0  0  0
   78.9280    3.9280   26.3350 O   0  0  0  0  0
   83.8260    5.6600   29.2240 O   0  0  0  0  0
   85.1260    5.8890   30.8690 O   0  0  0  0  0
   79.1397    3.2821   30.9734 H   0  0  0  0  0
   80.0440    4.2611   33.7623 H   0  0  0  0  0
   81.5207    4.9877   29.6973 H   0  0  0  0  0
   82.3320    4.8468   34.6975 H   0  0  0  0  0
   84.2098    5.4824   33.1236 H   0  0  0  0  0
   78.7557    8.4817   29.7263 H   0  0  0  0  0
   79.3207    9.0239   27.1704 H   0  0  0  0  0
   78.3584    3.8286   29.2694 H   0  0  0  0  0
  1  2  1  0  0  0
  1  9  1  0  0  0
  2  3  4  0  0  0
  2  4  4  0  0  0
  3  5  4  0  0  0
  4  6  4  0  0  0
  5  7  4  0  0  0
  6  7  4  0  0  0
  6  8  1  0  0  0
  8 20  2  0  0  0
  8 21  2  0  0  0
  9 10  1  0  0  0
  9 11  2  0  0  0
  9 12  2  0  0  0
 10 13  4  0  0  0
 10 14  4  0  0  0
 13 15  4  0  0  0
 13 16  1  0  0  0
 14 17  4  0  0  0
 15 17  4  0  0  0
 16 18  1  0  0  0
 16 19  2  0  0  0
  1 22  1  0  0  0
  3 23  1  0  0  0
  4 24  1  0  0  0
  5 25  1  0  0  0
  7 26  1  0  0  0
 14 27  1  0  0  0
 17 28  1  0  0  0
 18 29  1  0  0  0
M  END
$$$$
