1ujj_ligand
  -I-interpret- 

120119  0  0  0  0  0  0  0  0999 V2000
  106.4550   11.3360    6.9070 N   0  3  0  0  0
  107.8810   10.8940    6.8430 C   0  0  0  0  0
  108.7630   11.8270    7.6840 C   0  0  0  0  0
  108.4670   13.0200    7.8380 O   0  0  0  0  0
  108.3840   10.9030    5.3930 C   0  0  0  0  0
  108.5840   12.3160    4.8540 C   0  0  0  0  0
  107.5790   13.0380    4.6640 O   0  0  0  0  0
  109.7510   12.7060    4.6350 O   0  0  0  0  0
  109.8550   11.2810    8.2100 N   0  0  0  0  0
  110.7700   12.0530    9.0350 C   0  0  0  0  0
  112.1110   11.3320    9.1490 C   0  0  0  0  0
  112.1590   10.1060    9.1460 O   0  0  0  0  0
  110.1440   12.2570   10.4190 C   0  0  0  0  0
  111.0790   12.9430   11.3920 C   0  0  0  0  0
  111.8100   13.8540   10.9730 O   0  0  0  0  0
  111.0740   12.5820   12.5860 O   0  0  0  0  0
  113.2010   12.0900    9.2460 N   0  0  0  0  0
  114.5270   11.4940    9.3620 C   0  0  0  0  0
  114.6870   10.8530   10.7480 C   0  0  0  0  0
  113.8290   10.9990   11.6150 O   0  0  0  0  0
  115.6360   12.5630    9.1160 C   0  0  0  0  0
  117.0020   11.8840    8.9630 C   0  0  0  0  0
  115.7030   13.5510   10.2700 C   0  0  0  0  0
  118.1710   12.8570    8.7880 C   0  0  0  0  0
  115.7760   10.1250   10.9510 N   0  0  0  0  0
  116.0200    9.4810   12.2290 C   0  0  0  0  0
  116.7270   10.4380   13.1820 C   0  0  0  0  0
  117.2660   11.4630   12.7550 O   0  0  0  0  0
  116.8770    8.2310   12.0290 C   0  0  0  0  0
  116.2240    7.3080   11.1760 O   0  0  0  0  0
  116.7150   10.0940   14.4700 N   0  0  0  0  0
  117.3580   10.9030   15.5070 C   0  0  0  0  0
  118.8660   10.9550   15.3090 C   0  0  0  0  0
  119.5170    9.9290   15.1710 O   0  0  0  0  0
  117.0590   10.3370   16.9020 C   0  0  0  0  0
  117.9150   10.8360   18.0740 C   0  0  0  0  0
  117.6610   12.3130   18.3200 C   0  0  0  0  0
  117.5850   10.0290   19.3400 C   0  0  0  0  0
  119.4180   12.1580   15.2940 N   0  0  0  0  0
  120.8480   12.3270   15.1320 C   0  0  0  0  0
  121.5760   11.6200   16.2680 C   0  0  0  0  0
  120.9920   11.3740   17.3190 O   0  0  0  0  0
  121.1920   13.8090   15.1530 C   0  0  0  0  0
  122.6730   14.1280   15.0410 C   0  0  0  0  0
  123.1860   13.6230   13.7100 C   0  0  0  0  0
  122.8910   15.6210   15.1750 C   0  0  0  0  0
  122.8460   11.2900   16.0460 N   0  0  0  0  0
  123.6720   10.6220   17.0510 C   0  0  0  0  0
  124.7760   11.5430   17.6180 C   0  0  0  0  0
  125.9810   11.3070   17.3490 O   0  0  0  0  0
  124.2770    9.3490   16.4510 C   0  0  0  0  0
  123.2780    8.2100   16.3320 C   0  0  0  0  0
  122.7930    7.7770   17.7190 C   0  0  0  0  0
  121.6250    6.7930   17.6470 C   0  0  0  0  0
  121.9350    5.5360   16.9000 N   0  3  0  0  0
  124.4100   12.5070   18.3390 O   0  0  0  0  0
  106.1396   11.3233    7.8769 H   0  0  0  0  0
  106.3767   12.2825    6.5351 H   0  0  0  0  0
  105.8788   10.7028    6.3526 H   0  0  0  0  0
  107.9389    9.8796    7.2378 H   0  0  0  0  0
  107.6351   10.4093    4.7738 H   0  0  0  0  0
  109.3472   10.3935    5.3676 H   0  0  0  0  0
  106.7862   12.5477    4.8934 H   0  0  0  0  0
  110.0557   10.2972    8.0306 H   0  0  0  0  0
  110.9483   13.0256    8.5764 H   0  0  0  0  0
  109.9038   11.2741   10.8243 H   0  0  0  0  0
  109.2658   12.8910   10.2974 H   0  0  0  0  0
  110.4422   11.8683   12.7007 H   0  0  0  0  0
  113.1071   13.1056    9.2391 H   0  0  0  0  0
  114.6345   10.7207    8.6014 H   0  0  0  0  0
  115.3849   13.0991    8.2008 H   0  0  0  0  0
  116.9570   11.2705    8.0632 H   0  0  0  0  0
  117.1859   11.3220    9.8787 H   0  0  0  0  0
  114.7430   14.0576   10.3691 H   0  0  0  0  0
  115.9297   13.0158   11.1921 H   0  0  0  0  0
  116.4841   14.2853   10.0731 H   0  0  0  0  0
  118.0104   13.4587    7.8934 H   0  0  0  0  0
  118.2331   13.5088    9.6595 H   0  0  0  0  0
  119.0988   12.2939    8.6870 H   0  0  0  0  0
  116.4538   10.0155   10.1967 H   0  0  0  0  0
  115.0607    9.1968   12.6614 H   0  0  0  0  0
  117.0436    7.7592   12.9974 H   0  0  0  0  0
  117.8241    8.5219   11.5745 H   0  0  0  0  0
  116.7772    6.5316   11.0632 H   0  0  0  0  0
  116.2395    9.2340   14.7435 H   0  0  0  0  0
  116.9523   11.9115   15.4269 H   0  0  0  0  0
  117.2573    9.2675   16.8311 H   0  0  0  0  0
  116.0404   10.6501   17.1312 H   0  0  0  0  0
  118.9674   10.6989   17.8255 H   0  0  0  0  0
  117.9180   12.8786   17.4244 H   0  0  0  0  0
  116.6080   12.4647   18.5574 H   0  0  0  0  0
  118.2753   12.6520   19.1541 H   0  0  0  0  0
  116.5301   10.1540   19.5843 H   0  0  0  0  0
  117.7956    8.9744   19.1623 H   0  0  0  0  0
  118.1961   10.3884   20.1680 H   0  0  0  0  0
  118.8255   12.9817   15.3985 H   0  0  0  0  0
  121.1573   11.8971   14.1793 H   0  0  0  0  0
  120.8598   14.1948   16.1168 H   0  0  0  0  0
  120.7080   14.2560   14.2846 H   0  0  0  0  0
  123.2226   13.6343   15.8424 H   0  0  0  0  0
  123.0358   12.5451   13.6495 H   0  0  0  0  0
  122.6416   14.1129   12.9027 H   0  0  0  0  0
  124.2488   13.8485   13.6225 H   0  0  0  0  0
  122.3504   16.1384   14.3824 H   0  0  0  0  0
  122.5233   15.9549   16.1452 H   0  0  0  0  0
  123.9556   15.8402   15.0934 H   0  0  0  0  0
  123.2591   11.5115   15.1401 H   0  0  0  0  0
  123.0293   10.3603   17.8916 H   0  0  0  0  0
  125.0767    9.0190   17.1141 H   0  0  0  0  0
  124.6243    9.5901   15.4463 H   0  0  0  0  0
  123.7617    7.3633   15.8450 H   0  0  0  0  0
  122.4228    8.5479   15.7467 H   0  0  0  0  0
  122.4528    8.6660   18.2501 H   0  0  0  0  0
  123.6208    7.2814   18.2262 H   0  0  0  0  0
  120.8135    7.2922   17.1175 H   0  0  0  0  0
  121.3778    6.5089   18.6699 H   0  0  0  0  0
  121.1122    4.9332   16.8949 H   0  0  0  0  0
  122.1946    5.7670   15.9410 H   0  0  0  0  0
  122.7090    5.0530   17.3561 H   0  0  0  0  0
  123.4530   12.5028   18.4153 H   0  0  0  0  0
  1  2  1  0  0  0
  2  3  1  0  0  0
  2  5  1  0  0  0
  3  4  2  0  0  0
  3  9  1  0  0  0
  5  6  1  0  0  0
  6  7  1  0  0  0
  6  8  2  0  0  0
  9 10  1  0  0  0
 10 11  1  0  0  0
 10 13  1  0  0  0
 11 12  2  0  0  0
 11 17  1  0  0  0
 13 14  1  0  0  0
 14 15  2  0  0  0
 14 16  1  0  0  0
 17 18  1  0  0  0
 18 19  1  0  0  0
 18 21  1  0  0  0
 19 20  2  0  0  0
 19 25  1  0  0  0
 21 22  1  0  0  0
 21 23  1  0  0  0
 22 24  1  0  0  0
 25 26  1  0  0  0
 26 27  1  0  0  0
 26 29  1  0  0  0
 27 28  2  0  0  0
 27 31  1  0  0  0
 29 30  1  0  0  0
 31 32  1  0  0  0
 32 33  1  0  0  0
 32 35  1  0  0  0
 33 34  2  0  0  0
 33 39  1  0  0  0
 35 36  1  0  0  0
 36 37  1  0  0  0
 36 38  1  0  0  0
 39 40  1  0  0  0
 40 41  1  0  0  0
 40 43  1  0  0  0
 41 42  2  0  0  0
 41 47  1  0  0  0
 43 44  1  0  0  0
 44 45  1  0  0  0
 44 46  1  0  0  0
 47 48  1  0  0  0
 48 49  1  0  0  0
 48 51  1  0  0  0
 49 50  2  0  0  0
 49 56  1  0  0  0
 51 52  1  0  0  0
 52 53  1  0  0  0
 53 54  1  0  0  0
 54 55  1  0  0  0
  1 57  1  0  0  0
  1 58  1  0  0  0
  1 59  1  0  0  0
  2 60  1  0  0  0
  5 61  1  0  0  0
  5 62  1  0  0  0
  7 63  1  0  0  0
  9 64  1  0  0  0
 10 65  1  0  0  0
 13 66  1  0  0  0
 13 67  1  0  0  0
 16 68  1  0  0  0
 17 69  1  0  0  0
 18 70  1  0  0  0
 21 71  1  0  0  0
 22 72  1  0  0  0
 22 73  1  0  0  0
 23 74  1  0  0  0
 23 75  1  0  0  0
 23 76  1  0  0  0
 24 77  1  0  0  0
 24 78  1  0  0  0
 24 79  1  0  0  0
 25 80  1  0  0  0
 26 81  1  0  0  0
 29 82  1  0  0  0
 29 83  1  0  0  0
 30 84  1  0  0  0
 31 85  1  0  0  0
 32 86  1  0  0  0
 35 87  1  0  0  0
 35 88  1  0  0  0
 36 89  1  0  0  0
 37 90  1  0  0  0
 37 91  1  0  0  0
 37 92  1  0  0  0
 38 93  1  0  0  0
 38 94  1  0  0  0
 38 95  1  0  0  0
 39 96  1  0  0  0
 40 97  1  0  0  0
 43 98  1  0  0  0
 43 99  1  0  0  0
 44100  1  0  0  0
 45101  1  0  0  0
 45102  1  0  0  0
 45103  1  0  0  0
 46104  1  0  0  0
 46105  1  0  0  0
 46106  1  0  0  0
 47107  1  0  0  0
 48108  1  0  0  0
 51109  1  0  0  0
 51110  1  0  0  0
 52111  1  0  0  0
 52112  1  0  0  0
 53113  1  0  0  0
 53114  1  0  0  0
 54115  1  0  0  0
 54116  1  0  0  0
 55117  1  0  0  0
 55118  1  0  0  0
 55119  1  0  0  0
 56120  1  0  0  0
M  END
$$$$
