### 
### Created by X-TOOL on Mon Sep 10 21:12:52 2018
### 

@<TRIPOS>MOLECULE
1ujj_ligand
  117   116     1     0     0
SMALL
GAST_HUCK


@<TRIPOS>ATOM
      1 N         106.4550   11.3360    6.9070 N.4       1 ASP         0.2391
      2 CA        107.8810   10.8940    6.8430 C.3       1 ASP         0.0764
      3 C         108.7630   11.8270    7.6840 C.2       1 ASP         0.2285
      4 O         108.4670   13.0200    7.8380 O.2       1 ASP        -0.3906
      5 CB        108.3840   10.9030    5.3930 C.3       1 ASP         0.0607
      6 CG        108.5840   12.3160    4.8540 C.2       1 ASP         0.0425
      7 OD1       107.5790   13.0380    4.6640 O.co2     1 ASP        -0.5686
      8 OD2       109.7510   12.7060    4.6350 O.co2     1 ASP        -0.5686
      9 N         109.8550   11.2810    8.2100 N.am      1 ASP        -0.2594
     10 CA        110.7700   12.0530    9.0350 C.3       1 ASP         0.1424
     11 C         112.1110   11.3320    9.1490 C.2       1 ASP         0.2056
     12 O         112.1590   10.1060    9.1460 O.2       1 ASP        -0.3943
     13 CB        110.1440   12.2570   10.4190 C.3       1 ASP         0.0406
     14 CG        111.0790   12.9430   11.3920 C.2       1 ASP         0.0393
     15 OD1       111.8100   13.8540   10.9730 O.co2     1 ASP        -0.5688
     16 OD2       111.0740   12.5820   12.5860 O.co2     1 ASP        -0.5688
     17 N         113.2010   12.0900    9.2460 N.am      1 ILE        -0.2634
     18 CA        114.5270   11.4940    9.3620 C.3       1 ILE         0.1335
     19 C         114.6870   10.8530   10.7480 C.2       1 ILE         0.2042
     20 O         113.8290   10.9990   11.6150 O.2       1 ILE        -0.3944
     21 CB        115.6360   12.5630    9.1160 C.3       1 ILE        -0.0037
     22 CG1       117.0020   11.8840    8.9630 C.3       1 ILE        -0.0491
     23 CG2       115.7030   13.5510   10.2700 C.3       1 ILE        -0.0582
     24 CD1       118.1710   12.8570    8.7880 C.3       1 ILE        -0.0648
     25 N         115.7760   10.1250   10.9510 N.am      1 SER        -0.2616
     26 CA        116.0200    9.4810   12.2290 C.3       1 SER         0.1539
     27 C         116.7270   10.4380   13.1820 C.2       1 SER         0.2062
     28 O         117.2660   11.4630   12.7550 O.2       1 SER        -0.3943
     29 CB        116.8770    8.2310   12.0290 C.3       1 SER         0.0843
     30 OG        116.2240    7.3080   11.1760 O.3       1 SER        -0.3903
     31 N         116.7150   10.0940   14.4700 N.am      1 LEU        -0.2636
     32 CA        117.3580   10.9030   15.5070 C.3       1 LEU         0.1312
     33 C         118.8660   10.9550   15.3090 C.2       1 LEU         0.2039
     34 O         119.5170    9.9290   15.1710 O.2       1 LEU        -0.3944
     35 CB        117.0590   10.3370   16.9020 C.3       1 LEU        -0.0101
     36 CG        117.9150   10.8360   18.0740 C.3       1 LEU        -0.0425
     37 CD1       117.6610   12.3130   18.3200 C.3       1 LEU        -0.0625
     38 CD2       117.5850   10.0290   19.3400 C.3       1 LEU        -0.0625
     39 N         119.4180   12.1580   15.2940 N.am      1 LEU        -0.2637
     40 CA        120.8480   12.3270   15.1320 C.3       1 LEU         0.1312
     41 C         121.5760   11.6200   16.2680 C.2       1 LEU         0.2033
     42 O         120.9920   11.3740   17.3190 O.2       1 LEU        -0.3944
     43 CB        121.1920   13.8090   15.1530 C.3       1 LEU        -0.0101
     44 CG        122.6730   14.1280   15.0410 C.3       1 LEU        -0.0425
     45 CD1       123.1860   13.6230   13.7100 C.3       1 LEU        -0.0625
     46 CD2       122.8910   15.6210   15.1750 C.3       1 LEU        -0.0625
     47 N         122.8460   11.2900   16.0460 N.am      1 LYS        -0.2695
     48 CA        123.6720   10.6220   17.0510 C.3       1 LYS         0.0944
     49 C         124.7760   11.5430   17.6180 C.2       1 LYS         0.0601
     50 O         125.9810   11.3070   17.3490 O.co2     1 LYS        -0.5666
     51 CB        124.2770    9.3490   16.4510 C.3       1 LYS        -0.0177
     52 CG        123.2780    8.2100   16.3320 C.3       1 LYS        -0.0446
     53 CD        122.7930    7.7770   17.7190 C.3       1 LYS        -0.0125
     54 CE        121.6250    6.7930   17.6470 C.3       1 LYS        -0.0354
     55 NZ        121.9350    5.5360   16.9000 N.4       1 LYS         0.2185
     56 OXT       124.4100   12.5070   18.3390 O.co2     1 LYS        -0.5666
     57 H1        105.8860   10.7165    6.3516 H         1 ASP         0.2016
     58 H2        106.3778   12.2749    6.5485 H         1 ASP         0.2016
     59 H3        106.1392   11.3147    7.8640 H         1 ASP         0.2016
     60 H4        107.9541    9.8716    7.2422 H         1 ASP         0.1117
     61 H5        107.6478   10.3850    4.7608 H         1 ASP         0.0512
     62 H6        109.3449   10.3693    5.3494 H         1 ASP         0.0512
     63 H7        110.0518   10.3165    8.0341 H         1 ASP         0.1886
     64 H8        110.9347   13.0353    8.5682 H         1 ASP         0.0819
     65 H9        109.8703   11.2737   10.8290 H         1 ASP         0.0478
     66 H10       109.2393   12.8728   10.3079 H         1 ASP         0.0478
     67 H11       113.1090   13.0857    9.2392 H         1 ILE         0.1883
     68 H12       114.6267   10.7084    8.5985 H         1 ILE         0.0803
     69 H13       115.4001   13.1095    8.1910 H         1 ILE         0.0345
     70 H14       116.9642   11.2281    8.0807 H         1 ILE         0.0267
     71 H15       117.1889   11.2786    9.8622 H         1 ILE         0.0267
     72 H16       114.7267   14.0438   10.3879 H         1 ILE         0.0235
     73 H17       116.4729   14.3081   10.0603 H         1 ILE         0.0235
     74 H18       115.9578   13.0158   11.1966 H         1 ILE         0.0235
     75 H19       119.1080   12.2898    8.6859 H         1 ILE         0.0230
     76 H20       118.2348   13.5154    9.6669 H         1 ILE         0.0230
     77 H21       118.0102   13.4648    7.8854 H         1 ILE         0.0230
     78 H22       116.4405   10.0176   10.2115 H         1 SER         0.1884
     79 H23       115.0554    9.1876   12.6688 H         1 SER         0.0823
     80 H24       117.0565    7.7562   13.0049 H         1 SER         0.0606
     81 H25       117.8384    8.5203   11.5795 H         1 SER         0.0606
     82 H26       116.7714    6.5397   11.0644 H         1 SER         0.2097
     83 H27       116.2488    9.2509   14.7381 H         1 LEU         0.1883
     84 H28       116.9583   11.9260   15.4460 H         1 LEU         0.0800
     85 H29       117.1824    9.2454   16.8468 H         1 LEU         0.0315
     86 H30       116.0111   10.5762   17.1357 H         1 LEU         0.0315
     87 H31       118.9772   10.6939   17.8258 H         1 LEU         0.0298
     88 H32       118.2805   12.6563   19.1617 H         1 LEU         0.0232
     89 H33       116.5986   12.4674   18.5598 H         1 LEU         0.0232
     90 H34       117.9200   12.8850   17.4169 H         1 LEU         0.0232
     91 H35       117.7716    8.9612   19.1531 H         1 LEU         0.0232
     92 H36       116.5270   10.1757   19.6030 H         1 LEU         0.0232
     93 H37       118.2202   10.3725   20.1698 H         1 LEU         0.0232
     94 H38       118.8371   12.9655   15.3964 H         1 LEU         0.1883
     95 H39       121.1607   11.8928   14.1709 H         1 LEU         0.0800
     96 H40       120.8231   14.2312   16.0994 H         1 LEU         0.0315
     97 H41       120.6749   14.2909   14.3102 H         1 LEU         0.0315
     98 H42       123.2150   13.6169   15.8503 H         1 LEU         0.0298
     99 H43       124.2586   13.8500   13.6204 H         1 LEU         0.0232
    100 H44       122.6374   14.1167   12.8944 H         1 LEU         0.0232
    101 H45       123.0350   12.5352   13.6476 H         1 LEU         0.0232
    102 H46       122.5100   15.9612   16.1492 H         1 LEU         0.0232
    103 H47       122.3551   16.1436   14.3690 H         1 LEU         0.0232
    104 H48       123.9661   15.8424   15.1042 H         1 LEU         0.0232
    105 H49       123.2510   11.5072   15.1578 H         1 LYS         0.1875
    106 H50       123.0187   10.3315   17.8870 H         1 LYS         0.0726
    107 H51       125.1072    9.0201   17.0933 H         1 LYS         0.0305
    108 H52       124.6607    9.5837   15.4472 H         1 LYS         0.0305
    109 H53       123.7600    7.3559   15.8338 H         1 LYS         0.0269
    110 H54       122.4167    8.5444   15.7351 H         1 LYS         0.0269
    111 H55       122.4693    8.6695   18.2746 H         1 LYS         0.0317
    112 H56       123.6274    7.2965   18.2509 H         1 LYS         0.0317
    113 H57       120.7817    7.2929   17.1481 H         1 LYS         0.0813
    114 H58       121.3361    6.5231   18.6735 H         1 LYS         0.0813
    115 H59       121.1225    4.9395   16.8943 H         1 LYS         0.1994
    116 H60       122.6998    5.0577   17.3499 H         1 LYS         0.1994
    117 H61       122.1917    5.7631   15.9521 H         1 LYS         0.1994
@<TRIPOS>BOND
     1    1    2 1  
     2    2    3 1  
     3    2    5 1  
     4    3    4 2  
     5    3    9 am 
     6    5    6 1  
     7    6    7 ar 
     8    6    8 ar 
     9    9   10 1  
    10   10   11 1  
    11   10   13 1  
    12   11   12 2  
    13   11   17 am 
    14   13   14 1  
    15   14   15 ar 
    16   14   16 ar 
    17   17   18 1  
    18   18   19 1  
    19   18   21 1  
    20   19   20 2  
    21   19   25 am 
    22   21   22 1  
    23   21   23 1  
    24   22   24 1  
    25   25   26 1  
    26   26   27 1  
    27   26   29 1  
    28   27   28 2  
    29   27   31 am 
    30   29   30 1  
    31   31   32 1  
    32   32   33 1  
    33   32   35 1  
    34   33   34 2  
    35   33   39 am 
    36   35   36 1  
    37   36   37 1  
    38   36   38 1  
    39   39   40 1  
    40   40   41 1  
    41   40   43 1  
    42   41   42 2  
    43   41   47 am 
    44   43   44 1  
    45   44   45 1  
    46   44   46 1  
    47   47   48 1  
    48   48   49 1  
    49   48   51 1  
    50   49   50 ar 
    51   49   56 ar 
    52   51   52 1  
    53   52   53 1  
    54   53   54 1  
    55   54   55 1  
    56    1   57 1  
    57    1   58 1  
    58    1   59 1  
    59    2   60 1  
    60    5   61 1  
    61    5   62 1  
    62    9   63 1  
    63   10   64 1  
    64   13   65 1  
    65   13   66 1  
    66   17   67 1  
    67   18   68 1  
    68   21   69 1  
    69   22   70 1  
    70   22   71 1  
    71   23   72 1  
    72   23   73 1  
    73   23   74 1  
    74   24   75 1  
    75   24   76 1  
    76   24   77 1  
    77   25   78 1  
    78   26   79 1  
    79   29   80 1  
    80   29   81 1  
    81   30   82 1  
    82   31   83 1  
    83   32   84 1  
    84   35   85 1  
    85   35   86 1  
    86   36   87 1  
    87   37   88 1  
    88   37   89 1  
    89   37   90 1  
    90   38   91 1  
    91   38   92 1  
    92   38   93 1  
    93   39   94 1  
    94   40   95 1  
    95   43   96 1  
    96   43   97 1  
    97   44   98 1  
    98   45   99 1  
    99   45  100 1  
   100   45  101 1  
   101   46  102 1  
   102   46  103 1  
   103   46  104 1  
   104   47  105 1  
   105   48  106 1  
   106   51  107 1  
   107   51  108 1  
   108   52  109 1  
   109   52  110 1  
   110   53  111 1  
   111   53  112 1  
   112   54  113 1  
   113   54  114 1  
   114   55  115 1  
   115   55  116 1  
   116   55  117 1  
@<TRIPOS>SUBSTRUCTURE
     1 ASP         1

