5ccm_ligand
  -I-interpret- 

 74 79  0  0  0  0  0  0  0  0999 V2000
   15.7800    3.2030   18.1470 Cl  0  0  0  0  0
   15.6240    4.6890   17.2660 C   0  0  0  0  0
   14.6270    5.5460   17.7370 C   0  0  0  0  0
   14.4320    6.7420   17.0900 C   0  0  0  0  0
   15.1860    7.1240   15.9940 C   0  0  0  0  0
   14.7250    8.4620   15.5260 C   0  0  0  0  0
   13.6010    8.7700   16.5080 C   0  0  0  0  0
   12.9080    9.7610   16.5150 O   0  0  0  0  0
   13.5080    7.7130   17.3910 N   0  0  0  0  0
   16.1840    6.2970   15.5120 C   0  0  0  0  0
   16.4210    5.0660   16.1560 C   0  0  0  0  0
   17.4670    4.2100   15.5480 C   0  0  0  0  0
   17.5600    4.1890   14.3300 O   0  0  0  0  0
   18.2940    3.3800   16.2350 N   0  0  0  0  0
   19.3120    2.4930   15.6620 C   0  0  0  0  0
   18.6560    1.2800   14.9400 C   0  0  0  0  0
   18.5250    0.0020   15.7880 C   0  0  0  0  0
   17.6050    0.1610   16.9880 C   0  0  0  0  0
   18.4940    0.8060   18.0470 C   0  0  0  0  0
   19.9190    0.8130   17.4800 C   0  0  0  0  0
   20.3440    2.0850   16.7310 C   0  0  0  0  0
   19.8420   -0.1900   16.4200 N   0  0  0  0  0
   20.4330   -1.7170   16.7030 S   0  0  0  0  0
   21.7680   -1.5240   17.2400 O   0  0  0  0  0
   19.3330   -2.3530   17.4140 O   0  0  0  0  0
   20.5960   -2.3040   15.1480 N   0  0  0  0  0
   21.5060   -1.5710   14.2440 C   0  0  0  0  0
   22.9260   -2.0970   14.4190 C   0  0  0  0  0
   22.9400   -3.6180   14.2440 C   0  0  0  0  0
   21.8790   -4.3730   15.0700 C   0  0  0  0  0
   20.4960   -3.7590   14.9370 C   0  0  0  0  0
   24.2790   -4.1440   14.4130 N   0  3  0  0  0
   25.0040   -4.0890   15.6750 C   0  0  0  0  0
   26.4390   -4.4220   15.3770 C   0  0  0  0  0
   26.8910   -5.7500   15.4790 C   0  0  0  0  0
   28.2230   -6.0500   15.1840 C   0  0  0  0  0
   29.1000   -5.0400   14.7800 C   0  0  0  0  0
   28.6560   -3.7190   14.6700 C   0  0  0  0  0
   27.3260   -3.4110   14.9640 C   0  0  0  0  0
   14.0176    5.2722   18.5982 H   0  0  0  0  0
   14.4028    8.4681   14.4847 H   0  0  0  0  0
   15.5140    9.2140   15.5227 H   0  0  0  0  0
   12.8431    7.6601   18.1627 H   0  0  0  0  0
   16.7782    6.5926   14.6473 H   0  0  0  0  0
   18.1975    3.3728   17.2504 H   0  0  0  0  0
   19.8632    3.0363   14.8945 H   0  0  0  0  0
   19.3021    1.0311   14.0982 H   0  0  0  0  0
   17.6433    1.5844   14.6758 H   0  0  0  0  0
   18.1579   -0.7879   15.1328 H   0  0  0  0  0
   17.1884   -0.7900   17.3198 H   0  0  0  0  0
   16.7269    0.7652   16.7599 H   0  0  0  0  0
   18.4507    0.2488   18.9828 H   0  0  0  0  0
   18.1597    1.8190   18.2707 H   0  0  0  0  0
   20.6129    0.6780   18.3097 H   0  0  0  0  0
   20.4265    2.8964   17.4541 H   0  0  0  0  0
   21.2931    1.8876   16.2326 H   0  0  0  0  0
   21.4794   -0.5082   14.4844 H   0  0  0  0  0
   21.1886   -1.7169   13.2115 H   0  0  0  0  0
   23.2833   -1.8455   15.4176 H   0  0  0  0  0
   23.5741   -1.6418   13.6701 H   0  0  0  0  0
   22.6349   -3.8069   13.2147 H   0  0  0  0  0
   22.1704   -4.3231   16.1191 H   0  0  0  0  0
   21.8300   -5.3972   14.7001 H   0  0  0  0  0
   20.0982   -3.9601   13.9423 H   0  0  0  0  0
   19.8274   -4.1935   15.6802 H   0  0  0  0  0
   24.8387   -3.5519   13.7993 H   0  0  0  0  0
   24.1545   -5.1450   14.2618 H   0  0  0  0  0
   24.5856   -4.7977   16.3896 H   0  0  0  0  0
   24.9243   -3.0976   16.1209 H   0  0  0  0  0
   26.2061   -6.5402   15.7864 H   0  0  0  0  0
   28.5798   -7.0764   15.2693 H   0  0  0  0  0
   30.1370   -5.2837   14.5491 H   0  0  0  0  0
   29.3440   -2.9338   14.3565 H   0  0  0  0  0
   26.9738   -2.3835   14.8732 H   0  0  0  0  0
  1  2  1  0  0  0
  2  3  4  0  0  0
  2 11  4  0  0  0
  3  4  4  0  0  0
  4  5  4  0  0  0
  4  9  1  0  0  0
  5  6  1  0  0  0
  5 10  4  0  0  0
  6  7  1  0  0  0
  7  8  2  0  0  0
  7  9  1  0  0  0
 10 11  4  0  0  0
 11 12  1  0  0  0
 12 13  2  0  0  0
 12 14  1  0  0  0
 14 15  1  0  0  0
 15 16  1  0  0  0
 15 21  1  0  0  0
 16 17  1  0  0  0
 17 18  1  0  0  0
 17 22  1  0  0  0
 18 19  1  0  0  0
 19 20  1  0  0  0
 20 21  1  0  0  0
 20 22  1  0  0  0
 22 23  1  0  0  0
 23 24  2  0  0  0
 23 25  2  0  0  0
 23 26  1  0  0  0
 26 27  1  0  0  0
 26 31  1  0  0  0
 27 28  1  0  0  0
 28 29  1  0  0  0
 29 30  1  0  0  0
 29 32  1  0  0  0
 30 31  1  0  0  0
 32 33  1  0  0  0
 33 34  1  0  0  0
 34 35  4  0  0  0
 34 39  4  0  0  0
 35 36  4  0  0  0
 36 37  4  0  0  0
 37 38  4  0  0  0
 38 39  4  0  0  0
  3 40  1  0  0  0
  6 41  1  0  0  0
  6 42  1  0  0  0
  9 43  1  0  0  0
 10 44  1  0  0  0
 14 45  1  0  0  0
 15 46  1  0  0  0
 16 47  1  0  0  0
 16 48  1  0  0  0
 17 49  1  0  0  0
 18 50  1  0  0  0
 18 51  1  0  0  0
 19 52  1  0  0  0
 19 53  1  0  0  0
 20 54  1  0  0  0
 21 55  1  0  0  0
 21 56  1  0  0  0
 27 57  1  0  0  0
 27 58  1  0  0  0
 28 59  1  0  0  0
 28 60  1  0  0  0
 29 61  1  0  0  0
 30 62  1  0  0  0
 30 63  1  0  0  0
 31 64  1  0  0  0
 31 65  1  0  0  0
 32 66  1  0  0  0
 32 67  1  0  0  0
 33 68  1  0  0  0
 33 69  1  0  0  0
 35 70  1  0  0  0
 36 71  1  0  0  0
 37 72  1  0  0  0
 38 73  1  0  0  0
 39 74  1  0  0  0
M  END
$$$$
