3ua8_ligand
  -I-interpret- 

 43 45  0  0  0  0  0  0  0  0999 V2000
   42.8510   31.9680   13.9670 O   0  0  0  0  0
   42.4040   32.9360   13.3520 C   0  0  0  0  0
   41.0920   33.0300   13.0160 N   0  0  0  0  0
   40.1240   32.0010   13.4080 C   0  0  0  0  0
   43.3480   34.0060   12.9370 C   0  0  0  0  0
   44.5060   34.4820   13.6450 N   0  0  0  0  0
   45.0910   35.3980   12.9890 C   0  0  0  0  0
   43.3980   34.7820   11.8190 C   0  0  0  0  0
   44.4240   35.6180   11.8870 N   0  0  0  0  0
   44.7440   36.4420   10.8530 C   0  0  0  0  0
   45.7690   35.9440   10.0430 C   0  0  0  0  0
   46.2120   36.6690    8.9320 C   0  0  0  0  0
   47.3090   36.1880    8.0330 C   0  0  0  0  0
   47.8430   35.1180    8.2820 O   0  0  0  0  0
   47.6720   36.9510    6.9750 N   0  0  0  0  0
   48.7500   36.4480    6.1540 N   0  0  0  0  0
   50.2720   37.0130    6.5610 S   0  0  0  0  0
   50.2880   38.3970    7.0000 O   0  0  0  0  0
   50.7460   36.1130    8.0640 C   0  0  0  0  0
   51.2560   36.7010    5.5420 O   0  0  0  0  0
   47.0820   38.1490    6.6810 C   0  0  0  0  0
   47.4320   38.8080    5.7140 O   0  0  0  0  0
   46.0920   38.6150    7.4680 N   0  0  0  0  0
   45.6330   37.8920    8.6060 C   0  0  0  0  0
   44.6060   38.3950    9.4060 C   0  0  0  0  0
   44.1410   37.6740   10.5280 C   0  0  0  0  0
   43.0380   38.2480   11.4200 C   0  0  0  0  0
   42.0440   37.3620   11.5720 F   0  0  0  0  0
   43.5390   38.5540   12.6630 F   0  0  0  0  0
   42.5230   39.3810   10.8740 F   0  0  0  0  0
   40.7722   33.8355   12.4782 H   0  0  0  0  0
   40.4217   31.0428   12.9820 H   0  0  0  0  0
   40.0974   31.9243   14.4950 H   0  0  0  0  0
   39.1358   32.2735   13.0374 H   0  0  0  0  0
   46.0001   35.9158   13.2947 H   0  0  0  0  0
   42.6952   34.7239   10.9878 H   0  0  0  0  0
   46.2264   34.9832   10.2792 H   0  0  0  0  0
   48.5948   35.7973    5.3840 H   0  0  0  0  0
   51.7338   36.4421    8.3867 H   0  0  0  0  0
   50.0194   36.3146    8.8511 H   0  0  0  0  0
   50.7686   35.0437    7.8538 H   0  0  0  0  0
   45.6593   39.5107    7.2422 H   0  0  0  0  0
   44.1566   39.3575    9.1616 H   0  0  0  0  0
  1  2  2  0  0  0
  2  3  1  0  0  0
  2  5  1  0  0  0
  3  4  1  0  0  0
  5  6  4  0  0  0
  5  8  4  0  0  0
  6  7  4  0  0  0
  7  9  4  0  0  0
  8  9  4  0  0  0
  9 10  1  0  0  0
 10 11  4  0  0  0
 10 26  4  0  0  0
 11 12  4  0  0  0
 12 13  1  0  0  0
 12 24  4  0  0  0
 13 14  2  0  0  0
 13 15  1  0  0  0
 15 16  1  0  0  0
 15 21  1  0  0  0
 16 17  1  0  0  0
 17 18  2  0  0  0
 17 19  1  0  0  0
 17 20  2  0  0  0
 21 22  2  0  0  0
 21 23  1  0  0  0
 23 24  1  0  0  0
 24 25  4  0  0  0
 25 26  4  0  0  0
 26 27  1  0  0  0
 27 28  1  0  0  0
 27 29  1  0  0  0
 27 30  1  0  0  0
  3 31  1  0  0  0
  4 32  1  0  0  0
  4 33  1  0  0  0
  4 34  1  0  0  0
  7 35  1  0  0  0
  8 36  1  0  0  0
 11 37  1  0  0  0
 16 38  1  0  0  0
 19 39  1  0  0  0
 19 40  1  0  0  0
 19 41  1  0  0  0
 23 42  1  0  0  0
 25 43  1  0  0  0
M  END
$$$$
