### 
### Created by X-TOOL on Sun Sep  9 21:50:40 2018
### 

@<TRIPOS>MOLECULE
2o1c_ligand
    9     8     1     0     0
SMALL
GAST_HUCK


@<TRIPOS>ATOM
      1 O11       -26.7590    0.5120   66.1110 O.co2     1 NON        -0.5497
      2 P1        -25.7270    1.4740   65.5780 P.3       1 NON         0.2382
      3 O21       -26.1750    2.3140   64.4050 O.co2     1 NON        -0.5497
      4 O31       -25.1180    2.2490   66.7220 O.co2     1 NON        -0.5497
      5 OPP       -24.5390    0.5010   65.0100 O.3       1 NON        -0.1780
      6 P2        -23.8240    0.4250   63.5430 P.3       1 NON         0.2382
      7 O12       -23.9170    1.7840   62.8980 O.co2     1 NON        -0.5497
      8 O22       -24.5070   -0.6550   62.7600 O.co2     1 NON        -0.5497
      9 O32       -22.4180    0.0180   63.8940 O.co2     1 NON        -0.5497
@<TRIPOS>BOND
     1    1    2 ar 
     2    2    3 ar 
     3    2    4 ar 
     4    2    5 1  
     5    5    6 1  
     6    6    7 ar 
     7    6    8 ar 
     8    6    9 ar 
@<TRIPOS>SUBSTRUCTURE
     1 NON         1

