2o1c_ligand
  -I-interpret- 

 13 12  0  0  0  0  0  0  0  0999 V2000
  -26.7590    0.5120   66.1110 O   0  0  0  0  0
  -25.7270    1.4740   65.5780 P   0  0  0  0  0
  -26.1750    2.3140   64.4050 O   0  0  0  0  0
  -25.1180    2.2490   66.7220 O   0  0  0  0  0
  -24.5390    0.5010   65.0100 O   0  0  0  0  0
  -23.8240    0.4250   63.5430 P   0  0  0  0  0
  -23.9170    1.7840   62.8980 O   0  0  0  0  0
  -24.5070   -0.6550   62.7600 O   0  0  0  0  0
  -22.4180    0.0180   63.8940 O   0  0  0  0  0
  -25.4582    2.8926   64.1349 H   0  0  0  0  0
  -24.4617    2.8602   66.3795 H   0  0  0  0  0
  -23.4626    2.4285   63.4454 H   0  0  0  0  0
  -21.9979    0.7214   64.3944 H   0  0  0  0  0
  1  2  2  0  0  0
  2  3  1  0  0  0
  2  4  1  0  0  0
  2  5  1  0  0  0
  5  6  1  0  0  0
  6  7  1  0  0  0
  6  8  2  0  0  0
  6  9  1  0  0  0
  3 10  1  0  0  0
  4 11  1  0  0  0
  7 12  1  0  0  0
  9 13  1  0  0  0
M  END
$$$$
