### 
### Created by X-TOOL on Mon Sep 10 21:13:06 2018
### 

@<TRIPOS>MOLECULE
3nlb_ligand
   56    59     1     0     0
SMALL
GAST_HUCK


@<TRIPOS>ATOM
      1 C1          3.7300   -6.9510   14.0550 C.3       1 5BE        -0.1113
      2 C2          2.3510   -3.1240   19.4510 C.2       1 5BE         0.1445
      3 C3          3.6700   -2.6620   19.3270 C.2       1 5BE         0.1004
      4 C4          4.7070   -3.2970   18.6920 C.2       1 5BE         0.0794
      5 C5          5.7780   -2.4300   18.8880 C.2       1 5BE         0.0929
      6 N6          5.3830   -1.3940   19.6310 N.pl3     1 5BE        -0.2042
      7 N7          4.1690   -1.5340   19.9110 N.2       1 5BE        -0.2016
      8 C8          7.2130   -2.6060   18.3780 C.3       1 5BE         0.0051
      9 C9          4.8070   -4.5650   17.8180 C.2       1 5BE         0.1786
     10 O10         5.9050   -4.8480   17.3210 O.2       1 5BE        -0.4049
     11 N11         3.7120   -5.2260   17.5000 N.am      1 5BE        -0.2895
     12 C12         3.7480   -6.3780   16.5560 C.3       1 5BE         0.0369
     13 C13         3.7260   -5.8370   15.1000 C.3       1 5BE        -0.0488
     14 N14         2.5360   -7.8150   14.2900 N.4       1 5BE         0.4008
     15 C15         2.5760   -8.4380   15.6310 C.3       1 5BE        -0.1113
     16 C16         2.5490   -7.3310   16.7550 C.3       1 5BE        -0.0488
     17 N17         1.4800   -2.4600   20.2030 N.2       1 5BE        -0.3078
     18 N18         1.7740   -4.2170   18.9230 N.pl3     1 5BE        -0.2521
     19 C19         0.5230   -4.2500   19.3800 C.ar      1 5BE         0.0762
     20 C20         0.3520   -3.1370   20.1900 C.ar      1 5BE         0.0253
     21 C21        -0.8520   -2.9200   20.8660 C.ar      1 5BE        -0.0605
     22 C22        -1.9120   -3.7910   20.7030 C.ar      1 5BE        -0.0547
     23 C23        -1.7650   -4.8990   19.8610 C.ar      1 5BE        -0.0711
     24 C24        -0.5510   -5.1380   19.1910 C.ar      1 5BE        -0.0441
     25 C25        -3.2200   -3.4410   21.4630 C.3       1 5BE        -0.0186
     26 C26        -3.3260   -4.3640   22.7090 C.3       1 5BE        -0.0542
     27 C27        -4.4910   -3.4540   20.5970 C.3       1 5BE        -0.0542
     28 C28         2.4230   -8.9080   13.2610 C.3       1 5BE        -0.1256
     29 H           4.6423   -7.5413   14.1401 H         1 5BE         0.0018
     30 H           3.6926   -6.5246   13.0526 H         1 5BE         0.0018
     31 H           5.9729   -0.6150   19.9235 H         1 5BE         0.2617
     32 H           7.6323   -3.5254   18.7866 H         1 5BE         0.0463
     33 H           7.2062   -2.6607   17.2894 H         1 5BE         0.0463
     34 H           7.8172   -1.7566   18.6967 H         1 5BE         0.0463
     35 H           2.8214   -4.9429   17.9087 H         1 5BE         0.1834
     36 H           4.6597   -6.9426   16.7516 H         1 5BE         0.0552
     37 H           2.8092   -5.2617   14.9713 H         1 5BE         0.0267
     38 H           4.6245   -5.2378   14.9528 H         1 5BE         0.0267
     39 H           3.4949   -9.0167   15.7256 H         1 5BE         0.0018
     40 H           1.7053   -9.0832   15.7481 H         1 5BE         0.0018
     41 H           1.6184   -6.7671   16.6915 H         1 5BE         0.0267
     42 H           2.6148   -7.8027   17.7354 H         1 5BE         0.0267
     43 H           2.2098   -4.8912   18.2938 H         1 5BE         0.2292
     44 H          -0.9553   -2.0585   21.5257 H         1 5BE         0.0478
     45 H          -2.6007   -5.5849   19.7226 H         1 5BE         0.0500
     46 H          -0.4443   -6.0008   18.5335 H         1 5BE         0.0536
     47 H          -3.1543   -2.3997   21.7786 H         1 5BE         0.0437
     48 H          -3.3483   -5.4052   22.3874 H         1 5BE         0.0252
     49 H          -2.4636   -4.2004   23.3552 H         1 5BE         0.0252
     50 H          -4.2402   -4.1314   23.2551 H         1 5BE         0.0252
     51 H          -4.3888   -2.7251   19.7931 H         1 5BE         0.0252
     52 H          -4.6296   -4.4482   20.1723 H         1 5BE         0.0252
     53 H          -5.3522   -3.1979   21.2141 H         1 5BE         0.0252
     54 H           3.2855   -9.5699   13.3396 H         1 5BE        -0.0019
     55 H           1.5098   -9.4768   13.4358 H         1 5BE        -0.0019
     56 H           2.3922   -8.4659   12.2651 H         1 5BE        -0.0019
@<TRIPOS>BOND
     1   13    1 1  
     2    1   14 1  
     3    3    2 1  
     4    2   17 2  
     5    2   18 1  
     6    4    3 1  
     7    3    7 2  
     8    4    5 2  
     9    9    4 1  
    10    5    6 1  
    11    5    8 1  
    12    6    7 1  
    13    9   10 2  
    14   11    9 am 
    15   12   11 1  
    16   12   13 1  
    17   12   16 1  
    18   14   15 1  
    19   14   28 1  
    20   15   16 1  
    21   17   20 1  
    22   18   19 1  
    23   19   20 ar 
    24   19   24 ar 
    25   20   21 ar 
    26   21   22 ar 
    27   22   23 ar 
    28   22   25 1  
    29   23   24 ar 
    30   25   26 1  
    31   25   27 1  
    32    1   29 1  
    33    1   30 1  
    34    6   31 1  
    35    8   32 1  
    36    8   33 1  
    37    8   34 1  
    38   11   35 1  
    39   12   36 1  
    40   13   37 1  
    41   13   38 1  
    42   15   39 1  
    43   15   40 1  
    44   16   41 1  
    45   16   42 1  
    46   18   43 1  
    47   21   44 1  
    48   23   45 1  
    49   24   46 1  
    50   25   47 1  
    51   26   48 1  
    52   26   49 1  
    53   26   50 1  
    54   27   51 1  
    55   27   52 1  
    56   27   53 1  
    57   28   54 1  
    58   28   55 1  
    59   28   56 1  
@<TRIPOS>SUBSTRUCTURE
     1 5BE         1

