3nlb_ligand
  -I-interpret- 

 55 58  0  0  0  0  0  0  0  0999 V2000
    3.7300   -6.9510   14.0550 C   0  0  0  0  0
    2.3510   -3.1240   19.4510 C   0  0  0  0  0
    3.6700   -2.6620   19.3270 C   0  0  0  0  0
    4.7070   -3.2970   18.6920 C   0  0  0  0  0
    5.7780   -2.4300   18.8880 C   0  0  0  0  0
    5.3830   -1.3940   19.6310 N   0  0  0  0  0
    4.1690   -1.5340   19.9110 N   0  0  0  0  0
    7.2130   -2.6060   18.3780 C   0  0  0  0  0
    4.8070   -4.5650   17.8180 C   0  0  0  0  0
    5.9050   -4.8480   17.3210 O   0  0  0  0  0
    3.7120   -5.2260   17.5000 N   0  0  0  0  0
    3.7480   -6.3780   16.5560 C   0  0  0  0  0
    3.7260   -5.8370   15.1000 C   0  0  0  0  0
    2.5360   -7.8150   14.2900 N   0  3  0  0  0
    2.5760   -8.4380   15.6310 C   0  0  0  0  0
    2.5490   -7.3310   16.7550 C   0  0  0  0  0
    1.4800   -2.4600   20.2030 N   0  0  0  0  0
    1.7740   -4.2170   18.9230 N   0  0  0  0  0
    0.5230   -4.2500   19.3800 C   0  0  0  0  0
    0.3520   -3.1370   20.1900 C   0  0  0  0  0
   -0.8520   -2.9200   20.8660 C   0  0  0  0  0
   -1.9120   -3.7910   20.7030 C   0  0  0  0  0
   -1.7650   -4.8990   19.8610 C   0  0  0  0  0
   -0.5510   -5.1380   19.1910 C   0  0  0  0  0
   -3.2200   -3.4410   21.4630 C   0  0  0  0  0
   -3.3260   -4.3640   22.7090 C   0  0  0  0  0
   -4.4910   -3.4540   20.5970 C   0  0  0  0  0
    2.4230   -8.9080   13.2610 C   0  0  0  0  0
    4.6423   -7.5413   14.1401 H   0  0  0  0  0
    3.6926   -6.5246   13.0526 H   0  0  0  0  0
    7.6323   -3.5254   18.7866 H   0  0  0  0  0
    7.2062   -2.6607   17.2894 H   0  0  0  0  0
    7.8172   -1.7566   18.6967 H   0  0  0  0  0
    2.8214   -4.9429   17.9087 H   0  0  0  0  0
    4.6597   -6.9426   16.7516 H   0  0  0  0  0
    2.8092   -5.2617   14.9713 H   0  0  0  0  0
    4.6245   -5.2378   14.9528 H   0  0  0  0  0
    1.7242   -7.2015   14.2192 H   0  0  0  0  0
    3.4949   -9.0167   15.7256 H   0  0  0  0  0
    1.7053   -9.0832   15.7481 H   0  0  0  0  0
    1.6184   -6.7671   16.6915 H   0  0  0  0  0
    2.6148   -7.8027   17.7354 H   0  0  0  0  0
   -0.9553   -2.0585   21.5257 H   0  0  0  0  0
   -2.6007   -5.5849   19.7226 H   0  0  0  0  0
   -0.4443   -6.0008   18.5335 H   0  0  0  0  0
   -3.1543   -2.3997   21.7786 H   0  0  0  0  0
   -3.3483   -5.4052   22.3874 H   0  0  0  0  0
   -2.4636   -4.2004   23.3552 H   0  0  0  0  0
   -4.2402   -4.1314   23.2551 H   0  0  0  0  0
   -4.3888   -2.7251   19.7931 H   0  0  0  0  0
   -4.6296   -4.4482   20.1723 H   0  0  0  0  0
   -5.3522   -3.1979   21.2141 H   0  0  0  0  0
    3.2855   -9.5699   13.3396 H   0  0  0  0  0
    1.5098   -9.4768   13.4358 H   0  0  0  0  0
    2.3922   -8.4659   12.2651 H   0  0  0  0  0
 13  1  1  0  0  0
  1 14  1  0  0  0
  3  2  1  0  0  0
  2 17  4  0  0  0
  2 18  4  0  0  0
  4  3  4  0  0  0
  3  7  4  0  0  0
  4  5  4  0  0  0
  9  4  1  0  0  0
  5  6  4  0  0  0
  5  8  1  0  0  0
  6  7  4  0  0  0
  9 10  2  0  0  0
 11  9  1  0  0  0
 12 11  1  0  0  0
 12 13  1  0  0  0
 12 16  1  0  0  0
 14 15  1  0  0  0
 14 28  1  0  0  0
 15 16  1  0  0  0
 17 20  4  0  0  0
 18 19  4  0  0  0
 19 20  4  0  0  0
 19 24  4  0  0  0
 20 21  4  0  0  0
 21 22  4  0  0  0
 22 23  4  0  0  0
 22 25  1  0  0  0
 23 24  4  0  0  0
 25 26  1  0  0  0
 25 27  1  0  0  0
  1 29  1  0  0  0
  1 30  1  0  0  0
  8 31  1  0  0  0
  8 32  1  0  0  0
  8 33  1  0  0  0
 11 34  1  0  0  0
 12 35  1  0  0  0
 13 36  1  0  0  0
 13 37  1  0  0  0
 14 38  1  0  0  0
 15 39  1  0  0  0
 15 40  1  0  0  0
 16 41  1  0  0  0
 16 42  1  0  0  0
 21 43  1  0  0  0
 23 44  1  0  0  0
 24 45  1  0  0  0
 25 46  1  0  0  0
 26 47  1  0  0  0
 26 48  1  0  0  0
 26 49  1  0  0  0
 27 50  1  0  0  0
 27 51  1  0  0  0
 27 52  1  0  0  0
 28 53  1  0  0  0
 28 54  1  0  0  0
 28 55  1  0  0  0
M  END
$$$$
