5eol_ligand
  -I-interpret- 

 47 51  0  0  0  0  0  0  0  0999 V2000
  -15.7570  -34.2700    2.0600 C   0  0  0  0  0
  -15.4800  -33.7750    0.6750 N   0  0  0  0  0
  -16.2650  -34.1860   -0.4300 C   0  0  0  0  0
  -16.0070  -33.7780   -1.5610 O   0  0  0  0  0
  -17.2990  -35.0970   -0.2140 C   0  0  0  0  0
  -17.9830  -35.9430   -0.9810 C   0  0  0  0  0
  -18.8670  -36.5970   -0.2090 C   0  0  0  0  0
  -18.7410  -36.1770    1.0570 N   0  0  0  0  0
  -17.7880  -35.2590    1.0690 C   0  0  0  0  0
  -17.2640  -34.4740    2.2770 C   0  0  0  0  0
  -17.5340  -35.2050    3.6060 C   0  0  0  0  0
  -18.8300  -34.9250    4.0480 C   0  0  0  0  0
  -19.7370  -35.8980    4.4700 C   0  0  0  0  0
  -19.4110  -37.3960    4.5590 C   0  0  0  0  0
  -19.1200  -37.7300    6.0220 C   0  0  0  0  0
  -20.5720  -38.1980    4.1270 N   0  0  0  0  0
  -20.8240  -38.5420    2.8570 C   0  0  0  0  0
  -20.2020  -37.9210    1.8390 N   0  0  0  0  0
  -20.4510  -38.2580    0.5570 C   0  0  0  0  0
  -19.8020  -37.5930   -0.4900 C   0  0  0  0  0
  -20.0600  -37.9680   -1.8100 C   0  0  0  0  0
  -20.9780  -38.9800   -2.0810 C   0  0  0  0  0
  -21.6380  -39.6310   -1.0410 C   0  0  0  0  0
  -21.3740  -39.2710    0.2800 C   0  0  0  0  0
  -22.0000  -39.8960    1.2930 N   0  0  0  0  0
  -21.7490  -39.5560    2.5700 C   0  0  0  0  0
  -22.4870  -40.2910    3.6910 C   0  0  0  0  0
  -15.3964  -33.5309    2.7754 H   0  0  0  0  0
  -15.2500  -35.2248    2.1993 H   0  0  0  0  0
  -14.7076  -33.1263    0.5233 H   0  0  0  0  0
  -17.8487  -36.0817   -2.0538 H   0  0  0  0  0
  -17.7832  -33.5185    2.3516 H   0  0  0  0  0
  -16.8178  -34.8663    4.3546 H   0  0  0  0  0
  -17.4305  -36.2792    3.4530 H   0  0  0  0  0
  -19.1518  -33.8837    4.0641 H   0  0  0  0  0
  -20.7385  -35.5748    4.7539 H   0  0  0  0  0
  -18.5578  -37.6213    3.9192 H   0  0  0  0  0
  -18.2718  -37.1385    6.3666 H   0  0  0  0  0
  -19.9962  -37.4982    6.6275 H   0  0  0  0  0
  -18.8852  -38.7906    6.1114 H   0  0  0  0  0
  -21.2267  -38.5115    4.8436 H   0  0  0  0  0
  -19.5426  -37.4684   -2.6291 H   0  0  0  0  0
  -21.1813  -39.2644   -3.1134 H   0  0  0  0  0
  -22.3585  -40.4193   -1.2593 H   0  0  0  0  0
  -21.7624  -40.7844    4.3388 H   0  0  0  0  0
  -23.0677  -39.5749    4.2725 H   0  0  0  0  0
  -23.1548  -41.0355    3.2575 H   0  0  0  0  0
  1  2  1  0  0  0
  1 10  1  0  0  0
  2  3  1  0  0  0
  3  4  2  0  0  0
  3  5  1  0  0  0
  5  6  4  0  0  0
  5  9  4  0  0  0
  6  7  4  0  0  0
  7  8  4  0  0  0
  7 20  1  0  0  0
  8  9  4  0  0  0
  9 10  1  0  0  0
 10 11  1  0  0  0
 11 12  1  0  0  0
 12 13  2  0  0  0
 13 14  1  0  0  0
 14 15  1  0  0  0
 14 16  1  0  0  0
 16 17  1  0  0  0
 17 18  4  0  0  0
 17 26  4  0  0  0
 18 19  4  0  0  0
 19 20  4  0  0  0
 19 24  4  0  0  0
 20 21  4  0  0  0
 21 22  4  0  0  0
 22 23  4  0  0  0
 23 24  4  0  0  0
 24 25  4  0  0  0
 25 26  4  0  0  0
 26 27  1  0  0  0
  1 28  1  0  0  0
  1 29  1  0  0  0
  2 30  1  0  0  0
  6 31  1  0  0  0
 10 32  1  0  0  0
 11 33  1  0  0  0
 11 34  1  0  0  0
 12 35  1  0  0  0
 13 36  1  0  0  0
 14 37  1  0  0  0
 15 38  1  0  0  0
 15 39  1  0  0  0
 15 40  1  0  0  0
 16 41  1  0  0  0
 21 42  1  0  0  0
 22 43  1  0  0  0
 23 44  1  0  0  0
 27 45  1  0  0  0
 27 46  1  0  0  0
 27 47  1  0  0  0
M  END
$$$$
