6jwa_ligand
  -I-interpret- 

 33 35  0  0  0  0  0  0  0  0999 V2000
  -13.4240   -3.3340   -8.1510 O   0  0  0  0  0
  -14.5270   -3.4120   -7.2870 C   0  0  0  0  0
  -14.8230   -4.8880   -6.9910 C   0  0  0  0  0
  -15.1050   -5.5250   -8.1170 O   0  0  0  0  0
  -13.9660   -6.6490   -8.3900 C   0  0  0  0  0
  -13.5680   -6.5960   -9.7250 N   0  0  0  0  0
  -13.2770   -5.4730  -10.4110 C   0  0  0  0  0
  -12.9130   -5.8180  -11.7280 C   0  0  0  0  0
  -12.9900   -7.2730  -11.7820 C   0  0  0  0  0
  -12.7520   -8.3170  -12.8070 C   0  0  0  0  0
  -12.9420   -9.6170  -12.4810 N   0  0  0  0  0
  -13.3530   -9.9720  -11.2290 C   0  0  0  0  0
  -13.5690   -9.0720  -10.2820 N   0  0  0  0  0
  -13.4020   -7.6860  -10.5110 C   0  0  0  0  0
  -12.3210   -7.9390  -14.1610 N   0  0  0  0  0
  -12.9390   -6.3320   -7.6040 C   0  0  0  0  0
  -12.2670   -7.5100   -7.1470 O   0  0  0  0  0
  -13.5630   -5.5890   -6.3980 C   0  0  0  0  0
  -13.9270   -6.4700   -5.4340 O   0  0  0  0  0
  -12.3410   -4.5210  -13.2860 I   0  0  0  0  0
  -13.2324   -2.4127   -8.3411 H   0  0  0  0  0
  -15.3954   -2.9488   -7.7554 H   0  0  0  0  0
  -14.3050   -2.8872   -6.3578 H   0  0  0  0  0
  -15.6567   -4.9211   -6.2897 H   0  0  0  0  0
  -14.3345   -7.6538   -8.1834 H   0  0  0  0  0
  -13.3168   -4.4598  -10.0111 H   0  0  0  0  0
  -13.5079  -11.0268  -11.0020 H   0  0  0  0  0
  -12.1850   -6.9561  -14.3971 H   0  0  0  0  0
  -12.1580   -8.6597  -14.8642 H   0  0  0  0  0
  -12.2041   -5.7260   -8.1339 H   0  0  0  0  0
  -11.8812   -7.9683   -7.8971 H   0  0  0  0  0
  -12.8685   -4.8876   -5.9356 H   0  0  0  0  0
  -14.3114   -5.9931   -4.6948 H   0  0  0  0  0
  1  2  1  0  0  0
  2  3  1  0  0  0
  3  4  1  0  0  0
  3 18  1  0  0  0
  4  5  1  0  0  0
  5  6  1  0  0  0
  5 16  1  0  0  0
  6  7  4  0  0  0
  6 14  4  0  0  0
  7  8  4  0  0  0
  8  9  4  0  0  0
  8 20  1  0  0  0
  9 10  4  0  0  0
  9 14  4  0  0  0
 10 11  4  0  0  0
 10 15  1  0  0  0
 11 12  4  0  0  0
 12 13  4  0  0  0
 13 14  4  0  0  0
 16 17  1  0  0  0
 16 18  1  0  0  0
 18 19  1  0  0  0
  1 21  1  0  0  0
  2 22  1  0  0  0
  2 23  1  0  0  0
  3 24  1  0  0  0
  5 25  1  0  0  0
  7 26  1  0  0  0
 12 27  1  0  0  0
 15 28  1  0  0  0
 15 29  1  0  0  0
 16 30  1  0  0  0
 17 31  1  0  0  0
 18 32  1  0  0  0
 19 33  1  0  0  0
M  END
$$$$
