1il4_ligand
  -I-interpret- 

 16 17  0  0  0  0  0  0  0  0999 V2000
   -1.3140    0.7870    7.8100 C   0  0  0  0  0
   -1.8760    1.0240    6.6050 C   0  0  0  0  0
   -0.9080    1.3330    5.6620 N   0  0  0  0  0
    0.2690    1.2600    6.3670 C   0  0  0  0  0
    1.6980    1.4600    6.0050 C   0  0  0  0  0
    2.0390    1.7600    4.8880 O   0  0  0  0  0
    2.5960    1.2830    7.0050 N   0  0  0  0  0
    2.2960    0.9720    8.1850 C   0  0  0  0  0
    3.3260    0.8100    9.1260 N   0  0  0  0  0
    1.0070    0.7790    8.5930 N   0  0  0  0  0
    0.0080    0.9240    7.6810 C   0  0  0  0  0
   -1.8456    0.5294    8.7260 H   0  0  0  0  0
   -2.9459    0.9785    6.4015 H   0  0  0  0  0
    3.5836    1.4111    6.7843 H   0  0  0  0  0
    3.1025    0.5542   10.0878 H   0  0  0  0  0
    4.2975    0.9482    8.8476 H   0  0  0  0  0
  1  2  4  0  0  0
  1 11  4  0  0  0
  2  3  4  0  0  0
  3  4  4  0  0  0
  4  5  1  0  0  0
  4 11  4  0  0  0
  5  6  2  0  0  0
  5  7  1  0  0  0
  7  8  1  0  0  0
  8  9  1  0  0  0
  8 10  2  0  0  0
 10 11  1  0  0  0
  1 12  1  0  0  0
  2 13  1  0  0  0
  7 14  1  0  0  0
  9 15  1  0  0  0
  9 16  1  0  0  0
M  END
$$$$
