5bqh_ligand
  -I-interpret- 

 51 53  0  0  0  0  0  0  0  0999 V2000
    8.7010   16.2700   30.3830 O   0  0  0  0  0
   16.7500   17.1740   25.1220 C   0  0  0  0  0
   17.7300   18.1040   24.8500 C   0  0  0  0  0
   17.0210   17.9670   30.0470 C   0  0  0  0  0
   16.3320   17.4710   31.1230 N   0  0  0  0  0
   18.3300   18.8290   25.8580 C   0  0  0  0  0
   17.9400   18.6150   27.1680 C   0  0  0  0  0
   16.9520   17.6820   27.4740 C   0  0  0  0  0
   16.5370   17.4520   28.8700 C   0  0  0  0  0
   15.5350   12.8340   33.7300 F   0  0  0  0  0
   14.9050   13.7070   34.5600 C   0  0  0  0  0
   14.8940   13.1480   35.7980 F   0  0  0  0  0
   13.4860   13.9630   34.0330 C   0  0  0  0  0
   12.4180   13.1680   34.4420 C   0  0  0  0  0
   11.1380   13.3980   33.9650 C   0  0  0  0  0
   10.8830   14.4240   33.0650 C   0  0  0  0  0
    9.4930   14.6670   32.5300 C   0  0  0  0  0
    9.3610   14.2610   31.1370 N   0  0  0  0  0
    9.0570   15.1160   30.1570 C   0  0  0  0  0
    9.1670   14.5730   28.7460 C   0  0  0  0  0
   10.2190   15.3440   27.9620 C   0  0  0  0  0
    7.8080   14.6130   28.0520 C   0  0  0  0  0
   11.9450   15.2180   32.6460 C   0  0  0  0  0
   13.2370   14.9970   33.1220 C   0  0  0  0  0
   14.3400   15.8920   32.6450 C   0  0  0  0  0
   15.0190   16.5490   33.4300 O   0  0  0  0  0
   14.5240   15.9350   31.2840 N   0  0  0  0  0
   15.4430   16.6610   30.5700 C   0  0  0  0  0
   15.5190   16.6060   29.2210 N   0  0  0  0  0
   16.3630   16.9660   26.4340 C   0  0  0  0  0
   18.2190   18.3700   23.1990 Cl  0  0  0  0  0
   16.2855   16.6093   24.3136 H   0  0  0  0  0
   17.8450   18.6771   30.1166 H   0  0  0  0  0
   19.1024   19.5620   25.6254 H   0  0  0  0  0
   18.4113   19.1831   27.9700 H   0  0  0  0  0
   15.4140   14.6697   34.6061 H   0  0  0  0  0
   12.5916   12.3545   35.1464 H   0  0  0  0  0
   10.3181   12.7635   34.3015 H   0  0  0  0  0
    9.2873   15.7356   32.5929 H   0  0  0  0  0
    8.7935   14.0777   33.1229 H   0  0  0  0  0
    9.5073   13.2799   30.8996 H   0  0  0  0  0
    9.4845   13.5313   28.7916 H   0  0  0  0  0
    9.9383   16.3963   27.9174 H   0  0  0  0  0
   11.1847   15.2449   28.4577 H   0  0  0  0  0
   10.2849   14.9411   26.9514 H   0  0  0  0  0
    7.0974   14.0053   28.6122 H   0  0  0  0  0
    7.4532   15.6428   28.0097 H   0  0  0  0  0
    7.9064   14.2194   27.0403 H   0  0  0  0  0
   11.7650   16.0246   31.9354 H   0  0  0  0  0
   13.8952   15.3509   30.7328 H   0  0  0  0  0
   15.5877   16.2329   26.6567 H   0  0  0  0  0
 19  1  2  0  0  0
  2  3  4  0  0  0
 30  2  4  0  0  0
  6  3  4  0  0  0
  3 31  1  0  0  0
  5  4  4  0  0  0
  4  9  4  0  0  0
 28  5  4  0  0  0
  7  6  4  0  0  0
  8  7  4  0  0  0
  9  8  1  0  0  0
  8 30  4  0  0  0
  9 29  4  0  0  0
 11 10  1  0  0  0
 11 12  1  0  0  0
 13 11  1  0  0  0
 13 14  4  0  0  0
 24 13  4  0  0  0
 14 15  4  0  0  0
 16 15  4  0  0  0
 16 17  1  0  0  0
 23 16  4  0  0  0
 17 18  1  0  0  0
 18 19  1  0  0  0
 19 20  1  0  0  0
 20 21  1  0  0  0
 20 22  1  0  0  0
 24 23  4  0  0  0
 25 24  1  0  0  0
 25 26  2  0  0  0
 27 25  1  0  0  0
 27 28  1  0  0  0
 28 29  4  0  0  0
  2 32  1  0  0  0
  4 33  1  0  0  0
  6 34  1  0  0  0
  7 35  1  0  0  0
 11 36  1  0  0  0
 14 37  1  0  0  0
 15 38  1  0  0  0
 17 39  1  0  0  0
 17 40  1  0  0  0
 18 41  1  0  0  0
 20 42  1  0  0  0
 21 43  1  0  0  0
 21 44  1  0  0  0
 21 45  1  0  0  0
 22 46  1  0  0  0
 22 47  1  0  0  0
 22 48  1  0  0  0
 23 49  1  0  0  0
 27 50  1  0  0  0
 30 51  1  0  0  0
M  END
$$$$
