5a6k_ligand
  -I-interpret- 

 30 31  0  0  0  0  0  0  0  0999 V2000
  -21.1980  -32.5070   13.3010 C   0  0  0  0  0
  -21.5540  -32.8870   11.5910 S   0  0  0  0  0
  -22.5800  -32.2350   13.8910 C   0  0  0  0  0
  -23.4000  -33.3260   13.3210 N   0  3  0  0  0
  -23.1320  -30.8090   13.5430 C   0  0  0  0  0
  -24.3460  -30.5040   14.2590 O   0  0  0  0  0
  -22.0820  -29.6900   13.7730 C   0  0  0  0  0
  -21.9300  -29.4310   15.1640 O   0  0  0  0  0
  -20.7750  -30.1240   13.0700 C   0  0  0  0  0
  -20.3220  -31.3670   13.5570 O   0  0  0  0  0
  -19.5780  -29.1540   13.2190 C   0  0  0  0  0
  -19.0990  -29.0810   14.5560 O   0  0  0  0  0
  -23.2670  -33.3020   11.8610 C   0  0  0  0  0
  -23.7120  -34.5970   11.1710 C   0  0  0  0  0
  -20.6391  -33.3341   13.7388 H   0  0  0  0  0
  -22.5784  -32.2279   14.9810 H   0  0  0  0  0
  -24.3776  -33.1966   13.5816 H   0  0  0  0  0
  -23.0804  -34.2245   13.6829 H   0  0  0  0  0
  -23.3616  -30.8377   12.4778 H   0  0  0  0  0
  -24.9880  -31.2020   14.1099 H   0  0  0  0  0
  -22.4005  -28.7418   13.3398 H   0  0  0  0  0
  -22.7760  -29.1680   15.5337 H   0  0  0  0  0
  -21.0670  -30.1540   12.0203 H   0  0  0  0  0
  -19.9134  -28.1588   12.9273 H   0  0  0  0  0
  -18.7668  -29.5221   12.5909 H   0  0  0  0  0
  -18.3600  -28.4696   14.5970 H   0  0  0  0  0
  -23.9383  -32.5747   11.4044 H   0  0  0  0  0
  -23.1075  -35.4276   11.5354 H   0  0  0  0  0
  -24.7621  -34.7844   11.3953 H   0  0  0  0  0
  -23.5816  -34.4964   10.0935 H   0  0  0  0  0
  1  2  1  0  0  0
  1  3  1  0  0  0
  1 10  1  0  0  0
  2 13  1  0  0  0
  3  4  1  0  0  0
  3  5  1  0  0  0
  4 13  1  0  0  0
  5  6  1  0  0  0
  5  7  1  0  0  0
  7  8  1  0  0  0
  7  9  1  0  0  0
  9 10  1  0  0  0
  9 11  1  0  0  0
 11 12  1  0  0  0
 13 14  1  0  0  0
  1 15  1  0  0  0
  3 16  1  0  0  0
  4 17  1  0  0  0
  4 18  1  0  0  0
  5 19  1  0  0  0
  6 20  1  0  0  0
  7 21  1  0  0  0
  8 22  1  0  0  0
  9 23  1  0  0  0
 11 24  1  0  0  0
 11 25  1  0  0  0
 12 26  1  0  0  0
 13 27  1  0  0  0
 14 28  1  0  0  0
 14 29  1  0  0  0
 14 30  1  0  0  0
M  END
$$$$
