4pmm_ligand
  -I-interpret- 

 61 66  0  0  0  0  0  0  0  0999 V2000
   31.5480  -35.1820   -4.9840 C   0  0  0  0  0
   32.1820  -35.0710   -6.2060 C   0  0  0  0  0
   38.7780  -30.9210  -11.7030 N   0  0  0  0  0
   30.4940  -33.5340   -6.9800 C   0  0  0  0  0
   29.7170  -34.6090   -3.4870 N   0  0  0  0  0
   33.7140  -34.2100   -8.7460 C   0  0  0  0  0
   35.9820  -32.7560  -10.2420 C   0  0  0  0  0
   38.0480  -31.5420  -10.7340 C   0  0  0  0  0
   39.4350  -30.0930   -9.8390 C   0  0  0  0  0
   38.4380  -31.0210   -9.5400 C   0  0  0  0  0
   40.1490  -29.3310   -8.7790 C   0  0  0  0  0
   39.9880  -27.8410   -8.6990 C   0  0  0  0  0
   37.4540  -31.4660  -15.1310 C   0  0  0  0  0
   39.8260  -31.1200  -15.2590 C   0  0  0  0  0
   39.8860  -30.9570  -13.8840 C   0  0  0  0  0
   30.3050  -34.9180   -2.3010 C   0  0  0  0  0
   35.7340  -32.1570   -9.1940 O   0  0  0  0  0
   37.0360  -32.4230  -11.0380 N   0  0  0  0  0
   41.2820  -28.4110   -9.1290 C   0  0  0  0  0
   39.6590  -30.0080  -11.1470 N   0  0  0  0  0
   38.7180  -31.0520  -13.1250 C   0  0  0  0  0
   38.6170  -31.3790  -15.8820 C   0  0  0  0  0
   37.4960  -31.2980  -13.7550 C   0  0  0  0  0
   35.0570  -33.8060  -10.8360 C   0  0  0  0  0
   33.8420  -33.9300  -10.0510 N   0  0  0  0  0
   32.6440  -33.6890  -10.6110 N   0  0  0  0  0
   31.7470  -33.8030   -9.6570 N   0  0  0  0  0
   32.3760  -34.1190   -8.4890 C   0  0  0  0  0
   31.6640  -34.2560   -7.2100 C   0  0  0  0  0
   29.8490  -33.6320   -5.7590 C   0  0  0  0  0
   28.7290  -32.9190   -5.4240 O   0  0  0  0  0
   28.2850  -31.8940   -6.3190 C   0  0  0  0  0
   30.3740  -34.4710   -4.7610 C   0  0  0  0  0
   28.3570  -34.5250   -3.2440 C   0  0  0  0  0
   28.1980  -34.7970   -1.9200 C   0  0  0  0  0
   26.9400  -34.8560   -1.1130 C   0  0  0  0  0
   29.4370  -35.0440   -1.3310 N   0  0  0  0  0
   31.9631  -35.8196   -4.2034 H   0  0  0  0  0
   33.1006  -35.6290   -6.3874 H   0  0  0  0  0
   30.0870  -32.8923   -7.7615 H   0  0  0  0  0
   34.5079  -34.4573   -8.0413 H   0  0  0  0  0
   38.0513  -31.2760   -8.5533 H   0  0  0  0  0
   40.0203  -30.1697   -8.0948 H   0  0  0  0  0
   39.3679  -26.9713   -8.4818 H   0  0  0  0  0
   36.5031  -31.6672  -15.6244 H   0  0  0  0  0
   40.7363  -31.0438  -15.8537 H   0  0  0  0  0
   40.8404  -30.7556  -13.3975 H   0  0  0  0  0
   31.3798  -35.0464   -2.1728 H   0  0  0  0  0
   37.0794  -32.8726  -11.9525 H   0  0  0  0  0
   42.3107  -28.2676   -9.4597 H   0  0  0  0  0
   38.5790  -31.5146  -16.9629 H   0  0  0  0  0
   36.5796  -31.3577  -13.1679 H   0  0  0  0  0
   35.5725  -34.7664  -10.8380 H   0  0  0  0  0
   34.7905  -33.5054  -11.8493 H   0  0  0  0  0
   29.0706  -31.1469   -6.4322 H   0  0  0  0  0
   28.0581  -32.3344   -7.2899 H   0  0  0  0  0
   27.3894  -31.4228   -5.9141 H   0  0  0  0  0
   27.5741  -34.2894   -3.9649 H   0  0  0  0  0
   26.4410  -33.8876   -1.1491 H   0  0  0  0  0
   26.2815  -35.6211   -1.5243 H   0  0  0  0  0
   27.1840  -35.1022   -0.0796 H   0  0  0  0  0
  2  1  4  0  0  0
  1 33  4  0  0  0
 29  2  4  0  0  0
  8  3  4  0  0  0
  3 20  4  0  0  0
  3 21  1  0  0  0
 29  4  4  0  0  0
  4 30  4  0  0  0
  5 16  4  0  0  0
 33  5  1  0  0  0
  5 34  4  0  0  0
  6 25  4  0  0  0
 28  6  4  0  0  0
  7 17  2  0  0  0
  7 18  1  0  0  0
 24  7  1  0  0  0
  8 10  4  0  0  0
 18  8  1  0  0  0
 10  9  4  0  0  0
  9 11  1  0  0  0
  9 20  4  0  0  0
 11 12  1  0  0  0
 11 19  1  0  0  0
 19 12  2  0  0  0
 13 22  4  0  0  0
 23 13  4  0  0  0
 15 14  4  0  0  0
 14 22  4  0  0  0
 21 15  4  0  0  0
 16 37  4  0  0  0
 21 23  4  0  0  0
 25 24  1  0  0  0
 26 25  4  0  0  0
 27 26  4  0  0  0
 28 27  4  0  0  0
 28 29  1  0  0  0
 30 31  1  0  0  0
 30 33  4  0  0  0
 31 32  1  0  0  0
 34 35  4  0  0  0
 35 36  1  0  0  0
 35 37  4  0  0  0
  1 38  1  0  0  0
  2 39  1  0  0  0
  4 40  1  0  0  0
  6 41  1  0  0  0
 10 42  1  0  0  0
 11 43  1  0  0  0
 12 44  1  0  0  0
 13 45  1  0  0  0
 14 46  1  0  0  0
 15 47  1  0  0  0
 16 48  1  0  0  0
 18 49  1  0  0  0
 19 50  1  0  0  0
 22 51  1  0  0  0
 23 52  1  0  0  0
 24 53  1  0  0  0
 24 54  1  0  0  0
 32 55  1  0  0  0
 32 56  1  0  0  0
 32 57  1  0  0  0
 34 58  1  0  0  0
 36 59  1  0  0  0
 36 60  1  0  0  0
 36 61  1  0  0  0
M  END
$$$$
