4qxq_ligand
  -I-interpret- 

 35 37  0  0  0  0  0  0  0  0999 V2000
  162.9910   49.0380    5.5650 O   0  0  0  0  0
  163.9510   49.6930    5.1370 C   0  0  0  0  0
  165.0120   50.0820    5.9480 C   0  0  0  0  0
  165.0240   49.7980    7.3060 C   0  0  0  0  0
  166.1300   50.1710    8.0710 C   0  0  0  0  0
  167.2370   50.8420    7.4990 C   0  0  0  0  0
  168.3860   51.2460    8.2850 C   0  0  0  0  0
  167.2000   51.1630    6.1350 C   0  0  0  0  0
  168.2480   51.8690    5.4870 C   0  0  0  0  0
  166.0560   50.8210    5.4260 C   0  0  0  0  0
  166.0980   51.0930    4.1160 O   0  0  0  0  0
  165.1250   50.6610    3.2800 C   0  0  0  0  0
  164.0300   49.9890    3.7870 C   0  0  0  0  0
  163.0500   49.5420    2.8930 C   0  0  0  0  0
  163.1480   49.8310    1.5330 C   0  0  0  0  0
  164.2570   50.5330    1.0420 C   0  0  0  0  0
  165.2500   50.9930    1.9250 C   0  0  0  0  0
  166.3860   51.7240    1.4620 C   0  0  0  0  0
  167.7890   51.1310    1.7520 C   0  0  0  0  0
  167.8930   49.9350    2.1480 O   0  0  0  0  0
  168.7310   51.9310    1.5520 O   0  0  0  0  0
  164.1791   49.2893    7.7702 H   0  0  0  0  0
  166.1415   49.9397    9.1361 H   0  0  0  0  0
  168.0654   51.9326    9.0685 H   0  0  0  0  0
  168.8435   50.3656    8.7364 H   0  0  0  0  0
  169.1101   51.7425    7.6390 H   0  0  0  0  0
  168.3729   52.8440    5.9579 H   0  0  0  0  0
  169.1744   51.3011    5.5731 H   0  0  0  0  0
  167.9982   52.0018    4.4343 H   0  0  0  0  0
  162.2037   48.9634    3.2633 H   0  0  0  0  0
  162.3609   49.5105    0.8504 H   0  0  0  0  0
  164.3501   50.7230   -0.0273 H   0  0  0  0  0
  166.3561   52.6766    1.9908 H   0  0  0  0  0
  166.2967   51.7462    0.3759 H   0  0  0  0  0
  167.0185   49.5453    2.2188 H   0  0  0  0  0
  1  2  2  0  0  0
  2  3  1  0  0  0
  2 13  1  0  0  0
  3  4  4  0  0  0
  3 10  4  0  0  0
  4  5  4  0  0  0
  5  6  4  0  0  0
  6  7  1  0  0  0
  6  8  4  0  0  0
  8  9  1  0  0  0
  8 10  4  0  0  0
 10 11  1  0  0  0
 11 12  1  0  0  0
 12 13  4  0  0  0
 12 17  4  0  0  0
 13 14  4  0  0  0
 14 15  4  0  0  0
 15 16  4  0  0  0
 16 17  4  0  0  0
 17 18  1  0  0  0
 18 19  1  0  0  0
 19 20  1  0  0  0
 19 21  2  0  0  0
  4 22  1  0  0  0
  5 23  1  0  0  0
  7 24  1  0  0  0
  7 25  1  0  0  0
  7 26  1  0  0  0
  9 27  1  0  0  0
  9 28  1  0  0  0
  9 29  1  0  0  0
 14 30  1  0  0  0
 15 31  1  0  0  0
 16 32  1  0  0  0
 18 33  1  0  0  0
 18 34  1  0  0  0
 20 35  1  0  0  0
M  END
$$$$
