5luu_ligand
  -I-interpret- 

 35 37  0  0  0  0  0  0  0  0999 V2000
   31.7020   18.7150    2.1070 C   0  0  0  0  0
   32.1770   18.7950    0.6800 C   0  0  0  0  0
   33.2080   17.6900    0.3510 C   0  0  0  0  0
   34.3680   18.0210    0.1290 O   0  0  0  0  0
   32.8460   16.4230    0.1850 N   0  0  0  0  0
   33.8590   15.4510   -0.2800 C   0  0  0  0  0
   33.6580   15.2790   -1.8020 C   0  0  0  0  0
   31.4450   15.9410    0.2460 C   0  0  0  0  0
   31.1760   15.4290   -1.1590 C   0  0  0  0  0
   32.1670   15.1330   -2.0800 C   0  0  0  0  0
   31.5610   14.7220   -3.1970 N   0  0  0  0  0
   30.3320   14.7260   -3.0120 N   0  0  0  0  0
   29.9790   15.1540   -1.7930 C   0  0  0  0  0
   28.6860   15.2310   -1.2260 C   0  0  0  0  0
   28.4580   15.0370    0.1490 C   0  0  0  0  0
   27.1850   15.0300    0.7460 C   0  0  0  0  0
   26.0810   15.2050   -0.0550 C   0  0  0  0  0
   26.2930   15.3800   -1.4220 C   0  0  0  0  0
   27.5580   15.3810   -2.0280 C   0  0  0  0  0
   31.2313   17.7469    2.2782 H   0  0  0  0  0
   32.5526   18.8307    2.7787 H   0  0  0  0  0
   30.9796   19.5097    2.2932 H   0  0  0  0  0
   32.6559   19.7631    0.5335 H   0  0  0  0  0
   31.3153   18.6635    0.0256 H   0  0  0  0  0
   33.7414   14.4970    0.2340 H   0  0  0  0  0
   34.8650   15.8100   -0.0628 H   0  0  0  0  0
   34.1895   14.3931   -2.1495 H   0  0  0  0  0
   34.0513   16.1480   -2.3295 H   0  0  0  0  0
   30.7488   16.7257    0.5420 H   0  0  0  0  0
   31.3043   15.1693    1.0028 H   0  0  0  0  0
   29.3239   14.8822    0.7926 H   0  0  0  0  0
   27.0755   14.8888    1.8213 H   0  0  0  0  0
   25.0749   15.2068    0.3643 H   0  0  0  0  0
   25.4210   15.5251   -2.0597 H   0  0  0  0  0
   27.6561   15.4971   -3.1074 H   0  0  0  0  0
  1  2  1  0  0  0
  2  3  1  0  0  0
  3  4  2  0  0  0
  3  5  1  0  0  0
  5  6  1  0  0  0
  5  8  1  0  0  0
  6  7  1  0  0  0
  7 10  1  0  0  0
  8  9  1  0  0  0
  9 10  4  0  0  0
  9 13  4  0  0  0
 10 11  4  0  0  0
 11 12  4  0  0  0
 12 13  4  0  0  0
 13 14  1  0  0  0
 14 15  4  0  0  0
 14 19  4  0  0  0
 15 16  4  0  0  0
 16 17  4  0  0  0
 17 18  4  0  0  0
 18 19  4  0  0  0
  1 20  1  0  0  0
  1 21  1  0  0  0
  1 22  1  0  0  0
  2 23  1  0  0  0
  2 24  1  0  0  0
  6 25  1  0  0  0
  6 26  1  0  0  0
  7 27  1  0  0  0
  7 28  1  0  0  0
  8 29  1  0  0  0
  8 30  1  0  0  0
 15 31  1  0  0  0
 16 32  1  0  0  0
 17 33  1  0  0  0
 18 34  1  0  0  0
 19 35  1  0  0  0
M  END
$$$$
