5t1u_ligand
  -I-interpret- 

 44 46  0  0  0  0  0  0  0  0999 V2000
   16.6920  -37.5460    9.5350 C   0  0  0  0  0
   16.9210  -38.9770    9.0640 C   0  0  0  0  0
   16.5690  -39.9770   10.1880 C   0  0  0  0  0
   16.7200  -41.4290    9.7690 C   0  0  0  0  0
   15.5770  -41.8470    8.3680 S   0  0  0  0  0
   15.5120  -40.2890    7.5600 C   0  0  0  0  0
   16.0430  -39.2140    7.8970 N   0  0  0  0  0
   14.7280  -40.3410    6.4520 N   0  0  0  0  0
   18.3810  -39.1850    8.6830 C   0  0  0  0  0
   18.7260  -39.6870    7.4220 C   0  0  0  0  0
   20.0620  -39.8280    7.0450 C   0  0  0  0  0
   21.0370  -39.4550    7.9470 C   0  0  0  0  0
   20.7580  -38.9830    9.1950 C   0  0  0  0  0
   19.4320  -38.8670    9.5360 C   0  0  0  0  0
   19.1430  -38.4590   10.8020 F   0  0  0  0  0
   22.3350  -39.5470    7.5480 F   0  0  0  0  0
   20.4460  -40.3620    5.6870 C   0  0  0  0  0
   20.7220  -41.8010    5.8210 N   0  3  0  0  0
   21.5130  -42.3950    4.7270 C   0  0  0  0  0
   22.9610  -41.9920    4.7480 C   0  0  0  0  0
   22.5510  -43.4110    5.0740 C   0  0  0  0  0
   20.8470  -42.4930    3.3910 C   0  0  0  0  0
   21.6540  -42.9520    2.4700 F   0  0  0  0  0
   19.7940  -43.3120    3.4220 F   0  0  0  0  0
   20.4220  -41.3050    2.9540 F   0  0  0  0  0
   16.9388  -36.8555    8.7285 H   0  0  0  0  0
   15.6463  -37.4202    9.8156 H   0  0  0  0  0
   17.3277  -37.3423   10.3967 H   0  0  0  0  0
   15.5243  -39.8181   10.4551 H   0  0  0  0  0
   17.2570  -39.7993   11.0145 H   0  0  0  0  0
   16.4732  -42.0637   10.6201 H   0  0  0  0  0
   17.7465  -41.5908    9.4401 H   0  0  0  0  0
   15.8513  -38.4076    7.3025 H   0  0  0  0  0
   14.5742  -39.4997    5.8961 H   0  0  0  0  0
   17.9386  -39.9720    6.7242 H   0  0  0  0  0
   21.5511  -38.7099    9.8911 H   0  0  0  0  0
   21.3303  -39.8435    5.3164 H   0  0  0  0  0
   19.6347  -40.2003    4.9773 H   0  0  0  0  0
   19.8180  -42.2735    5.8180 H   0  0  0  0  0
   21.2703  -41.9153    6.6735 H   0  0  0  0  0
   23.5893  -41.2020    5.1595 H   0  0  0  0  0
   23.6782  -41.4672    4.1169 H   0  0  0  0  0
   22.8270  -44.4270    4.7917 H   0  0  0  0  0
   22.7372  -44.1592    5.8445 H   0  0  0  0  0
  1  2  1  0  0  0
  2  3  1  0  0  0
  2  7  1  0  0  0
  2  9  1  0  0  0
  3  4  1  0  0  0
  4  5  1  0  0  0
  5  6  1  0  0  0
  6  7  1  0  0  0
  6  8  2  0  0  0
  9 10  4  0  0  0
  9 14  4  0  0  0
 10 11  4  0  0  0
 11 12  4  0  0  0
 11 17  1  0  0  0
 12 13  4  0  0  0
 12 16  1  0  0  0
 13 14  4  0  0  0
 14 15  1  0  0  0
 17 18  1  0  0  0
 18 19  1  0  0  0
 19 20  1  0  0  0
 19 21  1  0  0  0
 19 22  1  0  0  0
 20 21  1  0  0  0
 22 23  1  0  0  0
 22 24  1  0  0  0
 22 25  1  0  0  0
  1 26  1  0  0  0
  1 27  1  0  0  0
  1 28  1  0  0  0
  3 29  1  0  0  0
  3 30  1  0  0  0
  4 31  1  0  0  0
  4 32  1  0  0  0
  7 33  1  0  0  0
  8 34  1  0  0  0
 10 35  1  0  0  0
 13 36  1  0  0  0
 17 37  1  0  0  0
 17 38  1  0  0  0
 18 39  1  0  0  0
 18 40  1  0  0  0
 20 41  1  0  0  0
 20 42  1  0  0  0
 21 43  1  0  0  0
 21 44  1  0  0  0
M  END
$$$$
