6awp_ligand
  -I-interpret- 

 44 44  0  0  0  0  0  0  0  0999 V2000
   35.8250  180.4700  143.3310 C   0  0  0  0  0
   36.0530  181.7850  143.7550 O   0  0  0  0  0
   36.3190  182.6750  142.7130 C   0  0  0  0  0
   35.1360  183.6260  142.5670 C   0  0  0  0  0
   35.1800  184.2610  141.1820 C   0  0  0  0  0
   33.9650  185.1770  141.0100 C   0  0  0  0  0
   33.8330  186.1150  142.2120 C   0  0  0  0  0
   34.6820  187.0030  142.4260 N   0  0  0  0  0
   35.7820  187.1620  141.5760 O   0  0  0  0  0
   35.7640  188.4500  141.0460 C   0  0  0  0  0
   36.4630  188.4300  139.6960 C   0  0  0  0  0
   37.7600  189.0690  139.8380 N   0  3  0  0  0
   32.6520  185.9900  143.1690 C   0  0  0  0  0
   31.7760  184.9190  143.0580 C   0  0  0  0  0
   30.7030  184.8160  143.9320 C   0  0  0  0  0
   30.5040  185.7800  144.9110 C   0  0  0  0  0
   31.3810  186.8510  145.0170 C   0  0  0  0  0
   32.4540  186.9570  144.1450 C   0  0  0  0  0
   29.3160  185.6650  145.8710 C   0  0  0  0  0
   28.8080  186.9100  146.1040 F   0  0  0  0  0
   28.3500  184.8750  145.3120 F   0  0  0  0  0
   29.7210  185.1320  147.0600 F   0  0  0  0  0
   34.9661  180.4497  142.6602 H   0  0  0  0  0
   36.7062  180.1008  142.8064 H   0  0  0  0  0
   35.6258  179.8396  144.1976 H   0  0  0  0  0
   36.4672  182.1237  141.7844 H   0  0  0  0  0
   37.2241  183.2414  142.9323 H   0  0  0  0  0
   35.1914  184.4025  143.3300 H   0  0  0  0  0
   34.2035  183.0752  142.6901 H   0  0  0  0  0
   35.1610  183.4810  140.4209 H   0  0  0  0  0
   36.0953  184.8431  141.0751 H   0  0  0  0  0
   33.0659  184.5654  140.9353 H   0  0  0  0  0
   34.0933  185.7725  140.1061 H   0  0  0  0  0
   36.2784  189.1353  141.7197 H   0  0  0  0  0
   34.7344  188.7869  140.9254 H   0  0  0  0  0
   35.8638  188.9648  138.9591 H   0  0  0  0  0
   36.5903  187.4014  139.3585 H   0  0  0  0  0
   38.2410  189.0628  138.9386 H   0  0  0  0  0
   37.6311  190.0317  140.1494 H   0  0  0  0  0
   38.3153  188.5595  140.5254 H   0  0  0  0  0
   31.9301  184.1628  142.2883 H   0  0  0  0  0
   30.0141  183.9753  143.8495 H   0  0  0  0  0
   31.2262  187.6084  145.7855 H   0  0  0  0  0
   33.1414  187.7990  144.2259 H   0  0  0  0  0
  1  2  1  0  0  0
  2  3  1  0  0  0
  3  4  1  0  0  0
  4  5  1  0  0  0
  5  6  1  0  0  0
  6  7  1  0  0  0
  7  8  2  0  0  0
  7 13  1  0  0  0
  8  9  1  0  0  0
  9 10  1  0  0  0
 10 11  1  0  0  0
 11 12  1  0  0  0
 13 14  4  0  0  0
 13 18  4  0  0  0
 14 15  4  0  0  0
 15 16  4  0  0  0
 16 17  4  0  0  0
 16 19  1  0  0  0
 17 18  4  0  0  0
 19 20  1  0  0  0
 19 21  1  0  0  0
 19 22  1  0  0  0
  1 23  1  0  0  0
  1 24  1  0  0  0
  1 25  1  0  0  0
  3 26  1  0  0  0
  3 27  1  0  0  0
  4 28  1  0  0  0
  4 29  1  0  0  0
  5 30  1  0  0  0
  5 31  1  0  0  0
  6 32  1  0  0  0
  6 33  1  0  0  0
 10 34  1  0  0  0
 10 35  1  0  0  0
 11 36  1  0  0  0
 11 37  1  0  0  0
 12 38  1  0  0  0
 12 39  1  0  0  0
 12 40  1  0  0  0
 14 41  1  0  0  0
 15 42  1  0  0  0
 17 43  1  0  0  0
 18 44  1  0  0  0
M  END
$$$$
