3blr_ligand
  -I-interpret- 

 49 52  0  0  0  0  0  0  0  0999 V2000
   49.4980  -21.3640  -10.7920 C   0  0  0  0  0
   50.2020  -20.2380  -11.3840 N   0  3  0  0  0
   50.9700  -19.3940  -10.4650 C   0  0  0  0  0
   50.8570  -17.9390  -10.8980 C   0  0  0  0  0
   51.2170  -17.8200  -12.3680 C   0  0  0  0  0
   50.1790  -18.5560  -13.2110 C   0  0  0  0  0
   50.1310  -20.0360  -12.8400 C   0  0  0  0  0
   51.4840  -16.3970  -12.7500 C   0  0  0  0  0
   52.8130  -16.0660  -12.9980 C   0  0  0  0  0
   53.7580  -17.0500  -12.9140 O   0  0  0  0  0
   55.0780  -16.8140  -13.1680 C   0  0  0  0  0
   55.5330  -15.5430  -13.4920 C   0  0  0  0  0
   54.6270  -14.5020  -13.5910 C   0  0  0  0  0
   55.0230  -13.3640  -13.8940 O   0  0  0  0  0
   53.1910  -14.7740  -13.3310 C   0  0  0  0  0
   52.2280  -13.7770  -13.4060 C   0  0  0  0  0
   52.5790  -12.5040  -13.7320 O   0  0  0  0  0
   50.8990  -14.0910  -13.1480 C   0  0  0  0  0
   50.5220  -15.3850  -12.8020 C   0  0  0  0  0
   49.2040  -15.6190  -12.5610 O   0  0  0  0  0
   56.0370  -17.9290  -12.9960 C   0  0  0  0  0
   55.6820  -19.2670  -13.1310 C   0  0  0  0  0
   54.0340  -19.7670  -13.6430 Cl  0  0  0  0  0
   56.6420  -20.2480  -12.8930 C   0  0  0  0  0
   57.9290  -19.8950  -12.5010 C   0  0  0  0  0
   58.2720  -18.5590  -12.3330 C   0  0  0  0  0
   57.3160  -17.5810  -12.5690 C   0  0  0  0  0
   48.8760  -18.0110  -13.0010 O   0  0  0  0  0
   48.4324  -21.2769  -11.0044 H   0  0  0  0  0
   49.8795  -22.2929  -11.2159 H   0  0  0  0  0
   49.6561  -21.3633   -9.7135 H   0  0  0  0  0
   50.3125  -19.4216  -11.9854 H   0  0  0  0  0
   52.0167  -19.6978  -10.4814 H   0  0  0  0  0
   50.5756  -19.5042   -9.4549 H   0  0  0  0  0
   51.5395  -17.3293  -10.3059 H   0  0  0  0  0
   49.8351  -17.5923  -10.7446 H   0  0  0  0  0
   52.1637  -18.3194  -12.5742 H   0  0  0  0  0
   50.4712  -18.4390  -14.2546 H   0  0  0  0  0
   49.1871  -20.4479  -13.1971 H   0  0  0  0  0
   50.9880  -20.5312  -13.2964 H   0  0  0  0  0
   56.5944  -15.3668  -13.6668 H   0  0  0  0  0
   51.7958  -11.9488  -13.7378 H   0  0  0  0  0
   50.1402  -13.3116  -13.2178 H   0  0  0  0  0
   48.7136  -14.7981  -12.6463 H   0  0  0  0  0
   56.3827  -21.2997  -13.0148 H   0  0  0  0  0
   58.6734  -20.6714  -12.3244 H   0  0  0  0  0
   59.2788  -18.2827  -12.0199 H   0  0  0  0  0
   57.5685  -16.5313  -12.4188 H   0  0  0  0  0
   48.8801  -17.0782  -13.2280 H   0  0  0  0  0
  1  2  1  0  0  0
  2  3  1  0  0  0
  2  7  1  0  0  0
  3  4  1  0  0  0
  4  5  1  0  0  0
  5  6  1  0  0  0
  5  8  1  0  0  0
  6  7  1  0  0  0
  6 28  1  0  0  0
  8  9  4  0  0  0
  8 19  4  0  0  0
  9 10  1  0  0  0
  9 15  4  0  0  0
 10 11  1  0  0  0
 11 12  2  0  0  0
 11 21  1  0  0  0
 12 13  1  0  0  0
 13 14  2  0  0  0
 13 15  1  0  0  0
 15 16  4  0  0  0
 16 17  1  0  0  0
 16 18  4  0  0  0
 18 19  4  0  0  0
 19 20  1  0  0  0
 21 22  4  0  0  0
 21 27  4  0  0  0
 22 23  1  0  0  0
 22 24  4  0  0  0
 24 25  4  0  0  0
 25 26  4  0  0  0
 26 27  4  0  0  0
  1 29  1  0  0  0
  1 30  1  0  0  0
  1 31  1  0  0  0
  2 32  1  0  0  0
  3 33  1  0  0  0
  3 34  1  0  0  0
  4 35  1  0  0  0
  4 36  1  0  0  0
  5 37  1  0  0  0
  6 38  1  0  0  0
  7 39  1  0  0  0
  7 40  1  0  0  0
 12 41  1  0  0  0
 17 42  1  0  0  0
 18 43  1  0  0  0
 20 44  1  0  0  0
 24 45  1  0  0  0
 25 46  1  0  0  0
 26 47  1  0  0  0
 27 48  1  0  0  0
 28 49  1  0  0  0
M  END
$$$$
