6nwk_ligand
  -I-interpret- 

 57 60  0  0  0  0  0  0  0  0999 V2000
   70.6210  126.0670   11.6780 C   0  0  0  0  0
   71.5860  125.6640   12.4820 C   0  0  0  0  0
   71.7350  124.2800   12.8790 C   0  0  0  0  0
   70.9750  123.3230   12.1010 C   0  0  0  0  0
   70.0560  123.7090   11.2100 C   0  0  0  0  0
   69.1940  122.6890   10.5280 C   0  0  0  0  0
   67.7000  123.0550   10.7320 C   0  0  0  0  0
   67.4330  124.4170   10.2640 C   0  0  0  0  0
   68.3030  125.4270   11.0760 C   0  0  0  0  0
   69.8250  125.1260   10.8460 C   0  0  0  0  0
   67.9540  126.9560   10.8570 C   0  0  0  0  0
   66.4330  127.2050   10.9920 C   0  0  0  0  0
   65.6110  126.2810   10.0930 C   0  0  0  0  0
   65.9580  124.8150   10.5060 C   0  0  0  0  0
   64.8870  123.9900    9.8100 C   0  0  0  0  0
   63.6070  124.8980    9.8510 C   0  0  0  0  0
   64.0400  126.2810   10.3590 C   0  0  0  0  0
   65.8490  126.5860    8.6200 C   0  0  0  0  0
   70.2360  125.2850    9.4260 C   0  0  0  0  0
   63.3550  127.4570    9.6360 C   0  0  0  0  0
   63.2420  128.7900   10.3980 C   0  0  0  0  0
   62.6020  124.2650   10.7690 C   0  0  0  0  0
   68.0810  125.2200   12.4050 F   0  0  0  0  0
   72.4330  123.9450   13.8160 O   0  0  0  0  0
   68.4490  127.4500    9.6370 O   0  0  0  0  0
   63.8290  126.3950   11.7190 O   0  0  0  0  0
   62.9270  127.3610    8.5080 O   0  0  0  0  0
   63.1930  129.7770    9.4120 O   0  0  0  0  0
   70.3981  127.1325   11.6212 H   0  0  0  0  0
   72.2962  126.3990   12.8607 H   0  0  0  0  0
   71.1576  122.2582   12.2461 H   0  0  0  0  0
   69.3886  121.7050   10.9547 H   0  0  0  0  0
   69.4223  122.6744    9.4623 H   0  0  0  0  0
   67.4639  122.9945   11.7944 H   0  0  0  0  0
   67.0853  122.3591   10.1612 H   0  0  0  0  0
   67.6618  124.4443    9.1986 H   0  0  0  0  0
   68.4588  127.5132   11.6462 H   0  0  0  0  0
   66.2312  128.2338   10.6938 H   0  0  0  0  0
   66.1492  127.0103   12.0262 H   0  0  0  0  0
   65.9248  124.6452   11.5822 H   0  0  0  0  0
   64.7247  123.0309   10.3018 H   0  0  0  0  0
   65.1703  123.7273    8.7908 H   0  0  0  0  0
   63.1480  125.0047    8.8681 H   0  0  0  0  0
   65.5624  127.6170    8.4128 H   0  0  0  0  0
   66.9049  126.4474    8.3876 H   0  0  0  0  0
   65.2495  125.9111    8.0091 H   0  0  0  0  0
   69.6625  124.5978    8.8040 H   0  0  0  0  0
   70.0469  126.3100    9.1069 H   0  0  0  0  0
   71.2989  125.0634    9.3297 H   0  0  0  0  0
   64.0856  128.9388   11.0720 H   0  0  0  0  0
   62.3567  128.8143   11.0333 H   0  0  0  0  0
   62.3438  123.2742   10.3952 H   0  0  0  0  0
   63.0288  124.1779   11.7682 H   0  0  0  0  0
   61.7063  124.8849   10.8079 H   0  0  0  0  0
   68.2138  128.3766    9.5492 H   0  0  0  0  0
   62.8855  126.3965   11.8963 H   0  0  0  0  0
   63.1216  130.6395    9.8275 H   0  0  0  0  0
  1  2  2  0  0  0
  1 10  1  0  0  0
  2  3  1  0  0  0
  3  4  1  0  0  0
  3 24  2  0  0  0
  4  5  2  0  0  0
  5  6  1  0  0  0
  5 10  1  0  0  0
  6  7  1  0  0  0
  7  8  1  0  0  0
  8  9  1  0  0  0
  8 14  1  0  0  0
  9 10  1  0  0  0
  9 11  1  0  0  0
  9 23  1  0  0  0
 10 19  1  0  0  0
 11 12  1  0  0  0
 11 25  1  0  0  0
 12 13  1  0  0  0
 13 14  1  0  0  0
 13 17  1  0  0  0
 13 18  1  0  0  0
 14 15  1  0  0  0
 15 16  1  0  0  0
 16 17  1  0  0  0
 16 22  1  0  0  0
 17 20  1  0  0  0
 17 26  1  0  0  0
 20 21  1  0  0  0
 20 27  2  0  0  0
 21 28  1  0  0  0
  1 29  1  0  0  0
  2 30  1  0  0  0
  4 31  1  0  0  0
  6 32  1  0  0  0
  6 33  1  0  0  0
  7 34  1  0  0  0
  7 35  1  0  0  0
  8 36  1  0  0  0
 11 37  1  0  0  0
 12 38  1  0  0  0
 12 39  1  0  0  0
 14 40  1  0  0  0
 15 41  1  0  0  0
 15 42  1  0  0  0
 16 43  1  0  0  0
 18 44  1  0  0  0
 18 45  1  0  0  0
 18 46  1  0  0  0
 19 47  1  0  0  0
 19 48  1  0  0  0
 19 49  1  0  0  0
 21 50  1  0  0  0
 21 51  1  0  0  0
 22 52  1  0  0  0
 22 53  1  0  0  0
 22 54  1  0  0  0
 25 55  1  0  0  0
 26 56  1  0  0  0
 28 57  1  0  0  0
M  END
$$$$
