6ap7_ligand
  -I-interpret- 

 32 33  0  0  0  0  0  0  0  0999 V2000
  -12.4230  -45.3360  -31.6550 O   0  0  0  0  0
  -13.6460  -39.9290  -32.1450 C   0  0  0  0  0
  -15.4610  -41.9640  -33.4620 C   0  0  0  0  0
  -16.0940  -42.9740  -34.1140 C   0  0  0  0  0
  -15.7270  -44.2850  -33.9790 C   0  0  0  0  0
  -14.6040  -44.5850  -33.1990 C   0  0  0  0  0
  -14.3070  -37.8430  -33.2100 C   0  0  0  0  0
  -13.5260  -37.8330  -30.9140 C   0  0  0  0  0
  -12.2350  -37.3510  -28.8900 O   0  0  0  0  0
  -13.2390  -37.0260  -29.7810 N   0  0  0  0  0
  -13.9150  -35.8460  -29.5480 O   0  0  0  0  0
  -13.3730  -39.2270  -30.9450 C   0  0  0  0  0
  -12.8550  -40.0510  -29.7640 C   0  0  0  0  0
  -14.0000  -37.1570  -32.0350 C   0  0  0  0  0
  -14.1360  -39.2250  -33.2440 C   0  0  0  0  0
  -13.5670  -41.2900  -32.1030 N   0  0  0  0  0
  -14.3070  -42.2440  -32.7020 C   0  0  0  0  0
  -13.8920  -43.5830  -32.5600 C   0  0  0  0  0
  -12.7110  -44.0520  -31.7170 C   0  0  0  0  0
  -12.0820  -43.1870  -31.1260 O   0  0  0  0  0
  -13.0454  -45.8288  -32.1947 H   0  0  0  0  0
  -15.8425  -40.9449  -33.5260 H   0  0  0  0  0
  -16.9283  -42.7298  -34.7715 H   0  0  0  0  0
  -16.2953  -45.0768  -34.4670 H   0  0  0  0  0
  -14.2852  -45.6219  -33.0929 H   0  0  0  0  0
  -14.6740  -37.3075  -34.0856 H   0  0  0  0  0
  -13.5922  -40.8095  -29.5007 H   0  0  0  0  0
  -11.9184  -40.5340  -30.0426 H   0  0  0  0  0
  -12.6867  -39.3943  -28.9105 H   0  0  0  0  0
  -14.1331  -36.0759  -31.9938 H   0  0  0  0  0
  -14.3918  -39.7697  -34.1528 H   0  0  0  0  0
  -12.8153  -41.6492  -31.5145 H   0  0  0  0  0
 19  1  1  0  0  0
  2 12  4  0  0  0
  2 15  4  0  0  0
 16  2  1  0  0  0
  3  4  4  0  0  0
 17  3  4  0  0  0
  5  4  4  0  0  0
  6  5  4  0  0  0
 18  6  4  0  0  0
  7 14  4  0  0  0
 15  7  4  0  0  0
  8 10  1  0  0  0
 12  8  4  0  0  0
  8 14  4  0  0  0
 10  9  2  0  0  0
 10 11  2  0  0  0
 12 13  1  0  0  0
 17 16  1  0  0  0
 18 17  4  0  0  0
 18 19  1  0  0  0
 19 20  2  0  0  0
  1 21  1  0  0  0
  3 22  1  0  0  0
  4 23  1  0  0  0
  5 24  1  0  0  0
  6 25  1  0  0  0
  7 26  1  0  0  0
 13 27  1  0  0  0
 13 28  1  0  0  0
 13 29  1  0  0  0
 14 30  1  0  0  0
 15 31  1  0  0  0
 16 32  1  0  0  0
M  END
$$$$
