5l4i_ligand
  -I-interpret- 

 29 30  0  0  0  0  0  0  0  0999 V2000
    0.0610    0.0230    2.0880 O   0  0  0  0  0
    0.0300   -0.0150    3.3820 C   0  0  0  0  0
    0.8250    0.6350    4.1210 O   0  0  0  0  0
   -1.0020   -0.8590    4.0120 C   0  0  0  0  0
   -1.9080   -1.5270    3.1930 C   0  0  0  0  0
   -2.9060   -2.3330    3.7590 C   0  0  0  0  0
   -2.9440   -2.4260    5.1620 C   0  0  0  0  0
   -2.0750   -1.7860    5.9900 N   0  0  0  0  0
   -1.1160   -1.0130    5.4310 C   0  0  0  0  0
   -0.2490   -0.3800    6.2620 N   0  0  0  0  0
   -0.1670   -0.4650    7.6500 C   0  0  0  0  0
    0.0520    0.7340    8.3860 C   0  0  0  0  0
    0.1980    2.0750    7.7490 C   0  0  0  0  0
    0.1290    0.6170    9.7710 C   0  0  0  0  0
    0.4030    2.0390   10.6770 Cl  0  0  0  0  0
    0.0090   -0.5780   10.4630 C   0  0  0  0  0
   -0.2070   -1.7450    9.7250 C   0  0  0  0  0
   -0.2870   -1.6910    8.3350 C   0  0  0  0  0
   -0.6290   -0.5439    1.7357 H   0  0  0  0  0
   -1.8415   -1.4233    2.1100 H   0  0  0  0  0
   -3.6241   -2.8665    3.1363 H   0  0  0  0  0
   -3.7166   -3.0486    5.6131 H   0  0  0  0  0
    0.4285    0.2362    5.8129 H   0  0  0  0  0
    1.0516    2.0629    7.0712 H   0  0  0  0  0
   -0.7078    2.3110    7.1904 H   0  0  0  0  0
    0.3565    2.8275    8.5215 H   0  0  0  0  0
    0.0809   -0.6067   11.5502 H   0  0  0  0  0
   -0.3132   -2.7006   10.2385 H   0  0  0  0  0
   -0.4445   -2.6095    7.7696 H   0  0  0  0  0
  1  2  1  0  0  0
  2  3  2  0  0  0
  2  4  1  0  0  0
  4  5  4  0  0  0
  4  9  4  0  0  0
  5  6  4  0  0  0
  6  7  4  0  0  0
  7  8  4  0  0  0
  8  9  4  0  0  0
  9 10  1  0  0  0
 10 11  1  0  0  0
 11 12  4  0  0  0
 11 18  4  0  0  0
 12 13  1  0  0  0
 12 14  4  0  0  0
 14 15  1  0  0  0
 14 16  4  0  0  0
 16 17  4  0  0  0
 17 18  4  0  0  0
  1 19  1  0  0  0
  5 20  1  0  0  0
  6 21  1  0  0  0
  7 22  1  0  0  0
 10 23  1  0  0  0
 13 24  1  0  0  0
 13 25  1  0  0  0
 13 26  1  0  0  0
 16 27  1  0  0  0
 17 28  1  0  0  0
 18 29  1  0  0  0
M  END
$$$$
