### 
### Created by X-TOOL on Mon Sep 10 21:12:58 2018
### 

@<TRIPOS>MOLECULE
3ds4_ligand
  196   199     1     0     0
SMALL
GAST_HUCK


@<TRIPOS>ATOM
      1 N          14.4140  -10.8550   10.2400 N.4       1 ILE         0.2381
      2 CA         14.4770  -11.2960    8.8110 C.3       1 ILE         0.0676
      3 C          14.7970  -10.1620    7.8530 C.2       1 ILE         0.2270
      4 O          14.6780   -8.9820    8.1850 O.2       1 ILE        -0.3907
      5 CB         13.1870  -12.0160    8.3230 C.3       1 ILE         0.0164
      6 CG1        11.9640  -11.0940    8.4310 C.3       1 ILE        -0.0460
      7 CG2        13.0110  -13.3450    9.0520 C.3       1 ILE        -0.0551
      8 CD1        10.7350  -11.6000    7.7110 C.3       1 ILE        -0.0647
      9 N          15.1840  -10.5580    6.6480 N.am      1 THR        -0.2586
     10 CA         15.5540   -9.6420    5.5910 C.3       1 THR         0.1566
     11 C          14.5360   -9.7060    4.4610 C.2       1 THR         0.2066
     12 O          13.5930  -10.5140    4.4790 O.2       1 THR        -0.3943
     13 CB         16.9190  -10.0310    5.0100 C.3       1 THR         0.0924
     14 OG1        16.7930  -11.2940    4.3440 O.3       1 THR        -0.3874
     15 CG2        17.9730  -10.1280    6.1040 C.3       1 THR        -0.0346
     16 N          14.7270   -8.8380    3.4790 N.am      1 PHE        -0.2619
     17 CA         13.8870   -8.8380    2.2970 C.3       1 PHE         0.1404
     18 C          14.0880  -10.1380    1.5090 C.2       1 PHE         0.2060
     19 O          13.1450  -10.6910    0.9400 O.2       1 PHE        -0.3942
     20 CB         14.1870   -7.6080    1.4350 C.3       1 PHE         0.0214
     21 CG         13.3790   -7.5310    0.1790 C.ar      1 PHE        -0.0386
     22 CD1        11.9940   -7.3970    0.2220 C.ar      1 PHE        -0.0601
     23 CD2        14.0000   -7.5860   -1.0530 C.ar      1 PHE        -0.0601
     24 CE1        11.2410   -7.3280   -0.9540 C.ar      1 PHE        -0.0686
     25 CE2        13.2620   -7.5090   -2.2250 C.ar      1 PHE        -0.0686
     26 CZ         11.8790   -7.3810   -2.1790 C.ar      1 PHE        -0.0687
     27 N          15.3170  -10.6390    1.4900 N.am      1 GLU        -0.2635
     28 CA         15.5850  -11.8990    0.8070 C.3       1 GLU         0.1325
     29 C          14.8250  -13.0520    1.4680 C.2       1 GLU         0.2041
     30 O          14.3100  -13.9400    0.7730 O.2       1 GLU        -0.3944
     31 CB         17.0870  -12.1500    0.7020 C.3       1 GLU        -0.0008
     32 CG         17.7700  -11.1630   -0.2410 C.3       1 GLU         0.0044
     33 CD         19.2780  -11.2930   -0.2500 C.2       1 GLU         0.0350
     34 OE1        19.8340  -11.6650   -1.3030 O.co2     1 GLU        -0.5690
     35 OE2        19.9050  -11.0360    0.7970 O.co2     1 GLU        -0.5690
     36 N          14.7160  -13.0170    2.7970 N.am      1 ASP        -0.2622
     37 CA         13.8910  -13.9950    3.5070 C.3       1 ASP         0.1423
     38 C          12.4360  -13.9250    3.0530 C.2       1 ASP         0.2056
     39 O          11.7790  -14.9570    2.8960 O.2       1 ASP        -0.3943
     40 CB         13.9670  -13.7990    5.0250 C.3       1 ASP         0.0406
     41 CG         15.3460  -14.0870    5.5880 C.2       1 ASP         0.0393
     42 OD1        16.0260  -15.0030    5.0810 O.co2     1 ASP        -0.5688
     43 OD2        15.7360  -13.4040    6.5580 O.co2     1 ASP        -0.5688
     44 N          11.9250  -12.7070    2.8720 N.am      1 LEU        -0.2636
     45 CA         10.5580  -12.5310    2.3840 C.3       1 LEU         0.1312
     46 C          10.3780  -13.0180    0.9470 C.2       1 LEU         0.2039
     47 O           9.3800  -13.6710    0.6280 O.2       1 LEU        -0.3944
     48 CB         10.0910  -11.0840    2.5240 C.3       1 LEU        -0.0101
     49 CG          9.9900  -10.5310    3.9460 C.3       1 LEU        -0.0425
     50 CD1         9.5710   -9.0870    3.9070 C.3       1 LEU        -0.0625
     51 CD2         9.0010  -11.3440    4.7600 C.3       1 LEU        -0.0625
     52 N          11.3600  -12.7140    0.1020 N.am      1 LEU        -0.2637
     53 CA         11.3760  -13.2510   -1.2580 C.3       1 LEU         0.1312
     54 C          11.2990  -14.7820   -1.2390 C.2       1 LEU         0.2040
     55 O          10.5410  -15.3790   -2.0070 O.2       1 LEU        -0.3944
     56 CB         12.6290  -12.8050   -2.0070 C.3       1 LEU        -0.0101
     57 CG         12.7190  -11.3400   -2.4450 C.3       1 LEU        -0.0425
     58 CD1        14.1300  -11.0110   -2.8790 C.3       1 LEU        -0.0625
     59 CD2        11.7420  -11.0280   -3.5640 C.3       1 LEU        -0.0625
     60 N          12.0800  -15.4060   -0.3520 N.am      1 ASP        -0.2622
     61 CA         12.1030  -16.8670   -0.2170 C.3       1 ASP         0.1423
     62 C          10.7810  -17.4300    0.2850 C.2       1 ASP         0.2057
     63 O          10.3920  -18.5360   -0.0920 O.2       1 ASP        -0.3943
     64 CB         13.2070  -17.3170    0.7450 C.3       1 ASP         0.0406
     65 CG         14.6020  -17.0940    0.2060 C.2       1 ASP         0.0393
     66 OD1        14.7630  -16.8960   -1.0140 O.co2     1 ASP        -0.5688
     67 OD2        15.5410  -17.1240    1.0340 O.co2     1 ASP        -0.5688
     68 N          10.1110  -16.6790    1.1580 N.am      1 TYR        -0.2620
     69 CA          8.8690  -17.1090    1.7990 C.3       1 TYR         0.1390
     70 C           7.6810  -17.0440    0.8380 C.2       1 TYR         0.2058
     71 O           6.8720  -17.9750    0.7590 O.2       1 TYR        -0.3942
     72 CB          8.6120  -16.2390    3.0400 C.3       1 TYR         0.0163
     73 CG          7.3580  -16.5580    3.8250 C.ar      1 TYR        -0.0493
     74 CD1         7.3800  -17.4950    4.8590 C.ar      1 TYR        -0.0685
     75 CD2         6.1560  -15.9100    3.5550 C.ar      1 TYR        -0.0685
     76 CE1         6.2350  -17.7760    5.5990 C.ar      1 TYR        -0.0398
     77 CE2         5.0110  -16.1920    4.2760 C.ar      1 TYR        -0.0398
     78 CZ          5.0540  -17.1250    5.3020 C.ar      1 TYR         0.0805
     79 OH          3.9090  -17.3990    6.0170 O.3       1 TYR        -0.3376
     80 N           7.5830  -15.9260    0.1250 N.am      1 TYR        -0.2620
     81 CA          6.4410  -15.6330   -0.7210 C.3       1 TYR         0.1390
     82 C           6.6160  -16.0430   -2.1690 C.2       1 TYR         0.2055
     83 O           5.6300  -16.3670   -2.8330 O.2       1 TYR        -0.3942
     84 CB          6.1570  -14.1400   -0.6920 C.3       1 TYR         0.0163
     85 CG          5.5220  -13.6520    0.5830 C.ar      1 TYR        -0.0493
     86 CD1         6.1860  -12.7500    1.4040 C.ar      1 TYR        -0.0685
     87 CD2         4.2480  -14.0780    0.9610 C.ar      1 TYR        -0.0685
     88 CE1         5.5970  -12.2750    2.5610 C.ar      1 TYR        -0.0398
     89 CE2         3.6450  -13.6060    2.1230 C.ar      1 TYR        -0.0398
     90 CZ          4.3380  -12.7080    2.9210 C.ar      1 TYR         0.0805
     91 OH          3.7770  -12.2230    4.0790 O.3       1 TYR        -0.3376
     92 N           7.8460  -15.9870   -2.6690 N.am      1 GLY        -0.2663
     93 CA          8.0620  -16.0430   -4.1060 C.3       1 GLY         0.1203
     94 C           7.6400  -14.7460   -4.7660 C.2       1 GLY         0.2027
     95 O           7.2570  -13.7800   -4.0870 O.2       1 GLY        -0.3945
     96 N           7.7360  -14.6920   -6.0980 N.am      1 PRO        -0.2558
     97 CA          7.4020  -13.4700   -6.8380 C.3       1 PRO         0.0972
     98 C           5.9200  -13.1070   -6.7900 C.2       1 PRO         0.0603
     99 O           5.5560  -11.9660   -7.1030 O.co2     1 PRO        -0.5666
    100 CB          7.7920  -13.8050   -8.2790 C.3       1 PRO        -0.0159
    101 CG          8.6700  -15.0110   -8.1940 C.3       1 PRO        -0.0288
    102 CD          8.2150  -15.7670   -6.9840 C.3       1 PRO         0.0362
    103 OXT         5.0500  -13.9180   -6.4460 O.co2     1 PRO        -0.5666
    104 H1         15.2775  -10.3985   10.4891 H         1 ILE         0.2015
    105 H2         14.2750  -11.6577   10.8336 H         1 ILE         0.2015
    106 H3         13.6472  -10.2118   10.3597 H         1 ILE         0.2015
    107 H4         15.3002  -12.0227    8.7459 H         1 ILE         0.1101
    108 H5         13.3203  -12.2480    7.2561 H         1 ILE         0.0378
    109 H6         12.2325  -10.1152    8.0069 H         1 ILE         0.0269
    110 H7         11.7148  -10.9764    9.4959 H         1 ILE         0.0269
    111 H8         13.9208  -13.9517    8.9330 H         1 ILE         0.0236
    112 H9         12.1520  -13.8852    8.6274 H         1 ILE         0.0236
    113 H10        12.8335  -13.1562   10.1210 H         1 ILE         0.0236
    114 H11         9.9123  -10.8814    7.8406 H         1 ILE         0.0230
    115 H12        10.4403  -12.5740    8.1287 H         1 ILE         0.0230
    116 H13        10.9580  -11.7128    6.6398 H         1 ILE         0.0230
    117 H14        15.2220  -11.5395    6.4604 H         1 THR         0.1885
    118 H15        15.5985   -8.6197    5.9947 H         1 THR         0.0826
    119 H16        17.2309   -9.2663    4.2834 H         1 THR         0.0639
    120 H17        17.6342  -11.5442    3.9802 H         1 THR         0.2101
    121 H18        18.9391  -10.4078    5.6586 H         1 THR         0.0257
    122 H19        17.6721  -10.8915    6.8364 H         1 THR         0.0257
    123 H20        18.0696   -9.1548    6.6075 H         1 THR         0.0257
    124 H21        15.4660   -8.1686    3.5543 H         1 PHE         0.1885
    125 H22        12.8354   -8.7869    2.6156 H         1 PHE         0.0823
    126 H23        15.2518   -7.6303    1.1599 H         1 PHE         0.0474
    127 H24        13.9816   -6.7082    2.0335 H         1 PHE         0.0474
    128 H25        11.4920   -7.3454    1.1814 H         1 PHE         0.0557
    129 H26        15.0777   -7.6907   -1.1050 H         1 PHE         0.0557
    130 H27        10.1622   -7.2334   -0.9053 H         1 PHE         0.0599
    131 H28        13.7674   -7.5489   -3.1831 H         1 PHE         0.0599
    132 H29        11.3050   -7.3232   -3.0967 H         1 PHE         0.0559
    133 H30        16.0614  -10.1508    1.9455 H         1 GLU         0.1883
    134 H31        15.2010  -11.8069   -0.2197 H         1 GLU         0.0801
    135 H32        17.2505  -13.1707    0.3260 H         1 GLU         0.0330
    136 H33        17.5338  -12.0517    1.7024 H         1 GLU         0.0330
    137 H34        17.5091  -10.1416    0.0731 H         1 GLU         0.0433
    138 H35        17.3979  -11.3393   -1.2610 H         1 GLU         0.0433
    139 H36        15.2040  -12.3139    3.3143 H         1 ASP         0.1884
    140 H37        14.2775  -14.9974    3.2707 H         1 ASP         0.0819
    141 H38        13.2440  -14.4762    5.5032 H         1 ASP         0.0478
    142 H39        13.7031  -12.7569    5.2582 H         1 ASP         0.0478
    143 H40        12.4843  -11.9027    3.0728 H         1 LEU         0.1883
    144 H41         9.9077  -13.1491    3.0204 H         1 LEU         0.0800
    145 H42         9.0939  -11.0094    2.0655 H         1 LEU         0.0315
    146 H43        10.7982  -10.4500    1.9690 H         1 LEU         0.0315
    147 H44        10.9789  -10.5995    4.4228 H         1 LEU         0.0298
    148 H45         9.5010   -8.6977    4.9334 H         1 LEU         0.0232
    149 H46         8.5907   -9.0028    3.4153 H         1 LEU         0.0232
    150 H47        10.3150   -8.5044    3.3439 H         1 LEU         0.0232
    151 H48         9.3200  -12.3965    4.7796 H         1 LEU         0.0232
    152 H49         8.0030  -11.2718    4.3030 H         1 LEU         0.0232
    153 H50         8.9629  -10.9532    5.7875 H         1 LEU         0.0232
    154 H51        12.0980  -12.1093    0.4015 H         1 LEU         0.1883
    155 H52        10.4954  -12.8641   -1.7917 H         1 LEU         0.0800
    156 H53        12.7062  -13.4232   -2.9136 H         1 LEU         0.0315
    157 H54        13.4903  -13.0047   -1.3526 H         1 LEU         0.0315
    158 H55        12.4641  -10.7080   -1.5815 H         1 LEU         0.0298
    159 H56        14.1814   -9.9574   -3.1908 H         1 LEU         0.0232
    160 H57        14.4143  -11.6573   -3.7225 H         1 LEU         0.0232
    161 H58        14.8205  -11.1790   -2.0394 H         1 LEU         0.0232
    162 H59        10.7202  -11.2711   -3.2370 H         1 LEU         0.0232
    163 H60        11.9958  -11.6280   -4.4503 H         1 LEU         0.0232
    164 H61        11.8018   -9.9588   -3.8156 H         1 LEU         0.0232
    165 H62        12.6698  -14.8577    0.2409 H         1 ASP         0.1884
    166 H63        12.3065  -17.2929   -1.2106 H         1 ASP         0.0819
    167 H64        13.0784  -18.3909    0.9453 H         1 ASP         0.0478
    168 H65        13.1020  -16.7537    1.6840 H         1 ASP         0.0478
    169 H66        10.4756  -15.7763    1.3863 H         1 TYR         0.1885
    170 H67         8.9896  -18.1535    2.1222 H         1 TYR         0.0821
    171 H68         8.5449  -15.1921    2.7092 H         1 TYR         0.0453
    172 H69         9.4714  -16.3554    3.7166 H         1 TYR         0.0453
    173 H70         8.3041  -18.0126    5.0897 H         1 TYR         0.0530
    174 H71         6.1172  -15.1699    2.7639 H         1 TYR         0.0530
    175 H72         6.2702  -18.5015    6.4036 H         1 TYR         0.0525
    176 H73         4.0819  -15.6856    4.0405 H         1 TYR         0.0525
    177 H74         4.0994  -18.0531    6.6791 H         1 TYR         0.2458
    178 H75         8.3270  -15.2596    0.1738 H         1 TYR         0.1885
    179 H76         5.5732  -16.1729   -0.3143 H         1 TYR         0.0821
    180 H77         5.4804  -13.9023   -1.5261 H         1 TYR         0.0453
    181 H78         7.1090  -13.6060   -0.8284 H         1 TYR         0.0453
    182 H79         7.1804  -12.4135    1.1338 H         1 TYR         0.0530
    183 H80         3.7183  -14.7897    0.3380 H         1 TYR         0.0530
    184 H81         6.1244  -11.5626    3.1850 H         1 TYR         0.0525
    185 H82         2.6499  -13.9349    2.3999 H         1 TYR         0.0525
    186 H83         3.5887  -12.9463    4.6654 H         1 TYR         0.2458
    187 H84         8.6290  -15.9057   -2.0524 H         1 GLY         0.1881
    188 H85         7.4719  -16.8702   -4.5272 H         1 GLY         0.0763
    189 H86         9.1301  -16.2168   -4.3034 H         1 GLY         0.0763
    190 H87         7.9910  -12.6233   -6.4557 H         1 PRO         0.0728
    191 H88         8.3382  -12.9650   -8.7330 H         1 PRO         0.0306
    192 H89         6.8955  -14.0255   -8.8770 H         1 PRO         0.0306
    193 H90         9.7225  -14.7108   -8.0839 H         1 PRO         0.0286
    194 H91         8.5577  -15.6301   -9.0963 H         1 PRO         0.0286
    195 H92         7.4041  -16.4669   -7.2342 H         1 PRO         0.0524
    196 H93         9.0476  -16.3197   -6.5243 H         1 PRO         0.0524
@<TRIPOS>BOND
     1    1    2 1  
     2    2    3 1  
     3    2    5 1  
     4    3    4 2  
     5    3    9 am 
     6    5    6 1  
     7    5    7 1  
     8    6    8 1  
     9    9   10 1  
    10   10   11 1  
    11   10   13 1  
    12   11   12 2  
    13   11   16 am 
    14   13   14 1  
    15   13   15 1  
    16   16   17 1  
    17   17   18 1  
    18   17   20 1  
    19   18   19 2  
    20   18   27 am 
    21   20   21 1  
    22   21   22 ar 
    23   21   23 ar 
    24   22   24 ar 
    25   23   25 ar 
    26   24   26 ar 
    27   25   26 ar 
    28   27   28 1  
    29   28   29 1  
    30   28   31 1  
    31   29   30 2  
    32   29   36 am 
    33   31   32 1  
    34   32   33 1  
    35   33   34 ar 
    36   33   35 ar 
    37   36   37 1  
    38   37   38 1  
    39   37   40 1  
    40   38   39 2  
    41   38   44 am 
    42   40   41 1  
    43   41   42 ar 
    44   41   43 ar 
    45   44   45 1  
    46   45   46 1  
    47   45   48 1  
    48   46   47 2  
    49   46   52 am 
    50   48   49 1  
    51   49   50 1  
    52   49   51 1  
    53   52   53 1  
    54   53   54 1  
    55   53   56 1  
    56   54   55 2  
    57   54   60 am 
    58   56   57 1  
    59   57   58 1  
    60   57   59 1  
    61   60   61 1  
    62   61   62 1  
    63   61   64 1  
    64   62   63 2  
    65   62   68 am 
    66   64   65 1  
    67   65   66 ar 
    68   65   67 ar 
    69   68   69 1  
    70   69   70 1  
    71   69   72 1  
    72   70   71 2  
    73   70   80 am 
    74   72   73 1  
    75   73   74 ar 
    76   73   75 ar 
    77   74   76 ar 
    78   75   77 ar 
    79   76   78 ar 
    80   77   78 ar 
    81   78   79 1  
    82   80   81 1  
    83   81   82 1  
    84   81   84 1  
    85   82   83 2  
    86   82   92 am 
    87   84   85 1  
    88   85   86 ar 
    89   85   87 ar 
    90   86   88 ar 
    91   87   89 ar 
    92   88   90 ar 
    93   89   90 ar 
    94   90   91 1  
    95   92   93 1  
    96   93   94 1  
    97   94   95 2  
    98   94   96 am 
    99   96   97 1  
   100   96  102 1  
   101   97   98 1  
   102   97  100 1  
   103   98   99 ar 
   104   98  103 ar 
   105  100  101 1  
   106  101  102 1  
   107    1  104 1  
   108    1  105 1  
   109    1  106 1  
   110    2  107 1  
   111    5  108 1  
   112    6  109 1  
   113    6  110 1  
   114    7  111 1  
   115    7  112 1  
   116    7  113 1  
   117    8  114 1  
   118    8  115 1  
   119    8  116 1  
   120    9  117 1  
   121   10  118 1  
   122   13  119 1  
   123   14  120 1  
   124   15  121 1  
   125   15  122 1  
   126   15  123 1  
   127   16  124 1  
   128   17  125 1  
   129   20  126 1  
   130   20  127 1  
   131   22  128 1  
   132   23  129 1  
   133   24  130 1  
   134   25  131 1  
   135   26  132 1  
   136   27  133 1  
   137   28  134 1  
   138   31  135 1  
   139   31  136 1  
   140   32  137 1  
   141   32  138 1  
   142   36  139 1  
   143   37  140 1  
   144   40  141 1  
   145   40  142 1  
   146   44  143 1  
   147   45  144 1  
   148   48  145 1  
   149   48  146 1  
   150   49  147 1  
   151   50  148 1  
   152   50  149 1  
   153   50  150 1  
   154   51  151 1  
   155   51  152 1  
   156   51  153 1  
   157   52  154 1  
   158   53  155 1  
   159   56  156 1  
   160   56  157 1  
   161   57  158 1  
   162   58  159 1  
   163   58  160 1  
   164   58  161 1  
   165   59  162 1  
   166   59  163 1  
   167   59  164 1  
   168   60  165 1  
   169   61  166 1  
   170   64  167 1  
   171   64  168 1  
   172   68  169 1  
   173   69  170 1  
   174   72  171 1  
   175   72  172 1  
   176   74  173 1  
   177   75  174 1  
   178   76  175 1  
   179   77  176 1  
   180   79  177 1  
   181   80  178 1  
   182   81  179 1  
   183   84  180 1  
   184   84  181 1  
   185   86  182 1  
   186   87  183 1  
   187   88  184 1  
   188   89  185 1  
   189   91  186 1  
   190   92  187 1  
   191   93  188 1  
   192   93  189 1  
   193   97  190 1  
   194  100  191 1  
   195  100  192 1  
   196  101  193 1  
   197  101  194 1  
   198  102  195 1  
   199  102  196 1  
@<TRIPOS>SUBSTRUCTURE
     1 ILE         1

