### 
### Created by X-TOOL on Mon Sep 10 21:13:18 2018
### 

@<TRIPOS>MOLECULE
4tk2_ligand
  142   144     1     0     0
SMALL
GAST_HUCK


@<TRIPOS>ATOM
      1 N         -75.8440  -10.0160  -32.3740 N.4       1 PHE         0.2394
      2 CA        -75.0500  -11.2200  -32.1520 C.3       1 PHE         0.0744
      3 C         -75.6470  -12.4250  -32.8650 C.2       1 PHE         0.2289
      4 O         -76.5430  -12.2890  -33.6950 O.2       1 PHE        -0.3905
      5 CB        -74.9040  -11.5130  -30.6470 C.3       1 PHE         0.0416
      6 CG        -76.1660  -12.0240  -29.9720 C.ar      1 PHE        -0.0353
      7 CD1       -77.4290  -11.6190  -30.3810 C.ar      1 PHE        -0.0600
      8 CD2       -76.0730  -12.9070  -28.9060 C.ar      1 PHE        -0.0600
      9 CE1       -78.5690  -12.0940  -29.7490 C.ar      1 PHE        -0.0686
     10 CE2       -77.2080  -13.3810  -28.2700 C.ar      1 PHE        -0.0686
     11 CZ        -78.4570  -12.9740  -28.6910 C.ar      1 PHE        -0.0687
     12 N         -75.1550  -13.6080  -32.5180 N.am      1 ASN        -0.2587
     13 CA        -75.7550  -14.8430  -32.9920 C.3       1 ASN         0.1477
     14 C         -75.5620  -15.9670  -31.9870 C.2       1 ASN         0.2063
     15 O         -74.5730  -16.0010  -31.2530 O.2       1 ASN        -0.3942
     16 CB        -75.1680  -15.2390  -34.3490 C.3       1 ASN         0.0773
     17 CG        -76.2340  -15.3920  -35.4180 C.2       1 ASN         0.1780
     18 OD1       -76.5740  -16.5050  -35.8230 O.2       1 ASN        -0.3970
     19 ND2       -76.7840  -14.2690  -35.8670 N.am      1 ASN        -0.3007
     20 N         -76.5440  -16.8590  -31.9320 N.am      1 ILE        -0.2633
     21 CA        -76.5180  -17.9780  -31.0020 C.3       1 ILE         0.1335
     22 C         -75.4140  -18.9660  -31.3810 C.2       1 ILE         0.2042
     23 O         -74.7220  -19.4990  -30.5130 O.2       1 ILE        -0.3944
     24 CB        -77.8800  -18.7020  -30.9640 C.3       1 ILE        -0.0037
     25 CG1       -78.9950  -17.7320  -30.5670 C.3       1 ILE        -0.0491
     26 CG2       -77.8370  -19.8620  -30.0050 C.3       1 ILE        -0.0582
     27 CD1       -78.8800  -17.1750  -29.1580 C.3       1 ILE        -0.0648
     28 N         -75.2450  -19.2050  -32.6790 N.am      1 VAL        -0.2635
     29 CA        -74.1660  -20.0710  -33.1340 C.3       1 VAL         0.1332
     30 C         -72.8380  -19.3470  -32.9240 C.2       1 VAL         0.2039
     31 O         -72.7130  -18.1510  -33.1980 O.2       1 VAL        -0.3944
     32 CB        -74.3320  -20.5140  -34.6190 C.3       1 VAL        -0.0063
     33 CG1       -75.5790  -21.3800  -34.7940 C.3       1 VAL        -0.0584
     34 CG2       -74.3290  -19.3160  -35.5650 C.3       1 VAL        -0.0584
     35 N         -71.8640  -20.0720  -32.3890 N.am      1 GLY        -0.2664
     36 CA        -70.5840  -19.4880  -32.0430 C.3       1 GLY         0.1201
     37 C         -69.7610  -18.9920  -33.2160 C.2       1 GLY         0.2008
     38 O         -69.4300  -17.8080  -33.2780 O.2       1 GLY        -0.3947
     39 N         -69.4270  -19.9010  -34.1330 N.am      1 THR        -0.2616
     40 CA        -68.5900  -19.6060  -35.3020 C.3       1 THR         0.1565
     41 C         -67.1800  -19.2500  -34.8020 C.2       1 THR         0.2065
     42 O         -66.9520  -19.1260  -33.5960 O.2       1 THR        -0.3943
     43 CB        -69.1910  -18.4690  -36.1790 C.3       1 THR         0.0924
     44 OG1       -70.6010  -18.6690  -36.3190 O.3       1 THR        -0.3874
     45 CG2       -68.5580  -18.4270  -37.5680 C.3       1 THR        -0.0346
     46 N         -66.2310  -19.0990  -35.7170 N.am      1 THR        -0.2613
     47 CA        -64.8550  -18.8230  -35.3300 C.3       1 THR         0.1565
     48 C         -64.1550  -17.9000  -36.3280 C.2       1 THR         0.2066
     49 O         -64.6670  -17.6390  -37.4230 O.2       1 THR        -0.3943
     50 CB        -64.0470  -20.1380  -35.1640 C.3       1 THR         0.0924
     51 OG1       -62.6890  -19.8420  -34.8100 O.3       1 THR        -0.3874
     52 CG2       -64.0720  -20.9630  -36.4370 C.3       1 THR        -0.0346
     53 N         -62.9940  -17.3920  -35.9180 N.am      1 TYR        -0.2620
     54 CA        -62.1410  -16.5650  -36.7660 C.3       1 TYR         0.1392
     55 C         -60.7130  -17.1100  -36.6800 C.2       1 TYR         0.2078
     56 O         -60.3700  -17.7830  -35.7060 O.2       1 TYR        -0.3940
     57 CB        -62.1920  -15.0880  -36.3320 C.3       1 TYR         0.0164
     58 CG        -61.1720  -14.7040  -35.2710 C.ar      1 TYR        -0.0493
     59 CD1       -61.4560  -14.8640  -33.9210 C.ar      1 TYR        -0.0685
     60 CD2       -59.9310  -14.1710  -35.6190 C.ar      1 TYR        -0.0685
     61 CE1       -60.5360  -14.5150  -32.9480 C.ar      1 TYR        -0.0398
     62 CE2       -59.0040  -13.8210  -34.6490 C.ar      1 TYR        -0.0398
     63 CZ        -59.3140  -13.9940  -33.3160 C.ar      1 TYR         0.0805
     64 OH        -58.4020  -13.6480  -32.3440 O.3       1 TYR        -0.3376
     65 N         -59.8890  -16.8450  -37.7120 N.am      1 PRO        -0.2530
     66 CA        -58.4880  -17.2850  -37.7920 C.3       1 PRO         0.1254
     67 C         -57.6380  -16.8600  -36.5970 C.2       1 PRO         0.2151
     68 O         -56.9920  -15.8130  -36.6420 O.co2     1 PRO        -0.4120
     69 CB        -57.9910  -16.6090  -39.0720 C.3       1 PRO        -0.0135
     70 CG        -59.2150  -16.4880  -39.9080 C.3       1 PRO        -0.0287
     71 CD        -60.3060  -16.1530  -38.9450 C.3       1 PRO         0.0363
     72 H         -75.4208   -9.2403  -31.8889 H         1 PHE         0.2017
     73 H         -76.7786  -10.1608  -32.0253 H         1 PHE         0.2017
     74 H         -75.8810   -9.8151  -33.3611 H         1 PHE         0.2017
     75 H         -74.0462  -11.0430  -32.5655 H         1 PHE         0.1122
     76 H         -74.6003  -10.5825  -30.1451 H         1 PHE         0.0507
     77 H         -74.1173  -12.2714  -30.5207 H         1 PHE         0.0507
     78 H         -77.5260  -10.9220  -31.2055 H         1 PHE         0.0557
     79 H         -75.0962  -13.2310  -28.5655 H         1 PHE         0.0557
     80 H         -79.5483  -11.7740  -30.0860 H         1 PHE         0.0599
     81 H         -77.1149  -14.0726  -27.4405 H         1 PHE         0.0599
     82 H         -79.3464  -13.3434  -28.1935 H         1 PHE         0.0559
     83 H         -74.3557  -13.6498  -31.9186 H         1 ASN         0.1886
     84 H         -76.8348  -14.6744  -33.1173 H         1 ASN         0.0826
     85 H         -74.6383  -16.1967  -34.2388 H         1 ASN         0.0551
     86 H         -74.4578  -14.4616  -34.6671 H         1 ASN         0.0551
     87 H         -77.4924  -14.3062  -36.5719 H         1 ASN         0.1814
     88 H         -76.4896  -13.3866  -35.5001 H         1 ASN         0.1814
     89 H         -77.3251  -16.7588  -32.5483 H         1 ILE         0.1883
     90 H         -76.3054  -17.5857  -29.9966 H         1 ILE         0.0803
     91 H         -78.0959  -19.0891  -31.9707 H         1 ILE         0.0345
     92 H         -79.9554  -18.2620  -30.6486 H         1 ILE         0.0267
     93 H         -78.9813  -16.8873  -31.2715 H         1 ILE         0.0267
     94 H         -77.0326  -20.5519  -30.2999 H         1 ILE         0.0235
     95 H         -78.8008  -20.3918  -30.0268 H         1 ILE         0.0235
     96 H         -77.6461  -19.4898  -28.9876 H         1 ILE         0.0235
     97 H         -79.7201  -16.4919  -28.9641 H         1 ILE         0.0230
     98 H         -77.9313  -16.6276  -29.0564 H         1 ILE         0.0230
     99 H         -78.9054  -18.0023  -28.4335 H         1 ILE         0.0230
    100 H         -75.8623  -18.7877  -33.3459 H         1 VAL         0.1883
    101 H         -74.1705  -20.9786  -32.5126 H         1 VAL         0.0802
    102 H         -73.4619  -21.1354  -34.8773 H         1 VAL         0.0343
    103 H         -75.6729  -21.6787  -35.8485 H         1 VAL         0.0234
    104 H         -76.4687  -20.8065  -34.4948 H         1 VAL         0.0234
    105 H         -75.4930  -22.2782  -34.1648 H         1 VAL         0.0234
    106 H         -73.4161  -18.7238  -35.4038 H         1 VAL         0.0234
    107 H         -75.2117  -18.6902  -35.3670 H         1 VAL         0.0234
    108 H         -74.3569  -19.6706  -36.6059 H         1 VAL         0.0234
    109 H         -72.0172  -21.0457  -32.2204 H         1 GLY         0.1881
    110 H         -69.9947  -20.2503  -31.5124 H         1 GLY         0.0763
    111 H         -70.7691  -18.6355  -31.3729 H         1 GLY         0.0763
    112 H         -69.7655  -20.8349  -34.0177 H         1 THR         0.1884
    113 H         -68.5245  -20.5117  -35.9228 H         1 THR         0.0826
    114 H         -69.0096  -17.5063  -35.6787 H         1 THR         0.0639
    115 H         -70.9666  -17.9746  -36.8543 H         1 THR         0.2101
    116 H         -69.0101  -17.6121  -38.1524 H         1 THR         0.0257
    117 H         -68.7320  -19.3852  -38.0794 H         1 THR         0.0257
    118 H         -67.4760  -18.2534  -37.4728 H         1 THR         0.0257
    119 H         -66.4643  -19.1759  -36.6864 H         1 THR         0.1884
    120 H         -64.8780  -18.3120  -34.3562 H         1 THR         0.0826
    121 H         -64.5036  -20.7276  -34.3554 H         1 THR         0.0639
    122 H         -62.2919  -19.3162  -35.4944 H         1 THR         0.2101
    123 H         -63.4922  -21.8857  -36.2873 H         1 THR         0.0257
    124 H         -63.6299  -20.3816  -37.2595 H         1 THR         0.0257
    125 H         -65.1119  -21.2199  -36.6871 H         1 THR         0.0257
    126 H         -62.6923  -17.5865  -34.9846 H         1 TYR         0.1885
    127 H         -62.4915  -16.6357  -37.8062 H         1 TYR         0.0821
    128 H         -63.1961  -14.8822  -35.9329 H         1 TYR         0.0453
    129 H         -62.0151  -14.4632  -37.2199 H         1 TYR         0.0453
    130 H         -62.4163  -15.2698  -33.6239 H         1 TYR         0.0530
    131 H         -59.6870  -14.0279  -36.6655 H         1 TYR         0.0530
    132 H         -60.7756  -14.6509  -31.8996 H         1 TYR         0.0525
    133 H         -58.0414  -13.4138  -34.9365 H         1 TYR         0.0525
    134 H         -58.7700  -13.8292  -31.4871 H         1 TYR         0.2458
    135 H         -58.4404  -18.3800  -37.8850 H         1 PRO         0.0753
    136 O1        -57.5977  -17.5811  -35.5645 O.co2     1 PRO        -0.4120
    137 H         -57.2336  -17.2290  -39.5738 H         1 PRO         0.0307
    138 H         -57.5670  -15.6180  -38.8525 H         1 PRO         0.0307
    139 H         -59.4292  -17.4375  -40.4205 H         1 PRO         0.0286
    140 H         -59.0972  -15.6875  -40.6532 H         1 PRO         0.0286
    141 H         -60.3715  -15.0667  -38.7851 H         1 PRO         0.0524
    142 H         -61.2761  -16.5304  -39.3007 H         1 PRO         0.0524
@<TRIPOS>BOND
     1    1    2 1  
     2    2    3 1  
     3    2    5 1  
     4    3    4 2  
     5    3   12 am 
     6    5    6 1  
     7    6    7 ar 
     8    6    8 ar 
     9    7    9 ar 
    10    8   10 ar 
    11    9   11 ar 
    12   10   11 ar 
    13   12   13 1  
    14   13   14 1  
    15   13   16 1  
    16   14   15 2  
    17   14   20 am 
    18   16   17 1  
    19   17   18 2  
    20   17   19 am 
    21   20   21 1  
    22   21   22 1  
    23   21   24 1  
    24   22   23 2  
    25   22   28 am 
    26   24   25 1  
    27   24   26 1  
    28   25   27 1  
    29   28   29 1  
    30   29   30 1  
    31   29   32 1  
    32   30   31 2  
    33   30   35 am 
    34   32   33 1  
    35   32   34 1  
    36   35   36 1  
    37   36   37 1  
    38   37   38 2  
    39   37   39 am 
    40   39   40 1  
    41   40   41 1  
    42   40   43 1  
    43   41   42 2  
    44   41   46 am 
    45   43   44 1  
    46   43   45 1  
    47   46   47 1  
    48   47   48 1  
    49   47   50 1  
    50   48   49 2  
    51   48   53 am 
    52   50   51 1  
    53   50   52 1  
    54   53   54 1  
    55   54   55 1  
    56   54   57 1  
    57   55   56 2  
    58   55   65 am 
    59   57   58 1  
    60   58   59 ar 
    61   58   60 ar 
    62   59   61 ar 
    63   60   62 ar 
    64   61   63 ar 
    65   62   63 ar 
    66   63   64 1  
    67   65   66 1  
    68   65   71 1  
    69   66   67 1  
    70   66   69 1  
    71   67   68 ar 
    72   69   70 1  
    73   70   71 1  
    74    1   72 1  
    75    1   73 1  
    76    1   74 1  
    77    2   75 1  
    78    5   76 1  
    79    5   77 1  
    80    7   78 1  
    81    8   79 1  
    82    9   80 1  
    83   10   81 1  
    84   11   82 1  
    85   12   83 1  
    86   13   84 1  
    87   16   85 1  
    88   16   86 1  
    89   19   87 1  
    90   19   88 1  
    91   20   89 1  
    92   21   90 1  
    93   24   91 1  
    94   25   92 1  
    95   25   93 1  
    96   26   94 1  
    97   26   95 1  
    98   26   96 1  
    99   27   97 1  
   100   27   98 1  
   101   27   99 1  
   102   28  100 1  
   103   29  101 1  
   104   32  102 1  
   105   33  103 1  
   106   33  104 1  
   107   33  105 1  
   108   34  106 1  
   109   34  107 1  
   110   34  108 1  
   111   35  109 1  
   112   36  110 1  
   113   36  111 1  
   114   39  112 1  
   115   40  113 1  
   116   43  114 1  
   117   44  115 1  
   118   45  116 1  
   119   45  117 1  
   120   45  118 1  
   121   46  119 1  
   122   47  120 1  
   123   50  121 1  
   124   51  122 1  
   125   52  123 1  
   126   52  124 1  
   127   52  125 1  
   128   53  126 1  
   129   54  127 1  
   130   57  128 1  
   131   57  129 1  
   132   59  130 1  
   133   60  131 1  
   134   61  132 1  
   135   62  133 1  
   136   64  134 1  
   137   66  135 1  
   138   67  136 ar 
   139   69  137 1  
   140   69  138 1  
   141   70  139 1  
   142   70  140 1  
   143   71  141 1  
   144   71  142 1  
@<TRIPOS>SUBSTRUCTURE
     1 PHE         1

