4tk2_ligand
  -I-interpret- 

143145  0  0  0  0  0  0  0  0999 V2000
  -75.8440  -10.0160  -32.3740 N   0  3  0  0  0
  -75.0500  -11.2200  -32.1520 C   0  0  0  0  0
  -75.6470  -12.4250  -32.8650 C   0  0  0  0  0
  -76.5430  -12.2890  -33.6950 O   0  0  0  0  0
  -74.9040  -11.5130  -30.6470 C   0  0  0  0  0
  -76.1660  -12.0240  -29.9720 C   0  0  0  0  0
  -77.4290  -11.6190  -30.3810 C   0  0  0  0  0
  -76.0730  -12.9070  -28.9060 C   0  0  0  0  0
  -78.5690  -12.0940  -29.7490 C   0  0  0  0  0
  -77.2080  -13.3810  -28.2700 C   0  0  0  0  0
  -78.4570  -12.9740  -28.6910 C   0  0  0  0  0
  -75.1550  -13.6080  -32.5180 N   0  0  0  0  0
  -75.7550  -14.8430  -32.9920 C   0  0  0  0  0
  -75.5620  -15.9670  -31.9870 C   0  0  0  0  0
  -74.5730  -16.0010  -31.2530 O   0  0  0  0  0
  -75.1680  -15.2390  -34.3490 C   0  0  0  0  0
  -76.2340  -15.3920  -35.4180 C   0  0  0  0  0
  -76.5740  -16.5050  -35.8230 O   0  0  0  0  0
  -76.7840  -14.2690  -35.8670 N   0  0  0  0  0
  -76.5440  -16.8590  -31.9320 N   0  0  0  0  0
  -76.5180  -17.9780  -31.0020 C   0  0  0  0  0
  -75.4140  -18.9660  -31.3810 C   0  0  0  0  0
  -74.7220  -19.4990  -30.5130 O   0  0  0  0  0
  -77.8800  -18.7020  -30.9640 C   0  0  0  0  0
  -78.9950  -17.7320  -30.5670 C   0  0  0  0  0
  -77.8370  -19.8620  -30.0050 C   0  0  0  0  0
  -78.8800  -17.1750  -29.1580 C   0  0  0  0  0
  -75.2450  -19.2050  -32.6790 N   0  0  0  0  0
  -74.1660  -20.0710  -33.1340 C   0  0  0  0  0
  -72.8380  -19.3470  -32.9240 C   0  0  0  0  0
  -72.7130  -18.1510  -33.1980 O   0  0  0  0  0
  -74.3320  -20.5140  -34.6190 C   0  0  0  0  0
  -75.5790  -21.3800  -34.7940 C   0  0  0  0  0
  -74.3290  -19.3160  -35.5650 C   0  0  0  0  0
  -71.8640  -20.0720  -32.3890 N   0  0  0  0  0
  -70.5840  -19.4880  -32.0430 C   0  0  0  0  0
  -69.7610  -18.9920  -33.2160 C   0  0  0  0  0
  -69.4300  -17.8080  -33.2780 O   0  0  0  0  0
  -69.4270  -19.9010  -34.1330 N   0  0  0  0  0
  -68.5900  -19.6060  -35.3020 C   0  0  0  0  0
  -67.1800  -19.2500  -34.8020 C   0  0  0  0  0
  -66.9520  -19.1260  -33.5960 O   0  0  0  0  0
  -69.1910  -18.4690  -36.1790 C   0  0  0  0  0
  -70.6010  -18.6690  -36.3190 O   0  0  0  0  0
  -68.5580  -18.4270  -37.5680 C   0  0  0  0  0
  -66.2310  -19.0990  -35.7170 N   0  0  0  0  0
  -64.8550  -18.8230  -35.3300 C   0  0  0  0  0
  -64.1550  -17.9000  -36.3280 C   0  0  0  0  0
  -64.6670  -17.6390  -37.4230 O   0  0  0  0  0
  -64.0470  -20.1380  -35.1640 C   0  0  0  0  0
  -62.6890  -19.8420  -34.8100 O   0  0  0  0  0
  -64.0720  -20.9630  -36.4370 C   0  0  0  0  0
  -62.9940  -17.3920  -35.9180 N   0  0  0  0  0
  -62.1410  -16.5650  -36.7660 C   0  0  0  0  0
  -60.7130  -17.1100  -36.6800 C   0  0  0  0  0
  -60.3700  -17.7830  -35.7060 O   0  0  0  0  0
  -62.1920  -15.0880  -36.3320 C   0  0  0  0  0
  -61.1720  -14.7040  -35.2710 C   0  0  0  0  0
  -61.4560  -14.8640  -33.9210 C   0  0  0  0  0
  -59.9310  -14.1710  -35.6190 C   0  0  0  0  0
  -60.5360  -14.5150  -32.9480 C   0  0  0  0  0
  -59.0040  -13.8210  -34.6490 C   0  0  0  0  0
  -59.3140  -13.9940  -33.3160 C   0  0  0  0  0
  -58.4020  -13.6480  -32.3440 O   0  0  0  0  0
  -59.8890  -16.8450  -37.7120 N   0  0  0  0  0
  -58.4880  -17.2850  -37.7920 C   0  0  0  0  0
  -57.6380  -16.8600  -36.5970 C   0  0  0  0  0
  -56.9920  -15.8130  -36.6420 O   0  0  0  0  0
  -57.9910  -16.6090  -39.0720 C   0  0  0  0  0
  -59.2150  -16.4880  -39.9080 C   0  0  0  0  0
  -60.3060  -16.1530  -38.9450 C   0  0  0  0  0
  -57.5977  -17.5811  -35.5645 O   0  0  0  0  0
  -75.9258   -9.8441  -33.3761 H   0  0  0  0  0
  -76.7730  -10.1441  -31.9728 H   0  0  0  0  0
  -75.3862   -9.2212  -31.9277 H   0  0  0  0  0
  -74.0608  -11.0357  -32.5711 H   0  0  0  0  0
  -74.6466  -10.5701  -30.1645 H   0  0  0  0  0
  -74.1529  -12.2967  -30.5485 H   0  0  0  0  0
  -77.5265  -10.9182  -31.2101 H   0  0  0  0  0
  -75.0908  -13.2328  -28.5636 H   0  0  0  0  0
  -79.5537  -11.7723  -30.0879 H   0  0  0  0  0
  -77.1144  -14.0764  -27.4359 H   0  0  0  0  0
  -79.3514  -13.3454  -28.1907 H   0  0  0  0  0
  -74.3397  -13.6506  -31.9066 H   0  0  0  0  0
  -76.8251  -14.6716  -33.1089 H   0  0  0  0  0
  -74.6671  -16.2000  -34.2323 H   0  0  0  0  0
  -74.4851  -14.4501  -34.6642 H   0  0  0  0  0
  -77.5178  -14.3078  -36.5744 H   0  0  0  0  0
  -76.4725  -13.3680  -35.5043 H   0  0  0  0  0
  -77.3407  -16.7568  -32.5606 H   0  0  0  0  0
  -76.3122  -17.5790  -30.0087 H   0  0  0  0  0
  -78.0894  -19.0834  -31.9634 H   0  0  0  0  0
  -79.9310  -18.2887  -30.6127 H   0  0  0  0  0
  -78.9357  -16.8840  -31.2493 H   0  0  0  0  0
  -77.0701  -20.5676  -30.3245 H   0  0  0  0  0
  -77.6026  -19.4967  -29.0052 H   0  0  0  0  0
  -78.8073  -20.3585  -29.9936 H   0  0  0  0  0
  -78.9053  -17.9957  -28.4411 H   0  0  0  0  0
  -77.9396  -16.6329  -29.0586 H   0  0  0  0  0
  -79.7129  -16.4983  -28.9671 H   0  0  0  0  0
  -75.8747  -18.7793  -33.3592 H   0  0  0  0  0
  -74.1921  -20.9884  -32.5459 H   0  0  0  0  0
  -73.4702  -21.1260  -34.8853 H   0  0  0  0  0
  -75.4925  -22.2695  -34.1700 H   0  0  0  0  0
  -76.4598  -20.8106  -34.4971 H   0  0  0  0  0
  -75.6710  -21.6753  -35.8392 H   0  0  0  0  0
  -75.1535  -18.6505  -35.3091 H   0  0  0  0  0
  -73.3846  -18.7805  -35.4680 H   0  0  0  0  0
  -74.4468  -19.6646  -36.5910 H   0  0  0  0  0
  -72.0203  -21.0652  -32.2170 H   0  0  0  0  0
  -70.0014  -20.2742  -31.5627 H   0  0  0  0  0
  -70.7952  -18.6190  -31.4198 H   0  0  0  0  0
  -69.7722  -20.8536  -34.0154 H   0  0  0  0  0
  -68.5444  -20.4841  -35.9462 H   0  0  0  0  0
  -68.9835  -17.5223  -35.6801 H   0  0  0  0  0
  -70.9704  -17.9673  -36.8600 H   0  0  0  0  0
  -67.4859  -18.2549  -37.4723 H   0  0  0  0  0
  -68.7311  -19.3770  -38.0736 H   0  0  0  0  0
  -69.0067  -17.6192  -38.1461 H   0  0  0  0  0
  -66.4690  -19.1774  -36.7057 H   0  0  0  0  0
  -64.8942  -18.3102  -34.3690 H   0  0  0  0  0
  -64.5136  -20.7183  -34.3680 H   0  0  0  0  0
  -62.1996  -20.6618  -34.7101 H   0  0  0  0  0
  -65.1029  -21.2169  -36.6837 H   0  0  0  0  0
  -63.6338  -20.3858  -37.2512 H   0  0  0  0  0
  -63.4972  -21.8770  -36.2875 H   0  0  0  0  0
  -62.6863  -17.5903  -34.9660 H   0  0  0  0  0
  -62.4945  -16.6057  -37.7963 H   0  0  0  0  0
  -63.1786  -14.9169  -35.9014 H   0  0  0  0  0
  -61.9724  -14.4890  -37.2158 H   0  0  0  0  0
  -62.4216  -15.2721  -33.6223 H   0  0  0  0  0
  -59.6857  -14.0272  -36.6713 H   0  0  0  0  0
  -60.7769  -14.6517  -31.8938 H   0  0  0  0  0
  -58.0361  -13.4116  -34.9381 H   0  0  0  0  0
  -57.6082  -13.3035  -32.7597 H   0  0  0  0  0
  -58.4120  -18.3724  -37.7928 H   0  0  0  0  0
  -57.2062  -17.1820  -39.5659 H   0  0  0  0  0
  -57.5247  -15.6433  -38.8770 H   0  0  0  0  0
  -59.4251  -17.4078  -40.4539 H   0  0  0  0  0
  -59.1057  -15.7241  -40.6778 H   0  0  0  0  0
  -60.4284  -15.0791  -38.8043 H   0  0  0  0  0
  -61.2884  -16.4707  -39.2945 H   0  0  0  0  0
  -58.1528  -18.3537  -35.6932 H   0  0  0  0  0
  1  2  1  0  0  0
  2  3  1  0  0  0
  2  5  1  0  0  0
  3  4  2  0  0  0
  3 12  1  0  0  0
  5  6  1  0  0  0
  6  7  4  0  0  0
  6  8  4  0  0  0
  7  9  4  0  0  0
  8 10  4  0  0  0
  9 11  4  0  0  0
 10 11  4  0  0  0
 12 13  1  0  0  0
 13 14  1  0  0  0
 13 16  1  0  0  0
 14 15  2  0  0  0
 14 20  1  0  0  0
 16 17  1  0  0  0
 17 18  2  0  0  0
 17 19  1  0  0  0
 20 21  1  0  0  0
 21 22  1  0  0  0
 21 24  1  0  0  0
 22 23  2  0  0  0
 22 28  1  0  0  0
 24 25  1  0  0  0
 24 26  1  0  0  0
 25 27  1  0  0  0
 28 29  1  0  0  0
 29 30  1  0  0  0
 29 32  1  0  0  0
 30 31  2  0  0  0
 30 35  1  0  0  0
 32 33  1  0  0  0
 32 34  1  0  0  0
 35 36  1  0  0  0
 36 37  1  0  0  0
 37 38  2  0  0  0
 37 39  1  0  0  0
 39 40  1  0  0  0
 40 41  1  0  0  0
 40 43  1  0  0  0
 41 42  2  0  0  0
 41 46  1  0  0  0
 43 44  1  0  0  0
 43 45  1  0  0  0
 46 47  1  0  0  0
 47 48  1  0  0  0
 47 50  1  0  0  0
 48 49  2  0  0  0
 48 53  1  0  0  0
 50 51  1  0  0  0
 50 52  1  0  0  0
 53 54  1  0  0  0
 54 55  1  0  0  0
 54 57  1  0  0  0
 55 56  2  0  0  0
 55 65  1  0  0  0
 57 58  1  0  0  0
 58 59  4  0  0  0
 58 60  4  0  0  0
 59 61  4  0  0  0
 60 62  4  0  0  0
 61 63  4  0  0  0
 62 63  4  0  0  0
 63 64  1  0  0  0
 65 66  1  0  0  0
 65 71  1  0  0  0
 66 67  1  0  0  0
 66 69  1  0  0  0
 67 68  2  0  0  0
 69 70  1  0  0  0
 70 71  1  0  0  0
 67 72  1  0  0  0
  1 73  1  0  0  0
  1 74  1  0  0  0
  1 75  1  0  0  0
  2 76  1  0  0  0
  5 77  1  0  0  0
  5 78  1  0  0  0
  7 79  1  0  0  0
  8 80  1  0  0  0
  9 81  1  0  0  0
 10 82  1  0  0  0
 11 83  1  0  0  0
 12 84  1  0  0  0
 13 85  1  0  0  0
 16 86  1  0  0  0
 16 87  1  0  0  0
 19 88  1  0  0  0
 19 89  1  0  0  0
 20 90  1  0  0  0
 21 91  1  0  0  0
 24 92  1  0  0  0
 25 93  1  0  0  0
 25 94  1  0  0  0
 26 95  1  0  0  0
 26 96  1  0  0  0
 26 97  1  0  0  0
 27 98  1  0  0  0
 27 99  1  0  0  0
 27100  1  0  0  0
 28101  1  0  0  0
 29102  1  0  0  0
 32103  1  0  0  0
 33104  1  0  0  0
 33105  1  0  0  0
 33106  1  0  0  0
 34107  1  0  0  0
 34108  1  0  0  0
 34109  1  0  0  0
 35110  1  0  0  0
 36111  1  0  0  0
 36112  1  0  0  0
 39113  1  0  0  0
 40114  1  0  0  0
 43115  1  0  0  0
 44116  1  0  0  0
 45117  1  0  0  0
 45118  1  0  0  0
 45119  1  0  0  0
 46120  1  0  0  0
 47121  1  0  0  0
 50122  1  0  0  0
 51123  1  0  0  0
 52124  1  0  0  0
 52125  1  0  0  0
 52126  1  0  0  0
 53127  1  0  0  0
 54128  1  0  0  0
 57129  1  0  0  0
 57130  1  0  0  0
 59131  1  0  0  0
 60132  1  0  0  0
 61133  1  0  0  0
 62134  1  0  0  0
 64135  1  0  0  0
 66136  1  0  0  0
 69137  1  0  0  0
 69138  1  0  0  0
 70139  1  0  0  0
 70140  1  0  0  0
 71141  1  0  0  0
 71142  1  0  0  0
 72143  1  0  0  0
M  END
$$$$
