2x4t_ligand
  -I-interpret- 

141140  0  0  0  0  0  0  0  0999 V2000
   22.0570   34.6260   43.9840 N   0  3  0  0  0
   23.3540   34.8670   44.6080 C   0  0  0  0  0
   24.4500   35.1020   43.5690 C   0  0  0  0  0
   24.8430   34.1750   42.8660 O   0  0  0  0  0
   23.7270   33.6820   45.5010 C   0  0  0  0  0
   24.9110   33.9780   46.4140 C   0  0  0  0  0
   25.9380   34.5000   45.9790 O   0  0  0  0  0
   24.7720   33.6280   47.6890 N   0  0  0  0  0
   24.9460   36.3350   43.4930 N   0  0  0  0  0
   25.9570   36.7270   42.5130 C   0  0  0  0  0
   27.2020   35.8470   42.4640 C   0  0  0  0  0
   27.4260   35.0030   43.3320 O   0  0  0  0  0
   26.3960   38.1610   42.7690 C   0  0  0  0  0
   25.3330   39.1940   42.4390 C   0  0  0  0  0
   25.8240   40.5810   42.7800 C   0  0  0  0  0
   24.9910   39.0990   40.9790 C   0  0  0  0  0
   28.0180   36.0760   41.4360 N   0  0  0  0  0
   29.2990   35.3870   41.2790 C   0  0  0  0  0
   30.3950   36.1570   42.0120 C   0  0  0  0  0
   30.2700   37.3630   42.2370 O   0  0  0  0  0
   29.6950   35.2280   39.7840 C   0  0  0  0  0
   30.4100   36.4730   39.2900 C   0  0  0  0  0
   30.5790   34.0120   39.5830 C   0  0  0  0  0
   34.8590   39.0930   43.3630 O   0  0  0  0  0
   34.3480   38.0200   43.0570 C   0  0  0  0  0
   33.0950   37.6230   43.8380 C   0  0  0  0  0
   32.9680   38.4670   44.9960 O   0  0  0  0  0
   33.0580   36.1570   44.3000 C   0  0  0  0  0
   34.0540   35.3660   43.6400 O   0  0  0  0  0
   31.6730   35.5230   44.1130 C   0  0  0  0  0
   31.3780   35.3330   42.6970 N   0  0  0  0  0
   34.4700   37.5250   41.6800 N   0  0  0  0  0
   35.6910   37.7420   40.8900 C   0  0  0  0  0
   36.0360   39.2420   40.7490 C   0  0  0  0  0
   36.6800   39.7860   41.6520 O   0  0  0  0  0
   35.6350   37.0160   39.5350 C   0  0  0  0  0
   35.1730   35.5670   39.5880 C   0  0  0  0  0
   35.1830   34.8350   37.9370 S   0  0  0  0  0
   34.4660   33.2290   38.2770 C   0  0  0  0  0
   35.6540   39.9270   39.6610 N   0  0  0  0  0
   35.0350   39.3900   38.4440 C   0  0  0  0  0
   35.9330   39.7510   37.2660 C   0  0  0  0  0
   36.0680   40.9280   36.9350 O   0  0  0  0  0
   33.6480   40.0110   38.1930 C   0  0  0  0  0
   33.0940   39.5620   36.8490 C   0  0  0  0  0
   32.6970   39.6360   39.3070 C   0  0  0  0  0
   36.5450   38.7510   36.6330 N   0  0  0  0  0
   37.6010   39.0080   35.6410 C   0  0  0  0  0
   37.2300   40.0690   34.5890 C   0  0  0  0  0
   36.0850   40.1350   34.1420 O   0  0  0  0  0
   38.0360   37.7100   34.9740 C   0  0  0  0  0
   38.1930   40.9080   34.2100 N   0  0  0  0  0
   37.9560   41.9360   33.1900 C   0  0  0  0  0
   38.4030   41.4560   31.8160 C   0  0  0  0  0
   39.1870   40.5070   31.7130 O   0  0  0  0  0
   38.6680   43.2680   33.5020 C   0  0  0  0  0
   40.0530   43.0200   33.7530 O   0  0  0  0  0
   38.0500   43.9460   34.7130 C   0  0  0  0  0
   37.9000   42.1180   30.7690 N   0  0  0  0  0
   38.1460   41.7090   29.3840 C   0  0  0  0  0
   39.5710   42.0140   28.9520 C   0  0  0  0  0
   40.1720   43.0090   29.3730 O   0  0  0  0  0
   37.1800   42.3910   28.3780 C   0  0  0  0  0
   35.7480   41.8660   28.5380 C   0  0  0  0  0
   37.2390   43.9090   28.5170 C   0  0  0  0  0
   40.1370   41.2600   28.1580 O   0  0  0  0  0
   21.8141   35.4190   43.3903 H   0  0  0  0  0
   22.1054   33.7786   43.4184 H   0  0  0  0  0
   21.3482   34.5126   44.7087 H   0  0  0  0  0
   23.2710   35.7714   45.2107 H   0  0  0  0  0
   24.0056   32.8511   44.8529 H   0  0  0  0  0
   22.8674   33.4570   46.1324 H   0  0  0  0  0
   25.5335   33.7895   48.3481 H   0  0  0  0  0
   23.9039   33.1979   48.0081 H   0  0  0  0  0
   24.6050   37.0382   44.1485 H   0  0  0  0  0
   25.4631   36.6105   41.5483 H   0  0  0  0  0
   27.2532   38.3589   42.1254 H   0  0  0  0  0
   26.6164   38.2490   43.8329 H   0  0  0  0  0
   24.4393   38.9980   43.0314 H   0  0  0  0  0
   26.0522   40.6327   43.8446 H   0  0  0  0  0
   26.7230   40.7988   42.2034 H   0  0  0  0  0
   25.0499   41.3090   42.5372 H   0  0  0  0  0
   25.8847   39.2891   40.3847 H   0  0  0  0  0
   24.6130   38.1004   40.7599 H   0  0  0  0  0
   24.2280   39.8388   40.7370 H   0  0  0  0  0
   27.7387   36.7582   40.7310 H   0  0  0  0  0
   29.1884   34.3903   41.7062 H   0  0  0  0  0
   28.7803   35.0900   39.2074 H   0  0  0  0  0
   29.7502   37.3344   39.3932 H   0  0  0  0  0
   31.3117   36.6314   39.8816 H   0  0  0  0  0
   30.6797   36.3438   38.2418 H   0  0  0  0  0
   31.4868   34.1223   40.1762 H   0  0  0  0  0
   30.0424   33.1179   39.9004 H   0  0  0  0  0
   30.8408   33.9250   38.5285 H   0  0  0  0  0
   32.2663   37.7485   43.1412 H   0  0  0  0  0
   32.1814   38.2184   45.4870 H   0  0  0  0  0
   33.2796   36.1711   45.3671 H   0  0  0  0  0
   34.0006   34.4600   43.9529 H   0  0  0  0  0
   30.9219   36.1856   44.5430 H   0  0  0  0  0
   31.6608   34.5521   44.6082 H   0  0  0  0  0
   31.8713   34.6074   42.1769 H   0  0  0  0  0
   33.6895   37.0188   41.2617 H   0  0  0  0  0
   36.5141   37.2932   41.4461 H   0  0  0  0  0
   36.6535   37.0035   39.1468 H   0  0  0  0  0
   34.9078   37.5520   38.9251 H   0  0  0  0  0
   34.1573   35.5346   39.9823 H   0  0  0  0  0
   35.8517   35.0033   40.2281 H   0  0  0  0  0
   35.0915   32.6978   38.9943 H   0  0  0  0  0
   33.4662   33.3592   38.6912 H   0  0  0  0  0
   34.4055   32.6563   37.3516 H   0  0  0  0  0
   35.8115   40.9345   39.6820 H   0  0  0  0  0
   34.9167   38.3124   38.5577 H   0  0  0  0  0
   33.7542   41.0957   38.1742 H   0  0  0  0  0
   33.7710   39.8769   36.0549 H   0  0  0  0  0
   33.0016   38.4760   36.8400 H   0  0  0  0  0
   32.1139   40.0126   36.6926 H   0  0  0  0  0
   32.5998   38.5512   39.3502 H   0  0  0  0  0
   33.0869   40.0052   40.2556 H   0  0  0  0  0
   31.7211   40.0822   39.1155 H   0  0  0  0  0
   36.2764   37.7890   36.8400 H   0  0  0  0  0
   38.4386   39.4285   36.1976 H   0  0  0  0  0
   38.4197   37.0252   35.7303 H   0  0  0  0  0
   37.1813   37.2568   34.4719 H   0  0  0  0  0
   38.8173   37.9221   34.2441 H   0  0  0  0  0
   39.1157   40.8341   34.6384 H   0  0  0  0  0
   36.8807   42.1144   33.1959 H   0  0  0  0  0
   38.5557   43.9278   32.6417 H   0  0  0  0  0
   40.4954   43.8496   33.9471 H   0  0  0  0  0
   36.9975   44.1497   34.5161 H   0  0  0  0  0
   38.1387   43.2906   35.5794 H   0  0  0  0  0
   38.5721   44.8825   34.9093 H   0  0  0  0  0
   37.3220   42.9405   30.9414 H   0  0  0  0  0
   37.9734   40.6329   29.3685 H   0  0  0  0  0
   39.6041   43.4925   29.9774 H   0  0  0  0  0
   37.5062   42.1358   27.3697 H   0  0  0  0  0
   35.7344   40.7909   28.3587 H   0  0  0  0  0
   35.3980   42.0713   29.5497 H   0  0  0  0  0
   35.0974   42.3639   27.8190 H   0  0  0  0  0
   36.9506   44.1913   29.5295 H   0  0  0  0  0
   38.2545   44.2516   28.3183 H   0  0  0  0  0
   36.5539   44.3649   27.8022 H   0  0  0  0  0
  2  1  1  0  0  0
  3  2  1  0  0  0
  2  5  1  0  0  0
  3  4  2  0  0  0
  9  3  1  0  0  0
  5  6  1  0  0  0
  6  7  2  0  0  0
  6  8  1  0  0  0
 10  9  1  0  0  0
 11 10  1  0  0  0
 10 13  1  0  0  0
 11 12  2  0  0  0
 17 11  1  0  0  0
 13 14  1  0  0  0
 14 15  1  0  0  0
 14 16  1  0  0  0
 18 17  1  0  0  0
 19 18  1  0  0  0
 18 21  1  0  0  0
 19 20  2  0  0  0
 31 19  1  0  0  0
 21 22  1  0  0  0
 21 23  1  0  0  0
 25 24  2  0  0  0
 26 25  1  0  0  0
 25 32  1  0  0  0
 26 27  1  0  0  0
 28 26  1  0  0  0
 28 29  1  0  0  0
 30 28  1  0  0  0
 30 31  1  0  0  0
 32 33  1  0  0  0
 33 34  1  0  0  0
 33 36  1  0  0  0
 34 35  2  0  0  0
 34 40  1  0  0  0
 36 37  1  0  0  0
 37 38  1  0  0  0
 38 39  1  0  0  0
 40 41  1  0  0  0
 41 42  1  0  0  0
 41 44  1  0  0  0
 42 43  2  0  0  0
 42 47  1  0  0  0
 44 45  1  0  0  0
 44 46  1  0  0  0
 47 48  1  0  0  0
 48 49  1  0  0  0
 48 51  1  0  0  0
 49 50  2  0  0  0
 49 52  1  0  0  0
 52 53  1  0  0  0
 53 54  1  0  0  0
 53 56  1  0  0  0
 54 55  2  0  0  0
 54 59  1  0  0  0
 56 57  1  0  0  0
 56 58  1  0  0  0
 59 60  1  0  0  0
 60 61  1  0  0  0
 60 63  1  0  0  0
 61 62  1  0  0  0
 61 66  2  0  0  0
 63 64  1  0  0  0
 63 65  1  0  0  0
  1 67  1  0  0  0
  1 68  1  0  0  0
  1 69  1  0  0  0
  2 70  1  0  0  0
  5 71  1  0  0  0
  5 72  1  0  0  0
  8 73  1  0  0  0
  8 74  1  0  0  0
  9 75  1  0  0  0
 10 76  1  0  0  0
 13 77  1  0  0  0
 13 78  1  0  0  0
 14 79  1  0  0  0
 15 80  1  0  0  0
 15 81  1  0  0  0
 15 82  1  0  0  0
 16 83  1  0  0  0
 16 84  1  0  0  0
 16 85  1  0  0  0
 17 86  1  0  0  0
 18 87  1  0  0  0
 21 88  1  0  0  0
 22 89  1  0  0  0
 22 90  1  0  0  0
 22 91  1  0  0  0
 23 92  1  0  0  0
 23 93  1  0  0  0
 23 94  1  0  0  0
 26 95  1  0  0  0
 27 96  1  0  0  0
 28 97  1  0  0  0
 29 98  1  0  0  0
 30 99  1  0  0  0
 30100  1  0  0  0
 31101  1  0  0  0
 32102  1  0  0  0
 33103  1  0  0  0
 36104  1  0  0  0
 36105  1  0  0  0
 37106  1  0  0  0
 37107  1  0  0  0
 39108  1  0  0  0
 39109  1  0  0  0
 39110  1  0  0  0
 40111  1  0  0  0
 41112  1  0  0  0
 44113  1  0  0  0
 45114  1  0  0  0
 45115  1  0  0  0
 45116  1  0  0  0
 46117  1  0  0  0
 46118  1  0  0  0
 46119  1  0  0  0
 47120  1  0  0  0
 48121  1  0  0  0
 51122  1  0  0  0
 51123  1  0  0  0
 51124  1  0  0  0
 52125  1  0  0  0
 53126  1  0  0  0
 56127  1  0  0  0
 57128  1  0  0  0
 58129  1  0  0  0
 58130  1  0  0  0
 58131  1  0  0  0
 59132  1  0  0  0
 60133  1  0  0  0
 62134  1  0  0  0
 63135  1  0  0  0
 64136  1  0  0  0
 64137  1  0  0  0
 64138  1  0  0  0
 65139  1  0  0  0
 65140  1  0  0  0
 65141  1  0  0  0
M  END
$$$$
