### 
### Created by X-TOOL on Mon Sep 10 21:13:03 2018
### 

@<TRIPOS>MOLECULE
2x4t_ligand
  140   139     1     0     0
SMALL
GAST_HUCK


@<TRIPOS>ATOM
      1 N          22.0570   34.6260   43.9840 N.4       1 ASN         0.2396
      2 CA         23.3540   34.8670   44.6080 C.3       1 ASN         0.0818
      3 C          24.4500   35.1020   43.5690 C.2       1 ASN         0.2291
      4 O          24.8430   34.1750   42.8660 O.2       1 ASN        -0.3905
      5 CB         23.7270   33.6820   45.5010 C.3       1 ASN         0.0972
      6 CG         24.9110   33.9780   46.4140 C.2       1 ASN         0.1813
      7 OD1        25.9380   34.5000   45.9790 O.2       1 ASN        -0.3969
      8 ND2        24.7720   33.6280   47.6890 N.am      1 ASN        -0.3006
      9 N          24.9460   36.3350   43.4930 N.am      1 LEU        -0.2609
     10 CA         25.9570   36.7270   42.5130 C.3       1 LEU         0.1313
     11 C          27.2020   35.8470   42.4640 C.2       1 LEU         0.2039
     12 O          27.4260   35.0030   43.3320 O.2       1 LEU        -0.3944
     13 CB         26.3960   38.1610   42.7690 C.3       1 LEU        -0.0101
     14 CG         25.3330   39.1940   42.4390 C.3       1 LEU        -0.0425
     15 CD1        25.8240   40.5810   42.7800 C.3       1 LEU        -0.0625
     16 CD2        24.9910   39.0990   40.9790 C.3       1 LEU        -0.0625
     17 N          28.0180   36.0760   41.4360 N.am      1 VAL        -0.2635
     18 CA         29.2990   35.3870   41.2790 C.3       1 VAL         0.1331
     19 C          30.3950   36.1570   42.0120 C.2       1 VAL         0.2020
     20 O          30.2700   37.3630   42.2370 O.2       1 VAL        -0.3945
     21 CB         29.6950   35.2280   39.7840 C.3       1 VAL        -0.0063
     22 CG1        30.4100   36.4730   39.2900 C.3       1 VAL        -0.0584
     23 CG2        30.5790   34.0120   39.5830 C.3       1 VAL        -0.0584
     24 O7         34.8590   39.0930   43.3630 O.2       1 PRW        -0.3940
     25 C5         34.3480   38.0200   43.0570 C.2       1 PRW         0.2098
     26 C4         33.0950   37.6230   43.8380 C.3       1 PRW         0.1712
     27 O6         32.9680   38.4670   44.9960 O.3       1 PRW        -0.3687
     28 C3         33.0580   36.1570   44.3000 C.3       1 PRW         0.1180
     29 O8         34.0540   35.3660   43.6400 O.3       1 PRW        -0.3848
     30 C2         31.6730   35.5230   44.1130 C.3       1 PRW         0.0615
     31 N1         31.3780   35.3330   42.6970 N.am      1 PRW        -0.2823
     32 N          34.4700   37.5250   41.6800 N.am      1 MET        -0.2634
     33 CA         35.6910   37.7420   40.8900 C.3       1 MET         0.1317
     34 C          36.0360   39.2420   40.7490 C.2       1 MET         0.2039
     35 O          36.6800   39.7860   41.6520 O.2       1 MET        -0.3944
     36 CB         35.6350   37.0160   39.5350 C.3       1 MET        -0.0034
     37 CG         35.1730   35.5670   39.5880 C.3       1 MET        -0.0024
     38 SD         35.1830   34.8350   37.9370 S.3       1 MET        -0.1639
     39 CE         34.4660   33.2290   38.2770 C.3       1 MET        -0.0181
     40 N          35.6540   39.9270   39.6610 N.am      1 VAL        -0.2635
     41 CA         35.0350   39.3900   38.4440 C.3       1 VAL         0.1332
     42 C          35.9330   39.7510   37.2660 C.2       1 VAL         0.2041
     43 O          36.0680   40.9280   36.9350 O.2       1 VAL        -0.3944
     44 CB         33.6480   40.0110   38.1930 C.3       1 VAL        -0.0063
     45 CG1        33.0940   39.5620   36.8490 C.3       1 VAL        -0.0584
     46 CG2        32.6970   39.6360   39.3070 C.3       1 VAL        -0.0584
     47 N          36.5450   38.7510   36.6330 N.am      1 ALA        -0.2640
     48 CA         37.6010   39.0080   35.6410 C.3       1 ALA         0.1282
     49 C          37.2300   40.0690   34.5890 C.2       1 ALA         0.2037
     50 O          36.0850   40.1350   34.1420 O.2       1 ALA        -0.3944
     51 CB         38.0360   37.7100   34.9740 C.3       1 ALA        -0.0244
     52 N          38.1930   40.9080   34.2100 N.am      1 THR        -0.2613
     53 CA         37.9560   41.9360   33.1900 C.3       1 THR         0.1564
     54 C          38.4030   41.4560   31.8160 C.2       1 THR         0.2059
     55 O          39.1870   40.5070   31.7130 O.2       1 THR        -0.3943
     56 CB         38.6680   43.2680   33.5020 C.3       1 THR         0.0924
     57 OG1        40.0530   43.0200   33.7530 O.3       1 THR        -0.3874
     58 CG2        38.0500   43.9460   34.7130 C.3       1 THR        -0.0346
     59 N          37.9000   42.1180   30.7690 N.am      1 VAL        -0.2692
     60 CA         38.1460   41.7090   29.3840 C.3       1 VAL         0.0967
     61 C          39.5710   42.0140   28.9520 C.2       1 VAL         0.0603
     62 O          40.1720   43.0090   29.3730 O.co2     1 VAL        -0.5666
     63 CB         37.1800   42.3910   28.3780 C.3       1 VAL        -0.0118
     64 CG1        35.7480   41.8660   28.5380 C.3       1 VAL        -0.0590
     65 CG2        37.2390   43.9090   28.5170 C.3       1 VAL        -0.0590
     66 OXT        40.1370   41.2600   28.1580 O.co2     1 VAL        -0.5666
     67 H1         21.3627   34.4760   44.6992 H         1 ASN         0.2017
     68 H2         22.1140   33.8102   43.3948 H         1 ASN         0.2017
     69 H3         21.7983   35.4254   43.4271 H         1 ASN         0.2017
     70 H4         23.2738   35.7679   45.2340 H         1 ASN         0.1125
     71 H5         23.9836   32.8260   44.8596 H         1 ASN         0.0585
     72 H6         22.8582   33.4253   46.1249 H         1 ASN         0.0585
     73 H7         25.5144   33.7963   48.3375 H         1 ASN         0.1814
     74 H8         23.9250   33.1965   47.9996 H         1 ASN         0.1814
     75 H9         24.6117   37.0244   44.1356 H         1 LEU         0.1885
     76 H10        25.4818   36.6789   41.5221 H         1 LEU         0.0800
     77 H11        27.2836   38.3675   42.1530 H         1 LEU         0.0315
     78 H12        26.6571   38.2594   43.8330 H         1 LEU         0.0315
     79 H13        24.4311   38.9826   43.0322 H         1 LEU         0.0298
     80 H14        25.0436   41.3166   42.5354 H         1 LEU         0.0232
     81 H15        26.7313   40.8020   42.1987 H         1 LEU         0.0232
     82 H16        26.0546   40.6346   43.8542 H         1 LEU         0.0232
     83 H17        24.6360   38.0831   40.7509 H         1 LEU         0.0232
     84 H18        25.8856   39.3184   40.3778 H         1 LEU         0.0232
     85 H19        24.2009   39.8259   40.7394 H         1 LEU         0.0232
     86 H20        27.7442   36.7448   40.7448 H         1 VAL         0.1883
     87 H21        29.2098   34.3849   41.7238 H         1 VAL         0.0802
     88 H22        28.7765   35.0932   39.1940 H         1 VAL         0.0343
     89 H23        30.6827   36.3438   38.2322 H         1 VAL         0.0234
     90 H24        31.3203   36.6340   39.8862 H         1 VAL         0.0234
     91 H25        29.7451   37.3431   39.3936 H         1 VAL         0.0234
     92 H26        30.0550   33.1143   39.9429 H         1 VAL         0.0234
     93 H27        31.5144   34.1414   40.1471 H         1 VAL         0.0234
     94 H28        30.8086   33.8984   38.5133 H         1 VAL         0.0234
     95 H29        32.2285   37.7888   43.1810 H         1 PRW         0.0865
     96 H30        32.8970   39.3732   44.7197 H         1 PRW         0.2134
     97 H31        33.2844   36.1487   45.3764 H         1 PRW         0.0665
     98 H32        34.0011   34.4694   43.9496 H         1 PRW         0.2102
     99 H33        30.9116   36.1826   44.5547 H         1 PRW         0.0548
    100 H34        31.6515   34.5471   44.6201 H         1 PRW         0.0548
    101 H35        31.8616   34.6216   42.1871 H         1 PRW         0.1852
    102 H36        33.7048   37.0287   41.2699 H         1 MET         0.1883
    103 H37        36.5163   37.2846   41.4553 H         1 MET         0.0800
    104 H38        36.6445   37.0343   39.0985 H         1 MET         0.0320
    105 H39        34.9432   37.5688   38.8824 H         1 MET         0.0320
    106 H40        34.1516   35.5280   39.9944 H         1 MET         0.0378
    107 H41        35.8494   34.9956   40.2407 H         1 MET         0.0378
    108 H42        34.4044   32.6500   37.3438 H         1 MET         0.0340
    109 H43        33.4569   33.3590   38.6951 H         1 MET         0.0340
    110 H44        35.0964   32.6918   39.0008 H         1 MET         0.0340
    111 H45        35.8084   40.9148   39.6816 H         1 VAL         0.1883
    112 H46        34.9390   38.2976   38.5302 H         1 VAL         0.0802
    113 H47        33.7539   41.1058   38.1776 H         1 VAL         0.0343
    114 H48        32.1048   40.0161   36.6900 H         1 VAL         0.0234
    115 H49        33.0002   38.4661   36.8387 H         1 VAL         0.0234
    116 H50        33.7763   39.8793   36.0466 H         1 VAL         0.0234
    117 H51        33.1119   39.9673   40.2704 H         1 VAL         0.0234
    118 H52        32.5619   38.5444   39.3219 H         1 VAL         0.0234
    119 H53        31.7253   40.1235   39.1393 H         1 VAL         0.0234
    120 H54        36.2817   37.8079   36.8359 H         1 ALA         0.1883
    121 H55        38.4673   39.4002   36.1939 H         1 ALA         0.0797
    122 H56        38.8245   37.9228   34.2371 H         1 ALA         0.0277
    123 H57        37.1742   37.2516   34.4668 H         1 ALA         0.0277
    124 H58        38.4236   37.0180   35.7362 H         1 ALA         0.0277
    125 H59        39.0976   40.8356   34.6300 H         1 THR         0.1884
    126 H60        36.8734   42.1277   33.1565 H         1 THR         0.0826
    127 H61        38.5716   43.9351   32.6327 H         1 THR         0.0639
    128 H62        40.4908   43.8409   33.9451 H         1 THR         0.2101
    129 H63        38.5760   44.8913   34.9122 H         1 THR         0.0257
    130 H64        38.1389   43.2856   35.5881 H         1 THR         0.0257
    131 H65        36.9877   44.1521   34.5155 H         1 THR         0.0257
    132 H66        37.3333   42.9244   30.9380 H         1 VAL         0.1875
    133 H67        37.9906   40.6215   29.3271 H         1 VAL         0.0729
    134 H68        37.5169   42.1346   27.3627 H         1 VAL         0.0336
    135 H69        35.0904   42.3677   27.8129 H         1 VAL         0.0234
    136 H70        35.3936   42.0727   29.5586 H         1 VAL         0.0234
    137 H71        35.7328   40.7811   28.3572 H         1 VAL         0.0234
    138 H72        38.2785   44.2481   28.3968 H         1 VAL         0.0234
    139 H73        36.8709   44.2007   29.5117 H         1 VAL         0.0234
    140 H74        36.6102   44.3728   27.7428 H         1 VAL         0.0234
@<TRIPOS>BOND
     1    2    1 1  
     2    3    2 1  
     3    2    5 1  
     4    3    4 2  
     5    9    3 am 
     6    5    6 1  
     7    6    7 2  
     8    6    8 am 
     9   10    9 1  
    10   11   10 1  
    11   10   13 1  
    12   11   12 2  
    13   17   11 am 
    14   13   14 1  
    15   14   15 1  
    16   14   16 1  
    17   18   17 1  
    18   19   18 1  
    19   18   21 1  
    20   19   20 2  
    21   31   19 am 
    22   21   22 1  
    23   21   23 1  
    24   25   24 2  
    25   26   25 1  
    26   25   32 am 
    27   26   27 1  
    28   28   26 1  
    29   28   29 1  
    30   30   28 1  
    31   30   31 1  
    32   32   33 1  
    33   33   34 1  
    34   33   36 1  
    35   34   35 2  
    36   34   40 am 
    37   36   37 1  
    38   37   38 1  
    39   38   39 1  
    40   40   41 1  
    41   41   42 1  
    42   41   44 1  
    43   42   43 2  
    44   42   47 am 
    45   44   45 1  
    46   44   46 1  
    47   47   48 1  
    48   48   49 1  
    49   48   51 1  
    50   49   50 2  
    51   49   52 am 
    52   52   53 1  
    53   53   54 1  
    54   53   56 1  
    55   54   55 2  
    56   54   59 am 
    57   56   57 1  
    58   56   58 1  
    59   59   60 1  
    60   60   61 1  
    61   60   63 1  
    62   61   62 ar 
    63   61   66 ar 
    64   63   64 1  
    65   63   65 1  
    66    1   67 1  
    67    1   68 1  
    68    1   69 1  
    69    2   70 1  
    70    5   71 1  
    71    5   72 1  
    72    8   73 1  
    73    8   74 1  
    74    9   75 1  
    75   10   76 1  
    76   13   77 1  
    77   13   78 1  
    78   14   79 1  
    79   15   80 1  
    80   15   81 1  
    81   15   82 1  
    82   16   83 1  
    83   16   84 1  
    84   16   85 1  
    85   17   86 1  
    86   18   87 1  
    87   21   88 1  
    88   22   89 1  
    89   22   90 1  
    90   22   91 1  
    91   23   92 1  
    92   23   93 1  
    93   23   94 1  
    94   26   95 1  
    95   27   96 1  
    96   28   97 1  
    97   29   98 1  
    98   30   99 1  
    99   30  100 1  
   100   31  101 1  
   101   32  102 1  
   102   33  103 1  
   103   36  104 1  
   104   36  105 1  
   105   37  106 1  
   106   37  107 1  
   107   39  108 1  
   108   39  109 1  
   109   39  110 1  
   110   40  111 1  
   111   41  112 1  
   112   44  113 1  
   113   45  114 1  
   114   45  115 1  
   115   45  116 1  
   116   46  117 1  
   117   46  118 1  
   118   46  119 1  
   119   47  120 1  
   120   48  121 1  
   121   51  122 1  
   122   51  123 1  
   123   51  124 1  
   124   52  125 1  
   125   53  126 1  
   126   56  127 1  
   127   57  128 1  
   128   58  129 1  
   129   58  130 1  
   130   58  131 1  
   131   59  132 1  
   132   60  133 1  
   133   63  134 1  
   134   64  135 1  
   135   64  136 1  
   136   64  137 1  
   137   65  138 1  
   138   65  139 1  
   139   65  140 1  
@<TRIPOS>SUBSTRUCTURE
     1 ASN         1

