4e0x_ligand
  -I-interpret- 

 31 31  0  0  0  0  0  0  0  0999 V2000
   -1.0010   33.9300  105.1160 N   0  3  0  0  0
   -0.2730   33.4800  103.8940 C   0  0  0  0  0
   -0.8970   34.9250  100.2650 C   0  0  0  0  0
    1.1020   33.8750  101.3370 C   0  0  0  0  0
   -2.0260   34.9940  104.7060 C   0  0  0  0  0
   -1.5320   35.4610  103.3190 C   0  0  0  0  0
   -0.4430   36.5550  103.4010 C   0  0  0  0  0
   -0.9960   34.1370  102.7120 C   0  0  0  0  0
   -0.9270   37.9700  103.7000 C   0  0  0  0  0
   -0.1820   34.2810  101.4390 C   0  0  0  0  0
   -3.4730   34.3790  104.6920 C   0  0  0  0  0
   -3.5340   33.2340  105.2410 O   0  0  0  0  0
   -0.0120   38.7730  104.0680 O   0  0  0  0  0
   -2.1640   38.2200  103.5730 O   0  0  0  0  0
   -4.4110   35.0340  104.1600 O   0  0  0  0  0
   -0.3427   34.3215  105.7896 H   0  0  0  0  0
   -1.4752   33.1384  105.5506 H   0  0  0  0  0
   -0.2771   32.3935  103.8073 H   0  0  0  0  0
    0.7770   33.7708  103.9281 H   0  0  0  0  0
   -0.3677   35.8316   99.9718 H   0  0  0  0  0
   -0.9180   34.2280   99.4273 H   0  0  0  0  0
   -1.9170   35.1763  100.5559 H   0  0  0  0  0
    1.5994   33.4201  102.1936 H   0  0  0  0  0
    1.6409   34.0023  100.3981 H   0  0  0  0  0
   -2.0992   35.8362  105.3940 H   0  0  0  0  0
   -2.3097   35.9379  102.7225 H   0  0  0  0  0
    0.0214   36.5951  102.4157 H   0  0  0  0  0
    0.2064   36.2750  104.2304 H   0  0  0  0  0
   -1.7967   33.5090  102.3213 H   0  0  0  0  0
   -2.6626   32.9856  105.5582 H   0  0  0  0  0
    0.8312   38.3142  104.0746 H   0  0  0  0  0
  2  1  1  0  0  0
  5  1  1  0  0  0
  8  2  1  0  0  0
 10  3  1  0  0  0
 10  4  2  0  0  0
  6  5  1  0  0  0
  5 11  1  0  0  0
  6  7  1  0  0  0
  8  6  1  0  0  0
  7  9  1  0  0  0
  8 10  1  0  0  0
  9 13  1  0  0  0
  9 14  2  0  0  0
 11 12  1  0  0  0
 11 15  2  0  0  0
  1 16  1  0  0  0
  1 17  1  0  0  0
  2 18  1  0  0  0
  2 19  1  0  0  0
  3 20  1  0  0  0
  3 21  1  0  0  0
  3 22  1  0  0  0
  4 23  1  0  0  0
  4 24  1  0  0  0
  5 25  1  0  0  0
  6 26  1  0  0  0
  7 27  1  0  0  0
  7 28  1  0  0  0
  8 29  1  0  0  0
 12 30  1  0  0  0
 13 31  1  0  0  0
M  END
$$$$
