5wyr_ligand
  -I-interpret- 

 52 54  0  0  0  0  0  0  0  0999 V2000
  -28.8500   12.0590  -31.9100 N   0  3  0  0  0
  -29.7280   13.0560  -31.2920 C   0  0  0  0  0
  -28.9820   14.4040  -31.2610 C   0  0  0  0  0
  -27.7540   14.4020  -31.0090 O   0  0  0  0  0
  -29.6780   15.4220  -31.4560 O   0  0  0  0  0
  -30.1490   12.7120  -29.8440 C   0  0  0  0  0
  -30.7300   11.2990  -29.6940 C   0  0  0  0  0
  -30.9090   10.9790  -28.1990 C   0  0  0  0  0
  -29.7340   10.2550  -27.7660 N   0  3  0  0  0
  -32.1590   10.1080  -27.9550 C   0  0  0  0  0
  -33.4490   10.9060  -27.5960 C   0  0  0  0  0
  -33.3820   11.6270  -26.3210 O   0  0  0  0  0
  -33.8100   11.9450  -28.6060 C   0  0  0  0  0
  -34.4580   11.3240  -29.6930 O   0  0  0  0  0
  -34.7160   12.8950  -27.8070 C   0  0  0  0  0
  -36.0980   12.4050  -27.8090 O   0  0  0  0  0
  -34.1690   12.8100  -26.3880 C   0  0  0  0  0
  -33.2940   13.9260  -25.9770 N   0  0  0  0  0
  -31.9920   13.8000  -25.6850 C   0  0  0  0  0
  -31.5430   14.9680  -25.2360 N   0  0  0  0  0
  -32.5890   15.8190  -25.1860 C   0  0  0  0  0
  -32.7170   17.0700  -24.7080 C   0  0  0  0  0
  -31.6070   17.7180  -24.3310 N   0  0  0  0  0
  -33.8370   17.7610  -24.8410 N   0  0  0  0  0
  -35.1030   17.1520  -25.2490 C   0  0  0  0  0
  -34.8850   15.7340  -25.6060 N   0  0  0  0  0
  -33.6810   15.1470  -25.5820 C   0  0  0  0  0
  -28.6169   12.3541  -32.8582 H   0  0  0  0  0
  -27.9955   11.9726  -31.3598 H   0  0  0  0  0
  -29.3285   11.1587  -31.9407 H   0  0  0  0  0
  -30.6378   13.0875  -31.8915 H   0  0  0  0  0
  -27.4522   13.4971  -30.9007 H   0  0  0  0  0
  -30.9263   13.4183  -29.5525 H   0  0  0  0  0
  -29.2558   12.7666  -29.2216 H   0  0  0  0  0
  -30.0501   10.5752  -30.1434 H   0  0  0  0  0
  -31.6957   11.2461  -30.1968 H   0  0  0  0  0
  -31.0373   11.9074  -27.6425 H   0  0  0  0  0
  -29.8221   10.0274  -26.7756 H   0  0  0  0  0
  -29.6474    9.3949  -28.3074 H   0  0  0  0  0
  -28.9068   10.8340  -27.9107 H   0  0  0  0  0
  -31.9364    9.4651  -27.1034 H   0  0  0  0  0
  -32.3626    9.5776  -28.8852 H   0  0  0  0  0
  -34.1928   10.1104  -27.5523 H   0  0  0  0  0
  -32.9713   12.4832  -29.0476 H   0  0  0  0  0
  -34.6925   11.9876  -30.3458 H   0  0  0  0  0
  -34.7222   13.9046  -28.2179 H   0  0  0  0  0
  -36.6509   13.0080  -27.3067 H   0  0  0  0  0
  -35.0323   12.8320  -25.7229 H   0  0  0  0  0
  -31.4001   12.8916  -25.7970 H   0  0  0  0  0
  -30.6982   17.2617  -24.4105 H   0  0  0  0  0
  -31.6705   18.6677  -23.9644 H   0  0  0  0  0
  -36.0632   17.6666  -25.2845 H   0  0  0  0  0
  1  2  1  0  0  0
  2  3  1  0  0  0
  2  6  1  0  0  0
  3  4  1  0  0  0
  3  5  2  0  0  0
  6  7  1  0  0  0
  7  8  1  0  0  0
  8  9  1  0  0  0
  8 10  1  0  0  0
 10 11  1  0  0  0
 11 12  1  0  0  0
 11 13  1  0  0  0
 12 17  1  0  0  0
 13 14  1  0  0  0
 13 15  1  0  0  0
 15 16  1  0  0  0
 15 17  1  0  0  0
 17 18  1  0  0  0
 18 19  4  0  0  0
 18 27  4  0  0  0
 19 20  4  0  0  0
 20 21  4  0  0  0
 21 22  4  0  0  0
 21 27  4  0  0  0
 22 23  1  0  0  0
 22 24  4  0  0  0
 24 25  4  0  0  0
 25 26  4  0  0  0
 26 27  4  0  0  0
  1 28  1  0  0  0
  1 29  1  0  0  0
  1 30  1  0  0  0
  2 31  1  0  0  0
  4 32  1  0  0  0
  6 33  1  0  0  0
  6 34  1  0  0  0
  7 35  1  0  0  0
  7 36  1  0  0  0
  8 37  1  0  0  0
  9 38  1  0  0  0
  9 39  1  0  0  0
  9 40  1  0  0  0
 10 41  1  0  0  0
 10 42  1  0  0  0
 11 43  1  0  0  0
 13 44  1  0  0  0
 14 45  1  0  0  0
 15 46  1  0  0  0
 16 47  1  0  0  0
 17 48  1  0  0  0
 19 49  1  0  0  0
 23 50  1  0  0  0
 23 51  1  0  0  0
 25 52  1  0  0  0
M  END
$$$$
