3t2w_ligand
  -I-interpret- 

 32 33  0  0  0  0  0  0  0  0999 V2000
   -6.4190  -26.4210   -3.9230 C   0  0  0  0  0
   -6.6420  -27.6440   -3.7260 O   0  0  0  0  0
   -6.9470  -25.8890   -4.9220 O   0  0  0  0  0
   -5.5200  -25.6040   -3.0020 C   0  0  0  0  0
   -5.5530  -25.9500   -1.5090 C   0  0  0  0  0
   -6.9470  -25.8560   -0.8700 C   0  0  0  0  0
   -6.9460  -26.2140    0.6170 C   0  0  0  0  0
   -8.3630  -25.9720    1.2150 C   0  0  0  0  0
   -8.8250  -24.3380    1.3950 S   0  0  0  0  0
  -10.3160  -24.9010    2.2590 C   0  0  0  0  0
   -9.8080  -25.9850    3.2360 C   0  0  0  0  0
   -9.2650  -25.4600    4.4710 N   0  0  0  0  0
   -7.9570  -25.7900    4.5540 C   0  0  0  0  0
   -7.1920  -25.4290    5.6400 O   0  0  0  0  0
   -7.5250  -26.4390    3.4910 N   0  0  0  0  0
   -8.6090  -26.6730    2.5540 C   0  0  0  0  0
   -6.1822  -27.9282   -2.9326 H   0  0  0  0  0
   -5.8740  -24.5758   -3.0766 H   0  0  0  0  0
   -4.4997  -25.8020   -3.3304 H   0  0  0  0  0
   -4.9161  -25.2280   -0.9979 H   0  0  0  0  0
   -5.2243  -26.9847   -1.4118 H   0  0  0  0  0
   -7.5966  -26.5655   -1.3826 H   0  0  0  0  0
   -7.2872  -24.8247   -0.9637 H   0  0  0  0  0
   -6.2216  -25.5888    1.1390 H   0  0  0  0  0
   -6.6777  -27.2637    0.7361 H   0  0  0  0  0
   -8.9859  -26.4190    0.4402 H   0  0  0  0  0
  -11.0661  -25.2897    1.5703 H   0  0  0  0  0
  -10.8207  -24.0861    2.7780 H   0  0  0  0  0
  -10.6606  -26.6242    3.4653 H   0  0  0  0  0
   -9.7860  -24.9266    5.1670 H   0  0  0  0  0
   -6.5601  -26.7364    3.3464 H   0  0  0  0  0
   -8.7380  -27.7343    2.3414 H   0  0  0  0  0
  1  2  1  0  0  0
  1  3  2  0  0  0
  1  4  1  0  0  0
  4  5  1  0  0  0
  5  6  1  0  0  0
  6  7  1  0  0  0
  7  8  1  0  0  0
  8  9  1  0  0  0
  8 16  1  0  0  0
  9 10  1  0  0  0
 10 11  1  0  0  0
 11 12  1  0  0  0
 11 16  1  0  0  0
 12 13  1  0  0  0
 13 14  2  0  0  0
 13 15  1  0  0  0
 15 16  1  0  0  0
  2 17  1  0  0  0
  4 18  1  0  0  0
  4 19  1  0  0  0
  5 20  1  0  0  0
  5 21  1  0  0  0
  6 22  1  0  0  0
  6 23  1  0  0  0
  7 24  1  0  0  0
  7 25  1  0  0  0
  8 26  1  0  0  0
 10 27  1  0  0  0
 10 28  1  0  0  0
 11 29  1  0  0  0
 12 30  1  0  0  0
 15 31  1  0  0  0
 16 32  1  0  0  0
M  END
$$$$
