3zqi_ligand
  -I-interpret- 

245251  0  0  0  0  0  0  0  0999 V2000
   -7.0100   28.9280  -55.4760 N   0  3  0  0  0
   -7.4200   27.4610  -55.4770 C   0  0  0  0  0
   -8.3730   26.9500  -54.3590 C   0  0  0  0  0
   -8.0070   26.8430  -53.1600 O   0  0  0  0  0
   -6.2130   26.5650  -55.6670 C   0  0  0  0  0
   -6.5330   25.2010  -55.5030 O   0  0  0  0  0
   -9.5830   26.6000  -54.7850 N   0  0  0  0  0
  -10.5850   26.0530  -53.8750 C   0  0  0  0  0
  -10.0470   24.7470  -53.2500 C   0  0  0  0  0
  -10.1770   24.5020  -52.0400 O   0  0  0  0  0
  -11.9560   25.7470  -54.6120 C   0  0  0  0  0
  -12.9210   24.9910  -53.7450 C   0  0  0  0  0
  -12.6630   27.0470  -55.2240 C   0  0  0  0  0
   -9.4320   23.9040  -54.0730 N   0  0  0  0  0
   -8.9660   22.5550  -53.6980 C   0  0  0  0  0
   -7.8750   22.6770  -52.6470 C   0  0  0  0  0
   -7.8410   21.9640  -51.6220 O   0  0  0  0  0
   -8.3790   21.9250  -54.9770 C   0  0  0  0  0
   -8.4900   20.4130  -55.0870 C   0  0  0  0  0
   -8.8680   20.0650  -56.5200 C   0  0  0  0  0
   -7.2230   19.6890  -54.6590 C   0  0  0  0  0
   -6.9840   23.6250  -52.8830 N   0  0  0  0  0
   -5.8780   23.8940  -51.9840 C   0  0  0  0  0
   -6.3450   24.3880  -50.6250 C   0  0  0  0  0
   -5.8390   23.9360  -49.5800 O   0  0  0  0  0
   -4.9340   24.9020  -52.6090 C   0  0  0  0  0
   -7.3580   25.2650  -50.6530 N   0  0  0  0  0
   -7.9040   25.8500  -49.4140 C   0  0  0  0  0
   -8.6510   24.8000  -48.6260 C   0  0  0  0  0
   -8.5020   24.7150  -47.4150 O   0  0  0  0  0
   -8.7460   27.0790  -49.6950 C   0  0  0  0  0
   -9.4370   23.9720  -49.3050 N   0  0  0  0  0
  -10.2060   22.8850  -48.6230 C   0  0  0  0  0
   -9.2720   21.8790  -47.9970 C   0  0  0  0  0
   -9.5830   21.4210  -46.9120 O   0  0  0  0  0
  -11.1430   22.1900  -49.6350 C   0  0  0  0  0
  -12.1320   21.1580  -49.0350 C   0  0  0  0  0
  -13.0670   20.6160  -50.1200 C   0  0  0  0  0
  -13.8730   21.6790  -50.7210 N   0  0  0  0  0
  -14.1550   21.7860  -52.0100 C   0  0  0  0  0
  -13.6570   20.9400  -52.8930 N   0  0  0  0  0
  -14.9150   22.7820  -52.3910 N   0  0  0  0  0
   -8.1330   21.5720  -48.6470 N   0  0  0  0  0
   -7.2420   20.5180  -48.1550 C   0  0  0  0  0
   -6.6270   20.9650  -46.8650 C   0  0  0  0  0
   -6.1200   20.1050  -46.1150 O   0  0  0  0  0
   -6.1830   20.1800  -49.1780 C   0  0  0  0  0
   -6.6490   22.2510  -46.5390 N   0  0  0  0  0
   -6.0840   22.8080  -45.3640 C   0  0  0  0  0
   -7.0680   22.9170  -44.2060 C   0  0  0  0  0
   -6.6150   23.1590  -43.0740 O   0  0  0  0  0
   -5.4730   24.1960  -45.5850 C   0  0  0  0  0
   -4.2130   24.1940  -46.4320 C   0  0  0  0  0
   -3.9200   25.6150  -46.9650 C   0  0  0  0  0
   -3.5870   26.4980  -45.8330 N   0  0  0  0  0
   -2.3940   26.6150  -45.2360 C   0  0  0  0  0
   -1.3370   25.8580  -45.5690 N   0  0  0  0  0
   -2.2750   27.4690  -44.2090 N   0  0  0  0  0
   -8.3640   22.7440  -44.4530 N   0  0  0  0  0
   -9.3920   22.8660  -43.4590 C   0  0  0  0  0
   -9.3360   21.5160  -42.6680 C   0  0  0  0  0
   -9.0580   20.4220  -43.2130 O   0  0  0  0  0
  -10.7370   22.8920  -44.1200 C   0  0  0  0  0
  -10.9870   24.2710  -44.8460 C   0  0  0  0  0
  -12.6080   24.2540  -45.6770 S   0  0  0  0  0
  -12.5330   25.9570  -46.3170 C   0  0  0  0  0
   -9.5940   21.6360  -41.3690 N   0  0  0  0  0
   -9.5320   20.4290  -40.4830 C   0  0  0  0  0
  -10.5780   19.4330  -40.8830 C   0  0  0  0  0
  -11.7450   19.7280  -41.1470 O   0  0  0  0  0
   -9.7190   20.8990  -39.0640 C   0  0  0  0  0
   -9.6270   19.7260  -38.0700 C   0  0  0  0  0
   -8.5170   19.1590  -37.6240 C   0  0  0  0  0
  -10.7520   19.0690  -37.4400 C   0  0  0  0  0
   -8.8170   18.1350  -36.7640 N   0  0  0  0  0
  -10.1830   18.0720  -36.5950 C   0  0  0  0  0
  -12.1280   19.2350  -37.4660 C   0  0  0  0  0
  -10.9610   17.2300  -35.8180 C   0  0  0  0  0
  -12.9150   18.3440  -36.6680 C   0  0  0  0  0
  -12.3220   17.4060  -35.8750 C   0  0  0  0  0
  -10.1440   18.1680  -40.7970 N   0  0  0  0  0
  -11.0320   17.0710  -41.0070 C   0  0  0  0  0
  -10.7460   16.0750  -39.8790 C   0  0  0  0  0
   -9.6060   15.7450  -39.6170 O   0  0  0  0  0
  -10.7300   16.4000  -42.3860 C   0  0  0  0  0
  -11.7620   15.2400  -42.7490 C   0  0  0  0  0
  -11.3950   14.4600  -44.3390 S   0  0  0  0  0
  -11.8010   15.8720  -45.4690 C   0  0  0  0  0
  -11.8190   15.5530  -39.3020 N   0  0  0  0  0
  -11.6340   14.5140  -38.2930 C   0  0  0  0  0
  -11.1330   13.2450  -38.9200 C   0  0  0  0  0
  -11.1410   13.0430  -40.1050 O   0  0  0  0  0
  -12.8880   14.2700  -37.4200 C   0  0  0  0  0
  -14.0620   13.6610  -38.1930 C   0  0  0  0  0
  -14.4320   12.3780  -38.1310 C   0  0  0  0  0
  -14.9850   14.3540  -39.0860 C   0  0  0  0  0
  -15.5560   12.1990  -38.9480 N   0  0  0  0  0
  -15.8840   13.3850  -39.5560 C   0  0  0  0  0
  -15.1060   15.7080  -39.5170 C   0  0  0  0  0
  -16.9470   13.6970  -40.4660 C   0  0  0  0  0
  -16.1230   16.0370  -40.4220 C   0  0  0  0  0
  -17.0360   15.0150  -40.8630 C   0  0  0  0  0
  -10.6930   12.3750  -38.0360 N   0  0  0  0  0
   -9.8850   11.1720  -38.4600 C   0  0  0  0  0
  -10.1810    9.9870  -37.5670 C   0  0  0  0  0
   -9.3030    9.3050  -37.0330 O   0  0  0  0  0
   -8.3880   11.5250  -38.5570 C   0  0  0  0  0
   -7.8580   12.3960  -37.4460 C   0  0  0  0  0
   -7.2350   11.8990  -36.3550 N   0  0  0  0  0
   -7.9000   13.7660  -37.3350 C   0  0  0  0  0
   -6.8150   12.9530  -35.6010 C   0  0  0  0  0
   -7.2310   14.0750  -36.1820 N   0  0  0  0  0
  -11.4820    9.7000  -37.4940 N   0  0  0  0  0
  -12.0530    8.5820  -36.7170 C   0  0  0  0  0
  -13.5030    8.3820  -37.1590 C   0  0  0  0  0
  -14.1110    7.4070  -36.6350 O   0  0  0  0  0
  -11.9650    8.8460  -35.1680 C   0  0  0  0  0
  -12.6430   10.1550  -34.8240 C   0  0  0  0  0
  -13.9800   10.3520  -34.5790 C   0  0  0  0  0
  -12.0020   11.4200  -34.5520 C   0  0  0  0  0
  -14.2080   11.6900  -34.2520 N   0  0  0  0  0
  -13.0420   12.3810  -34.2750 C   0  0  0  0  0
  -10.6620   11.8640  -34.6420 C   0  0  0  0  0
  -12.7740   13.6950  -33.8920 C   0  0  0  0  0
  -10.3290   13.1810  -34.3250 C   0  0  0  0  0
  -11.4360   14.1120  -33.9180 C   0  0  0  0  0
  -14.0190    9.2260  -37.9330 O   0  0  0  0  0
   -7.8371   29.5108  -55.3470 H   0  0  0  0  0
   -6.3524   29.0955  -54.7145 H   0  0  0  0  0
   -6.5670   29.1566  -56.3659 H   0  0  0  0  0
   -8.0799   27.3981  -56.3423 H   0  0  0  0  0
   -5.4697   26.8323  -54.9159 H   0  0  0  0  0
   -5.8407   26.7071  -56.6815 H   0  0  0  0  0
   -5.7432   24.6705  -55.6313 H   0  0  0  0  0
   -9.8167   26.7165  -55.7710 H   0  0  0  0  0
  -10.7769   26.8006  -53.1054 H   0  0  0  0  0
  -11.6764   25.1098  -55.4509 H   0  0  0  0  0
  -12.4770   24.0391  -53.4538 H   0  0  0  0  0
  -13.1430   25.5776  -52.8536 H   0  0  0  0  0
  -13.8411   24.8094  -54.3005 H   0  0  0  0  0
  -12.8759   27.7545  -54.4226 H   0  0  0  0  0
  -11.9988   27.5110  -55.9531 H   0  0  0  0  0
  -13.5939   26.7573  -55.7114 H   0  0  0  0  0
   -9.2706   24.2113  -55.0321 H   0  0  0  0  0
   -9.7760   21.9488  -53.2923 H   0  0  0  0  0
   -7.3133   22.1538  -54.9694 H   0  0  0  0  0
   -8.9501   22.3351  -55.8099 H   0  0  0  0  0
   -9.2623   20.0725  -54.3973 H   0  0  0  0  0
   -9.8230   20.5295  -56.7655 H   0  0  0  0  0
   -8.0981   20.4343  -57.1974 H   0  0  0  0  0
   -8.9526   18.9829  -56.6195 H   0  0  0  0  0
   -6.3935   20.0066  -55.2908 H   0  0  0  0  0
   -7.0022   19.9297  -53.6191 H   0  0  0  0  0
   -7.3684   18.6136  -54.7614 H   0  0  0  0  0
   -7.0779   24.1879  -53.7284 H   0  0  0  0  0
   -5.3544   22.9517  -51.8227 H   0  0  0  0  0
   -4.5459   24.5022  -53.5458 H   0  0  0  0  0
   -5.4721   25.8297  -52.8036 H   0  0  0  0  0
   -4.1076   25.0964  -51.9254 H   0  0  0  0  0
   -7.7603   25.5338  -51.5509 H   0  0  0  0  0
   -7.0729   26.1937  -48.7982 H   0  0  0  0  0
   -8.1328   27.8328  -50.1888 H   0  0  0  0  0
   -9.5799   26.8064  -50.3419 H   0  0  0  0  0
   -9.1286   27.4783  -48.7557 H   0  0  0  0  0
   -9.5182   24.0799  -50.3160 H   0  0  0  0  0
  -10.8061   23.3299  -47.8292 H   0  0  0  0  0
  -10.5011   21.6393  -50.3226 H   0  0  0  0  0
  -11.7508   22.9758  -50.0835 H   0  0  0  0  0
  -12.7292   21.6466  -48.2651 H   0  0  0  0  0
  -11.5647   20.3296  -48.6108 H   0  0  0  0  0
  -13.7406   19.8917  -49.6621 H   0  0  0  0  0
  -12.4584   20.1626  -50.9024 H   0  0  0  0  0
  -14.2472   22.3942  -50.0974 H   0  0  0  0  0
  -13.8629   21.0582  -53.8850 H   0  0  0  0  0
  -13.0664   20.1683  -52.5831 H   0  0  0  0  0
  -15.2698   23.4453  -51.7021 H   0  0  0  0  0
   -7.8867   22.0815  -49.4956 H   0  0  0  0  0
   -7.8183   19.6092  -47.9817 H   0  0  0  0  0
   -6.6618   19.8334  -50.0938 H   0  0  0  0  0
   -5.5887   21.0686  -49.3911 H   0  0  0  0  0
   -5.5371   19.3950  -48.7847 H   0  0  0  0  0
   -7.1097   22.8907  -47.1862 H   0  0  0  0  0
   -5.2989   22.0975  -45.1052 H   0  0  0  0  0
   -5.2008   24.5872  -44.6047 H   0  0  0  0  0
   -6.2153   24.7934  -46.1144 H   0  0  0  0  0
   -4.3542   23.5200  -47.2769 H   0  0  0  0  0
   -3.3738   23.8645  -45.8193 H   0  0  0  0  0
   -4.7985   25.9998  -47.4830 H   0  0  0  0  0
   -3.0812   25.5792  -47.6601 H   0  0  0  0  0
   -4.3415   27.0788  -45.4673 H   0  0  0  0  0
   -0.4660   25.9392  -45.0444 H   0  0  0  0  0
   -1.4046   25.2015  -46.3467 H   0  0  0  0  0
   -3.0822   28.0106  -43.8999 H   0  0  0  0  0
   -8.6436   22.5107  -45.4058 H   0  0  0  0  0
   -9.2521   23.7617  -42.8538 H   0  0  0  0  0
  -11.5033   22.7557  -43.3569 H   0  0  0  0  0
  -10.7762   22.0949  -44.8624 H   0  0  0  0  0
  -10.2054   24.4318  -45.5885 H   0  0  0  0  0
  -10.9713   25.0726  -44.1076 H   0  0  0  0  0
  -12.4405   26.6533  -45.4835 H   0  0  0  0  0
  -11.6698   26.0589  -46.9747 H   0  0  0  0  0
  -13.4440   26.1747  -46.8746 H   0  0  0  0  0
   -9.8333   22.5467  -40.9769 H   0  0  0  0  0
   -8.5703   19.9246  -40.5764 H   0  0  0  0  0
  -10.7063   21.3524  -38.9756 H   0  0  0  0  0
   -8.9321   21.6158  -38.8291 H   0  0  0  0  0
   -7.5078   19.4634  -37.9014 H   0  0  0  0  0
  -12.5929   20.0137  -38.0706 H   0  0  0  0  0
  -10.5128   16.4611  -35.1887 H   0  0  0  0  0
  -14.0023   18.4163  -36.6946 H   0  0  0  0  0
  -12.9561   16.7680  -35.2594 H   0  0  0  0  0
   -9.1644   17.9867  -40.5782 H   0  0  0  0  0
  -12.0731   17.3938  -41.0084 H   0  0  0  0  0
   -9.7358   15.9565  -42.3305 H   0  0  0  0  0
  -10.8081   17.1685  -43.1550 H   0  0  0  0  0
  -12.7564   15.6820  -42.8125 H   0  0  0  0  0
  -11.6943   14.4751  -41.9754 H   0  0  0  0  0
  -12.8463   16.1518  -45.3377 H   0  0  0  0  0
  -11.1630   16.7226  -45.2292 H   0  0  0  0  0
  -11.6317   15.5690  -46.5023 H   0  0  0  0  0
  -12.7541   15.8704  -39.5574 H   0  0  0  0  0
  -10.8721   14.8817  -37.6057 H   0  0  0  0  0
  -13.2141   15.2372  -37.0377 H   0  0  0  0  0
  -12.6099   13.5642  -36.6373 H   0  0  0  0  0
  -13.9417   11.6017  -37.5436 H   0  0  0  0  0
  -14.4206   16.4717  -39.1494 H   0  0  0  0  0
  -17.6433   12.9380  -40.8228 H   0  0  0  0  0
  -16.2224   17.0584  -40.7894 H   0  0  0  0  0
  -17.8381   15.2970  -41.5451 H   0  0  0  0  0
  -10.9014   12.5158  -37.0475 H   0  0  0  0  0
  -10.1839   10.8706  -39.4639 H   0  0  0  0  0
   -8.2591   12.0865  -39.4823 H   0  0  0  0  0
   -7.8412   10.5836  -38.5034 H   0  0  0  0  0
   -8.3712   14.4649  -38.0261 H   0  0  0  0  0
   -6.2369   12.8881  -34.6792 H   0  0  0  0  0
  -12.1282   10.2955  -38.0120 H   0  0  0  0  0
  -11.4768    7.6770  -36.9094 H   0  0  0  0  0
  -13.5015    6.9095  -36.0849 H   0  0  0  0  0
  -10.9170    8.8976  -34.8729 H   0  0  0  0  0
  -12.4639    8.0347  -34.6380 H   0  0  0  0  0
  -14.7476    9.5799  -34.6319 H   0  0  0  0  0
   -9.8833   11.1715  -34.9616 H   0  0  0  0  0
  -13.5726   14.3703  -33.5849 H   0  0  0  0  0
   -9.2957   13.5248  -34.3712 H   0  0  0  0  0
  -11.1927   15.1364  -33.6362 H   0  0  0  0  0
  1  2  1  0  0  0
  2  3  1  0  0  0
  2  5  1  0  0  0
  3  4  2  0  0  0
  3  7  1  0  0  0
  5  6  1  0  0  0
  7  8  1  0  0  0
  8  9  1  0  0  0
  8 11  1  0  0  0
  9 10  2  0  0  0
  9 14  1  0  0  0
 11 12  1  0  0  0
 11 13  1  0  0  0
 14 15  1  0  0  0
 15 16  1  0  0  0
 15 18  1  0  0  0
 16 17  2  0  0  0
 16 22  1  0  0  0
 18 19  1  0  0  0
 19 20  1  0  0  0
 19 21  1  0  0  0
 22 23  1  0  0  0
 23 24  1  0  0  0
 23 26  1  0  0  0
 24 25  2  0  0  0
 24 27  1  0  0  0
 27 28  1  0  0  0
 28 29  1  0  0  0
 28 31  1  0  0  0
 29 30  2  0  0  0
 29 32  1  0  0  0
 32 33  1  0  0  0
 33 34  1  0  0  0
 33 36  1  0  0  0
 34 35  2  0  0  0
 34 43  1  0  0  0
 36 37  1  0  0  0
 37 38  1  0  0  0
 38 39  1  0  0  0
 39 40  1  0  0  0
 40 41  1  0  0  0
 40 42  2  0  0  0
 43 44  1  0  0  0
 44 45  1  0  0  0
 44 47  1  0  0  0
 45 46  2  0  0  0
 45 48  1  0  0  0
 48 49  1  0  0  0
 49 50  1  0  0  0
 49 52  1  0  0  0
 50 51  2  0  0  0
 50 59  1  0  0  0
 52 53  1  0  0  0
 53 54  1  0  0  0
 54 55  1  0  0  0
 55 56  1  0  0  0
 56 57  1  0  0  0
 56 58  2  0  0  0
 59 60  1  0  0  0
 60 61  1  0  0  0
 60 63  1  0  0  0
 61 62  2  0  0  0
 61 67  1  0  0  0
 63 64  1  0  0  0
 64 65  1  0  0  0
 65 66  1  0  0  0
 67 68  1  0  0  0
 68 69  1  0  0  0
 68 71  1  0  0  0
 69 70  2  0  0  0
 69 81  1  0  0  0
 71 72  1  0  0  0
 72 73  4  0  0  0
 72 74  4  0  0  0
 73 75  4  0  0  0
 74 76  4  0  0  0
 74 77  4  0  0  0
 75 76  4  0  0  0
 76 78  4  0  0  0
 77 79  4  0  0  0
 78 80  4  0  0  0
 79 80  4  0  0  0
 81 82  1  0  0  0
 82 83  1  0  0  0
 82 85  1  0  0  0
 83 84  2  0  0  0
 83 89  1  0  0  0
 85 86  1  0  0  0
 86 87  1  0  0  0
 87 88  1  0  0  0
 89 90  1  0  0  0
 90 91  1  0  0  0
 90 93  1  0  0  0
 91 92  2  0  0  0
 91103  1  0  0  0
 93 94  1  0  0  0
 94 95  4  0  0  0
 94 96  4  0  0  0
 95 97  4  0  0  0
 96 98  4  0  0  0
 96 99  4  0  0  0
 97 98  4  0  0  0
 98100  4  0  0  0
 99101  4  0  0  0
100102  4  0  0  0
101102  4  0  0  0
103104  1  0  0  0
104105  1  0  0  0
104107  1  0  0  0
105106  2  0  0  0
105113  1  0  0  0
107108  1  0  0  0
108109  4  0  0  0
108110  4  0  0  0
109111  4  0  0  0
110112  4  0  0  0
111112  4  0  0  0
113114  1  0  0  0
114115  1  0  0  0
114117  1  0  0  0
115116  1  0  0  0
115127  2  0  0  0
117118  1  0  0  0
118119  4  0  0  0
118120  4  0  0  0
119121  4  0  0  0
120122  4  0  0  0
120123  4  0  0  0
121122  4  0  0  0
122124  4  0  0  0
123125  4  0  0  0
124126  4  0  0  0
125126  4  0  0  0
  1128  1  0  0  0
  1129  1  0  0  0
  1130  1  0  0  0
  2131  1  0  0  0
  5132  1  0  0  0
  5133  1  0  0  0
  6134  1  0  0  0
  7135  1  0  0  0
  8136  1  0  0  0
 11137  1  0  0  0
 12138  1  0  0  0
 12139  1  0  0  0
 12140  1  0  0  0
 13141  1  0  0  0
 13142  1  0  0  0
 13143  1  0  0  0
 14144  1  0  0  0
 15145  1  0  0  0
 18146  1  0  0  0
 18147  1  0  0  0
 19148  1  0  0  0
 20149  1  0  0  0
 20150  1  0  0  0
 20151  1  0  0  0
 21152  1  0  0  0
 21153  1  0  0  0
 21154  1  0  0  0
 22155  1  0  0  0
 23156  1  0  0  0
 26157  1  0  0  0
 26158  1  0  0  0
 26159  1  0  0  0
 27160  1  0  0  0
 28161  1  0  0  0
 31162  1  0  0  0
 31163  1  0  0  0
 31164  1  0  0  0
 32165  1  0  0  0
 33166  1  0  0  0
 36167  1  0  0  0
 36168  1  0  0  0
 37169  1  0  0  0
 37170  1  0  0  0
 38171  1  0  0  0
 38172  1  0  0  0
 39173  1  0  0  0
 41174  1  0  0  0
 41175  1  0  0  0
 42176  1  0  0  0
 43177  1  0  0  0
 44178  1  0  0  0
 47179  1  0  0  0
 47180  1  0  0  0
 47181  1  0  0  0
 48182  1  0  0  0
 49183  1  0  0  0
 52184  1  0  0  0
 52185  1  0  0  0
 53186  1  0  0  0
 53187  1  0  0  0
 54188  1  0  0  0
 54189  1  0  0  0
 55190  1  0  0  0
 57191  1  0  0  0
 57192  1  0  0  0
 58193  1  0  0  0
 59194  1  0  0  0
 60195  1  0  0  0
 63196  1  0  0  0
 63197  1  0  0  0
 64198  1  0  0  0
 64199  1  0  0  0
 66200  1  0  0  0
 66201  1  0  0  0
 66202  1  0  0  0
 67203  1  0  0  0
 68204  1  0  0  0
 71205  1  0  0  0
 71206  1  0  0  0
 73207  1  0  0  0
 77208  1  0  0  0
 78209  1  0  0  0
 79210  1  0  0  0
 80211  1  0  0  0
 81212  1  0  0  0
 82213  1  0  0  0
 85214  1  0  0  0
 85215  1  0  0  0
 86216  1  0  0  0
 86217  1  0  0  0
 88218  1  0  0  0
 88219  1  0  0  0
 88220  1  0  0  0
 89221  1  0  0  0
 90222  1  0  0  0
 93223  1  0  0  0
 93224  1  0  0  0
 95225  1  0  0  0
 99226  1  0  0  0
100227  1  0  0  0
101228  1  0  0  0
102229  1  0  0  0
103230  1  0  0  0
104231  1  0  0  0
107232  1  0  0  0
107233  1  0  0  0
110234  1  0  0  0
111235  1  0  0  0
113236  1  0  0  0
114237  1  0  0  0
116238  1  0  0  0
117239  1  0  0  0
117240  1  0  0  0
119241  1  0  0  0
123242  1  0  0  0
124243  1  0  0  0
125244  1  0  0  0
126245  1  0  0  0
M  END
$$$$
