### 
### Created by X-TOOL on Mon Sep 10 21:13:05 2018
### 

@<TRIPOS>MOLECULE
3zqi_ligand
  250   256     1     0     0
SMALL
GAST_HUCK


@<TRIPOS>ATOM
      1 N          -7.0100   28.9280  -55.4760 N.4       1 SER         0.2396
      2 CA         -7.4200   27.4610  -55.4770 C.3       1 SER         0.0885
      3 C          -8.3730   26.9500  -54.3590 C.2       1 SER         0.2290
      4 O          -8.0070   26.8430  -53.1600 O.2       1 SER        -0.3906
      5 CB         -6.2130   26.5650  -55.6670 C.3       1 SER         0.1041
      6 OG         -6.5330   25.2010  -55.5030 O.3       1 SER        -0.3870
      7 N          -9.5830   26.6000  -54.7850 N.am      1 VAL        -0.2607
      8 CA        -10.5850   26.0530  -53.8750 C.3       1 VAL         0.1334
      9 C         -10.0470   24.7470  -53.2500 C.2       1 VAL         0.2042
     10 O         -10.1770   24.5020  -52.0400 O.2       1 VAL        -0.3944
     11 CB        -11.9560   25.7470  -54.6120 C.3       1 VAL        -0.0063
     12 CG1       -12.9210   24.9910  -53.7450 C.3       1 VAL        -0.0584
     13 CG2       -12.6630   27.0470  -55.2240 C.3       1 VAL        -0.0584
     14 N          -9.4320   23.9040  -54.0730 N.am      1 LEU        -0.2637
     15 CA         -8.9660   22.5550  -53.6980 C.3       1 LEU         0.1312
     16 C          -7.8750   22.6770  -52.6470 C.2       1 LEU         0.2039
     17 O          -7.8410   21.9640  -51.6220 O.2       1 LEU        -0.3944
     18 CB         -8.3790   21.9250  -54.9770 C.3       1 LEU        -0.0101
     19 CG         -8.4900   20.4130  -55.0870 C.3       1 LEU        -0.0425
     20 CD1        -8.8680   20.0650  -56.5200 C.3       1 LEU        -0.0625
     21 CD2        -7.2230   19.6890  -54.6590 C.3       1 LEU        -0.0625
     22 N          -6.9840   23.6250  -52.8830 N.am      1 ALA        -0.2640
     23 CA         -5.8780   23.8940  -51.9840 C.3       1 ALA         0.1282
     24 C          -6.3450   24.3880  -50.6250 C.2       1 ALA         0.2036
     25 O          -5.8390   23.9360  -49.5800 O.2       1 ALA        -0.3944
     26 CB         -4.9340   24.9020  -52.6090 C.3       1 ALA        -0.0244
     27 N          -7.3580   25.2650  -50.6530 N.am      1 ALA        -0.2640
     28 CA         -7.9040   25.8500  -49.4140 C.3       1 ALA         0.1282
     29 C          -8.6510   24.8000  -48.6260 C.2       1 ALA         0.2036
     30 O          -8.5020   24.7150  -47.4150 O.2       1 ALA        -0.3944
     31 CB         -8.7460   27.0790  -49.6950 C.3       1 ALA        -0.0244
     32 N          -9.4370   23.9720  -49.3050 N.am      1 ARG        -0.2637
     33 CA        -10.2060   22.8850  -48.6230 C.3       1 ARG         0.1311
     34 C          -9.2720   21.8790  -47.9970 C.2       1 ARG         0.2039
     35 O          -9.5830   21.4210  -46.9120 O.2       1 ARG        -0.3944
     36 CB        -11.1430   22.1900  -49.6350 C.3       1 ARG        -0.0092
     37 CG        -12.1320   21.1580  -49.0350 C.3       1 ARG        -0.0156
     38 CD        -13.0670   20.6160  -50.1200 C.3       1 ARG         0.0627
     39 NE        -13.8730   21.6790  -50.7210 N.pl3     1 ARG        -0.2723
     40 CZ        -14.1550   21.7860  -52.0100 C.cat     1 ARG         0.2882
     41 NH1       -13.6570   20.9400  -52.8930 N.pl3     1 ARG        -0.2849
     42 NH2       -14.9150   22.7820  -52.3910 N.pl3     1 ARG        -0.2849
     43 N          -8.1330   21.5720  -48.6470 N.am      1 ALA        -0.2640
     44 CA         -7.2420   20.5180  -48.1550 C.3       1 ALA         0.1282
     45 C          -6.6270   20.9650  -46.8650 C.2       1 ALA         0.2036
     46 O          -6.1200   20.1050  -46.1150 O.2       1 ALA        -0.3944
     47 CB         -6.1830   20.1800  -49.1780 C.3       1 ALA        -0.0244
     48 N          -6.6490   22.2510  -46.5390 N.am      1 ARG        -0.2637
     49 CA         -6.0840   22.8080  -45.3640 C.3       1 ARG         0.1311
     50 C          -7.0680   22.9170  -44.2060 C.2       1 ARG         0.2039
     51 O          -6.6150   23.1590  -43.0740 O.2       1 ARG        -0.3944
     52 CB         -5.4730   24.1960  -45.5850 C.3       1 ARG        -0.0092
     53 CG         -4.2130   24.1940  -46.4320 C.3       1 ARG        -0.0156
     54 CD         -3.9200   25.6150  -46.9650 C.3       1 ARG         0.0627
     55 NE         -3.5870   26.4980  -45.8330 N.pl3     1 ARG        -0.2723
     56 CZ         -2.3940   26.6150  -45.2360 C.cat     1 ARG         0.2882
     57 NH1        -1.3370   25.8580  -45.5690 N.pl3     1 ARG        -0.2849
     58 NH2        -2.2750   27.4690  -44.2090 N.pl3     1 ARG        -0.2849
     59 N          -8.3640   22.7440  -44.4530 N.am      1 MET        -0.2637
     60 CA         -9.3920   22.8660  -43.4590 C.3       1 MET         0.1317
     61 C          -9.3360   21.5160  -42.6680 C.2       1 MET         0.2040
     62 O          -9.0580   20.4220  -43.2130 O.2       1 MET        -0.3944
     63 CB        -10.7370   22.8920  -44.1200 C.3       1 MET        -0.0034
     64 CG        -10.9870   24.2710  -44.8460 C.3       1 MET        -0.0024
     65 SD        -12.6080   24.2540  -45.6770 S.3       1 MET        -0.1639
     66 CE        -12.5330   25.9570  -46.3170 C.3       1 MET        -0.0181
     67 N          -9.5940   21.6360  -41.3690 N.am      1 TRP        -0.2627
     68 CA         -9.5320   20.4290  -40.4830 C.3       1 TRP         0.1352
     69 C         -10.5780   19.4330  -40.8830 C.2       1 TRP         0.2052
     70 O         -11.7450   19.7280  -41.1470 O.2       1 TRP        -0.3942
     71 CB         -9.7190   20.8990  -39.0640 C.3       1 TRP         0.0042
     72 CG         -9.6270   19.7260  -38.0700 C.2       1 TRP        -0.0418
     73 CD1        -8.5170   19.1590  -37.6240 C.2       1 TRP         0.0167
     74 CD2       -10.7520   19.0690  -37.4400 C.ar      1 TRP        -0.0214
     75 NE1        -8.8170   18.1350  -36.7640 N.pl3     1 TRP        -0.2890
     76 CE2       -10.1830   18.0720  -36.5950 C.ar      1 TRP         0.0603
     77 CE3       -12.1280   19.2350  -37.4660 C.ar      1 TRP        -0.0747
     78 CZ2       -10.9610   17.2300  -35.8180 C.ar      1 TRP        -0.0443
     79 CZ3       -12.9150   18.3440  -36.6680 C.ar      1 TRP        -0.0792
     80 CH2       -12.3220   17.4060  -35.8750 C.ar      1 TRP        -0.0768
     81 N         -10.1440   18.1680  -40.7970 N.am      1 MET        -0.2636
     82 CA        -11.0320   17.0710  -41.0070 C.3       1 MET         0.1317
     83 C         -10.7460   16.0750  -39.8790 C.2       1 MET         0.2040
     84 O          -9.6060   15.7450  -39.6170 O.2       1 MET        -0.3944
     85 CB        -10.7300   16.4000  -42.3860 C.3       1 MET        -0.0034
     86 CG        -11.7620   15.2400  -42.7490 C.3       1 MET        -0.0024
     87 SD        -11.3950   14.4600  -44.3390 S.3       1 MET        -0.1639
     88 CE        -11.8010   15.8720  -45.4690 C.3       1 MET        -0.0181
     89 N         -11.8190   15.5530  -39.3020 N.am      1 TRP        -0.2627
     90 CA        -11.6340   14.5140  -38.2930 C.3       1 TRP         0.1352
     91 C         -11.1330   13.2450  -38.9200 C.2       1 TRP         0.2053
     92 O         -11.1410   13.0430  -40.1050 O.2       1 TRP        -0.3942
     93 CB        -12.8880   14.2700  -37.4200 C.3       1 TRP         0.0042
     94 CG        -14.0620   13.6610  -38.1930 C.2       1 TRP        -0.0418
     95 CD1       -14.4320   12.3780  -38.1310 C.2       1 TRP         0.0167
     96 CD2       -14.9850   14.3540  -39.0860 C.ar      1 TRP        -0.0214
     97 NE1       -15.5560   12.1990  -38.9480 N.pl3     1 TRP        -0.2890
     98 CE2       -15.8840   13.3850  -39.5560 C.ar      1 TRP         0.0603
     99 CE3       -15.1060   15.7080  -39.5170 C.ar      1 TRP        -0.0747
    100 CZ2       -16.9470   13.6970  -40.4660 C.ar      1 TRP        -0.0443
    101 CZ3       -16.1230   16.0370  -40.4220 C.ar      1 TRP        -0.0792
    102 CH2       -17.0360   15.0150  -40.8630 C.ar      1 TRP        -0.0768
    103 N         -10.6930   12.3750  -38.0360 N.am      1 HIS        -0.2618
    104 CA         -9.8850   11.1720  -38.4600 C.3       1 HIS         0.1421
    105 C         -10.1810    9.9870  -37.5670 C.2       1 HIS         0.2055
    106 O          -9.3030    9.3050  -37.0330 O.2       1 HIS        -0.3942
    107 CB         -8.3880   11.5250  -38.5570 C.3       1 HIS         0.0427
    108 CG         -7.8580   12.3960  -37.4460 C.2       1 HIS         0.0561
    109 ND1        -7.2350   11.8990  -36.3550 N.pl3     1 HIS        -0.2623
    110 CD2        -7.9000   13.7660  -37.3350 C.2       1 HIS        -0.0276
    111 CE1        -6.8150   12.9530  -35.6010 C.2       1 HIS         0.0875
    112 NE2        -7.2310   14.0750  -36.1820 N.2       1 HIS        -0.3437
    113 N         -11.4820    9.7000  -37.4940 N.am      1 TRP        -0.2683
    114 CA        -12.0530    8.5820  -36.7170 C.3       1 TRP         0.0986
    115 C         -13.5030    8.3820  -37.1590 C.2       1 TRP         0.0613
    116 O         -14.1110    7.4070  -36.6350 O.co2     1 TRP        -0.5665
    117 CB        -11.9650    8.8460  -35.1680 C.3       1 TRP        -0.0013
    118 CG        -12.6430   10.1550  -34.8240 C.2       1 TRP        -0.0424
    119 CD1       -13.9800   10.3520  -34.5790 C.2       1 TRP         0.0166
    120 CD2       -12.0020   11.4200  -34.5520 C.ar      1 TRP        -0.0214
    121 NE1       -14.2080   11.6900  -34.2520 N.pl3     1 TRP        -0.2891
    122 CE2       -13.0420   12.3810  -34.2750 C.ar      1 TRP         0.0603
    123 CE3       -10.6620   11.8640  -34.6420 C.ar      1 TRP        -0.0747
    124 CZ2       -12.7740   13.6950  -33.8920 C.ar      1 TRP        -0.0443
    125 CZ3       -10.3290   13.1810  -34.3250 C.ar      1 TRP        -0.0792
    126 CH2       -11.4360   14.1120  -33.9180 C.ar      1 TRP        -0.0768
    127 OXT       -14.0190    9.2260  -37.9330 O.co2     1 TRP        -0.5665
    128 H          -7.8371   29.5108  -55.3470 H         1 SER         0.2016
    129 H          -6.3524   29.0955  -54.7145 H         1 SER         0.2016
    130 H          -6.5670   29.1566  -56.3659 H         1 SER         0.2016
    131 H          -8.0799   27.3981  -56.3423 H         1 SER         0.1122
    132 H          -5.4697   26.8323  -54.9159 H         1 SER         0.0640
    133 H          -5.8407   26.7071  -56.6815 H         1 SER         0.0640
    134 H          -6.8756   25.0580  -54.6176 H         1 SER         0.2099
    135 H          -9.8167   26.7165  -55.7710 H         1 VAL         0.1885
    136 H         -10.7769   26.8006  -53.1054 H         1 VAL         0.0802
    137 H         -11.6764   25.1098  -55.4509 H         1 VAL         0.0343
    138 H         -12.4770   24.0391  -53.4538 H         1 VAL         0.0234
    139 H         -13.1430   25.5776  -52.8536 H         1 VAL         0.0234
    140 H         -13.8411   24.8094  -54.3005 H         1 VAL         0.0234
    141 H         -12.8759   27.7545  -54.4226 H         1 VAL         0.0234
    142 H         -11.9988   27.5110  -55.9531 H         1 VAL         0.0234
    143 H         -13.5939   26.7573  -55.7114 H         1 VAL         0.0234
    144 H          -9.2706   24.2113  -55.0321 H         1 LEU         0.1883
    145 H          -9.7760   21.9488  -53.2923 H         1 LEU         0.0800
    146 H          -7.3133   22.1538  -54.9694 H         1 LEU         0.0315
    147 H          -8.9501   22.3351  -55.8099 H         1 LEU         0.0315
    148 H          -9.2623   20.0725  -54.3973 H         1 LEU         0.0298
    149 H          -9.8230   20.5295  -56.7655 H         1 LEU         0.0232
    150 H          -8.0981   20.4343  -57.1974 H         1 LEU         0.0232
    151 H          -8.9526   18.9829  -56.6195 H         1 LEU         0.0232
    152 H          -6.3935   20.0066  -55.2908 H         1 LEU         0.0232
    153 H          -7.0022   19.9297  -53.6191 H         1 LEU         0.0232
    154 H          -7.3684   18.6136  -54.7614 H         1 LEU         0.0232
    155 H          -7.0779   24.1879  -53.7284 H         1 ALA         0.1883
    156 H          -5.3544   22.9517  -51.8227 H         1 ALA         0.0797
    157 H          -4.5459   24.5022  -53.5458 H         1 ALA         0.0277
    158 H          -5.4721   25.8297  -52.8036 H         1 ALA         0.0277
    159 H          -4.1076   25.0964  -51.9254 H         1 ALA         0.0277
    160 H          -7.7603   25.5338  -51.5509 H         1 ALA         0.1883
    161 H          -7.0729   26.1937  -48.7982 H         1 ALA         0.0797
    162 H          -8.1328   27.8328  -50.1888 H         1 ALA         0.0277
    163 H          -9.5799   26.8064  -50.3419 H         1 ALA         0.0277
    164 H          -9.1286   27.4783  -48.7557 H         1 ALA         0.0277
    165 H          -9.5182   24.0799  -50.3160 H         1 ARG         0.1883
    166 H         -10.8061   23.3299  -47.8292 H         1 ARG         0.0800
    167 H         -10.5011   21.6393  -50.3226 H         1 ARG         0.0313
    168 H         -11.7508   22.9758  -50.0835 H         1 ARG         0.0313
    169 H         -12.7292   21.6466  -48.2651 H         1 ARG         0.0301
    170 H         -11.5647   20.3296  -48.6108 H         1 ARG         0.0301
    171 H         -13.7406   19.8917  -49.6621 H         1 ARG         0.0689
    172 H         -12.4584   20.1626  -50.9024 H         1 ARG         0.0689
    173 H         -14.2472   22.3942  -50.0974 H         1 ARG         0.2642
    174 H         -13.0422   20.1860  -52.5865 H         1 ARG         0.2615
    175 H         -13.8871   21.0404  -53.8816 H         1 ARG         0.2615
    176 H         -15.2698   23.4453  -51.7021 H         1 ARG         0.2615
    177 H         -15.1522   22.8945  -53.3766 H         1 ARG         0.2615
    178 H          -7.8867   22.0815  -49.4956 H         1 ALA         0.1883
    179 H          -7.8183   19.6092  -47.9817 H         1 ALA         0.0797
    180 H          -6.6618   19.8334  -50.0938 H         1 ALA         0.0277
    181 H          -5.5887   21.0686  -49.3911 H         1 ALA         0.0277
    182 H          -5.5371   19.3950  -48.7847 H         1 ALA         0.0277
    183 H          -7.1097   22.8907  -47.1862 H         1 ARG         0.1883
    184 H          -5.2989   22.0975  -45.1052 H         1 ARG         0.0800
    185 H          -5.2008   24.5872  -44.6047 H         1 ARG         0.0313
    186 H          -6.2153   24.7934  -46.1144 H         1 ARG         0.0313
    187 H          -4.3542   23.5200  -47.2769 H         1 ARG         0.0301
    188 H          -3.3738   23.8645  -45.8193 H         1 ARG         0.0301
    189 H          -4.7985   25.9998  -47.4830 H         1 ARG         0.0689
    190 H          -3.0812   25.5792  -47.6601 H         1 ARG         0.0689
    191 H          -4.3415   27.0788  -45.4673 H         1 ARG         0.2642
    192 H          -1.4232   25.1574  -46.3053 H         1 ARG         0.2615
    193 H          -0.4475   25.9833  -45.0858 H         1 ARG         0.2615
    194 H          -3.0822   28.0106  -43.8999 H         1 ARG         0.2615
    195 H          -1.3773   27.5770  -43.7369 H         1 ARG         0.2615
    196 H          -8.6436   22.5107  -45.4058 H         1 MET         0.1883
    197 H          -9.2521   23.7617  -42.8538 H         1 MET         0.0800
    198 H         -11.5033   22.7557  -43.3569 H         1 MET         0.0320
    199 H         -10.7762   22.0949  -44.8624 H         1 MET         0.0320
    200 H         -10.2054   24.4318  -45.5885 H         1 MET         0.0378
    201 H         -10.9713   25.0726  -44.1076 H         1 MET         0.0378
    202 H         -12.4405   26.6533  -45.4835 H         1 MET         0.0340
    203 H         -11.6698   26.0589  -46.9747 H         1 MET         0.0340
    204 H         -13.4440   26.1747  -46.8746 H         1 MET         0.0340
    205 H          -9.8333   22.5467  -40.9769 H         1 TRP         0.1884
    206 H          -8.5703   19.9246  -40.5764 H         1 TRP         0.0815
    207 H         -10.7063   21.3524  -38.9756 H         1 TRP         0.0397
    208 H          -8.9321   21.6158  -38.8291 H         1 TRP         0.0397
    209 H          -7.5078   19.4634  -37.9014 H         1 TRP         0.0795
    210 H          -8.1373   17.5178  -36.3197 H         1 TRP         0.2216
    211 H         -12.5929   20.0137  -38.0706 H         1 TRP         0.0540
    212 H         -10.5128   16.4611  -35.1887 H         1 TRP         0.0541
    213 H         -14.0023   18.4163  -36.6946 H         1 TRP         0.0510
    214 H         -12.9561   16.7680  -35.2594 H         1 TRP         0.0530
    215 H          -9.1644   17.9867  -40.5782 H         1 MET         0.1883
    216 H         -12.0731   17.3938  -41.0084 H         1 MET         0.0800
    217 H          -9.7358   15.9565  -42.3305 H         1 MET         0.0320
    218 H         -10.8081   17.1685  -43.1550 H         1 MET         0.0320
    219 H         -12.7564   15.6820  -42.8125 H         1 MET         0.0378
    220 H         -11.6943   14.4751  -41.9754 H         1 MET         0.0378
    221 H         -12.8463   16.1518  -45.3377 H         1 MET         0.0340
    222 H         -11.1630   16.7226  -45.2292 H         1 MET         0.0340
    223 H         -11.6317   15.5690  -46.5023 H         1 MET         0.0340
    224 H         -12.7541   15.8704  -39.5574 H         1 TRP         0.1884
    225 H         -10.8721   14.8817  -37.6057 H         1 TRP         0.0815
    226 H         -13.2141   15.2372  -37.0377 H         1 TRP         0.0397
    227 H         -12.6099   13.5642  -36.6373 H         1 TRP         0.0397
    228 H         -13.9417   11.6017  -37.5436 H         1 TRP         0.0795
    229 H         -16.0559   11.3187  -39.0724 H         1 TRP         0.2216
    230 H         -14.4206   16.4717  -39.1494 H         1 TRP         0.0540
    231 H         -17.6433   12.9380  -40.8228 H         1 TRP         0.0541
    232 H         -16.2224   17.0584  -40.7894 H         1 TRP         0.0510
    233 H         -17.8381   15.2970  -41.5451 H         1 TRP         0.0530
    234 H         -10.9014   12.5158  -37.0475 H         1 HIS         0.1885
    235 H         -10.1839   10.8706  -39.4639 H         1 HIS         0.0824
    236 H          -8.2591   12.0865  -39.4823 H         1 HIS         0.0491
    237 H          -7.8412   10.5836  -38.5034 H         1 HIS         0.0491
    238 H          -7.1028   10.9117  -36.1353 H         1 HIS         0.2386
    239 H          -8.3712   14.4649  -38.0261 H         1 HIS         0.0324
    240 H          -6.2369   12.8881  -34.6792 H         1 HIS         0.1149
    241 H         -12.1282   10.2955  -38.0120 H         1 TRP         0.1877
    242 H         -11.4768    7.6770  -36.9094 H         1 TRP         0.0741
    243 H         -10.9170    8.8976  -34.8729 H         1 TRP         0.0390
    244 H         -12.4639    8.0347  -34.6380 H         1 TRP         0.0390
    245 H         -14.7476    9.5799  -34.6319 H         1 TRP         0.0795
    246 H         -15.1195   12.0895  -34.0283 H         1 TRP         0.2216
    247 H          -9.8833   11.1715  -34.9616 H         1 TRP         0.0540
    248 H         -13.5726   14.3703  -33.5849 H         1 TRP         0.0541
    249 H          -9.2957   13.5248  -34.3712 H         1 TRP         0.0510
    250 H         -11.1927   15.1364  -33.6362 H         1 TRP         0.0530
@<TRIPOS>BOND
     1    1    2 1  
     2    2    3 1  
     3    2    5 1  
     4    3    4 2  
     5    3    7 am 
     6    5    6 1  
     7    7    8 1  
     8    8    9 1  
     9    8   11 1  
    10    9   10 2  
    11    9   14 am 
    12   11   12 1  
    13   11   13 1  
    14   14   15 1  
    15   15   16 1  
    16   15   18 1  
    17   16   17 2  
    18   16   22 am 
    19   18   19 1  
    20   19   20 1  
    21   19   21 1  
    22   22   23 1  
    23   23   24 1  
    24   23   26 1  
    25   24   25 2  
    26   24   27 am 
    27   27   28 1  
    28   28   29 1  
    29   28   31 1  
    30   29   30 2  
    31   29   32 am 
    32   32   33 1  
    33   33   34 1  
    34   33   36 1  
    35   34   35 2  
    36   34   43 am 
    37   36   37 1  
    38   37   38 1  
    39   38   39 1  
    40   39   40 ar 
    41   40   41 ar 
    42   40   42 ar 
    43   43   44 1  
    44   44   45 1  
    45   44   47 1  
    46   45   46 2  
    47   45   48 am 
    48   48   49 1  
    49   49   50 1  
    50   49   52 1  
    51   50   51 2  
    52   50   59 am 
    53   52   53 1  
    54   53   54 1  
    55   54   55 1  
    56   55   56 ar 
    57   56   57 ar 
    58   56   58 ar 
    59   59   60 1  
    60   60   61 1  
    61   60   63 1  
    62   61   62 2  
    63   61   67 am 
    64   63   64 1  
    65   64   65 1  
    66   65   66 1  
    67   67   68 1  
    68   68   69 1  
    69   68   71 1  
    70   69   70 2  
    71   69   81 am 
    72   71   72 1  
    73   72   73 2  
    74   72   74 1  
    75   73   75 1  
    76   74   76 ar 
    77   74   77 ar 
    78   75   76 1  
    79   76   78 ar 
    80   77   79 ar 
    81   78   80 ar 
    82   79   80 ar 
    83   81   82 1  
    84   82   83 1  
    85   82   85 1  
    86   83   84 2  
    87   83   89 am 
    88   85   86 1  
    89   86   87 1  
    90   87   88 1  
    91   89   90 1  
    92   90   91 1  
    93   90   93 1  
    94   91   92 2  
    95   91  103 am 
    96   93   94 1  
    97   94   95 2  
    98   94   96 1  
    99   95   97 1  
   100   96   98 ar 
   101   96   99 ar 
   102   97   98 1  
   103   98  100 ar 
   104   99  101 ar 
   105  100  102 ar 
   106  101  102 ar 
   107  103  104 1  
   108  104  105 1  
   109  104  107 1  
   110  105  106 2  
   111  105  113 am 
   112  107  108 1  
   113  108  109 1  
   114  108  110 2  
   115  109  111 1  
   116  110  112 1  
   117  111  112 2  
   118  113  114 1  
   119  114  115 1  
   120  114  117 1  
   121  115  116 ar 
   122  115  127 ar 
   123  117  118 1  
   124  118  119 2  
   125  118  120 1  
   126  119  121 1  
   127  120  122 ar 
   128  120  123 ar 
   129  121  122 1  
   130  122  124 ar 
   131  123  125 ar 
   132  124  126 ar 
   133  125  126 ar 
   134    1  128 1  
   135    1  129 1  
   136    1  130 1  
   137    2  131 1  
   138    5  132 1  
   139    5  133 1  
   140    6  134 1  
   141    7  135 1  
   142    8  136 1  
   143   11  137 1  
   144   12  138 1  
   145   12  139 1  
   146   12  140 1  
   147   13  141 1  
   148   13  142 1  
   149   13  143 1  
   150   14  144 1  
   151   15  145 1  
   152   18  146 1  
   153   18  147 1  
   154   19  148 1  
   155   20  149 1  
   156   20  150 1  
   157   20  151 1  
   158   21  152 1  
   159   21  153 1  
   160   21  154 1  
   161   22  155 1  
   162   23  156 1  
   163   26  157 1  
   164   26  158 1  
   165   26  159 1  
   166   27  160 1  
   167   28  161 1  
   168   31  162 1  
   169   31  163 1  
   170   31  164 1  
   171   32  165 1  
   172   33  166 1  
   173   36  167 1  
   174   36  168 1  
   175   37  169 1  
   176   37  170 1  
   177   38  171 1  
   178   38  172 1  
   179   39  173 1  
   180   41  174 1  
   181   41  175 1  
   182   42  176 1  
   183   42  177 1  
   184   43  178 1  
   185   44  179 1  
   186   47  180 1  
   187   47  181 1  
   188   47  182 1  
   189   48  183 1  
   190   49  184 1  
   191   52  185 1  
   192   52  186 1  
   193   53  187 1  
   194   53  188 1  
   195   54  189 1  
   196   54  190 1  
   197   55  191 1  
   198   57  192 1  
   199   57  193 1  
   200   58  194 1  
   201   58  195 1  
   202   59  196 1  
   203   60  197 1  
   204   63  198 1  
   205   63  199 1  
   206   64  200 1  
   207   64  201 1  
   208   66  202 1  
   209   66  203 1  
   210   66  204 1  
   211   67  205 1  
   212   68  206 1  
   213   71  207 1  
   214   71  208 1  
   215   73  209 1  
   216   75  210 1  
   217   77  211 1  
   218   78  212 1  
   219   79  213 1  
   220   80  214 1  
   221   81  215 1  
   222   82  216 1  
   223   85  217 1  
   224   85  218 1  
   225   86  219 1  
   226   86  220 1  
   227   88  221 1  
   228   88  222 1  
   229   88  223 1  
   230   89  224 1  
   231   90  225 1  
   232   93  226 1  
   233   93  227 1  
   234   95  228 1  
   235   97  229 1  
   236   99  230 1  
   237  100  231 1  
   238  101  232 1  
   239  102  233 1  
   240  103  234 1  
   241  104  235 1  
   242  107  236 1  
   243  107  237 1  
   244  109  238 1  
   245  110  239 1  
   246  111  240 1  
   247  113  241 1  
   248  114  242 1  
   249  117  243 1  
   250  117  244 1  
   251  119  245 1  
   252  121  246 1  
   253  123  247 1  
   254  124  248 1  
   255  125  249 1  
   256  126  250 1  
@<TRIPOS>SUBSTRUCTURE
     1 SER         1

