5fto_ligand
  -I-interpret- 

 75 80  0  0  0  0  0  0  0  0999 V2000
    6.3460   21.1770    5.9830 C   0  0  0  0  0
    7.3180   22.0380    5.2980 C   0  0  0  0  0
    7.8250   21.3710    4.2860 O   0  0  0  0  0
    6.7790   21.2680    3.3800 C   0  0  0  0  0
    5.5820   20.5060    3.9400 C   0  0  0  0  0
    5.1580   21.1130    5.1770 C   0  0  0  0  0
    4.2670   20.2140    5.8200 N   0  0  0  0  0
    3.1010   20.5610    6.2800 C   0  0  0  0  0
    2.5960   21.8000    5.9720 C   0  0  0  0  0
    1.3890   22.1820    6.4510 C   0  0  0  0  0
    0.8510   23.3330    6.1700 N   0  0  0  0  0
    1.5940   24.1010    5.2140 C   0  0  0  0  0
    0.8760   25.3600    4.8490 C   0  0  0  0  0
    0.6420   26.1370    6.0190 N   0  3  0  0  0
   -0.1700   27.2740    5.7900 C   0  0  0  0  0
   -0.1460   25.2950    6.8370 C   0  0  0  0  0
    0.7020   24.1860    7.2920 C   0  0  0  0  0
    0.6720   21.2930    7.2000 C   0  0  0  0  0
    1.1850   20.0760    7.4740 C   0  0  0  0  0
    2.4060   19.6360    7.0630 C   0  0  0  0  0
    2.8560   18.3400    7.4050 C   0  0  0  0  0
    3.5180   17.6980    6.6390 O   0  0  0  0  0
    2.4030   17.8640    8.5610 N   0  0  0  0  0
    2.7870   16.7200    9.1330 C   0  0  0  0  0
    3.9350   16.0200    9.2140 C   0  0  0  0  0
    5.1270   16.1650    8.6720 C   0  0  0  0  0
    1.9410   16.1260    9.8860 N   0  0  0  0  0
    2.5000   15.0650   10.3800 N   0  0  0  0  0
    3.7160   14.9800    9.9980 C   0  0  0  0  0
    4.6530   14.0770   10.2440 C   0  0  0  0  0
    5.9120   14.2030    9.7150 C   0  0  0  0  0
    6.1570   15.2820    8.8970 C   0  0  0  0  0
    7.4130   15.4740    8.3560 C   0  0  0  0  0
    8.0220   16.6180    8.9000 C   0  0  0  0  0
    8.1680   17.7680    8.1480 C   0  0  0  0  0
    8.7690   18.8900    8.7000 C   0  0  0  0  0
    8.8610   19.7550    8.1050 F   0  0  0  0  0
    9.2290   18.8620   10.0110 C   0  0  0  0  0
    9.1080   17.7320   10.7950 C   0  0  0  0  0
    9.4480   17.6910   11.7660 F   0  0  0  0  0
    8.4940   16.6510   10.2140 C   0  0  0  0  0
    6.1108   21.5850    6.9660 H   0  0  0  0  0
    6.7606   20.1783    6.1199 H   0  0  0  0  0
    8.1108   22.3266    5.9881 H   0  0  0  0  0
    6.8262   22.9420    4.9389 H   0  0  0  0  0
    7.1442   20.7218    2.5103 H   0  0  0  0  0
    6.4474   22.2777    3.1379 H   0  0  0  0  0
    5.8660   19.4698    4.1237 H   0  0  0  0  0
    4.7633   20.5388    3.2212 H   0  0  0  0  0
    4.6841   22.0831    5.0274 H   0  0  0  0  0
    4.5574   19.2421    5.9272 H   0  0  0  0  0
    3.1689   22.4783    5.3397 H   0  0  0  0  0
    1.7215   23.5016    4.3126 H   0  0  0  0  0
    2.5550   24.3661    5.6548 H   0  0  0  0  0
   -0.0782   25.1097    4.3853 H   0  0  0  0  0
    1.4857   25.9336    4.1509 H   0  0  0  0  0
    1.5373   26.4503    6.3941 H   0  0  0  0  0
    0.3127   27.9222    5.0586 H   0  0  0  0  0
   -1.1407   26.9551    5.4102 H   0  0  0  0  0
   -0.3049   27.8169    6.7255 H   0  0  0  0  0
   -0.9982   24.9127    6.2752 H   0  0  0  0  0
   -0.5308   25.8514    7.6917 H   0  0  0  0  0
    1.6671   24.5442    7.6504 H   0  0  0  0  0
    0.2519   23.6606    8.1343 H   0  0  0  0  0
   -0.3138   21.5667    7.5760 H   0  0  0  0  0
    0.5769   19.3943    8.0686 H   0  0  0  0  0
    1.7030   18.4197    9.0525 H   0  0  0  0  0
    5.3040   17.0194    8.0188 H   0  0  0  0  0
    4.4200   13.2205   10.8766 H   0  0  0  0  0
    6.6916   13.4736    9.9349 H   0  0  0  0  0
    7.3147   15.6071    7.2786 H   0  0  0  0  0
    8.0304   14.6052    8.5845 H   0  0  0  0  0
    7.8102   17.7937    7.1187 H   0  0  0  0  0
    9.6963   19.7531   10.4302 H   0  0  0  0  0
    8.3656   15.7548   10.8209 H   0  0  0  0  0
  1  2  1  0  0  0
  1  6  1  0  0  0
  2  3  1  0  0  0
  3  4  1  0  0  0
  4  5  1  0  0  0
  5  6  1  0  0  0
  6  7  1  0  0  0
  7  8  1  0  0  0
  8  9  4  0  0  0
  8 20  4  0  0  0
  9 10  4  0  0  0
 10 11  1  0  0  0
 10 18  4  0  0  0
 11 12  1  0  0  0
 11 17  1  0  0  0
 12 13  1  0  0  0
 13 14  1  0  0  0
 14 15  1  0  0  0
 14 16  1  0  0  0
 16 17  1  0  0  0
 18 19  4  0  0  0
 19 20  4  0  0  0
 20 21  1  0  0  0
 21 22  2  0  0  0
 21 23  1  0  0  0
 23 24  1  0  0  0
 24 25  4  0  0  0
 24 27  4  0  0  0
 25 26  4  0  0  0
 25 29  4  0  0  0
 26 32  4  0  0  0
 27 28  4  0  0  0
 28 29  4  0  0  0
 29 30  4  0  0  0
 30 31  4  0  0  0
 31 32  4  0  0  0
 32 33  1  0  0  0
 33 34  1  0  0  0
 34 35  4  0  0  0
 34 41  4  0  0  0
 35 36  4  0  0  0
 36 37  1  0  0  0
 36 38  4  0  0  0
 38 39  4  0  0  0
 39 40  1  0  0  0
 39 41  4  0  0  0
  1 42  1  0  0  0
  1 43  1  0  0  0
  2 44  1  0  0  0
  2 45  1  0  0  0
  4 46  1  0  0  0
  4 47  1  0  0  0
  5 48  1  0  0  0
  5 49  1  0  0  0
  6 50  1  0  0  0
  7 51  1  0  0  0
  9 52  1  0  0  0
 12 53  1  0  0  0
 12 54  1  0  0  0
 13 55  1  0  0  0
 13 56  1  0  0  0
 14 57  1  0  0  0
 15 58  1  0  0  0
 15 59  1  0  0  0
 15 60  1  0  0  0
 16 61  1  0  0  0
 16 62  1  0  0  0
 17 63  1  0  0  0
 17 64  1  0  0  0
 18 65  1  0  0  0
 19 66  1  0  0  0
 23 67  1  0  0  0
 26 68  1  0  0  0
 30 69  1  0  0  0
 31 70  1  0  0  0
 33 71  1  0  0  0
 33 72  1  0  0  0
 35 73  1  0  0  0
 38 74  1  0  0  0
 41 75  1  0  0  0
M  END
$$$$
