1w31_ligand
  -I-interpret- 

 18 17  0  0  0  0  0  0  0  0999 V2000
   21.2690   26.1910   14.9790 C   0  0  0  0  0
   19.8940   26.1860   15.6270 C   0  0  0  0  0
   19.6810   24.9390   16.4600 C   0  0  0  0  0
   19.7440   25.0730   17.9720 C   0  0  0  0  0
   21.4000   27.3190   13.9710 C   0  0  0  0  0
   20.3710   27.9430   13.6420 O   0  0  0  0  0
   18.5190   24.6850   18.5710 O   0  0  0  0  0
   22.5290   27.5770   13.5110 O   0  0  0  0  0
   21.4111   25.2433   14.4596 H   0  0  0  0  0
   22.0188   26.3325   15.7574 H   0  0  0  0  0
   19.1401   26.2099   14.8401 H   0  0  0  0  0
   19.8152   27.0559   16.2791 H   0  0  0  0  0
   20.4996   24.2701   16.1943 H   0  0  0  0  0
   18.6639   24.6144   16.2403 H   0  0  0  0  0
   19.9391   26.1159   18.2216 H   0  0  0  0  0
   20.5359   24.4245   18.3467 H   0  0  0  0  0
   19.6157   27.5832   14.1128 H   0  0  0  0  0
   18.5861   24.7791   19.5240 H   0  0  0  0  0
  1  2  1  0  0  0
  1  5  1  0  0  0
  2  3  1  0  0  0
  3  4  1  0  0  0
  4  7  1  0  0  0
  5  6  1  0  0  0
  5  8  2  0  0  0
  1  9  1  0  0  0
  1 10  1  0  0  0
  2 11  1  0  0  0
  2 12  1  0  0  0
  3 13  1  0  0  0
  3 14  1  0  0  0
  4 15  1  0  0  0
  4 16  1  0  0  0
  6 17  1  0  0  0
  7 18  1  0  0  0
M  END
$$$$
