4qev_ligand
  -I-interpret- 

 51 54  0  0  0  0  0  0  0  0999 V2000
   71.9580  -11.2650   73.1070 C   0  0  0  0  0
   70.7470  -10.6150   72.7180 O   0  0  0  0  0
   70.8330   -9.2590   72.6760 C   0  0  0  0  0
   71.6550   -8.6200   73.3410 O   0  0  0  0  0
   69.8010   -8.5650   71.7410 C   0  0  0  0  0
   70.0780   -8.9290   70.2700 C   0  0  0  0  0
   69.9270   -7.0560   71.8690 C   0  0  0  0  0
   69.8480   -6.5290   73.2740 N   0  0  0  0  0
   68.9870   -6.3040   71.1270 C   0  0  0  0  0
   67.8340   -6.7550   70.6030 N   0  0  0  0  0
   67.2600   -5.8250   70.0550 N   0  0  0  0  0
   68.0100   -4.7160   70.1870 C   0  0  0  0  0
   67.6340   -3.3490   69.6230 C   0  0  0  0  0
   69.1120   -4.9970   70.8800 N   0  0  0  0  0
   70.2050   -4.3170   71.3170 C   0  0  0  0  0
   70.8230   -3.4660   70.3940 C   0  0  0  0  0
   71.9790   -2.7590   70.7480 C   0  0  0  0  0
   72.5560   -2.9080   72.0140 C   0  0  0  0  0
   73.6900   -2.2490   72.4330 O   0  0  0  0  0
   74.4850   -1.5120   71.4870 C   0  0  0  0  0
   71.9530   -3.7660   72.9280 C   0  0  0  0  0
   70.7940   -4.4630   72.5870 C   0  0  0  0  0
   70.3010   -5.2980   73.5940 C   0  0  0  0  0
   70.1740   -4.8380   74.9160 C   0  0  0  0  0
   70.3000   -5.7260   75.9930 C   0  0  0  0  0
   70.1630   -5.2680   77.3040 C   0  0  0  0  0
   69.8950   -3.9220   77.5550 C   0  0  0  0  0
   69.7210   -3.3560   79.1880 Cl  0  0  0  0  0
   69.7680   -3.0360   76.4950 C   0  0  0  0  0
   69.9060   -3.4910   75.1850 C   0  0  0  0  0
   72.7471  -11.0150   72.3978 H   0  0  0  0  0
   72.2444  -10.9303   74.1040 H   0  0  0  0  0
   71.8034  -12.3439   73.1150 H   0  0  0  0  0
   68.8049   -8.8992   72.0312 H   0  0  0  0  0
   69.3504   -8.4296   69.6303 H   0  0  0  0  0
   71.0834   -8.6057   70.0002 H   0  0  0  0  0
   69.9956  -10.0084   70.1424 H   0  0  0  0  0
   70.9283   -6.9177   71.4610 H   0  0  0  0  0
   67.5344   -3.4192   68.5398 H   0  0  0  0  0
   66.6871   -3.0266   70.0561 H   0  0  0  0  0
   68.4128   -2.6281   69.8716 H   0  0  0  0  0
   70.4027   -3.3528   69.3947 H   0  0  0  0  0
   72.4363   -2.0823   70.0262 H   0  0  0  0  0
   74.8440   -2.1883   70.7112 H   0  0  0  0  0
   73.8763   -0.7289   71.0349 H   0  0  0  0  0
   75.3348   -1.0625   72.0007 H   0  0  0  0  0
   72.3897   -3.8946   73.9184 H   0  0  0  0  0
   70.5061   -6.7798   75.8056 H   0  0  0  0  0
   70.2658   -5.9650   78.1357 H   0  0  0  0  0
   69.5602   -1.9834   76.6869 H   0  0  0  0  0
   69.8038   -2.7879   74.3584 H   0  0  0  0  0
  1  2  1  0  0  0
  2  3  1  0  0  0
  3  4  2  0  0  0
  3  5  1  0  0  0
  5  6  1  0  0  0
  5  7  1  0  0  0
  7  8  1  0  0  0
  7  9  1  0  0  0
  8 23  2  0  0  0
  9 10  4  0  0  0
  9 14  4  0  0  0
 10 11  4  0  0  0
 11 12  4  0  0  0
 12 13  1  0  0  0
 12 14  4  0  0  0
 14 15  1  0  0  0
 15 16  4  0  0  0
 15 22  4  0  0  0
 16 17  4  0  0  0
 17 18  4  0  0  0
 18 19  1  0  0  0
 18 21  4  0  0  0
 19 20  1  0  0  0
 21 22  4  0  0  0
 22 23  1  0  0  0
 23 24  1  0  0  0
 24 25  4  0  0  0
 24 30  4  0  0  0
 25 26  4  0  0  0
 26 27  4  0  0  0
 27 28  1  0  0  0
 27 29  4  0  0  0
 29 30  4  0  0  0
  1 31  1  0  0  0
  1 32  1  0  0  0
  1 33  1  0  0  0
  5 34  1  0  0  0
  6 35  1  0  0  0
  6 36  1  0  0  0
  6 37  1  0  0  0
  7 38  1  0  0  0
 13 39  1  0  0  0
 13 40  1  0  0  0
 13 41  1  0  0  0
 16 42  1  0  0  0
 17 43  1  0  0  0
 20 44  1  0  0  0
 20 45  1  0  0  0
 20 46  1  0  0  0
 21 47  1  0  0  0
 25 48  1  0  0  0
 26 49  1  0  0  0
 29 50  1  0  0  0
 30 51  1  0  0  0
M  END
$$$$
