3vbd_ligand
  -I-interpret- 

 41 43  0  0  0  0  0  0  0  0999 V2000
   -5.8180   10.5810   10.2290 C   0  0  0  0  0
   -6.5820    9.3930   10.4320 O   0  0  0  0  0
   -5.8440    8.3990   10.9560 C   0  0  0  0  0
   -4.5190    8.5380   11.3120 C   0  0  0  0  0
   -6.4800    7.1880   11.2200 C   0  0  0  0  0
   -5.7310    6.2650   11.8900 C   0  0  0  0  0
   -4.4280    6.3610   12.3770 C   0  0  0  0  0
   -3.8000    7.5610   11.9970 C   0  0  0  0  0
   -2.4530    7.8110   12.2330 C   0  0  0  0  0
   -1.7260    6.4630   12.4300 C   0  0  0  0  0
   -2.4570    5.7340   13.5120 N   0  3  0  0  0
   -3.7850    5.4880   13.2610 C   0  0  0  0  0
   -4.2620    4.4090   13.9940 C   0  0  0  0  0
   -5.5720    4.3050   14.4440 C   0  0  0  0  0
   -6.0460    3.2270   15.1730 C   0  0  0  0  0
   -3.4270    3.3280   14.3410 C   0  0  0  0  0
   -3.8900    2.2270   15.0920 C   0  0  0  0  0
   -5.2190    2.1730   15.5400 C   0  0  0  0  0
   -5.8070    0.8320   16.5930 S   0  0  0  0  0
   -5.2410    1.1410   17.9210 O   0  0  0  0  0
   -7.3180    1.0140   16.5570 O   0  0  0  0  0
   -5.3480   -0.5110   16.1290 N   0  0  0  0  0
   -5.4182   10.9220   11.1840 H   0  0  0  0  0
   -4.9966   10.3706    9.5441 H   0  0  0  0  0
   -6.4577   11.3547    9.8044 H   0  0  0  0  0
   -4.0068    9.4618   11.0430 H   0  0  0  0  0
   -7.5069    6.9910   10.9121 H   0  0  0  0  0
   -6.2248    5.3104   12.0716 H   0  0  0  0  0
   -2.3416    8.4256   13.1263 H   0  0  0  0  0
   -2.0215    8.3439   11.3857 H   0  0  0  0  0
   -0.6830    6.6209   12.7045 H   0  0  0  0  0
   -1.7230    5.8849   11.5060 H   0  0  0  0  0
   -2.4217    6.3287   14.3400 H   0  0  0  0  0
   -2.0048    4.8248   13.6084 H   0  0  0  0  0
   -4.7575    5.3320   12.7941 H   0  0  0  0  0
   -6.2636    5.1147   14.2111 H   0  0  0  0  0
   -7.0955    3.2051   15.4664 H   0  0  0  0  0
   -2.3862    3.3431   14.0176 H   0  0  0  0  0
   -3.2083    1.4096   15.3268 H   0  0  0  0  0
   -4.7283   -1.0691   16.7162 H   0  0  0  0  0
   -5.6542   -0.8703   15.2248 H   0  0  0  0  0
  1  2  1  0  0  0
  2  3  1  0  0  0
  3  4  4  0  0  0
  3  5  4  0  0  0
  4  8  4  0  0  0
  5  6  4  0  0  0
  6  7  4  0  0  0
  7  8  4  0  0  0
  7 12  1  0  0  0
  8  9  1  0  0  0
  9 10  1  0  0  0
 10 11  1  0  0  0
 11 12  1  0  0  0
 12 13  1  0  0  0
 13 14  4  0  0  0
 13 16  4  0  0  0
 14 15  4  0  0  0
 15 18  4  0  0  0
 16 17  4  0  0  0
 17 18  4  0  0  0
 18 19  1  0  0  0
 19 20  2  0  0  0
 19 21  2  0  0  0
 19 22  1  0  0  0
  1 23  1  0  0  0
  1 24  1  0  0  0
  1 25  1  0  0  0
  4 26  1  0  0  0
  5 27  1  0  0  0
  6 28  1  0  0  0
  9 29  1  0  0  0
  9 30  1  0  0  0
 10 31  1  0  0  0
 10 32  1  0  0  0
 11 33  1  0  0  0
 11 34  1  0  0  0
 12 35  1  0  0  0
 14 36  1  0  0  0
 15 37  1  0  0  0
 16 38  1  0  0  0
 17 39  1  0  0  0
 22 40  1  0  0  0
 22 41  1  0  0  0
M  END
$$$$
