6ilz_ligand
  -I-interpret- 

 51 54  0  0  0  0  0  0  0  0999 V2000
   65.2450   -0.1570   59.9860 C   0  0  0  0  0
   67.1960    0.9480   60.9000 C   0  0  0  0  0
   66.3780    1.5970   61.8190 C   0  0  0  0  0
   64.9890    1.4250   61.7960 C   0  0  0  0  0
   64.4450    0.4910   60.9230 C   0  0  0  0  0
   64.5590    2.8690   63.6070 C   0  0  0  0  0
   63.5360    3.2570   64.4380 C   0  0  0  0  0
   63.8020    4.1700   65.4460 C   0  0  0  0  0
   61.5880    3.9830   66.2290 C   0  0  0  0  0
   61.2940    3.1150   65.1830 C   0  0  0  0  0
   62.2830    2.6810   64.3120 C   0  0  0  0  0
   60.0690    2.4970   65.1140 C   0  0  0  0  0
   59.2790    2.4310   66.2540 C   0  0  0  0  0
   58.0770    1.7290   66.2150 C   0  0  0  0  0
   57.7020    1.0450   65.0620 C   0  0  0  0  0
   58.5260    1.1130   63.9460 C   0  0  0  0  0
   59.7440    1.7710   63.9880 C   0  0  0  0  0
   59.0960    0.5200   61.6580 C   0  0  0  0  0
   58.2420    0.3880   60.4090 C   0  0  0  0  0
   56.6260   -0.8690   61.5760 C   0  0  0  0  0
   57.4220   -0.7740   62.8580 C   0  0  0  0  0
   66.6320    0.0600   59.9690 N   0  0  0  0  0
   64.1660    1.9470   62.7050 N   0  0  0  0  0
   62.8610    4.5550   66.3150 N   0  0  0  0  0
   65.0410    4.6530   65.4840 N   0  0  0  0  0
   58.2300    0.4490   62.8400 N   0  0  0  0  0
   57.4900   -0.8910   60.3690 N   0  3  0  0  0
   65.6570    3.4210   63.7140 O   0  0  0  0  0
   64.7928   -0.8355   59.2627 H   0  0  0  0  0
   68.2711    1.1279   60.9022 H   0  0  0  0  0
   66.8255    2.2496   62.5686 H   0  0  0  0  0
   63.3802    0.2632   60.9723 H   0  0  0  0  0
   60.8306    4.2161   66.9774 H   0  0  0  0  0
   62.0820    1.9183   63.5597 H   0  0  0  0  0
   59.5972    2.9248   67.1722 H   0  0  0  0  0
   57.4275    1.7150   67.0903 H   0  0  0  0  0
   56.7785    0.4666   65.0355 H   0  0  0  0  0
   60.4335    1.7158   63.1456 H   0  0  0  0  0
   59.6210    1.4751   61.6444 H   0  0  0  0  0
   59.8273   -0.2876   61.6897 H   0  0  0  0  0
   58.9041    0.4166   59.5436 H   0  0  0  0  0
   57.5192    1.2039   60.4074 H   0  0  0  0  0
   55.9841    0.0097   61.5135 H   0  0  0  0  0
   56.0597   -1.8000   61.6006 H   0  0  0  0  0
   58.0764   -1.6413   62.9452 H   0  0  0  0  0
   56.7406   -0.7476   63.7084 H   0  0  0  0  0
   63.1950    1.6350   62.7190 H   0  0  0  0  0
   65.7290    4.3471   64.7959 H   0  0  0  0  0
   65.3030    5.3292   66.2013 H   0  0  0  0  0
   58.1156   -1.6966   60.3674 H   0  0  0  0  0
   56.9413   -0.9795   59.5138 H   0  0  0  0  0
  5  1  4  0  0  0
  1 22  4  0  0  0
  3  2  4  0  0  0
  2 22  4  0  0  0
  4  3  4  0  0  0
  4  5  4  0  0  0
 23  4  1  0  0  0
  7  6  1  0  0  0
  6 23  1  0  0  0
  6 28  2  0  0  0
  7  8  4  0  0  0
 11  7  4  0  0  0
 24  8  4  0  0  0
  8 25  1  0  0  0
 10  9  4  0  0  0
  9 24  4  0  0  0
 10 11  4  0  0  0
 12 10  1  0  0  0
 12 13  4  0  0  0
 17 12  4  0  0  0
 14 13  4  0  0  0
 15 14  4  0  0  0
 16 15  4  0  0  0
 16 17  4  0  0  0
 26 16  1  0  0  0
 19 18  1  0  0  0
 18 26  1  0  0  0
 27 19  1  0  0  0
 20 21  1  0  0  0
 20 27  1  0  0  0
 21 26  1  0  0  0
  1 29  1  0  0  0
  2 30  1  0  0  0
  3 31  1  0  0  0
  5 32  1  0  0  0
  9 33  1  0  0  0
 11 34  1  0  0  0
 13 35  1  0  0  0
 14 36  1  0  0  0
 15 37  1  0  0  0
 17 38  1  0  0  0
 18 39  1  0  0  0
 18 40  1  0  0  0
 19 41  1  0  0  0
 19 42  1  0  0  0
 20 43  1  0  0  0
 20 44  1  0  0  0
 21 45  1  0  0  0
 21 46  1  0  0  0
 23 47  1  0  0  0
 25 48  1  0  0  0
 25 49  1  0  0  0
 27 50  1  0  0  0
 27 51  1  0  0  0
M  END
$$$$
