### 
### Created by X-TOOL on Mon Aug  2 16:17:05 2021
### 

@<TRIPOS>MOLECULE
6hks_ligand
  130   129     1     0     0
SMALL
GAST_HUCK


@<TRIPOS>ATOM
      1 N           1.9830   10.6980   61.7140 N.4       1 THR         0.2398
      2 CA          2.9220   10.8640   60.6100 C.3       1 THR         0.0910
      3 C           3.2290   12.3490   60.3280 C.2       1 THR         0.2293
      4 O           4.0150   12.9710   61.0520 O.2       1 THR        -0.3906
      5 CB          2.3960   10.1580   59.3190 C.3       1 THR         0.1120
      6 OG1         3.1370   10.6010   58.1730 O.3       1 THR        -0.3840
      7 CG2         0.8940   10.3970   59.1120 C.3       1 THR        -0.0314
      8 N           2.6050   12.9100   59.2900 N.am      1 THR        -0.2609
      9 CA          2.9280   14.2530   58.8150 C.3       1 THR         0.1312
     10 C           2.2880   15.3220   59.6960 C.2       1 THR         0.2039
     11 O           1.1320   15.1960   60.1100 O.2       1 THR        -0.3944
     12 CB          2.4770   14.4130   57.3630 C.3       1 THR        -0.0092
     13 CG          3.5170   13.9300   56.3560 C.3       1 THR        -0.0156
     14 CD          4.7850   14.7410   56.5110 C.3       1 THR         0.0627
     15 NE          6.0260   14.0360   56.1610 N.pl3     1 THR        -0.2723
     16 CZ          6.9390   13.6410   57.0480 C.cat     1 THR         0.2882
     17 NH1         6.7470   13.8710   58.3450 N.pl3     1 THR        -0.2849
     18 NH2         8.0470   13.0320   56.6390 N.pl3     1 THR        -0.2849
     19 N           3.0450   16.3890   59.9590 N.am      1 THR        -0.2637
     20 CA          2.6930   17.3380   61.0090 C.3       1 THR         0.1311
     21 C           1.7150   18.4040   60.5280 C.2       1 THR         0.2039
     22 O           1.8520   18.9620   59.4380 O.2       1 THR        -0.3944
     23 CB          3.9450   18.0140   61.5610 C.3       1 THR        -0.0092
     24 CG          4.9340   17.0730   62.1930 C.3       1 THR        -0.0156
     25 CD          4.5320   16.6590   63.5960 C.3       1 THR         0.0627
     26 NE          4.6020   17.7550   64.5510 N.pl3     1 THR        -0.2723
     27 CZ          5.7250   18.2340   65.0730 C.cat     1 THR         0.2882
     28 NH1         6.9100   17.7290   64.7270 N.pl3     1 THR        -0.2849
     29 NH2         5.6600   19.2330   65.9400 N.pl3     1 THR        -0.2849
     30 N           0.7120   18.6750   61.3540 N.am      1 THR        -0.2636
     31 CA         -0.1370   19.8480   61.2090 C.3       1 THR         0.1325
     32 C          -0.3150   20.4000   62.6110 C.2       1 THR         0.2041
     33 O          -0.6270   19.6460   63.5350 O.2       1 THR        -0.3944
     34 CB         -1.4770   19.4970   60.5610 C.3       1 THR        -0.0008
     35 CG         -2.2190   20.6940   59.9810 C.3       1 THR         0.0044
     36 CD         -3.6520   20.3750   59.5510 C.2       1 THR         0.0350
     37 OE1        -4.0770   19.2000   59.6710 O.co2     1 THR        -0.5690
     38 OE2        -4.3540   21.3110   59.0980 O.co2     1 THR        -0.5690
     39 N          -0.0390   21.6840   62.7950 N.am      1 THR        -0.2613
     40 CA         -0.0140   22.2740   64.1250 C.3       1 THR         0.1565
     41 C          -0.9710   23.4530   64.1400 C.2       1 THR         0.2065
     42 O          -0.9540   24.2840   63.2230 O.2       1 THR        -0.3943
     43 CB          1.4090   22.7130   64.5380 C.3       1 THR         0.0924
     44 OG1         2.2140   21.5590   64.8370 O.3       1 THR        -0.3874
     45 CG2         1.3810   23.5990   65.7800 C.3       1 THR        -0.0346
     46 N          -1.8250   23.4970   65.1590 N.am      1 THR        -0.2635
     47 CA         -2.7600   24.5930   65.3570 C.3       1 THR         0.1330
     48 C          -2.0850   25.6890   66.1470 C.2       1 THR         0.2035
     49 O          -1.5350   25.4310   67.2200 O.2       1 THR        -0.3944
     50 CB         -4.0110   24.1500   66.1250 C.3       1 THR         0.0045
     51 CG         -5.0230   23.3780   65.3430 C.3       1 THR         0.0412
     52 CD         -6.0620   22.7300   66.2380 C.2       1 THR         0.1737
     53 OE1        -6.5780   21.6640   65.9160 O.2       1 THR        -0.3973
     54 NE2        -6.3540   23.3600   67.3780 N.am      1 THR        -0.3009
     55 N          -2.1730   26.9130   65.6540 N.am      1 THR        -0.2695
     56 CA         -1.7580   28.0270   66.4970 C.3       1 THR         0.0946
     57 C          -2.5790   29.3000   66.2680 C.2       1 THR         0.0601
     58 O          -3.6520   29.2750   65.6550 O.co2     1 THR        -0.5666
     59 CB         -0.2700   28.2890   66.2940 C.3       1 THR        -0.0156
     60 CG          0.0970   28.4800   64.8350 C.3       1 THR        -0.0431
     61 CD1         0.2000   29.9440   64.6070 C.3       1 THR        -0.0625
     62 CD2         1.3950   27.7780   64.5060 C.3       1 THR        -0.0625
     63 OXT        -2.1940   30.3780   66.7260 O.co2     1 THR        -0.5666
     64 H1          2.3431   11.1608   62.5339 H         1 THR         0.2016
     65 H2          1.8627    9.7162   61.9080 H         1 THR         0.2016
     66 H3          1.0944   11.1023   61.4630 H         1 THR         0.2016
     67 H4          3.8651   10.3778   60.9002 H         1 THR         0.1125
     68 H5          2.5546    9.0757   59.4347 H         1 THR         0.0674
     69 H6          2.8074   10.1646   57.3961 H         1 THR         0.2102
     70 H7          0.5642    9.8852   58.1959 H         1 THR         0.0258
     71 H8          0.7040   11.4763   59.0177 H         1 THR         0.0258
     72 H9          0.3374   10.0007   59.9740 H         1 THR         0.0258
     73 H10         1.8902   12.3919   58.8203 H         1 THR         0.1884
     74 H11         4.0196   14.3816   58.8571 H         1 THR         0.0800
     75 H12         2.2754   15.4778   57.1744 H         1 THR         0.0313
     76 H13         1.5534   13.8335   57.2175 H         1 THR         0.0313
     77 H14         3.1248   14.0544   55.3358 H         1 THR         0.0301
     78 H15         3.7370   12.8676   56.5373 H         1 THR         0.0301
     79 H16         4.8592   15.0591   57.5614 H         1 THR         0.0689
     80 H17         4.7033   15.6271   55.8644 H         1 THR         0.0689
     81 H18         6.2015   13.8342   55.1663 H         1 THR         0.2642
     82 H19         7.4515   13.5664   59.0319 H         1 THR         0.2615
     83 H20         5.8939   14.3535   58.6617 H         1 THR         0.2615
     84 H21         8.1963   12.8537   55.6356 H         1 THR         0.2615
     85 H22         8.7566   12.7383   57.3254 H         1 THR         0.2615
     86 H23         3.8749   16.5418   59.4224 H         1 THR         0.1883
     87 H24         2.2123   16.7764   61.8236 H         1 THR         0.0800
     88 H25         3.6337   18.7463   62.3205 H         1 THR         0.0313
     89 H26         4.4475   18.5354   60.7330 H         1 THR         0.0313
     90 H27         5.9136   17.5711   62.2399 H         1 THR         0.0301
     91 H28         5.0108   16.1710   61.5681 H         1 THR         0.0301
     92 H29         5.2056   15.8570   63.9320 H         1 THR         0.0689
     93 H30         3.4988   16.2827   63.5686 H         1 THR         0.0689
     94 H31         3.7157   18.1909   64.8433 H         1 THR         0.2642
     95 H32         7.7729   18.1106   65.1401 H         1 THR         0.2615
     96 H33         6.9622   16.9574   64.0467 H         1 THR         0.2615
     97 H34         4.7454   19.6237   66.2079 H         1 THR         0.2615
     98 H35         6.5240   19.6192   66.3464 H         1 THR         0.2615
     99 H36         0.5317   18.0452   62.1095 H         1 THR         0.1883
    100 H37         0.3685   20.5951   60.5796 H         1 THR         0.0801
    101 H38        -2.1176   19.0296   61.3233 H         1 THR         0.0330
    102 H39        -1.2905   18.7793   59.7485 H         1 THR         0.0330
    103 H40        -1.6643   21.0550   59.1024 H         1 THR         0.0433
    104 H41        -2.2527   21.4856   60.7440 H         1 THR         0.0433
    105 H42         0.1565   22.2601   62.0014 H         1 THR         0.1884
    106 H43        -0.3636   21.5233   64.8490 H         1 THR         0.0826
    107 H44         1.8627   23.2711   63.7058 H         1 THR         0.0639
    108 H45         2.2689   21.0045   64.0675 H         1 THR         0.2101
    109 H46         2.4077   23.8919   66.0446 H         1 THR         0.0257
    110 H47         0.9310   23.0440   66.6163 H         1 THR         0.0257
    111 H48         0.7842   24.4999   65.5744 H         1 THR         0.0257
    112 H49        -1.8240   22.7441   65.8171 H         1 THR         0.1883
    113 H50        -3.0629   24.9817   64.3736 H         1 THR         0.0801
    114 H51        -4.5042   25.0531   66.5137 H         1 THR         0.0337
    115 H52        -3.6840   23.5202   66.9655 H         1 THR         0.0337
    116 H53        -4.5064   22.5920   64.7726 H         1 THR         0.0504
    117 H54        -5.5311   24.0621   64.6474 H         1 THR         0.0504
    118 H55        -7.0325   22.9739   68.0030 H         1 THR         0.1814
    119 H56        -5.8943   24.2180   67.6070 H         1 THR         0.1814
    120 H57        -2.5152   27.0699   64.7275 H         1 THR         0.1875
    121 H58        -1.9101   27.7254   67.5438 H         1 THR         0.0726
    122 H59         0.2954   27.4324   66.6898 H         1 THR         0.0308
    123 H60         0.0061   29.1982   66.8482 H         1 THR         0.0308
    124 H61        -0.6981   28.0649   64.1982 H         1 THR         0.0297
    125 H62         0.4659   30.1337   63.5566 H         1 THR         0.0232
    126 H63         0.9767   30.3636   65.2633 H         1 THR         0.0232
    127 H64        -0.7662   30.4191   64.8321 H         1 THR         0.0232
    128 H65         1.2837   26.6985   64.6856 H         1 THR         0.0232
    129 H66         2.1985   28.1749   65.1439 H         1 THR         0.0232
    130 H67         1.6471   27.9498   63.4492 H         1 THR         0.0232
@<TRIPOS>BOND
     1    1    2 1  
     2    2    3 1  
     3    2    5 1  
     4    3    4 2  
     5    3    8 am 
     6    5    6 1  
     7    5    7 1  
     8    8    9 1  
     9    9   10 1  
    10    9   12 1  
    11   10   11 2  
    12   10   19 am 
    13   12   13 1  
    14   13   14 1  
    15   14   15 1  
    16   15   16 ar 
    17   16   17 ar 
    18   16   18 ar 
    19   19   20 1  
    20   20   21 1  
    21   20   23 1  
    22   21   22 2  
    23   21   30 am 
    24   23   24 1  
    25   24   25 1  
    26   25   26 1  
    27   26   27 ar 
    28   27   28 ar 
    29   27   29 ar 
    30   30   31 1  
    31   31   32 1  
    32   31   34 1  
    33   32   33 2  
    34   32   39 am 
    35   34   35 1  
    36   35   36 1  
    37   36   37 ar 
    38   36   38 ar 
    39   39   40 1  
    40   40   41 1  
    41   40   43 1  
    42   41   42 2  
    43   41   46 am 
    44   43   44 1  
    45   43   45 1  
    46   46   47 1  
    47   47   48 1  
    48   47   50 1  
    49   48   49 2  
    50   48   55 am 
    51   50   51 1  
    52   51   52 1  
    53   52   53 2  
    54   52   54 am 
    55   55   56 1  
    56   56   57 1  
    57   56   59 1  
    58   57   58 ar 
    59   57   63 ar 
    60   59   60 1  
    61   60   61 1  
    62   60   62 1  
    63    1   64 1  
    64    1   65 1  
    65    1   66 1  
    66    2   67 1  
    67    5   68 1  
    68    6   69 1  
    69    7   70 1  
    70    7   71 1  
    71    7   72 1  
    72    8   73 1  
    73    9   74 1  
    74   12   75 1  
    75   12   76 1  
    76   13   77 1  
    77   13   78 1  
    78   14   79 1  
    79   14   80 1  
    80   15   81 1  
    81   17   82 1  
    82   17   83 1  
    83   18   84 1  
    84   18   85 1  
    85   19   86 1  
    86   20   87 1  
    87   23   88 1  
    88   23   89 1  
    89   24   90 1  
    90   24   91 1  
    91   25   92 1  
    92   25   93 1  
    93   26   94 1  
    94   28   95 1  
    95   28   96 1  
    96   29   97 1  
    97   29   98 1  
    98   30   99 1  
    99   31  100 1  
   100   34  101 1  
   101   34  102 1  
   102   35  103 1  
   103   35  104 1  
   104   39  105 1  
   105   40  106 1  
   106   43  107 1  
   107   44  108 1  
   108   45  109 1  
   109   45  110 1  
   110   45  111 1  
   111   46  112 1  
   112   47  113 1  
   113   50  114 1  
   114   50  115 1  
   115   51  116 1  
   116   51  117 1  
   117   54  118 1  
   118   54  119 1  
   119   55  120 1  
   120   56  121 1  
   121   59  122 1  
   122   59  123 1  
   123   60  124 1  
   124   61  125 1  
   125   61  126 1  
   126   61  127 1  
   127   62  128 1  
   128   62  129 1  
   129   62  130 1  
@<TRIPOS>SUBSTRUCTURE
     1 THR         1

