6hks_ligand
  -I-interpret- 

130129  0  0  0  0  0  0  0  0999 V2000
    1.9830   10.6980   61.7140 N   0  3  0  0  0
    2.9220   10.8640   60.6100 C   0  0  0  0  0
    3.2290   12.3490   60.3280 C   0  0  0  0  0
    4.0150   12.9710   61.0520 O   0  0  0  0  0
    2.3960   10.1580   59.3190 C   0  0  0  0  0
    3.1370   10.6010   58.1730 O   0  0  0  0  0
    0.8940   10.3970   59.1120 C   0  0  0  0  0
    2.6050   12.9100   59.2900 N   0  0  0  0  0
    2.9280   14.2530   58.8150 C   0  0  0  0  0
    2.2880   15.3220   59.6960 C   0  0  0  0  0
    1.1320   15.1960   60.1100 O   0  0  0  0  0
    2.4770   14.4130   57.3630 C   0  0  0  0  0
    3.5170   13.9300   56.3560 C   0  0  0  0  0
    4.7850   14.7410   56.5110 C   0  0  0  0  0
    6.0260   14.0360   56.1610 N   0  0  0  0  0
    6.9390   13.6410   57.0480 C   0  0  0  0  0
    6.7470   13.8710   58.3450 N   0  0  0  0  0
    8.0470   13.0320   56.6390 N   0  0  0  0  0
    3.0450   16.3890   59.9590 N   0  0  0  0  0
    2.6930   17.3380   61.0090 C   0  0  0  0  0
    1.7150   18.4040   60.5280 C   0  0  0  0  0
    1.8520   18.9620   59.4380 O   0  0  0  0  0
    3.9450   18.0140   61.5610 C   0  0  0  0  0
    4.9340   17.0730   62.1930 C   0  0  0  0  0
    4.5320   16.6590   63.5960 C   0  0  0  0  0
    4.6020   17.7550   64.5510 N   0  0  0  0  0
    5.7250   18.2340   65.0730 C   0  0  0  0  0
    6.9100   17.7290   64.7270 N   0  0  0  0  0
    5.6600   19.2330   65.9400 N   0  0  0  0  0
    0.7120   18.6750   61.3540 N   0  0  0  0  0
   -0.1370   19.8480   61.2090 C   0  0  0  0  0
   -0.3150   20.4000   62.6110 C   0  0  0  0  0
   -0.6270   19.6460   63.5350 O   0  0  0  0  0
   -1.4770   19.4970   60.5610 C   0  0  0  0  0
   -2.2190   20.6940   59.9810 C   0  0  0  0  0
   -3.6520   20.3750   59.5510 C   0  0  0  0  0
   -4.0770   19.2000   59.6710 O   0  0  0  0  0
   -4.3540   21.3110   59.0980 O   0  0  0  0  0
   -0.0390   21.6840   62.7950 N   0  0  0  0  0
   -0.0140   22.2740   64.1250 C   0  0  0  0  0
   -0.9710   23.4530   64.1400 C   0  0  0  0  0
   -0.9540   24.2840   63.2230 O   0  0  0  0  0
    1.4090   22.7130   64.5380 C   0  0  0  0  0
    2.2140   21.5590   64.8370 O   0  0  0  0  0
    1.3810   23.5990   65.7800 C   0  0  0  0  0
   -1.8250   23.4970   65.1590 N   0  0  0  0  0
   -2.7600   24.5930   65.3570 C   0  0  0  0  0
   -2.0850   25.6890   66.1470 C   0  0  0  0  0
   -1.5350   25.4310   67.2200 O   0  0  0  0  0
   -4.0110   24.1500   66.1250 C   0  0  0  0  0
   -5.0230   23.3780   65.3430 C   0  0  0  0  0
   -6.0620   22.7300   66.2380 C   0  0  0  0  0
   -6.5780   21.6640   65.9160 O   0  0  0  0  0
   -6.3540   23.3600   67.3780 N   0  0  0  0  0
   -2.1730   26.9130   65.6540 N   0  0  0  0  0
   -1.7580   28.0270   66.4970 C   0  0  0  0  0
   -2.5790   29.3000   66.2680 C   0  0  0  0  0
   -3.6520   29.2750   65.6550 O   0  0  0  0  0
   -0.2700   28.2890   66.2940 C   0  0  0  0  0
    0.0970   28.4800   64.8350 C   0  0  0  0  0
    0.2000   29.9440   64.6070 C   0  0  0  0  0
    1.3950   27.7780   64.5060 C   0  0  0  0  0
   -2.1940   30.3780   66.7260 O   0  0  0  0  0
    2.3484   11.1667   62.5430 H   0  0  0  0  0
    1.0843   11.1074   61.4589 H   0  0  0  0  0
    1.8620    9.7042   61.9094 H   0  0  0  0  0
    3.8557   10.3893   60.9114 H   0  0  0  0  0
    2.5429    9.0853   59.4447 H   0  0  0  0  0
    4.0729   10.4446   58.3185 H   0  0  0  0  0
    0.7140   11.4616   58.9626 H   0  0  0  0  0
    0.5568    9.8437   58.2355 H   0  0  0  0  0
    0.3484   10.0548   59.9914 H   0  0  0  0  0
    1.8759   12.3815   58.8109 H   0  0  0  0  0
    4.0086   14.3849   58.8695 H   0  0  0  0  0
    2.3104   15.4751   57.1832 H   0  0  0  0  0
    1.5793   13.8100   57.2268 H   0  0  0  0  0
    3.1283   14.0535   55.3452 H   0  0  0  0  0
    3.7351   12.8773   56.5359 H   0  0  0  0  0
    4.8613   15.0035   57.5662 H   0  0  0  0  0
    4.7016   15.5856   55.8271 H   0  0  0  0  0
    6.1998   13.8361   55.1760 H   0  0  0  0  0
    7.4501   13.5798   59.0241 H   0  0  0  0  0
    5.8968   14.3384   58.6597 H   0  0  0  0  0
    8.2002   12.8659   55.6443 H   0  0  0  0  0
    3.8915   16.5449   59.4117 H   0  0  0  0  0
    2.2025   16.7644   61.7954 H   0  0  0  0  0
    3.6186   18.7039   62.3392 H   0  0  0  0  0
    4.4490   18.4887   60.7191 H   0  0  0  0  0
    5.8926   17.5878   62.2572 H   0  0  0  0  0
    4.9808   16.1738   61.5787 H   0  0  0  0  0
    5.2244   15.8846   63.9262 H   0  0  0  0  0
    3.4984   16.3151   63.5586 H   0  0  0  0  0
    3.7243   18.1867   64.8404 H   0  0  0  0  0
    7.7650   18.1122   65.1301 H   0  0  0  0  0
    6.9612   16.9596   64.0593 H   0  0  0  0  0
    4.7548   19.6251   66.1993 H   0  0  0  0  0
    0.5281   18.0326   62.1246 H   0  0  0  0  0
    0.3147   20.5879   60.5482 H   0  0  0  0  0
   -2.1101   19.0710   61.3393 H   0  0  0  0  0
   -1.2679   18.8161   59.7359 H   0  0  0  0  0
   -1.6753   21.0174   59.0934 H   0  0  0  0  0
   -2.2727   21.4546   60.7599 H   0  0  0  0  0
   -3.3830   18.6455   60.0349 H   0  0  0  0  0
    0.1604   22.2717   61.9855 H   0  0  0  0  0
   -0.3265   21.5253   64.8529 H   0  0  0  0  0
    1.8292   23.2729   63.7025 H   0  0  0  0  0
    3.0951   21.8422   65.0922 H   0  0  0  0  0
    0.7894   24.4912   65.5750 H   0  0  0  0  0
    0.9348   23.0479   66.6079 H   0  0  0  0  0
    2.3989   23.8885   66.0412 H   0  0  0  0  0
   -1.8239   22.7290   65.8303 H   0  0  0  0  0
   -3.0643   24.9449   64.3712 H   0  0  0  0  0
   -4.5087   25.0634   66.4506 H   0  0  0  0  0
   -3.6642   23.4850   66.9159 H   0  0  0  0  0
   -4.5031   22.5893   64.7991 H   0  0  0  0  0
   -5.5346   24.0691   64.6731 H   0  0  0  0  0
   -7.0321   22.9566   68.0244 H   0  0  0  0  0
   -5.8990   24.2448   67.6027 H   0  0  0  0  0
   -2.5220   27.0731   64.7090 H   0  0  0  0  0
   -1.9448   27.7405   67.5319 H   0  0  0  0  0
   -3.8277   28.3798   65.3562 H   0  0  0  0  0
    0.2762   27.4221   66.6657 H   0  0  0  0  0
   -0.0161   29.2060   66.8258 H   0  0  0  0  0
   -0.6597   28.0437   64.1830 H   0  0  0  0  0
   -0.7580   30.4135   64.8305 H   0  0  0  0  0
    0.9698   30.3585   65.2579 H   0  0  0  0  0
    0.4635   30.1306   63.5659 H   0  0  0  0  0
    2.1943   28.1864   65.1243 H   0  0  0  0  0
    1.2899   26.7112   64.7037 H   0  0  0  0  0
    1.6333   27.9320   63.4536 H   0  0  0  0  0
  1  2  1  0  0  0
  2  3  1  0  0  0
  2  5  1  0  0  0
  3  4  2  0  0  0
  3  8  1  0  0  0
  5  6  1  0  0  0
  5  7  1  0  0  0
  8  9  1  0  0  0
  9 10  1  0  0  0
  9 12  1  0  0  0
 10 11  2  0  0  0
 10 19  1  0  0  0
 12 13  1  0  0  0
 13 14  1  0  0  0
 14 15  1  0  0  0
 15 16  1  0  0  0
 16 17  1  0  0  0
 16 18  2  0  0  0
 19 20  1  0  0  0
 20 21  1  0  0  0
 20 23  1  0  0  0
 21 22  2  0  0  0
 21 30  1  0  0  0
 23 24  1  0  0  0
 24 25  1  0  0  0
 25 26  1  0  0  0
 26 27  1  0  0  0
 27 28  1  0  0  0
 27 29  2  0  0  0
 30 31  1  0  0  0
 31 32  1  0  0  0
 31 34  1  0  0  0
 32 33  2  0  0  0
 32 39  1  0  0  0
 34 35  1  0  0  0
 35 36  1  0  0  0
 36 37  1  0  0  0
 36 38  2  0  0  0
 39 40  1  0  0  0
 40 41  1  0  0  0
 40 43  1  0  0  0
 41 42  2  0  0  0
 41 46  1  0  0  0
 43 44  1  0  0  0
 43 45  1  0  0  0
 46 47  1  0  0  0
 47 48  1  0  0  0
 47 50  1  0  0  0
 48 49  2  0  0  0
 48 55  1  0  0  0
 50 51  1  0  0  0
 51 52  1  0  0  0
 52 53  2  0  0  0
 52 54  1  0  0  0
 55 56  1  0  0  0
 56 57  1  0  0  0
 56 59  1  0  0  0
 57 58  1  0  0  0
 57 63  2  0  0  0
 59 60  1  0  0  0
 60 61  1  0  0  0
 60 62  1  0  0  0
  1 64  1  0  0  0
  1 65  1  0  0  0
  1 66  1  0  0  0
  2 67  1  0  0  0
  5 68  1  0  0  0
  6 69  1  0  0  0
  7 70  1  0  0  0
  7 71  1  0  0  0
  7 72  1  0  0  0
  8 73  1  0  0  0
  9 74  1  0  0  0
 12 75  1  0  0  0
 12 76  1  0  0  0
 13 77  1  0  0  0
 13 78  1  0  0  0
 14 79  1  0  0  0
 14 80  1  0  0  0
 15 81  1  0  0  0
 17 82  1  0  0  0
 17 83  1  0  0  0
 18 84  1  0  0  0
 19 85  1  0  0  0
 20 86  1  0  0  0
 23 87  1  0  0  0
 23 88  1  0  0  0
 24 89  1  0  0  0
 24 90  1  0  0  0
 25 91  1  0  0  0
 25 92  1  0  0  0
 26 93  1  0  0  0
 28 94  1  0  0  0
 28 95  1  0  0  0
 29 96  1  0  0  0
 30 97  1  0  0  0
 31 98  1  0  0  0
 34 99  1  0  0  0
 34100  1  0  0  0
 35101  1  0  0  0
 35102  1  0  0  0
 37103  1  0  0  0
 39104  1  0  0  0
 40105  1  0  0  0
 43106  1  0  0  0
 44107  1  0  0  0
 45108  1  0  0  0
 45109  1  0  0  0
 45110  1  0  0  0
 46111  1  0  0  0
 47112  1  0  0  0
 50113  1  0  0  0
 50114  1  0  0  0
 51115  1  0  0  0
 51116  1  0  0  0
 54117  1  0  0  0
 54118  1  0  0  0
 55119  1  0  0  0
 56120  1  0  0  0
 58121  1  0  0  0
 59122  1  0  0  0
 59123  1  0  0  0
 60124  1  0  0  0
 61125  1  0  0  0
 61126  1  0  0  0
 61127  1  0  0  0
 62128  1  0  0  0
 62129  1  0  0  0
 62130  1  0  0  0
M  END
$$$$
