4r73_ligand
  -I-interpret- 

 29 29  0  0  0  0  0  0  0  0999 V2000
   10.9640   25.0470   49.1500 C   0  0  0  0  0
   10.6790   23.9720   48.2500 C   0  0  0  0  0
   11.7440   22.9050   48.3600 C   0  0  0  0  0
   13.1310   23.4780   48.2180 C   0  0  0  0  0
   13.2680   24.5670   49.2560 C   0  0  0  0  0
   14.5400   25.3500   49.1190 C   0  0  0  0  0
   10.0340   26.0280   49.2270 O   0  0  0  0  0
    9.3630   23.4020   48.4800 O   0  0  0  0  0
   11.4470   22.0100   47.3310 O   0  0  0  0  0
   14.0440   22.4480   48.3910 O   0  0  0  0  0
   12.2360   25.4640   49.0820 O   0  0  0  0  0
   14.5500   26.3620   50.0680 O   0  0  0  0  0
   15.6360   27.5910   50.0820 P   0  0  0  0  0
   15.1080   28.5280   51.1150 O   0  0  0  0  0
   16.9430   27.0270   50.3770 O   0  0  0  0  0
   15.6480   28.1650   48.7680 O   0  0  0  0  0
   10.8642   24.5964   50.1375 H   0  0  0  0  0
   10.6817   24.3797   47.2391 H   0  0  0  0  0
   11.7410   22.4239   49.3381 H   0  0  0  0  0
   13.3166   23.9134   47.2361 H   0  0  0  0  0
   13.2587   24.0799   50.2311 H   0  0  0  0  0
   14.6009   25.7815   48.1199 H   0  0  0  0  0
   15.3956   24.6924   49.2730 H   0  0  0  0  0
    9.1592   25.6352   49.2715 H   0  0  0  0  0
    8.6994   24.0919   48.4066 H   0  0  0  0  0
   10.5591   21.6663   47.4537 H   0  0  0  0  0
   13.9124   21.7870   47.7073 H   0  0  0  0  0
   15.1211   28.0972   51.9728 H   0  0  0  0  0
   16.9334   26.6431   51.2569 H   0  0  0  0  0
  1  2  1  0  0  0
  1  7  1  0  0  0
  1 11  1  0  0  0
  2  3  1  0  0  0
  2  8  1  0  0  0
  3  4  1  0  0  0
  3  9  1  0  0  0
  4  5  1  0  0  0
  4 10  1  0  0  0
  5  6  1  0  0  0
  5 11  1  0  0  0
  6 12  1  0  0  0
 12 13  1  0  0  0
 13 14  1  0  0  0
 13 15  1  0  0  0
 13 16  2  0  0  0
  1 17  1  0  0  0
  2 18  1  0  0  0
  3 19  1  0  0  0
  4 20  1  0  0  0
  5 21  1  0  0  0
  6 22  1  0  0  0
  6 23  1  0  0  0
  7 24  1  0  0  0
  8 25  1  0  0  0
  9 26  1  0  0  0
 10 27  1  0  0  0
 14 28  1  0  0  0
 15 29  1  0  0  0
M  END
$$$$
