2pre_ligand
  -I-interpret- 

 54 53  0  0  0  0  0  0  0  0999 V2000
   16.8060   26.6230   12.0630 C   0  0  0  0  0
   17.4930   27.6640   12.4120 O   0  0  0  0  0
   17.1130   25.4960   12.4390 O   0  0  0  0  0
   15.6140   26.8210   11.1760 C   0  0  0  0  0
   15.3140   25.5940   10.3210 C   0  0  0  0  0
   16.2680   24.7250    9.7030 O   0  0  0  0  0
   13.8810   25.6050    9.8470 C   0  0  0  0  0
   12.9610   25.2760   10.5930 O   0  0  0  0  0
   13.6900   26.0030    8.6000 N   0  0  0  0  0
   12.4510   26.6520    8.2290 C   0  0  0  0  0
   12.6680   28.1520    8.0500 C   0  0  0  0  0
   11.5810   29.0720    8.6150 C   0  0  0  0  0
   10.5120   29.2880    7.5630 C   0  0  0  0  0
   10.9800   28.4700    9.8770 C   0  0  0  0  0
   11.9260   26.0530    6.9490 C   0  0  0  0  0
   11.0370   26.6150    6.3170 O   0  0  0  0  0
   12.4790   24.9040    6.5700 N   0  0  0  0  0
   11.8390   23.9430    5.6730 C   0  0  0  0  0
   11.7730   22.5430    6.2700 C   0  0  0  0  0
   10.8550   21.6420    5.4510 C   0  0  0  0  0
   10.5820   20.3190    6.1540 C   0  0  0  0  0
   10.7940   19.1770    5.2690 N   0  0  0  0  0
    9.8640   18.6710    4.4640 C   0  0  0  0  0
    9.2820   17.5230    4.7940 N   0  0  0  0  0
    9.4990   19.2770    3.3360 N   0  0  0  0  0
   17.1017   28.4495   12.0227 H   0  0  0  0  0
   15.8270   27.6543   10.5064 H   0  0  0  0  0
   14.7486   27.0085   11.8116 H   0  0  0  0  0
   15.6381   24.8232   11.0203 H   0  0  0  0  0
   17.1242   24.8427   10.1209 H   0  0  0  0  0
   14.4163   25.8524    7.8998 H   0  0  0  0  0
   11.7222   26.4984    9.0248 H   0  0  0  0  0
   12.6839   28.3285    6.9745 H   0  0  0  0  0
   13.5805   28.3923    8.5957 H   0  0  0  0  0
   12.0214   30.0336    8.8785 H   0  0  0  0  0
   10.9590   29.7482    6.6818 H   0  0  0  0  0
   10.0733   28.3282    7.2902 H   0  0  0  0  0
    9.7375   29.9424    7.9629 H   0  0  0  0  0
   10.5391   27.5013    9.6416 H   0  0  0  0  0
   11.7622   28.3424   10.6253 H   0  0  0  0  0
   10.2097   29.1366   10.2648 H   0  0  0  0  0
   13.4075   24.6794    6.9275 H   0  0  0  0  0
   12.4297   23.8913    4.7584 H   0  0  0  0  0
   10.8184   24.2800    5.4917 H   0  0  0  0  0
   11.3796   22.6136    7.2841 H   0  0  0  0  0
   12.7753   22.1147    6.2685 H   0  0  0  0  0
   11.3445   21.4291    4.5006 H   0  0  0  0  0
    9.9048   22.1578    5.3128 H   0  0  0  0  0
    9.5408   20.3123    6.4765 H   0  0  0  0  0
   11.2695   20.2312    6.9953 H   0  0  0  0  0
   11.7151   18.7389    5.2681 H   0  0  0  0  0
    9.5504   17.0437    5.6534 H   0  0  0  0  0
    8.7834   18.8593    2.7412 H   0  0  0  0  0
    9.9350   20.1589    3.0667 H   0  0  0  0  0
  1  2  1  0  0  0
  1  3  2  0  0  0
  1  4  1  0  0  0
  4  5  1  0  0  0
  5  6  1  0  0  0
  5  7  1  0  0  0
  7  8  2  0  0  0
  7  9  1  0  0  0
  9 10  1  0  0  0
 10 11  1  0  0  0
 10 15  1  0  0  0
 11 12  1  0  0  0
 12 13  1  0  0  0
 12 14  1  0  0  0
 15 16  2  0  0  0
 15 17  1  0  0  0
 17 18  1  0  0  0
 18 19  1  0  0  0
 19 20  1  0  0  0
 20 21  1  0  0  0
 21 22  1  0  0  0
 22 23  1  0  0  0
 23 24  2  0  0  0
 23 25  1  0  0  0
  2 26  1  0  0  0
  4 27  1  0  0  0
  4 28  1  0  0  0
  5 29  1  0  0  0
  6 30  1  0  0  0
  9 31  1  0  0  0
 10 32  1  0  0  0
 11 33  1  0  0  0
 11 34  1  0  0  0
 12 35  1  0  0  0
 13 36  1  0  0  0
 13 37  1  0  0  0
 13 38  1  0  0  0
 14 39  1  0  0  0
 14 40  1  0  0  0
 14 41  1  0  0  0
 17 42  1  0  0  0
 18 43  1  0  0  0
 18 44  1  0  0  0
 19 45  1  0  0  0
 19 46  1  0  0  0
 20 47  1  0  0  0
 20 48  1  0  0  0
 21 49  1  0  0  0
 21 50  1  0  0  0
 22 51  1  0  0  0
 24 52  1  0  0  0
 25 53  1  0  0  0
 25 54  1  0  0  0
M  END
$$$$
