5q1a_ligand
  -I-interpret- 

 72 76  0  0  0  0  0  0  0  0999 V2000
   13.4350   26.1410    2.5290 N   0  0  0  0  0
   15.4980   24.9830    3.1860 C   0  0  0  0  0
   12.8050   22.1280    4.5200 C   0  0  0  0  0
   13.5370   23.4220    4.9930 C   0  0  0  0  0
   11.8810   25.0600    3.8250 C   0  0  0  0  0
   12.4410   20.7940    2.4520 C   0  0  0  0  0
   17.3890   23.8160    2.1880 C   0  0  0  0  0
   13.2780   19.6800    2.1730 C   0  0  0  0  0
   13.4320   23.7000    6.5100 C   0  0  0  0  0
   10.6210   24.7720    4.3400 C   0  0  0  0  0
   11.4290   18.6690    0.9720 C   0  0  0  0  0
   12.7390   18.6290    1.4310 C   0  0  0  0  0
   14.7040   19.6110    2.6640 C   0  0  0  0  0
   20.1330   23.1810    2.2120 C   0  0  0  0  0
   19.6290   24.3200    2.9650 O   0  0  0  0  0
   18.2560   24.5200    3.0180 C   0  0  0  0  0
   17.7620   25.4510    3.9280 C   0  0  0  0  0
   16.3900   25.6800    4.0080 C   0  0  0  0  0
   16.0240   24.0470    2.2690 C   0  0  0  0  0
   15.0980   23.3880    1.4830 O   0  0  0  0  0
   15.5130   22.9370    0.1960 C   0  0  0  0  0
   14.0420   25.2210    3.2610 C   0  0  0  0  0
   12.0820   26.0530    2.8720 C   0  0  0  0  0
   10.9910   26.7900    2.4030 C   0  0  0  0  0
    9.7250   26.5070    2.9100 C   0  0  0  0  0
    9.5420   25.5130    3.8620 C   0  0  0  0  0
   13.1650   24.5340    4.0780 N   0  0  0  0  0
   14.2840   22.6950    7.3090 C   0  0  0  0  0
   14.2240   22.9470    8.8250 C   0  0  0  0  0
   14.6640   24.3650    9.1680 C   0  0  0  0  0
   13.8310   25.4050    8.3880 C   0  0  0  0  0
   13.8730   25.1320    6.8550 C   0  0  0  0  0
   12.1450   21.4280    5.2810 O   0  0  0  0  0
   12.9750   21.8900    3.2020 N   0  0  0  0  0
   10.6260   19.7680    1.2460 C   0  0  0  0  0
   11.1050   20.8520    1.9860 C   0  0  0  0  0
   10.2070   22.0310    2.2690 C   0  0  0  0  0
   14.6152   23.2877    4.9067 H   0  0  0  0  0
   17.7805   23.0872    1.4783 H   0  0  0  0  0
   12.3836   23.5853    6.7854 H   0  0  0  0  0
   10.4827   23.9941    5.0909 H   0  0  0  0  0
   11.0299   17.8350    0.3948 H   0  0  0  0  0
   13.3577   17.7600    1.2072 H   0  0  0  0  0
   15.2682   20.4498    2.2564 H   0  0  0  0  0
   14.7147   19.6591    3.7529 H   0  0  0  0  0
   15.1550   18.6744    2.3360 H   0  0  0  0  0
   19.7317   22.2605    2.6359 H   0  0  0  0  0
   19.8220   23.2689    1.1710 H   0  0  0  0  0
   21.2215   23.1636    2.2671 H   0  0  0  0  0
   18.4464   25.9989    4.5757 H   0  0  0  0  0
   16.0069   26.4112    4.7198 H   0  0  0  0  0
   15.8354   23.7906   -0.4002 H   0  0  0  0  0
   16.3407   22.2366    0.3073 H   0  0  0  0  0
   14.6791   22.4401   -0.2998 H   0  0  0  0  0
   11.1282   27.5710    1.6551 H   0  0  0  0  0
    8.8650   27.0743    2.5541 H   0  0  0  0  0
    8.5404   25.3095    4.2407 H   0  0  0  0  0
   15.3206   22.8047    6.9905 H   0  0  0  0  0
   13.8926   21.6957    7.1183 H   0  0  0  0  0
   14.8956   22.2458    9.3203 H   0  0  0  0  0
   13.1951   22.8125    9.1588 H   0  0  0  0  0
   15.7131   24.4816    8.8963 H   0  0  0  0  0
   14.5177   24.5285   10.2357 H   0  0  0  0  0
   14.2488   26.3942    8.5752 H   0  0  0  0  0
   12.7957   25.3411    8.7229 H   0  0  0  0  0
   13.1878   25.8255    6.3674 H   0  0  0  0  0
   14.9002   25.2627    6.5145 H   0  0  0  0  0
   13.5437   22.5618    2.6865 H   0  0  0  0  0
    9.6008   19.7855    0.8762 H   0  0  0  0  0
   10.0936   22.1493    3.3466 H   0  0  0  0  0
   10.6505   22.9332    1.8478 H   0  0  0  0  0
    9.2304   21.8592    1.8163 H   0  0  0  0  0
 22  1  4  0  0  0
  1 23  4  0  0  0
  2 18  4  0  0  0
 19  2  4  0  0  0
  2 22  1  0  0  0
  4  3  1  0  0  0
  3 33  2  0  0  0
  3 34  1  0  0  0
  4  9  1  0  0  0
 27  4  1  0  0  0
  5 10  4  0  0  0
 23  5  4  0  0  0
  5 27  4  0  0  0
  6  8  4  0  0  0
 34  6  1  0  0  0
  6 36  4  0  0  0
 16  7  4  0  0  0
  7 19  4  0  0  0
  8 12  4  0  0  0
  8 13  1  0  0  0
  9 28  1  0  0  0
  9 32  1  0  0  0
 10 26  4  0  0  0
 12 11  4  0  0  0
 11 35  4  0  0  0
 15 14  1  0  0  0
 15 16  1  0  0  0
 16 17  4  0  0  0
 17 18  4  0  0  0
 19 20  1  0  0  0
 20 21  1  0  0  0
 22 27  4  0  0  0
 23 24  4  0  0  0
 24 25  4  0  0  0
 25 26  4  0  0  0
 28 29  1  0  0  0
 29 30  1  0  0  0
 30 31  1  0  0  0
 31 32  1  0  0  0
 35 36  4  0  0  0
 36 37  1  0  0  0
  4 38  1  0  0  0
  7 39  1  0  0  0
  9 40  1  0  0  0
 10 41  1  0  0  0
 11 42  1  0  0  0
 12 43  1  0  0  0
 13 44  1  0  0  0
 13 45  1  0  0  0
 13 46  1  0  0  0
 14 47  1  0  0  0
 14 48  1  0  0  0
 14 49  1  0  0  0
 17 50  1  0  0  0
 18 51  1  0  0  0
 21 52  1  0  0  0
 21 53  1  0  0  0
 21 54  1  0  0  0
 24 55  1  0  0  0
 25 56  1  0  0  0
 26 57  1  0  0  0
 28 58  1  0  0  0
 28 59  1  0  0  0
 29 60  1  0  0  0
 29 61  1  0  0  0
 30 62  1  0  0  0
 30 63  1  0  0  0
 31 64  1  0  0  0
 31 65  1  0  0  0
 32 66  1  0  0  0
 32 67  1  0  0  0
 34 68  1  0  0  0
 35 69  1  0  0  0
 37 70  1  0  0  0
 37 71  1  0  0  0
 37 72  1  0  0  0
M  END
$$$$
