2cgr_ligand
  -I-interpret- 

 51 53  0  0  0  0  0  0  0  0999 V2000
   -9.2360   40.6660   17.3360 C   0  0  0  0  0
   -9.5480   41.8890   17.7320 N   0  0  0  0  0
   -8.7980   42.6710   18.7040 C   0  0  0  0  0
   -9.5590   43.6100   19.6140 C   0  0  0  0  0
   -8.9230   44.4930   20.2310 O   0  0  0  0  0
  -10.8020   43.6590   19.4680 O   0  0  0  0  0
  -10.1870   39.7640   17.1580 N   0  0  0  0  0
  -11.5100   39.7830   17.7770 C   0  0  0  0  0
  -12.4370   40.6120   17.1420 C   0  0  0  0  0
  -12.7060   40.4490   15.7790 C   0  0  0  0  0
  -13.4270   41.4020   15.1020 C   0  0  0  0  0
  -13.8940   42.5270   15.7650 C   0  0  0  0  0
  -13.6540   42.7010   17.1140 C   0  0  0  0  0
  -12.9320   41.7480   17.8050 C   0  0  0  0  0
  -11.9820   38.5000   18.0620 C   0  0  0  0  0
  -13.2130   38.0430   17.6180 C   0  0  0  0  0
  -13.5670   36.7070   17.7870 C   0  0  0  0  0
  -12.6920   35.8270   18.3990 C   0  0  0  0  0
  -11.4720   36.2840   18.8470 C   0  0  0  0  0
  -11.1260   37.6090   18.6800 C   0  0  0  0  0
   -8.1020   40.4520   16.7530 N   0  0  0  0  0
   -7.2430   39.2550   16.5650 C   0  0  0  0  0
   -7.2560   38.2220   17.4790 C   0  0  0  0  0
   -6.4310   37.1250   17.2950 C   0  0  0  0  0
   -5.5980   37.0630   16.1940 C   0  0  0  0  0
   -4.6970   35.8720   15.9680 C   0  0  0  0  0
   -4.0060   34.9580   15.8000 N   0  0  0  0  0
   -5.5960   38.0830   15.2910 C   0  0  0  0  0
   -6.4200   39.1790   15.4720 C   0  0  0  0  0
   -8.9595   40.3917   18.3540 H   0  0  0  0  0
  -10.4362   41.7416   18.2114 H   0  0  0  0  0
   -8.1458   43.3131   18.1120 H   0  0  0  0  0
   -8.3403   41.9380   19.3683 H   0  0  0  0  0
  -11.0949   42.8929   18.9692 H   0  0  0  0  0
   -9.7701   38.9319   17.5754 H   0  0  0  0  0
  -11.3721   40.2675   18.7436 H   0  0  0  0  0
  -12.3433   39.5653   15.2540 H   0  0  0  0  0
  -13.6330   41.2736   14.0394 H   0  0  0  0  0
  -14.4564   43.2820   15.2156 H   0  0  0  0  0
  -14.0317   43.5841   17.6294 H   0  0  0  0  0
  -12.7449   41.8776   18.8710 H   0  0  0  0  0
  -13.9062   38.7317   17.1350 H   0  0  0  0  0
  -14.5364   36.3533   17.4361 H   0  0  0  0  0
  -12.9660   34.7796   18.5257 H   0  0  0  0  0
  -10.7792   35.5978   19.3341 H   0  0  0  0  0
  -10.1595   37.9593   19.0423 H   0  0  0  0  0
   -7.7101   41.2921   16.3275 H   0  0  0  0  0
   -7.9153   38.2691   18.3457 H   0  0  0  0  0
   -6.4387   36.3101   18.0189 H   0  0  0  0  0
   -4.9413   38.0351   14.4209 H   0  0  0  0  0
   -6.4147   39.9873   14.7407 H   0  0  0  0  0
  1  2  1  0  0  0
  1  7  1  0  0  0
  1 21  1  0  0  0
  2  3  1  0  0  0
  3  4  1  0  0  0
  4  5  2  0  0  0
  4  6  1  0  0  0
  7  8  1  0  0  0
  8  9  1  0  0  0
  8 15  1  0  0  0
  9 10  4  0  0  0
  9 14  4  0  0  0
 10 11  4  0  0  0
 11 12  4  0  0  0
 12 13  4  0  0  0
 14 13  4  0  0  0
 15 16  4  0  0  0
 15 20  4  0  0  0
 16 17  4  0  0  0
 17 18  4  0  0  0
 18 19  4  0  0  0
 20 19  4  0  0  0
 21 22  1  0  0  0
 22 23  4  0  0  0
 22 29  4  0  0  0
 23 24  4  0  0  0
 24 25  4  0  0  0
 25 26  1  0  0  0
 25 28  4  0  0  0
 26 27  3  0  0  0
 28 29  4  0  0  0
  1 30  1  0  0  0
  2 31  1  0  0  0
  3 32  1  0  0  0
  3 33  1  0  0  0
  6 34  1  0  0  0
  7 35  1  0  0  0
  8 36  1  0  0  0
 10 37  1  0  0  0
 11 38  1  0  0  0
 12 39  1  0  0  0
 13 40  1  0  0  0
 14 41  1  0  0  0
 16 42  1  0  0  0
 17 43  1  0  0  0
 18 44  1  0  0  0
 19 45  1  0  0  0
 20 46  1  0  0  0
 21 47  1  0  0  0
 23 48  1  0  0  0
 24 49  1  0  0  0
 28 50  1  0  0  0
 29 51  1  0  0  0
M  END
$$$$
