4abd_ligand
  -I-interpret- 

 26 27  0  0  0  0  0  0  0  0999 V2000
    1.8020  -15.9750   18.3730 C   0  0  0  0  0
    3.0920  -15.7910   19.0890 N   0  3  0  0  0
    1.7080  -15.0870   17.1570 C   0  0  0  0  0
    3.0760  -11.9760   15.5910 N   0  0  0  0  0
    1.0770  -15.5940   16.0440 C   0  0  0  0  0
    1.1010  -14.9570   14.8260 C   0  0  0  0  0
    1.7340  -13.7140   14.6810 C   0  0  0  0  0
    2.3580  -13.2090   15.7950 C   0  0  0  0  0
    2.8670  -11.0380   14.6150 C   0  0  0  0  0
    3.7200   -9.9510   14.7630 C   0  0  0  0  0
    4.4440  -10.3570   15.9070 C   0  0  0  0  0
    4.1250  -11.5900   16.3960 C   0  0  0  0  0
    2.3900  -13.8880   16.9880 C   0  0  0  0  0
    0.9912  -15.7136   19.0530 H   0  0  0  0  0
    1.7350  -17.0128   18.0467 H   0  0  0  0  0
    3.1187  -16.4058   19.9025 H   0  0  0  0  0
    3.8632  -16.0208   18.4622 H   0  0  0  0  0
    3.1760  -14.8206   19.3918 H   0  0  0  0  0
    0.5374  -16.5370   16.1316 H   0  0  0  0  0
    0.6232  -15.4228   13.9641 H   0  0  0  0  0
    1.7308  -13.1764   13.7328 H   0  0  0  0  0
    2.1250  -11.1323   13.8221 H   0  0  0  0  0
    3.8063   -9.0430   14.1662 H   0  0  0  0  0
    5.2056   -9.7276   16.3673 H   0  0  0  0  0
    4.5861  -12.1348   17.2198 H   0  0  0  0  0
    2.9624  -13.4779   17.8201 H   0  0  0  0  0
  1  2  1  0  0  0
  3  1  1  0  0  0
  5  3  4  0  0  0
  3 13  4  0  0  0
  8  4  1  0  0  0
  4  9  4  0  0  0
  4 12  4  0  0  0
  6  5  4  0  0  0
  7  6  4  0  0  0
  7  8  4  0  0  0
  8 13  4  0  0  0
  9 10  4  0  0  0
 10 11  4  0  0  0
 11 12  4  0  0  0
  1 14  1  0  0  0
  1 15  1  0  0  0
  2 16  1  0  0  0
  2 17  1  0  0  0
  2 18  1  0  0  0
  5 19  1  0  0  0
  6 20  1  0  0  0
  7 21  1  0  0  0
  9 22  1  0  0  0
 10 23  1  0  0  0
 11 24  1  0  0  0
 12 25  1  0  0  0
 13 26  1  0  0  0
M  END
$$$$
