4pop_ligand
  -I-interpret- 

 32 33  0  0  0  0  0  0  0  0999 V2000
   14.6840   11.6360   41.8380 C   0  0  0  0  0
   15.0970    7.6280   44.4680 N   0  0  0  0  0
   18.3120    7.1970   48.3860 C   0  0  0  0  0
   20.8260    5.5380   48.2410 O   0  0  0  0  0
   20.5750    5.3110   46.8890 C   0  0  0  0  0
   18.4150    7.8930   44.6170 C   0  0  0  0  0
   19.6380    6.6950   44.6760 S   0  0  0  0  0
   19.6530    6.3540   46.3040 C   0  0  0  0  0
   18.6680    7.1890   46.8880 C   0  0  0  0  0
   17.9880    8.0530   45.9660 C   0  0  0  0  0
   16.8940    9.0080   46.4360 C   0  0  0  0  0
   15.4560    8.9840   44.3000 C   0  0  0  0  0
   14.9670    9.6500   43.2520 N   0  0  0  0  0
   15.2560   10.9350   43.0530 C   0  0  0  0  0
   16.0320   11.6140   43.8740 N   0  0  0  0  0
   16.5560   11.0550   44.9720 C   0  0  0  0  0
   16.2900    9.6820   45.2100 C   0  0  0  0  0
   15.0294   11.1339   40.9343 H   0  0  0  0  0
   13.5953   11.6029   41.8800 H   0  0  0  0  0
   15.0171   12.6738   41.8285 H   0  0  0  0  0
   14.4760    7.1778   43.7956 H   0  0  0  0  0
   15.4588    7.0992   45.2617 H   0  0  0  0  0
   17.9638    6.2070   48.6807 H   0  0  0  0  0
   19.1960    7.4604   48.9668 H   0  0  0  0  0
   17.5251    7.9292   48.5672 H   0  0  0  0  0
   21.4138    4.8564   48.5750 H   0  0  0  0  0
   20.0958    4.3370   46.7894 H   0  0  0  0  0
   21.5234    5.3545   46.3535 H   0  0  0  0  0
   18.0440    8.4189   43.7373 H   0  0  0  0  0
   17.3142    9.7577   47.1065 H   0  0  0  0  0
   16.1246    8.4582   46.9781 H   0  0  0  0  0
   17.1679   11.6367   45.6615 H   0  0  0  0  0
 14  1  1  0  0  0
 12  2  1  0  0  0
  9  3  1  0  0  0
  5  4  1  0  0  0
  8  5  1  0  0  0
  6  7  4  0  0  0
 10  6  4  0  0  0
  8  7  4  0  0  0
  9  8  4  0  0  0
 10  9  4  0  0  0
 11 10  1  0  0  0
 17 11  1  0  0  0
 13 12  4  0  0  0
 12 17  4  0  0  0
 13 14  4  0  0  0
 14 15  4  0  0  0
 15 16  4  0  0  0
 16 17  4  0  0  0
  1 18  1  0  0  0
  1 19  1  0  0  0
  1 20  1  0  0  0
  2 21  1  0  0  0
  2 22  1  0  0  0
  3 23  1  0  0  0
  3 24  1  0  0  0
  3 25  1  0  0  0
  4 26  1  0  0  0
  5 27  1  0  0  0
  5 28  1  0  0  0
  6 29  1  0  0  0
 11 30  1  0  0  0
 11 31  1  0  0  0
 16 32  1  0  0  0
M  END
$$$$
