### 
### Created by X-TOOL on Mon Sep 10 21:13:00 2018
### 

@<TRIPOS>MOLECULE
3gqo_ligand
   57    60     1     0     0
SMALL
GAST_HUCK


@<TRIPOS>ATOM
      1 N1         -9.3740  -14.7070   32.9450 N.ar      1 APR        -0.2698
      2 C2         -9.7340  -14.0650   31.8130 C.ar      1 APR         0.0533
      3 N3         -9.1850  -14.3150   30.6090 N.ar      1 APR        -0.2714
      4 C4         -8.2280  -15.2530   30.4950 C.ar      1 APR         0.1613
      5 C5         -7.7830  -15.9970   31.6780 C.ar      1 APR         0.1045
      6 C6         -8.4310  -15.6660   32.9530 C.ar      1 APR         0.1298
      7 N6         -8.0660  -16.2970   34.0860 N.pl3     1 APR        -0.3152
      8 N7         -6.8280  -16.8490   31.2720 N.2       1 APR        -0.2958
      9 C8         -6.6770  -16.6750   29.9310 C.2       1 APR         0.1123
     10 N9         -7.5130  -15.7210   29.4840 N.pl3     1 APR        -0.1919
     11 C1'        -7.6940  -15.2290   28.1140 C.3       1 APR         0.2010
     12 C2'        -6.5920  -15.6650   27.1810 C.3       1 APR         0.1385
     13 O2'        -5.5540  -14.6880   27.1300 O.3       1 APR        -0.3836
     14 C3'        -7.3620  -15.7890   25.8780 C.3       1 APR         0.1149
     15 O3'        -7.5130  -14.5200   25.2580 O.3       1 APR        -0.3864
     16 O4'        -8.8820  -15.8680   27.6510 O.3       1 APR        -0.3364
     17 C4'        -8.7640  -16.2050   26.2780 C.3       1 APR         0.1189
     18 C5'        -9.0710  -17.6800   26.0640 C.3       1 APR         0.1128
     19 O5'        -7.8750  -18.4410   26.1390 O.3       1 APR        -0.2476
     20 PA         -7.8690  -19.9370   26.7000 P.3       1 APR         0.2972
     21 O1A        -8.2190  -19.8740   28.1640 O.co2     1 APR        -0.6127
     22 O2A        -6.5640  -20.5450   26.2650 O.co2     1 APR        -0.6127
     23 O3A        -9.0540  -20.6900   25.9210 O.3       1 APR        -0.1319
     24 PB         -8.9240  -21.2490   24.4230 P.3       1 APR         0.2972
     25 O1B       -10.3210  -21.4490   23.9020 O.co2     1 APR        -0.6127
     26 O2B        -7.9520  -20.4140   23.6550 O.co2     1 APR        -0.6127
     27 O5D        -8.2940  -22.7050   24.6360 O.3       1 APR        -0.2476
     28 C5D        -9.0320  -23.6790   25.3680 C.3       1 APR         0.1128
     29 O4D        -7.2210  -24.2710   26.8600 O.3       1 APR        -0.3403
     30 O1D        -7.0620  -24.5850   29.1860 O.3       1 APR        -0.3649
     31 C1D        -7.2850  -25.2030   27.9400 C.3       1 APR         0.1854
     32 O2D        -8.8930  -26.8270   28.7290 O.3       1 APR        -0.3841
     33 C2D        -8.7020  -25.7010   27.8850 C.3       1 APR         0.1339
     34 O3D        -7.9800  -27.1590   26.1200 O.3       1 APR        -0.3864
     35 C3D        -8.7670  -25.9980   26.4090 C.3       1 APR         0.1144
     36 C4D        -8.0730  -24.7670   25.8210 C.3       1 APR         0.1184
     37 H1        -10.5067  -13.3074   31.8768 H         1 APR         0.0996
     38 H2         -7.3402  -17.0273   34.0579 H         1 APR         0.1820
     39 H3         -8.5128  -16.0492   34.9804 H         1 APR         0.1820
     40 H4         -5.9777  -17.2301   29.3075 H         1 APR         0.1349
     41 H5         -7.7876  -14.1330   28.1071 H         1 APR         0.0996
     42 H6         -6.1634  -16.6321   27.4825 H         1 APR         0.0676
     43 H7         -5.9109  -13.8643   26.8190 H         1 APR         0.2101
     44 H8         -6.8861  -16.5123   25.1995 H         1 APR         0.0648
     45 H9         -7.9964  -14.6208   24.4464 H         1 APR         0.2100
     46 H10        -9.4881  -15.6214   25.6905 H         1 APR         0.0651
     47 H11        -9.5282  -17.8168   25.0729 H         1 APR         0.0648
     48 H12        -9.7702  -18.0230   26.8409 H         1 APR         0.0648
     49 H13        -9.8113  -24.1147   24.7255 H         1 APR         0.0648
     50 H14        -9.5006  -23.2083   26.2448 H         1 APR         0.0648
     51 H15        -7.7229  -23.9179   29.3302 H         1 APR         0.2126
     52 H16        -6.5639  -26.0210   27.7958 H         1 APR         0.0935
     53 H17        -8.3165  -27.5297   28.4529 H         1 APR         0.2101
     54 H18        -9.4243  -24.9211   28.1678 H         1 APR         0.0671
     55 H19        -8.3198  -27.9000   26.6078 H         1 APR         0.2100
     56 H20        -9.7986  -26.1181   26.0465 H         1 APR         0.0648
     57 H21        -7.4674  -25.0743   24.9557 H         1 APR         0.0651
@<TRIPOS>BOND
     1    2    1 ar 
     2    6    1 ar 
     3    3    2 ar 
     4    4    3 ar 
     5    4    5 ar 
     6   10    4 1  
     7    5    6 ar 
     8    8    5 1  
     9    6    7 1  
    10    9    8 2  
    11   10    9 1  
    12   11   10 1  
    13   11   12 1  
    14   16   11 1  
    15   12   13 1  
    16   14   12 1  
    17   14   15 1  
    18   17   14 1  
    19   17   16 1  
    20   18   17 1  
    21   19   18 1  
    22   20   19 1  
    23   20   21 ar 
    24   20   22 ar 
    25   23   20 1  
    26   24   23 1  
    27   24   25 ar 
    28   24   26 ar 
    29   27   24 1  
    30   28   27 1  
    31   36   28 1  
    32   29   31 1  
    33   29   36 1  
    34   31   30 1  
    35   31   33 1  
    36   33   32 1  
    37   33   35 1  
    38   35   34 1  
    39   35   36 1  
    40    2   37 1  
    41    7   38 1  
    42    7   39 1  
    43    9   40 1  
    44   11   41 1  
    45   12   42 1  
    46   13   43 1  
    47   14   44 1  
    48   15   45 1  
    49   17   46 1  
    50   18   47 1  
    51   18   48 1  
    52   28   49 1  
    53   28   50 1  
    54   30   51 1  
    55   31   52 1  
    56   32   53 1  
    57   33   54 1  
    58   34   55 1  
    59   35   56 1  
    60   36   57 1  
@<TRIPOS>SUBSTRUCTURE
     1 APR         1

