3gqo_ligand
  -I-interpret- 

 59 62  0  0  0  0  0  0  0  0999 V2000
   -9.3740  -14.7070   32.9450 N   0  0  0  0  0
   -9.7340  -14.0650   31.8130 C   0  0  0  0  0
   -9.1850  -14.3150   30.6090 N   0  0  0  0  0
   -8.2280  -15.2530   30.4950 C   0  0  0  0  0
   -7.7830  -15.9970   31.6780 C   0  0  0  0  0
   -8.4310  -15.6660   32.9530 C   0  0  0  0  0
   -8.0660  -16.2970   34.0860 N   0  0  0  0  0
   -6.8280  -16.8490   31.2720 N   0  0  0  0  0
   -6.6770  -16.6750   29.9310 C   0  0  0  0  0
   -7.5130  -15.7210   29.4840 N   0  0  0  0  0
   -7.6940  -15.2290   28.1140 C   0  0  0  0  0
   -6.5920  -15.6650   27.1810 C   0  0  0  0  0
   -5.5540  -14.6880   27.1300 O   0  0  0  0  0
   -7.3620  -15.7890   25.8780 C   0  0  0  0  0
   -7.5130  -14.5200   25.2580 O   0  0  0  0  0
   -8.8820  -15.8680   27.6510 O   0  0  0  0  0
   -8.7640  -16.2050   26.2780 C   0  0  0  0  0
   -9.0710  -17.6800   26.0640 C   0  0  0  0  0
   -7.8750  -18.4410   26.1390 O   0  0  0  0  0
   -7.8690  -19.9370   26.7000 P   0  0  0  0  0
   -8.2190  -19.8740   28.1640 O   0  0  0  0  0
   -6.5640  -20.5450   26.2650 O   0  0  0  0  0
   -9.0540  -20.6900   25.9210 O   0  0  0  0  0
   -8.9240  -21.2490   24.4230 P   0  0  0  0  0
  -10.3210  -21.4490   23.9020 O   0  0  0  0  0
   -7.9520  -20.4140   23.6550 O   0  0  0  0  0
   -8.2940  -22.7050   24.6360 O   0  0  0  0  0
   -9.0320  -23.6790   25.3680 C   0  0  0  0  0
   -7.2210  -24.2710   26.8600 O   0  0  0  0  0
   -7.0620  -24.5850   29.1860 O   0  0  0  0  0
   -7.2850  -25.2030   27.9400 C   0  0  0  0  0
   -8.8930  -26.8270   28.7290 O   0  0  0  0  0
   -8.7020  -25.7010   27.8850 C   0  0  0  0  0
   -7.9800  -27.1590   26.1200 O   0  0  0  0  0
   -8.7670  -25.9980   26.4090 C   0  0  0  0  0
   -8.0730  -24.7670   25.8210 C   0  0  0  0  0
  -10.5110  -13.3032   31.8772 H   0  0  0  0  0
   -8.5084  -16.0516   34.9717 H   0  0  0  0  0
   -7.3472  -17.0202   34.0581 H   0  0  0  0  0
   -5.9770  -17.2306   29.3069 H   0  0  0  0  0
   -7.7154  -14.1392   28.1234 H   0  0  0  0  0
   -6.0696  -16.5792   27.4629 H   0  0  0  0  0
   -4.8649  -14.9858   26.5316 H   0  0  0  0  0
   -6.8481  -16.4762   25.2058 H   0  0  0  0  0
   -8.0015  -14.6219   24.4379 H   0  0  0  0  0
   -9.4849  -15.6897   25.6433 H   0  0  0  0  0
   -9.5198  -17.8136   25.0797 H   0  0  0  0  0
   -9.7604  -18.0186   26.8374 H   0  0  0  0  0
   -9.0788  -19.4599   28.2688 H   0  0  0  0  0
  -10.8115  -22.0064   24.5105 H   0  0  0  0  0
   -9.8113  -24.1075   24.7378 H   0  0  0  0  0
   -9.5054  -23.2152   26.2334 H   0  0  0  0  0
   -7.1134  -25.2438   29.8824 H   0  0  0  0  0
   -6.5276  -25.9813   27.8462 H   0  0  0  0  0
   -9.8058  -27.1185   28.6700 H   0  0  0  0  0
   -9.4829  -25.0288   28.2407 H   0  0  0  0  0
   -8.0224  -27.3469   25.1795 H   0  0  0  0  0
   -9.7727  -26.1813   26.0307 H   0  0  0  0  0
   -7.5296  -25.0534   24.9206 H   0  0  0  0  0
  2  1  4  0  0  0
  6  1  4  0  0  0
  3  2  4  0  0  0
  4  3  4  0  0  0
  4  5  4  0  0  0
 10  4  4  0  0  0
  5  6  4  0  0  0
  8  5  4  0  0  0
  6  7  1  0  0  0
  9  8  4  0  0  0
 10  9  4  0  0  0
 11 10  1  0  0  0
 11 12  1  0  0  0
 16 11  1  0  0  0
 12 13  1  0  0  0
 14 12  1  0  0  0
 14 15  1  0  0  0
 17 14  1  0  0  0
 17 16  1  0  0  0
 18 17  1  0  0  0
 19 18  1  0  0  0
 20 19  1  0  0  0
 20 21  1  0  0  0
 20 22  2  0  0  0
 23 20  1  0  0  0
 24 23  1  0  0  0
 24 25  1  0  0  0
 24 26  2  0  0  0
 27 24  1  0  0  0
 28 27  1  0  0  0
 36 28  1  0  0  0
 29 31  1  0  0  0
 29 36  1  0  0  0
 31 30  1  0  0  0
 31 33  1  0  0  0
 33 32  1  0  0  0
 33 35  1  0  0  0
 35 34  1  0  0  0
 35 36  1  0  0  0
  2 37  1  0  0  0
  7 38  1  0  0  0
  7 39  1  0  0  0
  9 40  1  0  0  0
 11 41  1  0  0  0
 12 42  1  0  0  0
 13 43  1  0  0  0
 14 44  1  0  0  0
 15 45  1  0  0  0
 17 46  1  0  0  0
 18 47  1  0  0  0
 18 48  1  0  0  0
 21 49  1  0  0  0
 25 50  1  0  0  0
 28 51  1  0  0  0
 28 52  1  0  0  0
 30 53  1  0  0  0
 31 54  1  0  0  0
 32 55  1  0  0  0
 33 56  1  0  0  0
 34 57  1  0  0  0
 35 58  1  0  0  0
 36 59  1  0  0  0
M  END
$$$$
