6q7h_ligand
  -I-interpret- 

 44 47  0  0  0  0  0  0  0  0999 V2000
   -2.7060   32.1050   -6.4290 C   0  0  0  0  0
   -1.9410   32.9970   -5.6650 C   0  0  0  0  0
   -1.5770   34.2190   -6.2270 C   0  0  0  0  0
   -0.6270   37.4200   -9.0040 C   0  0  0  0  0
   -0.5150   36.1180   -8.6600 C   0  0  0  0  0
   -3.8090   36.8770   -7.3840 C   0  0  0  0  0
    0.2740   38.3890   -9.7000 C   0  0  0  0  0
   -4.4340   35.9810   -6.6150 C   0  0  0  0  0
   -5.7380   36.5870   -6.3380 C   0  0  0  0  0
   -5.6530   37.7470   -6.9950 C   0  0  0  0  0
   -4.5870   31.4990   -9.6550 C   0  0  0  0  0
   -5.4530   30.3970   -8.9540 C   0  0  0  0  0
   -4.3860   30.2270   -7.8260 C   0  0  0  0  0
   -6.8520   30.7640   -8.4730 C   0  0  0  0  0
   -1.9540   34.5290   -7.5360 C   0  0  0  0  0
   -2.7270   33.6410   -8.3020 C   0  0  0  0  0
   -3.1070   32.3890   -7.7540 C   0  0  0  0  0
   -1.6260   35.7430   -8.0440 N   0  0  0  0  0
   -3.1130   34.1940   -9.9380 Cl  0  0  0  0  0
   -2.4470   36.7690   -7.9660 C   0  0  0  0  0
   -1.9220   37.7570   -8.5070 N   0  0  0  0  0
   -0.5070   39.3130  -10.2960 F   0  0  0  0  0
   -4.5110   37.9810   -7.6370 O   0  0  0  0  0
   -0.6320   35.3680   -5.3170 Cl  0  0  0  0  0
   -6.9490   38.9330   -7.0300 Cl  0  0  0  0  0
   -3.8950   31.4680   -8.3850 N   0  0  0  0  0
   -7.2700   30.5770   -7.3230 O   0  0  0  0  0
   -7.6270   31.2960   -9.4340 O   0  0  0  0  0
    1.0390   38.9800   -8.7700 F   0  0  0  0  0
    1.0780   37.8380  -10.6390 F   0  0  0  0  0
    0.6560   35.2160   -8.9330 C   0  0  0  0  0
   -3.0031   31.1554   -5.9839 H   0  0  0  0  0
   -1.6366   32.7397   -4.6505 H   0  0  0  0  0
   -4.0584   35.0171   -6.2715 H   0  0  0  0  0
   -6.5652   36.1929   -5.7476 H   0  0  0  0  0
   -4.9846   32.3979  -10.1263 H   0  0  0  0  0
   -4.1085   31.3900  -10.6282 H   0  0  0  0  0
   -5.7765   29.5471   -9.5549 H   0  0  0  0  0
   -3.7820   29.3329   -7.6714 H   0  0  0  0  0
   -4.6153   30.0676   -6.7724 H   0  0  0  0  0
   -7.1248   31.3599  -10.2497 H   0  0  0  0  0
    0.8190   35.1499  -10.0087 H   0  0  0  0  0
    1.5462   35.6233   -8.4537 H   0  0  0  0  0
    0.4489   34.2231   -8.5339 H   0  0  0  0  0
  2  1  4  0  0  0
 17  1  4  0  0  0
  3  2  4  0  0  0
 15  3  4  0  0  0
  3 24  1  0  0  0
  5  4  4  0  0  0
  4  7  1  0  0  0
  4 21  4  0  0  0
 18  5  4  0  0  0
  5 31  1  0  0  0
  6  8  4  0  0  0
 20  6  1  0  0  0
  6 23  4  0  0  0
  7 22  1  0  0  0
  7 29  1  0  0  0
  7 30  1  0  0  0
  8  9  4  0  0  0
 10  9  4  0  0  0
 23 10  4  0  0  0
 10 25  1  0  0  0
 11 12  1  0  0  0
 26 11  1  0  0  0
 13 12  1  0  0  0
 12 14  1  0  0  0
 26 13  1  0  0  0
 14 27  2  0  0  0
 14 28  1  0  0  0
 15 16  4  0  0  0
 18 15  1  0  0  0
 16 17  4  0  0  0
 16 19  1  0  0  0
 17 26  1  0  0  0
 18 20  4  0  0  0
 20 21  4  0  0  0
  1 32  1  0  0  0
  2 33  1  0  0  0
  8 34  1  0  0  0
  9 35  1  0  0  0
 11 36  1  0  0  0
 11 37  1  0  0  0
 12 38  1  0  0  0
 13 39  1  0  0  0
 13 40  1  0  0  0
 28 41  1  0  0  0
 31 42  1  0  0  0
 31 43  1  0  0  0
 31 44  1  0  0  0
M  END
$$$$
