4zuq_ligand
  -I-interpret- 

 25 24  0  0  0  0  0  0  0  0999 V2000
   -4.6910   -3.6030  -27.5520 C   0  0  0  0  0
   -4.1170   -4.5830  -28.5660 C   0  0  0  0  0
   -3.4470   -5.7720  -27.8860 C   0  0  0  0  0
   -2.5900   -6.5600  -28.8830 C   0  0  0  0  0
   -3.3450   -7.7530  -29.4320 C   0  0  0  0  0
   -2.5680   -8.6100  -30.4030 C   0  0  0  0  0
   -5.5990   -4.3190  -26.6820 N   0  3  0  0  0
   -1.3160   -8.9290  -30.1530 N   0  0  0  0  0
   -3.0930   -9.0410  -31.4270 O   0  0  0  0  0
   -0.6850   -9.7430  -31.0950 O   0  0  0  0  0
   -5.2235   -2.8040  -28.0679 H   0  0  0  0  0
   -3.8855   -3.1611  -26.9655 H   0  0  0  0  0
   -3.3676   -4.0612  -29.1612 H   0  0  0  0  0
   -4.9344   -4.9565  -29.1829 H   0  0  0  0  0
   -4.2198   -6.4310  -27.4903 H   0  0  0  0  0
   -2.8046   -5.4026  -27.0866 H   0  0  0  0  0
   -1.6991   -6.9193  -28.3679 H   0  0  0  0  0
   -2.3282   -5.9026  -29.7121 H   0  0  0  0  0
   -4.2022   -7.3584  -29.9775 H   0  0  0  0  0
   -3.5918   -8.3875  -28.5808 H   0  0  0  0  0
   -5.9914   -3.6734  -25.9967 H   0  0  0  0  0
   -6.3515   -4.7252  -27.2381 H   0  0  0  0  0
   -5.0919   -5.0613  -26.2001 H   0  0  0  0  0
   -0.8334   -8.5996  -29.3170 H   0  0  0  0  0
    0.2178   -9.9127  -30.8161 H   0  0  0  0  0
  1  2  1  0  0  0
  1  7  1  0  0  0
  2  3  1  0  0  0
  3  4  1  0  0  0
  4  5  1  0  0  0
  5  6  1  0  0  0
  6  8  1  0  0  0
  6  9  2  0  0  0
  8 10  1  0  0  0
  1 11  1  0  0  0
  1 12  1  0  0  0
  2 13  1  0  0  0
  2 14  1  0  0  0
  3 15  1  0  0  0
  3 16  1  0  0  0
  4 17  1  0  0  0
  4 18  1  0  0  0
  5 19  1  0  0  0
  5 20  1  0  0  0
  7 21  1  0  0  0
  7 22  1  0  0  0
  7 23  1  0  0  0
  8 24  1  0  0  0
 10 25  1  0  0  0
M  END
$$$$
