4ojr_ligand
  -I-interpret- 

 61 64  0  0  0  0  0  0  0  0999 V2000
  -44.3650  -15.5030   12.8130 C   0  0  0  0  0
  -43.5520  -15.1080   14.0530 C   0  0  0  0  0
  -42.0740  -14.8510   13.9620 C   0  0  0  0  0
  -41.4330  -15.0140   12.6110 C   0  0  0  0  0
  -39.9210  -14.9480   12.7330 C   0  0  0  0  0
  -39.5340  -13.8900   13.7330 C   0  0  0  0  0
  -40.0380  -14.2480   15.0370 O   0  0  0  0  0
  -41.3770  -14.5100   15.0410 C   0  0  0  0  0
  -41.9950  -14.3730   16.2810 C   0  0  0  0  0
  -41.3240  -14.0020   17.4410 F   0  0  0  0  0
  -43.4340  -14.5760   16.5950 C   0  0  0  0  0
  -44.2690  -14.9660   15.4000 C   0  0  0  0  0
  -45.7340  -15.1820   15.6200 C   0  0  0  0  0
  -46.6180  -14.1790   15.5100 C   0  0  0  0  0
  -46.1400  -12.7780   15.1350 C   0  0  0  0  0
  -46.6380  -11.7950   16.0530 O   0  0  0  0  0
  -45.9900  -11.4760   17.3250 C   0  0  0  0  0
  -44.4980  -11.2530   17.1950 C   0  0  0  0  0
  -46.2920  -12.6090   18.2780 C   0  0  0  0  0
  -46.6740  -10.2030   17.7690 C   0  0  0  0  0
  -46.5810  -12.3870   13.7370 C   0  0  0  0  0
  -46.7850  -13.3550   12.8840 O   0  0  0  0  0
  -46.7340  -11.1940   13.4570 O   0  0  0  0  0
  -48.0120  -14.4120   15.7420 N   0  0  0  0  0
  -48.9960  -13.3290   15.6160 C   0  0  0  0  0
  -48.5010  -15.6750   16.0860 C   0  0  0  0  0
  -49.6930  -15.8400   16.2640 O   0  0  0  0  0
  -47.5130  -16.7700   16.2040 C   0  0  0  0  0
  -47.9400  -18.0530   16.5430 C   0  0  0  0  0
  -47.0250  -19.0860   16.6610 C   0  0  0  0  0
  -45.6850  -18.8600   16.4380 C   0  0  0  0  0
  -45.2400  -17.5940   16.0980 C   0  0  0  0  0
  -46.1470  -16.5350   15.9840 C   0  0  0  0  0
  -44.2906  -14.7139   12.0648 H   0  0  0  0  0
  -43.9709  -16.4328   12.4027 H   0  0  0  0  0
  -45.4090  -15.6420   13.0937 H   0  0  0  0  0
  -41.7724  -14.2107   11.9571 H   0  0  0  0  0
  -41.7145  -15.9828   12.1984 H   0  0  0  0  0
  -39.4921  -14.6996   11.7622 H   0  0  0  0  0
  -39.5445  -15.9145   13.0678 H   0  0  0  0  0
  -39.9596  -12.9332   13.4306 H   0  0  0  0  0
  -38.4477  -13.8109   13.7741 H   0  0  0  0  0
  -43.8477  -14.4543   17.5961 H   0  0  0  0  0
  -45.0512  -12.8074   15.1760 H   0  0  0  0  0
  -44.0297  -12.1561   16.8036 H   0  0  0  0  0
  -44.3141  -10.4223   16.5137 H   0  0  0  0  0
  -44.0800  -11.0206   18.1745 H   0  0  0  0  0
  -47.3708  -12.6950   18.4080 H   0  0  0  0  0
  -45.8986  -13.5400   17.8699 H   0  0  0  0  0
  -45.8237  -12.4065   19.2412 H   0  0  0  0  0
  -46.5168   -9.4272   17.0196 H   0  0  0  0  0
  -47.7421  -10.3872   17.8846 H   0  0  0  0  0
  -46.2545   -9.8800   18.7218 H   0  0  0  0  0
  -46.6079  -14.1973   13.3092 H   0  0  0  0  0
  -48.7524  -12.5346   16.3215 H   0  0  0  0  0
  -48.9721  -12.9345   14.6002 H   0  0  0  0  0
  -49.9912  -13.7170   15.8331 H   0  0  0  0  0
  -48.9991  -18.2441   16.7160 H   0  0  0  0  0
  -47.3678  -20.0845   16.9322 H   0  0  0  0  0
  -44.9729  -19.6801   16.5294 H   0  0  0  0  0
  -44.1788  -17.4216   15.9184 H   0  0  0  0  0
  1  2  1  0  0  0
  2  3  4  0  0  0
  2 12  4  0  0  0
  3  4  1  0  0  0
  3  8  4  0  0  0
  4  5  1  0  0  0
  5  6  1  0  0  0
  6  7  1  0  0  0
  7  8  1  0  0  0
  8  9  4  0  0  0
  9 10  1  0  0  0
  9 11  4  0  0  0
 11 12  4  0  0  0
 12 13  1  0  0  0
 13 14  2  0  0  0
 13 33  1  0  0  0
 14 15  1  0  0  0
 14 24  1  0  0  0
 15 16  1  0  0  0
 15 21  1  0  0  0
 16 17  1  0  0  0
 17 18  1  0  0  0
 17 19  1  0  0  0
 17 20  1  0  0  0
 21 22  1  0  0  0
 21 23  2  0  0  0
 24 25  1  0  0  0
 24 26  1  0  0  0
 26 27  2  0  0  0
 26 28  1  0  0  0
 28 29  4  0  0  0
 28 33  4  0  0  0
 29 30  4  0  0  0
 30 31  4  0  0  0
 31 32  4  0  0  0
 32 33  4  0  0  0
  1 34  1  0  0  0
  1 35  1  0  0  0
  1 36  1  0  0  0
  4 37  1  0  0  0
  4 38  1  0  0  0
  5 39  1  0  0  0
  5 40  1  0  0  0
  6 41  1  0  0  0
  6 42  1  0  0  0
 11 43  1  0  0  0
 15 44  1  0  0  0
 18 45  1  0  0  0
 18 46  1  0  0  0
 18 47  1  0  0  0
 19 48  1  0  0  0
 19 49  1  0  0  0
 19 50  1  0  0  0
 20 51  1  0  0  0
 20 52  1  0  0  0
 20 53  1  0  0  0
 22 54  1  0  0  0
 25 55  1  0  0  0
 25 56  1  0  0  0
 25 57  1  0  0  0
 29 58  1  0  0  0
 30 59  1  0  0  0
 31 60  1  0  0  0
 32 61  1  0  0  0
M  END
$$$$
