2l0i_ligand
  -I-interpret- 

130133  0  0  0  0  0  0  0  0999 V2000
    1.7680  -12.4180   13.6010 N   0  3  0  0  0
    1.7620  -11.3760   14.6570 C   0  0  0  0  0
    0.6610  -10.3330   14.4490 C   0  0  0  0  0
    0.3230   -9.6030   15.3830 O   0  0  0  0  0
    3.1240  -10.7240   14.6930 C   0  0  0  0  0
    4.0000  -11.8080   14.1850 C   0  0  0  0  0
    3.1780  -12.5610   13.1580 C   0  0  0  0  0
    0.1180  -10.2590   13.2300 N   0  0  0  0  0
   -0.9650   -9.3280   12.8930 C   0  0  0  0  0
   -0.4840   -7.8760   12.8060 C   0  0  0  0  0
    0.0780   -7.3200   13.7530 O   0  0  0  0  0
   -2.1230   -9.4550   13.8930 C   0  0  0  0  0
   -2.6120  -10.7890   13.9360 O   0  0  0  0  0
   -0.7260   -7.2610   11.6570 N   0  0  0  0  0
   -0.3270   -5.8780   11.4160 C   0  0  0  0  0
   -1.5470   -4.9650   11.3400 C   0  0  0  0  0
   -2.4810   -5.2380   10.5810 O   0  0  0  0  0
    0.4620   -5.7950   10.1020 C   0  0  0  0  0
    0.8400   -4.3870    9.6790 C   0  0  0  0  0
   -0.0360   -3.5940    8.9410 C   0  0  0  0  0
    2.0770   -3.8570   10.0080 C   0  0  0  0  0
    0.3140   -2.3170    8.5480 C   0  0  0  0  0
    2.4350   -2.5810    9.6170 C   0  0  0  0  0
    1.5480   -1.8130    8.8890 C   0  0  0  0  0
    1.9010   -0.5430    8.4970 O   0  0  0  0  0
   -1.5350   -3.8840   12.1120 N   0  0  0  0  0
   -2.6310   -2.9310   12.0990 C   0  0  0  0  0
   -3.3500   -2.9340   13.4450 C   0  0  0  0  0
   -4.7400   -2.6500   13.2930 O   0  0  0  0  0
   -2.0710   -1.5510   11.7890 C   0  0  0  0  0
   -0.9610   -1.2460   12.2030 O   0  0  0  0  0
   -5.3770   -1.3430   13.9730 P   0  0  0  0  0
   -4.5970   -0.2050   13.4820 O   0  0  0  0  0
   -5.3340   -1.3000   15.4480 O   0  0  0  0  0
   -6.8020   -1.0750   13.6500 O   0  0  0  0  0
   -2.8140   -0.7140   11.0400 N   0  0  0  0  0
   -2.3720    0.6430   10.6600 C   0  0  0  0  0
   -1.8730    1.4950   11.8290 C   0  0  0  0  0
   -0.9660    2.3120   11.6610 O   0  0  0  0  0
   -3.6300    1.2670   10.0570 C   0  0  0  0  0
   -4.3980    0.1100    9.5260 C   0  0  0  0  0
   -4.1420   -1.0270   10.4760 C   0  0  0  0  0
   -2.4580    1.3100   13.0040 N   0  0  0  0  0
   -2.0530    2.0760   14.1760 C   0  0  0  0  0
   -0.7460    1.5410   14.7700 C   0  0  0  0  0
   -0.0920    2.2160   15.5640 O   0  0  0  0  0
   -3.1520    2.0700   15.2580 C   0  0  0  0  0
   -4.4500    2.0590   14.6430 O   0  0  0  0  0
   -3.0350    3.2920   16.1570 C   0  0  0  0  0
   -0.3580    0.3360   14.3660 N   0  0  0  0  0
    0.8680   -0.2830   14.8560 C   0  0  0  0  0
    1.7130   -0.7760   13.6800 C   0  0  0  0  0
    1.7050   -1.9650   13.3430 O   0  0  0  0  0
    0.5340   -1.4410   15.8030 C   0  0  0  0  0
   -0.3430   -1.0140   16.8380 O   0  0  0  0  0
    2.4250    0.1480   13.0220 N   0  0  0  0  0
    3.2640   -0.1580   11.8710 C   0  0  0  0  0
    4.6780   -0.6050   12.2460 C   0  0  0  0  0
    5.2720   -1.4400   11.5660 O   0  0  0  0  0
    3.3140    1.1740   11.1020 C   0  0  0  0  0
    2.5940    2.1800   11.9500 C   0  0  0  0  0
    2.4490    1.5760   13.3180 C   0  0  0  0  0
    5.2250   -0.0470   13.3150 N   0  0  0  0  0
    6.5720   -0.3950   13.7420 C   0  0  0  0  0
    6.5570   -0.9120   15.1720 C   0  0  0  0  0
    6.6130   -2.1430   15.3580 O   0  0  0  0  0
    7.4920    0.8230   13.6290 C   0  0  0  0  0
    7.2610    1.5200   12.4130 O   0  0  0  0  0
    6.4840   -0.0830   16.1000 O   0  0  0  0  0
    1.1656  -12.1520   12.8220 H   0  0  0  0  0
    1.4059  -13.3021   13.9582 H   0  0  0  0  0
    1.5455  -11.8526   15.6131 H   0  0  0  0  0
    3.4066  -10.3703   15.6845 H   0  0  0  0  0
    3.1806   -9.8107   14.1007 H   0  0  0  0  0
    4.3233  -12.4657   14.9918 H   0  0  0  0  0
    4.9116  -11.4053   13.7434 H   0  0  0  0  0
    3.3254  -12.1604   12.1551 H   0  0  0  0  0
    3.4745  -13.6081   13.0972 H   0  0  0  0  0
    0.4725  -10.8778   12.5008 H   0  0  0  0  0
   -1.3231   -9.6053   11.9016 H   0  0  0  0  0
   -2.9316   -8.7952   13.5786 H   0  0  0  0  0
   -1.7615   -9.1820   14.8844 H   0  0  0  0  0
   -3.3338  -10.8439   14.5665 H   0  0  0  0  0
   -1.2072   -7.7714   10.9165 H   0  0  0  0  0
    0.2987   -5.5477   12.2451 H   0  0  0  0  0
   -0.1797   -6.2005    9.3197 H   0  0  0  0  0
    1.3926   -6.3416   10.2549 H   0  0  0  0  0
   -1.0150   -3.9884    8.6689 H   0  0  0  0  0
    2.7802   -4.4571   10.5854 H   0  0  0  0  0
   -0.3842   -1.7113    7.9703 H   0  0  0  0  0
    3.4141   -2.1821    9.8823 H   0  0  0  0  0
    2.7858   -0.3461    8.8130 H   0  0  0  0  0
   -0.7385   -3.7196   12.7275 H   0  0  0  0  0
   -3.3563   -3.2083   11.3340 H   0  0  0  0  0
   -2.9063   -2.1641   14.0763 H   0  0  0  0  0
   -3.2454   -3.9230   13.8912 H   0  0  0  0  0
   -5.8380   -2.0358   15.8033 H   0  0  0  0  0
   -7.3421   -1.8056   13.9601 H   0  0  0  0  0
   -1.5163    0.5933    9.9866 H   0  0  0  0  0
   -3.3945    1.9938    9.2796 H   0  0  0  0  0
   -4.1997    1.8335   10.7936 H   0  0  0  0  0
   -4.0828   -0.1424    8.5135 H   0  0  0  0  0
   -5.4618    0.3384    9.4605 H   0  0  0  0  0
   -4.9118   -1.1114   11.2430 H   0  0  0  0  0
   -4.1670   -1.9979    9.9813 H   0  0  0  0  0
   -3.2042    0.6199   13.0894 H   0  0  0  0  0
   -1.8927    3.1015   13.8432 H   0  0  0  0  0
   -3.0238    1.1725   15.8631 H   0  0  0  0  0
   -5.1259    2.0553   15.3248 H   0  0  0  0  0
   -2.0608    3.2898   16.6459 H   0  0  0  0  0
   -3.1391    4.1952   15.5557 H   0  0  0  0  0
   -3.8215    3.2633   16.9111 H   0  0  0  0  0
   -0.9343   -0.1705   13.6939 H   0  0  0  0  0
    1.4433    0.4593   15.4093 H   0  0  0  0  0
    1.4582   -1.8026   16.2539 H   0  0  0  0  0
    0.0445   -2.2302   15.2324 H   0  0  0  0  0
   -0.5374   -1.7546   17.4170 H   0  0  0  0  0
    2.8579   -0.9931   11.3002 H   0  0  0  0  0
    2.8431    1.0786   10.1236 H   0  0  0  0  0
    4.3436    1.4817   10.9194 H   0  0  0  0  0
    1.6176    2.4144   11.5259 H   0  0  0  0  0
    3.1523    3.1149   11.9979 H   0  0  0  0  0
    3.2494    1.8605   14.0011 H   0  0  0  0  0
    1.5614    1.9205   13.8486 H   0  0  0  0  0
    4.6923    0.6395   13.8491 H   0  0  0  0  0
    6.9513   -1.1833   13.0918 H   0  0  0  0  0
    8.5276    0.4836   13.6478 H   0  0  0  0  0
    7.2888    1.4950   14.4628 H   0  0  0  0  0
    7.8476    2.2783   12.3637 H   0  0  0  0  0
    6.4514    0.8037   15.7336 H   0  0  0  0  0
  1  2  1  0  0  0
  1  7  1  0  0  0
  2  3  1  0  0  0
  2  5  1  0  0  0
  3  4  2  0  0  0
  3  8  1  0  0  0
  5  6  1  0  0  0
  6  7  1  0  0  0
  8  9  1  0  0  0
  9 10  1  0  0  0
  9 12  1  0  0  0
 10 11  2  0  0  0
 10 14  1  0  0  0
 12 13  1  0  0  0
 14 15  1  0  0  0
 15 16  1  0  0  0
 15 18  1  0  0  0
 16 17  2  0  0  0
 16 26  1  0  0  0
 18 19  1  0  0  0
 19 20  4  0  0  0
 19 21  4  0  0  0
 20 22  4  0  0  0
 21 23  4  0  0  0
 22 24  4  0  0  0
 23 24  4  0  0  0
 24 25  1  0  0  0
 26 27  1  0  0  0
 27 28  1  0  0  0
 27 30  1  0  0  0
 28 29  1  0  0  0
 29 32  1  0  0  0
 30 31  2  0  0  0
 30 36  1  0  0  0
 32 33  2  0  0  0
 32 34  1  0  0  0
 32 35  1  0  0  0
 36 37  1  0  0  0
 36 42  1  0  0  0
 37 38  1  0  0  0
 37 40  1  0  0  0
 38 39  2  0  0  0
 38 43  1  0  0  0
 40 41  1  0  0  0
 41 42  1  0  0  0
 43 44  1  0  0  0
 44 45  1  0  0  0
 44 47  1  0  0  0
 45 46  2  0  0  0
 45 50  1  0  0  0
 47 48  1  0  0  0
 47 49  1  0  0  0
 50 51  1  0  0  0
 51 52  1  0  0  0
 51 54  1  0  0  0
 52 53  2  0  0  0
 52 56  1  0  0  0
 54 55  1  0  0  0
 56 57  1  0  0  0
 56 62  1  0  0  0
 57 58  1  0  0  0
 57 60  1  0  0  0
 58 59  2  0  0  0
 58 63  1  0  0  0
 60 61  1  0  0  0
 61 62  1  0  0  0
 63 64  1  0  0  0
 64 65  1  0  0  0
 64 67  1  0  0  0
 65 66  2  0  0  0
 65 69  1  0  0  0
 67 68  1  0  0  0
  1 70  1  0  0  0
  1 71  1  0  0  0
  2 72  1  0  0  0
  5 73  1  0  0  0
  5 74  1  0  0  0
  6 75  1  0  0  0
  6 76  1  0  0  0
  7 77  1  0  0  0
  7 78  1  0  0  0
  8 79  1  0  0  0
  9 80  1  0  0  0
 12 81  1  0  0  0
 12 82  1  0  0  0
 13 83  1  0  0  0
 14 84  1  0  0  0
 15 85  1  0  0  0
 18 86  1  0  0  0
 18 87  1  0  0  0
 20 88  1  0  0  0
 21 89  1  0  0  0
 22 90  1  0  0  0
 23 91  1  0  0  0
 25 92  1  0  0  0
 26 93  1  0  0  0
 27 94  1  0  0  0
 28 95  1  0  0  0
 28 96  1  0  0  0
 34 97  1  0  0  0
 35 98  1  0  0  0
 37 99  1  0  0  0
 40100  1  0  0  0
 40101  1  0  0  0
 41102  1  0  0  0
 41103  1  0  0  0
 42104  1  0  0  0
 42105  1  0  0  0
 43106  1  0  0  0
 44107  1  0  0  0
 47108  1  0  0  0
 48109  1  0  0  0
 49110  1  0  0  0
 49111  1  0  0  0
 49112  1  0  0  0
 50113  1  0  0  0
 51114  1  0  0  0
 54115  1  0  0  0
 54116  1  0  0  0
 55117  1  0  0  0
 57118  1  0  0  0
 60119  1  0  0  0
 60120  1  0  0  0
 61121  1  0  0  0
 61122  1  0  0  0
 62123  1  0  0  0
 62124  1  0  0  0
 63125  1  0  0  0
 64126  1  0  0  0
 67127  1  0  0  0
 67128  1  0  0  0
 68129  1  0  0  0
 69130  1  0  0  0
M  END
$$$$
