### 
### Created by X-TOOL on Mon Sep 10 21:13:05 2018
### 

@<TRIPOS>MOLECULE
2l0i_ligand
  127   130     1     0     0
SMALL
GAST_HUCK


@<TRIPOS>ATOM
      1 N           1.7680  -12.4180   13.6010 N.4       1 PRO         0.2461
      2 CA          1.7620  -11.3760   14.6570 C.3       1 PRO         0.0670
      3 C           0.6610  -10.3330   14.4490 C.2       1 PRO         0.2268
      4 O           0.3230   -9.6030   15.3830 O.2       1 PRO        -0.3907
      5 CB          3.1240  -10.7240   14.6930 C.3       1 PRO         0.0127
      6 CG          4.0000  -11.8080   14.1850 C.3       1 PRO        -0.0053
      7 CD          3.1780  -12.5610   13.1580 C.3       1 PRO        -0.0313
      8 N           0.1180  -10.2590   13.2300 N.am      1 SER        -0.2589
      9 CA         -0.9650   -9.3280   12.8930 C.3       1 SER         0.1540
     10 C          -0.4840   -7.8760   12.8060 C.2       1 SER         0.2063
     11 O           0.0780   -7.3200   13.7530 O.2       1 SER        -0.3943
     12 CB         -2.1230   -9.4550   13.8930 C.3       1 SER         0.0843
     13 OG         -2.6120  -10.7890   13.9360 O.3       1 SER        -0.3903
     14 N          -0.7260   -7.2610   11.6570 N.am      1 TYR        -0.2621
     15 CA         -0.3270   -5.8780   11.4160 C.3       1 TYR         0.1390
     16 C          -1.5470   -4.9650   11.3400 C.2       1 TYR         0.2058
     17 O          -2.4810   -5.2380   10.5810 O.2       1 TYR        -0.3942
     18 CB          0.4620   -5.7950   10.1020 C.3       1 TYR         0.0163
     19 CG          0.8400   -4.3870    9.6790 C.ar      1 TYR        -0.0493
     20 CD1        -0.0360   -3.5940    8.9410 C.ar      1 TYR        -0.0685
     21 CD2         2.0770   -3.8570   10.0080 C.ar      1 TYR        -0.0685
     22 CE1         0.3140   -2.3170    8.5480 C.ar      1 TYR        -0.0398
     23 CE2         2.4350   -2.5810    9.6170 C.ar      1 TYR        -0.0398
     24 CZ          1.5480   -1.8130    8.8890 C.ar      1 TYR         0.0805
     25 OH          1.9010   -0.5430    8.4970 O.3       1 TYR        -0.3376
     26 N          -1.5350   -3.8840   12.1120 N.am      1 SEP        -0.2611
     27 CA         -2.6310   -2.9310   12.0990 C.3       1 SEP         0.1588
     28 CB         -3.3500   -2.9340   13.4450 C.3       1 SEP         0.1184
     29 OG         -4.7400   -2.6500   13.2930 O.3       1 SEP        -0.2714
     30 C          -2.0710   -1.5510   11.7890 C.2       1 SEP         0.2090
     31 O          -0.9610   -1.2460   12.2030 O.2       1 SEP        -0.3941
     32 P          -5.3770   -1.3430   13.9730 P.3       1 SEP         0.2010
     33 O1P        -4.5970   -0.2050   13.4820 O.co2     1 SEP        -0.5537
     34 O2P        -5.3340   -1.3000   15.4480 O.co2     1 SEP        -0.5537
     35 O3P        -6.8020   -1.0750   13.6500 O.co2     1 SEP        -0.5537
     36 N          -2.8140   -0.7140   11.0400 N.am      1 PRO        -0.2498
     37 CA         -2.3720    0.6430   10.6600 C.3       1 PRO         0.1338
     38 C          -1.8730    1.4950   11.8290 C.2       1 PRO         0.2042
     39 O          -0.9660    2.3120   11.6610 O.2       1 PRO        -0.3944
     40 CB         -3.6300    1.2670   10.0570 C.3       1 PRO        -0.0104
     41 CG         -4.3980    0.1100    9.5260 C.3       1 PRO        -0.0281
     42 CD         -4.1420   -1.0270   10.4760 C.3       1 PRO         0.0369
     43 N          -2.4580    1.3100   13.0040 N.am      1 THR        -0.2613
     44 CA         -2.0530    2.0760   14.1760 C.3       1 THR         0.1565
     45 C          -0.7460    1.5410   14.7700 C.2       1 THR         0.2065
     46 O          -0.0920    2.2160   15.5640 O.2       1 THR        -0.3943
     47 CB         -3.1520    2.0700   15.2580 C.3       1 THR         0.0924
     48 OG1        -4.4500    2.0590   14.6430 O.3       1 THR        -0.3874
     49 CG2        -3.0350    3.2920   16.1570 C.3       1 THR        -0.0346
     50 N          -0.3580    0.3360   14.3660 N.am      1 SER        -0.2615
     51 CA          0.8680   -0.2830   14.8560 C.3       1 SER         0.1541
     52 C           1.7130   -0.7760   13.6800 C.2       1 SER         0.2087
     53 O           1.7050   -1.9650   13.3430 O.2       1 SER        -0.3941
     54 CB          0.5340   -1.4410   15.8030 C.3       1 SER         0.0843
     55 OG         -0.3430   -1.0140   16.8380 O.3       1 SER        -0.3903
     56 N           2.4250    0.1480   13.0220 N.am      1 PRO        -0.2498
     57 CA          3.2640   -0.1580   11.8710 C.3       1 PRO         0.1337
     58 C           4.6780   -0.6050   12.2460 C.2       1 PRO         0.2036
     59 O           5.2720   -1.4400   11.5660 O.2       1 PRO        -0.3944
     60 CB          3.3140    1.1740   11.1020 C.3       1 PRO        -0.0104
     61 CG          2.5940    2.1800   11.9500 C.3       1 PRO        -0.0281
     62 CD          2.4490    1.5760   13.3180 C.3       1 PRO         0.0369
     63 N           5.2250   -0.0470   13.3150 N.am      1 SER        -0.2672
     64 CA          6.5720   -0.3950   13.7420 C.3       1 SER         0.1173
     65 C           6.5570   -0.9120   15.1720 C.2       1 SER         0.0623
     66 O           6.6130   -2.1430   15.3580 O.co2     1 SER        -0.5665
     67 CB          7.4920    0.8230   13.6290 C.3       1 SER         0.0789
     68 OG          7.2610    1.5200   12.4130 O.3       1 SER        -0.3910
     69 OXT         6.4840   -0.0830   16.1000 O.co2     1 SER        -0.5665
     70 H1          1.1872  -12.1336   12.8278 H         1 PRO         0.2035
     71 H2          1.4293  -13.2919   13.9721 H         1 PRO         0.2035
     72 H3          1.5818  -11.8666   15.6249 H         1 PRO         0.1099
     73 H4          3.4009  -10.4337   15.7172 H         1 PRO         0.0347
     74 H5          3.1614   -9.8406   14.0386 H         1 PRO         0.0347
     75 H6          4.2938  -12.4786   15.0059 H         1 PRO         0.0320
     76 H7          4.9010  -11.3842   13.7175 H         1 PRO         0.0320
     77 H8          3.3141  -12.1216   12.1588 H         1 PRO         0.0814
     78 H9          3.4686  -13.6216   13.1349 H         1 PRO         0.0814
     79 H10         0.4656  -10.8657   12.5151 H         1 SER         0.1885
     80 H11        -1.3453   -9.6100   11.9001 H         1 SER         0.0823
     81 H12        -2.9380   -8.7824   13.5876 H         1 SER         0.0606
     82 H13        -1.7674   -9.1694   14.8940 H         1 SER         0.0606
     83 H14        -3.3263  -10.8433   14.5599 H         1 SER         0.2097
     84 H15        -1.1977   -7.7614   10.9310 H         1 TYR         0.1885
     85 H16         0.3156   -5.5437   12.2438 H         1 TYR         0.0821
     86 H17        -0.1518   -6.2395    9.3047 H         1 TYR         0.0453
     87 H18         1.3875   -6.3776   10.2202 H         1 TYR         0.0453
     88 H19        -1.0097   -3.9862    8.6704 H         1 TYR         0.0530
     89 H20         2.7763   -4.4538   10.5823 H         1 TYR         0.0530
     90 H21        -0.3804   -1.7146    7.9735 H         1 TYR         0.0525
     91 H22         3.4087   -2.1843    9.8808 H         1 TYR         0.0525
     92 H23         1.1853   -0.1530    8.0090 H         1 TYR         0.2458
     93 H24        -0.7541   -3.7228   12.7155 H         1 SEP         0.1884
     94 H25        -3.3476   -3.2137   11.3138 H         1 SEP         0.0827
     95 H26        -2.8975   -2.1700   14.0943 H         1 SEP         0.0662
     96 H27        -3.2358   -3.9245   13.9096 H         1 SEP         0.0662
     97 H28        -1.5714    0.5776    9.9085 H         1 PRO         0.0802
     98 H29        -3.3689    1.9652    9.2481 H         1 PRO         0.0313
     99 H30        -4.2088    1.7980   10.8271 H         1 PRO         0.0313
    100 H31        -4.0486   -0.1497    8.5158 H         1 PRO         0.0287
    101 H32        -5.4718    0.3464    9.4931 H         1 PRO         0.0287
    102 H33        -4.9069   -1.0589   11.2659 H         1 PRO         0.0524
    103 H34        -4.1256   -1.9888    9.9424 H         1 PRO         0.0524
    104 H35        -3.1896    0.6334   13.0877 H         1 THR         0.1884
    105 H36        -1.8870    3.1162   13.8591 H         1 THR         0.0826
    106 H37        -3.0379    1.1643   15.8717 H         1 THR         0.0639
    107 H38        -4.5375    1.2812   14.1046 H         1 THR         0.2101
    108 H39        -3.8283    3.2642   16.9185 H         1 THR         0.0257
    109 H40        -3.1400    4.2042   15.5513 H         1 THR         0.0257
    110 H41        -2.0522    3.2910   16.6511 H         1 THR         0.0257
    111 H42        -0.9230   -0.1606   13.7070 H         1 SER         0.1884
    112 H43         1.4455    0.4699   15.4124 H         1 SER         0.0823
    113 H44         1.4644   -1.8185   16.2524 H         1 SER         0.0606
    114 H45         0.0502   -2.2462   15.2306 H         1 SER         0.0606
    115 H46        -0.5353   -1.7469   17.4110 H         1 SER         0.2097
    116 H47         2.7951   -0.9436   11.2603 H         1 PRO         0.0802
    117 H48         2.8137    1.0699   10.1279 H         1 PRO         0.0313
    118 H49         4.3577    1.4847   10.9468 H         1 PRO         0.0313
    119 H50         1.6025    2.3931   11.5239 H         1 PRO         0.0287
    120 H51         3.1762    3.1115   12.0079 H         1 PRO         0.0287
    121 H52         3.3025    1.8359   13.9614 H         1 PRO         0.0524
    122 H53         1.5146    1.8994   13.7999 H         1 PRO         0.0524
    123 H54         4.7028    0.6261   13.8387 H         1 SER         0.1876
    124 H55         6.9558   -1.1891   13.0847 H         1 SER         0.0749
    125 H56         8.5392    0.4877   13.6588 H         1 SER         0.0599
    126 H57         7.2994    1.4998   14.4745 H         1 SER         0.0599
    127 H58         7.4293    0.9398   11.6798 H         1 SER         0.2096
@<TRIPOS>BOND
     1    1    2 1  
     2    1    7 1  
     3    2    3 1  
     4    2    5 1  
     5    3    4 2  
     6    3    8 am 
     7    5    6 1  
     8    6    7 1  
     9    8    9 1  
    10    9   10 1  
    11    9   12 1  
    12   10   11 2  
    13   10   14 am 
    14   12   13 1  
    15   14   15 1  
    16   15   16 1  
    17   15   18 1  
    18   16   17 2  
    19   16   26 am 
    20   18   19 1  
    21   19   20 ar 
    22   19   21 ar 
    23   20   22 ar 
    24   21   23 ar 
    25   22   24 ar 
    26   23   24 ar 
    27   24   25 1  
    28   26   27 1  
    29   27   28 1  
    30   27   30 1  
    31   28   29 1  
    32   29   32 1  
    33   30   31 2  
    34   30   36 am 
    35   32   33 ar 
    36   32   34 ar 
    37   32   35 ar 
    38   36   37 1  
    39   36   42 1  
    40   37   38 1  
    41   37   40 1  
    42   38   39 2  
    43   38   43 am 
    44   40   41 1  
    45   41   42 1  
    46   43   44 1  
    47   44   45 1  
    48   44   47 1  
    49   45   46 2  
    50   45   50 am 
    51   47   48 1  
    52   47   49 1  
    53   50   51 1  
    54   51   52 1  
    55   51   54 1  
    56   52   53 2  
    57   52   56 am 
    58   54   55 1  
    59   56   57 1  
    60   56   62 1  
    61   57   58 1  
    62   57   60 1  
    63   58   59 2  
    64   58   63 am 
    65   60   61 1  
    66   61   62 1  
    67   63   64 1  
    68   64   65 1  
    69   64   67 1  
    70   65   66 ar 
    71   65   69 ar 
    72   67   68 1  
    73    1   70 1  
    74    1   71 1  
    75    2   72 1  
    76    5   73 1  
    77    5   74 1  
    78    6   75 1  
    79    6   76 1  
    80    7   77 1  
    81    7   78 1  
    82    8   79 1  
    83    9   80 1  
    84   12   81 1  
    85   12   82 1  
    86   13   83 1  
    87   14   84 1  
    88   15   85 1  
    89   18   86 1  
    90   18   87 1  
    91   20   88 1  
    92   21   89 1  
    93   22   90 1  
    94   23   91 1  
    95   25   92 1  
    96   26   93 1  
    97   27   94 1  
    98   28   95 1  
    99   28   96 1  
   100   37   97 1  
   101   40   98 1  
   102   40   99 1  
   103   41  100 1  
   104   41  101 1  
   105   42  102 1  
   106   42  103 1  
   107   43  104 1  
   108   44  105 1  
   109   47  106 1  
   110   48  107 1  
   111   49  108 1  
   112   49  109 1  
   113   49  110 1  
   114   50  111 1  
   115   51  112 1  
   116   54  113 1  
   117   54  114 1  
   118   55  115 1  
   119   57  116 1  
   120   60  117 1  
   121   60  118 1  
   122   61  119 1  
   123   61  120 1  
   124   62  121 1  
   125   62  122 1  
   126   63  123 1  
   127   64  124 1  
   128   67  125 1  
   129   67  126 1  
   130   68  127 1  
@<TRIPOS>SUBSTRUCTURE
     1 PRO         1

