4heg_ligand
  -I-interpret- 

 82 86  0  0  0  0  0  0  0  0999 V2000
  -17.1880  -24.9920   20.0570 C   0  0  0  0  0
  -16.4290  -24.1480   20.8690 C   0  0  0  0  0
  -15.3570  -23.4220   20.3750 C   0  0  0  0  0
  -14.9840  -23.5920   19.0640 C   0  0  0  0  0
  -15.6740  -24.4960   18.2730 C   0  0  0  0  0
  -16.7490  -25.2360   18.7670 C   0  0  0  0  0
  -13.6540  -22.6550   18.4150 S   0  0  0  0  0
  -12.6980  -22.2680   19.5030 O   0  0  0  0  0
  -13.0050  -23.3820   17.3170 O   0  0  0  0  0
  -14.2430  -21.2570   17.7800 N   0  0  0  0  0
  -15.3470  -21.4120   16.8590 C   0  0  0  0  0
  -15.2960  -20.4400   15.6730 C   0  0  0  0  0
  -13.9670  -20.5070   14.9160 C   0  0  0  0  0
  -16.3980  -20.8070   14.6510 C   0  0  0  0  0
  -14.4210  -20.2080   18.7820 C   0  0  0  0  0
  -13.5890  -19.0000   18.3810 C   0  0  0  0  0
  -14.0640  -17.8150   19.0290 O   0  0  0  0  0
  -12.1010  -19.2340   18.6100 C   0  0  0  0  0
  -11.3190  -18.1920   17.9620 N   0  0  0  0  0
  -10.5230  -18.2750   16.8970 C   0  0  0  0  0
  -10.3330  -19.2820   16.1980 O   0  0  0  0  0
   -9.8900  -17.1060   16.6150 O   0  0  0  0  0
   -8.9320  -17.1460   15.5560 C   0  0  0  0  0
   -9.1640  -15.8920   14.7100 C   0  0  0  0  0
   -8.5050  -14.8250   15.3920 O   0  0  0  0  0
   -7.4510  -15.3400   16.2080 C   0  0  0  0  0
   -7.7430  -15.0080   17.5700 O   0  0  0  0  0
   -7.7160  -16.1470   18.4040 C   0  0  0  0  0
   -7.3000  -17.3290   17.5290 C   0  0  0  0  0
   -7.5230  -16.8530   16.1010 C   0  0  0  0  0
  -11.7530  -19.2700   20.1010 C   0  0  0  0  0
   -9.4430  -18.5220   20.7390 C   0  0  0  0  0
   -8.0870  -18.7650   20.8140 C   0  0  0  0  0
   -7.5780  -19.9990   20.4380 C   0  0  0  0  0
   -8.4250  -21.0540   20.1250 C   0  0  0  0  0
   -9.7810  -20.8160   20.0130 C   0  0  0  0  0
  -10.2700  -19.5520   20.2990 C   0  0  0  0  0
  -18.2190  -25.6270   20.6540 O   0  0  0  0  0
  -19.0440  -26.3760   19.7690 C   0  0  0  0  0
   -6.7030  -16.0380   19.4070 O   0  0  0  0  0
   -5.4810  -16.2230   18.7000 C   0  0  0  0  0
   -5.8010  -17.4430   17.8570 C   0  0  0  0  0
  -16.6873  -24.0571   21.9240 H   0  0  0  0  0
  -14.8176  -22.7261   21.0175 H   0  0  0  0  0
  -15.3687  -24.6331   17.2357 H   0  0  0  0  0
  -17.2338  -25.9917   18.1489 H   0  0  0  0  0
  -16.2648  -21.2079   17.4105 H   0  0  0  0  0
  -15.2976  -22.4235   16.4558 H   0  0  0  0  0
  -15.4298  -19.4418   16.0900 H   0  0  0  0  0
  -13.1514  -20.2537   15.5933 H   0  0  0  0  0
  -13.8206  -21.5158   14.5301 H   0  0  0  0  0
  -13.9861  -19.7990   14.0875 H   0  0  0  0  0
  -16.2358  -21.8237   14.2932 H   0  0  0  0  0
  -17.3741  -20.7409   15.1317 H   0  0  0  0  0
  -16.3578  -20.1140   13.8107 H   0  0  0  0  0
  -14.0982  -20.5710   19.7578 H   0  0  0  0  0
  -15.4729  -19.9286   18.8410 H   0  0  0  0  0
  -13.7100  -18.8510   17.3080 H   0  0  0  0  0
  -13.5248  -17.0672   18.7613 H   0  0  0  0  0
  -11.8580  -20.2042   18.1767 H   0  0  0  0  0
  -11.3905  -17.2658   18.3833 H   0  0  0  0  0
   -9.0187  -18.1089   15.0525 H   0  0  0  0  0
  -10.2283  -15.6869   14.5944 H   0  0  0  0  0
   -8.7681  -16.0186   13.7023 H   0  0  0  0  0
   -6.4819  -14.9440   15.9046 H   0  0  0  0  0
   -8.6935  -16.2583   18.8733 H   0  0  0  0  0
   -7.8199  -18.2763   17.6720 H   0  0  0  0  0
   -6.8028  -17.3452   15.4475 H   0  0  0  0  0
  -12.3298  -20.0617   20.5791 H   0  0  0  0  0
  -11.9903  -18.3020   20.5423 H   0  0  0  0  0
   -9.8550  -17.5517   21.0162 H   0  0  0  0  0
   -7.4139  -17.9850   21.1698 H   0  0  0  0  0
   -6.4987  -20.1427   20.3875 H   0  0  0  0  0
   -8.0253  -22.0561   19.9698 H   0  0  0  0  0
  -10.4576  -21.6126   19.7035 H   0  0  0  0  0
  -19.4726  -25.7085   19.0214 H   0  0  0  0  0
  -18.4443  -27.1401   19.2745 H   0  0  0  0  0
  -19.8449  -26.8511   20.3355 H   0  0  0  0  0
   -4.6165  -16.3565   19.3504 H   0  0  0  0  0
   -5.1801  -15.3545   18.1141 H   0  0  0  0  0
   -5.1940  -17.4756   16.9523 H   0  0  0  0  0
   -5.5761  -18.3677   18.3884 H   0  0  0  0  0
  2  1  4  0  0  0
  6  1  4  0  0  0
  1 38  1  0  0  0
  3  2  4  0  0  0
  4  3  4  0  0  0
  4  5  4  0  0  0
  7  4  1  0  0  0
  5  6  4  0  0  0
  7  8  2  0  0  0
  7  9  2  0  0  0
 10  7  1  0  0  0
 10 11  1  0  0  0
 15 10  1  0  0  0
 11 12  1  0  0  0
 12 13  1  0  0  0
 12 14  1  0  0  0
 16 15  1  0  0  0
 16 17  1  0  0  0
 18 16  1  0  0  0
 18 19  1  0  0  0
 31 18  1  0  0  0
 19 20  1  0  0  0
 20 21  2  0  0  0
 20 22  1  0  0  0
 22 23  1  0  0  0
 23 24  1  0  0  0
 23 30  1  0  0  0
 24 25  1  0  0  0
 26 25  1  0  0  0
 26 27  1  0  0  0
 30 26  1  0  0  0
 28 27  1  0  0  0
 29 28  1  0  0  0
 28 40  1  0  0  0
 30 29  1  0  0  0
 29 42  1  0  0  0
 37 31  1  0  0  0
 32 33  4  0  0  0
 32 37  4  0  0  0
 33 34  4  0  0  0
 34 35  4  0  0  0
 35 36  4  0  0  0
 36 37  4  0  0  0
 38 39  1  0  0  0
 40 41  1  0  0  0
 41 42  1  0  0  0
  2 43  1  0  0  0
  3 44  1  0  0  0
  5 45  1  0  0  0
  6 46  1  0  0  0
 11 47  1  0  0  0
 11 48  1  0  0  0
 12 49  1  0  0  0
 13 50  1  0  0  0
 13 51  1  0  0  0
 13 52  1  0  0  0
 14 53  1  0  0  0
 14 54  1  0  0  0
 14 55  1  0  0  0
 15 56  1  0  0  0
 15 57  1  0  0  0
 16 58  1  0  0  0
 17 59  1  0  0  0
 18 60  1  0  0  0
 19 61  1  0  0  0
 23 62  1  0  0  0
 24 63  1  0  0  0
 24 64  1  0  0  0
 26 65  1  0  0  0
 28 66  1  0  0  0
 29 67  1  0  0  0
 30 68  1  0  0  0
 31 69  1  0  0  0
 31 70  1  0  0  0
 32 71  1  0  0  0
 33 72  1  0  0  0
 34 73  1  0  0  0
 35 74  1  0  0  0
 36 75  1  0  0  0
 39 76  1  0  0  0
 39 77  1  0  0  0
 39 78  1  0  0  0
 41 79  1  0  0  0
 41 80  1  0  0  0
 42 81  1  0  0  0
 42 82  1  0  0  0
M  END
$$$$
