4ryg_ligand
  -I-interpret- 

 77 79  0  0  0  0  0  0  0  0999 V2000
   44.1380  106.5840   12.0220 C   0  0  0  0  0
   42.7520  108.6330   11.6500 C   0  0  0  0  0
   37.6870  106.9640    8.7870 C   0  0  0  0  0
   47.6710  104.4690   13.5110 C   0  0  0  0  0
   45.3570  105.2340   13.8200 C   0  0  0  0  0
   45.0180  108.7490   12.8060 C   0  0  0  0  0
   46.5040  104.5750   14.3100 C   0  0  0  0  0
   43.1250  108.9260    9.0470 C   0  0  0  0  0
   41.0730  110.1750    9.0550 C   0  0  0  0  0
   36.9880  108.2760    8.4140 C   0  0  0  0  0
   49.5510  107.0650   10.2690 C   0  0  0  0  0
   49.0170  105.6200   10.1540 C   0  0  0  0  0
   49.5200  107.8190    8.9130 C   0  0  0  0  0
   45.7320  109.8180   11.9280 C   0  0  0  0  0
   44.5660  109.2250   14.2120 C   0  0  0  0  0
   35.7580  108.6370    9.0120 C   0  0  0  0  0
   37.5740  109.1250    7.4580 C   0  0  0  0  0
   48.8480  102.6300   14.7980 C   0  0  0  0  0
   43.9860  107.9590   12.1070 N   0  0  0  0  0
   42.2690  108.3750   10.2010 C   0  0  0  0  0
   39.9990  107.9800    9.3330 N   0  0  0  0  0
   45.3620  105.8370   12.5500 C   0  0  0  0  0
   40.8610  108.9520    9.9540 C   0  0  0  0  0
   46.5130  105.7560   11.7570 C   0  0  0  0  0
   47.6770  105.0810   12.2240 C   0  0  0  0  0
   42.2490  109.8080    8.2560 N   0  3  0  0  0
   43.3270  105.8310   11.4950 O   0  0  0  0  0
   48.8550  104.9870   11.4440 O   0  0  0  0  0
   48.8420  103.8030   13.9650 O   0  0  0  0  0
   50.6020  107.3970    8.0670 O   0  0  0  0  0
   50.1400  106.9140    6.7870 C   0  0  0  0  0
   35.1000  109.8240    8.6450 C   0  0  0  0  0
   36.9220  110.3210    7.1040 C   0  0  0  0  0
   35.6760  110.6600    7.6760 C   0  0  0  0  0
   38.8060  107.2640   10.1760 S   0  0  0  0  0
   39.3530  106.0000   10.6550 O   0  0  0  0  0
   38.2200  108.1830   11.1420 O   0  0  0  0  0
   42.9747  109.6992   11.6927 H   0  0  0  0  0
   41.9594  108.2453   12.2900 H   0  0  0  0  0
   38.2540  106.5947    7.9324 H   0  0  0  0  0
   36.9428  106.2195    9.0698 H   0  0  0  0  0
   44.4567  105.2762   14.4330 H   0  0  0  0  0
   45.8298  108.0499   13.0068 H   0  0  0  0  0
   46.4933  104.1437   15.3110 H   0  0  0  0  0
   43.5180  108.1157    8.4329 H   0  0  0  0  0
   43.9863  109.4741    9.4289 H   0  0  0  0  0
   41.2222  111.0928    9.6238 H   0  0  0  0  0
   40.2016  110.3995    8.4399 H   0  0  0  0  0
   50.5875  107.0152   10.6027 H   0  0  0  0  0
   48.9131  107.6048   10.9689 H   0  0  0  0  0
   49.7396  105.0383    9.5816 H   0  0  0  0  0
   48.0397  105.6592    9.6728 H   0  0  0  0  0
   49.6202  108.8875    9.1036 H   0  0  0  0  0
   48.5772  107.6002    8.4117 H   0  0  0  0  0
   45.0595  110.6601   11.7644 H   0  0  0  0  0
   46.6314  110.1634   12.4379 H   0  0  0  0  0
   46.0033  109.3764   10.9691 H   0  0  0  0  0
   45.4360  109.5555   14.7794 H   0  0  0  0  0
   43.8642  110.0522   14.1059 H   0  0  0  0  0
   44.0814  108.4005   14.7349 H   0  0  0  0  0
   35.3149  107.9870    9.7665 H   0  0  0  0  0
   38.5245  108.8591    6.9954 H   0  0  0  0  0
   48.3473  102.8525   15.7403 H   0  0  0  0  0
   48.3237  101.8215   14.2886 H   0  0  0  0  0
   49.8775  102.3304   14.9941 H   0  0  0  0  0
   42.3238  107.2868   10.1704 H   0  0  0  0  0
   40.1382  107.7373    8.3521 H   0  0  0  0  0
   40.3681  109.2254   10.8870 H   0  0  0  0  0
   46.5184  106.2158   10.7687 H   0  0  0  0  0
   41.9479  109.3201    7.4124 H   0  0  0  0  0
   42.7606  110.6516    7.9970 H   0  0  0  0  0
   49.4774  106.0620    6.9392 H   0  0  0  0  0
   49.5994  107.7092    6.2736 H   0  0  0  0  0
   50.9957  106.6075    6.1854 H   0  0  0  0  0
   34.1509  110.0926    9.1089 H   0  0  0  0  0
   37.3837  110.9929    6.3805 H   0  0  0  0  0
   35.1624  111.5698    7.3653 H   0  0  0  0  0
  1 19  1  0  0  0
 22  1  1  0  0  0
  1 27  2  0  0  0
 19  2  1  0  0  0
  2 20  1  0  0  0
  3 10  1  0  0  0
 35  3  1  0  0  0
  4  7  4  0  0  0
 25  4  4  0  0  0
  4 29  1  0  0  0
  7  5  4  0  0  0
 22  5  4  0  0  0
  6 14  1  0  0  0
  6 15  1  0  0  0
 19  6  1  0  0  0
 20  8  1  0  0  0
  8 26  1  0  0  0
 23  9  1  0  0  0
  9 26  1  0  0  0
 10 16  4  0  0  0
 10 17  4  0  0  0
 12 11  1  0  0  0
 11 13  1  0  0  0
 28 12  1  0  0  0
 13 30  1  0  0  0
 16 32  4  0  0  0
 17 33  4  0  0  0
 29 18  1  0  0  0
 20 23  1  0  0  0
 23 21  1  0  0  0
 21 35  1  0  0  0
 24 22  4  0  0  0
 25 24  4  0  0  0
 25 28  1  0  0  0
 30 31  1  0  0  0
 32 34  4  0  0  0
 33 34  4  0  0  0
 35 36  2  0  0  0
 35 37  2  0  0  0
  2 38  1  0  0  0
  2 39  1  0  0  0
  3 40  1  0  0  0
  3 41  1  0  0  0
  5 42  1  0  0  0
  6 43  1  0  0  0
  7 44  1  0  0  0
  8 45  1  0  0  0
  8 46  1  0  0  0
  9 47  1  0  0  0
  9 48  1  0  0  0
 11 49  1  0  0  0
 11 50  1  0  0  0
 12 51  1  0  0  0
 12 52  1  0  0  0
 13 53  1  0  0  0
 13 54  1  0  0  0
 14 55  1  0  0  0
 14 56  1  0  0  0
 14 57  1  0  0  0
 15 58  1  0  0  0
 15 59  1  0  0  0
 15 60  1  0  0  0
 16 61  1  0  0  0
 17 62  1  0  0  0
 18 63  1  0  0  0
 18 64  1  0  0  0
 18 65  1  0  0  0
 20 66  1  0  0  0
 21 67  1  0  0  0
 23 68  1  0  0  0
 24 69  1  0  0  0
 26 70  1  0  0  0
 26 71  1  0  0  0
 31 72  1  0  0  0
 31 73  1  0  0  0
 31 74  1  0  0  0
 32 75  1  0  0  0
 33 76  1  0  0  0
 34 77  1  0  0  0
M  END
$$$$
