4b73_ligand
  -I-interpret- 

 48 49  0  0  0  0  0  0  0  0999 V2000
    2.8870   13.0280  -42.0830 F   0  0  0  0  0
    4.8220   17.3540  -40.3950 Cl  0  0  0  0  0
    0.0900   14.7230  -44.6530 C   0  0  0  0  0
    0.3370   13.5970  -43.7100 C   0  0  0  0  0
    0.2120   13.9940  -42.2420 C   0  0  0  0  0
    0.0390   12.7450  -41.4160 N   0  3  0  0  0
   -1.3280   12.1080  -41.4030 C   0  0  0  0  0
   -1.2660   10.7500  -40.7120 C   0  0  0  0  0
   -2.3040   13.0670  -40.7370 C   0  0  0  0  0
   -1.9570   13.3170  -39.2990 C   0  0  0  0  0
   -0.8030   13.4170  -38.9530 O   0  0  0  0  0
   -2.9780   13.4060  -38.4560 N   0  0  0  0  0
    1.3840   14.8280  -41.7740 C   0  0  0  0  0
    1.1900   16.1430  -41.3940 C   0  0  0  0  0
    2.2520   16.9070  -40.9780 C   0  0  0  0  0
    3.5160   16.3620  -40.9350 C   0  0  0  0  0
    3.7260   15.0480  -41.2970 C   0  0  0  0  0
    4.9770   14.5010  -41.2760 O   0  0  0  0  0
    5.6700   14.2380  -40.1190 C   0  0  0  0  0
    5.0310   14.2550  -38.8950 C   0  0  0  0  0
    5.7370   13.9820  -37.7540 C   0  0  0  0  0
    7.0880   13.6810  -37.8260 C   0  0  0  0  0
    7.7270   13.6600  -39.0410 C   0  0  0  0  0
    7.0260   13.9400  -40.1880 C   0  0  0  0  0
    2.6750   14.3010  -41.7210 C   0  0  0  0  0
   -0.9192   15.1063  -44.5027 H   0  0  0  0  0
    0.8131   15.5169  -44.4663 H   0  0  0  0  0
    0.1960   14.3669  -45.6777 H   0  0  0  0  0
    1.3589   13.2533  -43.8706 H   0  0  0  0  0
   -0.4148   12.8330  -43.9079 H   0  0  0  0  0
   -0.6650   14.6293  -42.1182 H   0  0  0  0  0
    0.2228   13.0238  -40.4522 H   0  0  0  0  0
    0.6626   12.0519  -41.8297 H   0  0  0  0  0
   -1.6796   11.9216  -42.4177 H   0  0  0  0  0
   -0.9477   10.8840  -39.6782 H   0  0  0  0  0
   -2.2530   10.2879  -40.7326 H   0  0  0  0  0
   -0.5532   10.1109  -41.2330 H   0  0  0  0  0
   -3.2979   12.6210  -40.7743 H   0  0  0  0  0
   -2.2613   14.0183  -41.2674 H   0  0  0  0  0
   -2.8072   13.5662  -37.4632 H   0  0  0  0  0
   -3.9336   13.3142  -38.8008 H   0  0  0  0  0
    0.1897   16.5750  -41.4248 H   0  0  0  0  0
    2.0949   17.9442  -40.6820 H   0  0  0  0  0
    3.9671   14.4852  -38.8373 H   0  0  0  0  0
    5.2352   14.0014  -36.7866 H   0  0  0  0  0
    7.6448   13.4603  -36.9153 H   0  0  0  0  0
    8.7892   13.4214  -39.0950 H   0  0  0  0  0
    7.5329   13.9286  -41.1529 H   0  0  0  0  0
 25  1  1  0  0  0
 16  2  1  0  0  0
  4  3  1  0  0  0
  5  4  1  0  0  0
  5  6  1  0  0  0
 13  5  1  0  0  0
  6  7  1  0  0  0
  7  8  1  0  0  0
  7  9  1  0  0  0
  9 10  1  0  0  0
 10 11  2  0  0  0
 10 12  1  0  0  0
 14 13  4  0  0  0
 13 25  4  0  0  0
 15 14  4  0  0  0
 15 16  4  0  0  0
 16 17  4  0  0  0
 17 18  1  0  0  0
 17 25  4  0  0  0
 18 19  1  0  0  0
 19 20  4  0  0  0
 19 24  4  0  0  0
 20 21  4  0  0  0
 21 22  4  0  0  0
 22 23  4  0  0  0
 23 24  4  0  0  0
  3 26  1  0  0  0
  3 27  1  0  0  0
  3 28  1  0  0  0
  4 29  1  0  0  0
  4 30  1  0  0  0
  5 31  1  0  0  0
  6 32  1  0  0  0
  6 33  1  0  0  0
  7 34  1  0  0  0
  8 35  1  0  0  0
  8 36  1  0  0  0
  8 37  1  0  0  0
  9 38  1  0  0  0
  9 39  1  0  0  0
 12 40  1  0  0  0
 12 41  1  0  0  0
 14 42  1  0  0  0
 15 43  1  0  0  0
 20 44  1  0  0  0
 21 45  1  0  0  0
 22 46  1  0  0  0
 23 47  1  0  0  0
 24 48  1  0  0  0
M  END
$$$$
