1z6q_ligand
  -I-interpret- 

 61 64  0  0  0  0  0  0  0  0999 V2000
   26.4030   -1.5600   51.6040 C   0  0  0  0  0
   25.0460   -1.4850   51.8600 C   0  0  0  0  0
   24.3930   -2.5320   52.5120 C   0  0  0  0  0
   25.1100   -3.6530   52.9100 C   0  0  0  0  0
   26.4880   -3.7210   52.6600 C   0  0  0  0  0
   27.1320   -2.6720   52.0110 C   0  0  0  0  0
   26.9950   -0.5350   50.8630 O   0  0  0  0  0
   28.3820   -0.4630   50.9950 C   0  0  0  0  0
   29.1700   -0.3910   49.8510 C   0  0  0  0  0
   30.5350   -0.1290   49.9520 C   0  0  0  0  0
   31.1120    0.0730   51.1790 C   0  0  0  0  0
   30.3390   -0.0210   52.3320 C   0  0  0  0  0
   28.9720   -0.2910   52.2420 C   0  0  0  0  0
   32.5190    0.4710   51.2540 C   0  0  0  0  0
   33.2880   -0.2650   52.0780 O   0  0  0  0  0
   32.9280    1.3920   50.6130 O   0  0  0  0  0
   31.3720   -0.1080   48.7550 C   0  0  0  0  0
   32.3090   -1.0890   48.6960 O   0  0  0  0  0
   31.2300    0.7260   47.9150 O   0  0  0  0  0
   24.3800   -0.3410   51.5410 N   0  0  0  0  0
   24.7600    0.8010   52.1510 C   0  0  0  0  0
   24.1470    2.0490   51.6660 C   0  0  0  0  0
   25.5840    0.7770   53.0570 O   0  0  0  0  0
   24.0730    3.1300   52.5250 C   0  0  0  0  0
   23.5930    4.3480   52.0790 C   0  0  0  0  0
   23.1780    4.4910   50.7690 C   0  0  0  0  0
   23.2390    3.4080   49.9020 C   0  0  0  0  0
   23.7260    2.1860   50.3490 C   0  0  0  0  0
   23.5550    5.4830   52.9930 N   0  0  0  0  0
   23.0860    6.5250   52.6650 O   0  0  0  0  0
   24.0880    5.2480   54.2110 O   0  0  0  0  0
   24.4560   -4.6940   53.5380 N   0  0  0  0  0
   25.0310   -5.9150   53.6170 C   0  0  0  0  0
   26.1160   -6.1480   53.0980 O   0  0  0  0  0
   24.2500   -6.9360   54.3750 C   0  0  0  0  0
   23.1810   -6.5570   55.1910 C   0  0  0  0  0
   22.4870   -7.5270   55.9350 C   0  0  0  0  0
   22.8650   -8.8520   55.8590 C   0  0  0  0  0
   23.9220   -9.2300   55.0450 C   0  0  0  0  0
   24.6170   -8.2740   54.3030 C   0  0  0  0  0
   21.3680   -7.1460   56.8120 N   0  0  0  0  0
   21.2680   -6.0410   57.2460 O   0  0  0  0  0
   20.4870   -8.1430   57.0810 O   0  0  0  0  0
   23.3226   -2.4701   52.7085 H   0  0  0  0  0
   27.0556   -4.5968   52.9745 H   0  0  0  0  0
   28.2044   -2.7218   51.8223 H   0  0  0  0  0
   28.7176   -0.5403   48.8706 H   0  0  0  0  0
   30.8022    0.1166   53.3090 H   0  0  0  0  0
   28.3691   -0.3667   53.1469 H   0  0  0  0  0
   32.7528   -0.9485   52.4878 H   0  0  0  0  0
   32.2399   -1.6434   49.4767 H   0  0  0  0  0
   23.6183   -0.3471   50.8627 H   0  0  0  0  0
   24.3951    3.0215   53.5606 H   0  0  0  0  0
   22.8034    5.4521   50.4167 H   0  0  0  0  0
   22.9046    3.5167   48.8703 H   0  0  0  0  0
   23.7777    1.3365   49.6679 H   0  0  0  0  0
   23.5333   -4.5410   53.9449 H   0  0  0  0  0
   22.8853   -5.5096   55.2507 H   0  0  0  0  0
   22.3311   -9.6036   56.4405 H   0  0  0  0  0
   24.2115  -10.2791   54.9844 H   0  0  0  0  0
   25.4483   -8.5773   53.6666 H   0  0  0  0  0
  1  2  4  0  0  0
  1  6  4  0  0  0
  1  7  1  0  0  0
  2  3  4  0  0  0
  2 20  1  0  0  0
  3  4  4  0  0  0
  4  5  4  0  0  0
  4 32  1  0  0  0
  5  6  4  0  0  0
  7  8  1  0  0  0
  8  9  4  0  0  0
  8 13  4  0  0  0
  9 10  4  0  0  0
 10 11  4  0  0  0
 10 17  1  0  0  0
 11 12  4  0  0  0
 11 14  1  0  0  0
 12 13  4  0  0  0
 14 15  1  0  0  0
 14 16  2  0  0  0
 17 18  1  0  0  0
 17 19  2  0  0  0
 20 21  1  0  0  0
 21 22  1  0  0  0
 21 23  2  0  0  0
 22 24  4  0  0  0
 22 28  4  0  0  0
 24 25  4  0  0  0
 25 26  4  0  0  0
 25 29  1  0  0  0
 26 27  4  0  0  0
 27 28  4  0  0  0
 29 30  2  0  0  0
 29 31  2  0  0  0
 32 33  1  0  0  0
 33 34  2  0  0  0
 33 35  1  0  0  0
 35 36  4  0  0  0
 35 40  4  0  0  0
 36 37  4  0  0  0
 37 38  4  0  0  0
 37 41  1  0  0  0
 38 39  4  0  0  0
 39 40  4  0  0  0
 41 42  2  0  0  0
 41 43  2  0  0  0
  3 44  1  0  0  0
  5 45  1  0  0  0
  6 46  1  0  0  0
  9 47  1  0  0  0
 12 48  1  0  0  0
 13 49  1  0  0  0
 15 50  1  0  0  0
 18 51  1  0  0  0
 20 52  1  0  0  0
 24 53  1  0  0  0
 26 54  1  0  0  0
 27 55  1  0  0  0
 28 56  1  0  0  0
 32 57  1  0  0  0
 36 58  1  0  0  0
 38 59  1  0  0  0
 39 60  1  0  0  0
 40 61  1  0  0  0
M  END
$$$$
