3rl7_ligand
  -I-interpret- 

112112  0  0  0  0  0  0  0  0999 V2000
   50.6580    1.8390   18.8820 N   0  3  0  0  0
   50.4120    0.5550   19.5960 C   0  0  0  0  0
   50.1380    0.8030   21.0800 C   0  0  0  0  0
   50.8410    0.2790   21.9490 O   0  0  0  0  0
   51.5970   -0.4000   19.4050 C   0  0  0  0  0
   52.7390    0.0340   20.1260 O   0  0  0  0  0
   49.1020    1.5950   21.3550 N   0  0  0  0  0
   48.7590    2.0180   22.7180 C   0  0  0  0  0
   48.5870    0.8690   23.7120 C   0  0  0  0  0
   49.0340    0.9620   24.8590 O   0  0  0  0  0
   47.5040    2.9040   22.7110 C   0  0  0  0  0
   46.9120    3.1510   24.0860 C   0  0  0  0  0
   47.6080    3.8890   25.0470 C   0  0  0  0  0
   45.6580    2.6430   24.4250 C   0  0  0  0  0
   47.0700    4.1100   26.3110 C   0  0  0  0  0
   45.1100    2.8620   25.6870 C   0  0  0  0  0
   45.8220    3.5960   26.6230 C   0  0  0  0  0
   45.2840    3.8180   27.8720 O   0  0  0  0  0
   47.9440   -0.2090   23.2690 N   0  0  0  0  0
   47.6830   -1.3530   24.1340 C   0  0  0  0  0
   48.4820   -2.5760   23.6930 C   0  0  0  0  0
   48.3070   -3.0790   22.5820 O   0  0  0  0  0
   46.1820   -1.6630   24.1720 C   0  0  0  0  0
   45.6360   -2.5310   25.3110 C   0  0  0  0  0
   45.7560   -1.8270   26.6640 C   0  0  0  0  0
   44.1840   -2.9090   25.0340 C   0  0  0  0  0
   49.3700   -3.0370   24.5700 N   0  0  0  0  0
   50.1850   -4.2210   24.3120 C   0  0  0  0  0
   49.9850   -5.2230   25.4450 C   0  0  0  0  0
   50.3890   -4.9690   26.5820 O   0  0  0  0  0
   51.6910   -3.8720   24.1810 C   0  0  0  0  0
   52.4870   -5.0900   23.7370 C   0  0  0  0  0
   51.9000   -2.7180   23.2060 C   0  0  0  0  0
   49.3530   -6.3520   25.1320 N   0  0  0  0  0
   49.0720   -7.3800   26.1360 C   0  0  0  0  0
   50.0190   -8.5690   25.9920 C   0  0  0  0  0
   50.1720   -9.1250   24.9000 O   0  0  0  0  0
   47.6010   -7.8530   26.0760 C   0  0  0  0  0
   46.7260   -6.7230   26.1860 O   0  0  0  0  0
   47.2920   -8.8390   27.2030 C   0  0  0  0  0
   50.6540   -8.9440   27.1010 N   0  0  0  0  0
   51.5890  -10.0670   27.1190 C   0  0  0  0  0
   50.8460  -11.3920   27.2630 C   0  0  0  0  0
   50.0000  -11.5440   28.1480 O   0  0  0  0  0
   52.6230   -9.9010   28.2390 C   0  0  0  0  0
   52.0740  -10.2230   29.5110 O   0  0  0  0  0
   51.1640  -12.3420   26.3850 N   0  0  0  0  0
   50.4980  -13.6490   26.3780 C   0  0  0  0  0
   51.4710  -14.8140   26.6200 C   0  0  0  0  0
   51.0560  -15.9420   26.8980 O   0  0  0  0  0
   49.6670  -13.8900   25.0740 C   0  0  0  0  0
   48.7370  -12.7060   24.7810 C   0  0  0  0  0
   50.5740  -14.1710   23.8810 C   0  0  0  0  0
   52.6930  -14.6670   26.5490 O   0  0  0  0  0
   49.8614    2.4611   19.0194 H   0  0  0  0  0
   51.5010    2.2770   19.2533 H   0  0  0  0  0
   50.7794    1.6550   17.8861 H   0  0  0  0  0
   49.5260    0.0860   19.1679 H   0  0  0  0  0
   51.8492   -0.4281   18.3450 H   0  0  0  0  0
   51.3094   -1.3840   19.7753 H   0  0  0  0  0
   53.4595   -0.5845   19.9846 H   0  0  0  0  0
   48.5210    1.9221   20.5831 H   0  0  0  0  0
   49.6185    2.5899   23.0677 H   0  0  0  0  0
   46.7469    2.3859   22.1224 H   0  0  0  0  0
   47.7959    3.8733   22.3069 H   0  0  0  0  0
   48.5882    4.2982   24.8025 H   0  0  0  0  0
   45.0974    2.0650   23.6903 H   0  0  0  0  0
   47.6272    4.6841   27.0513 H   0  0  0  0  0
   44.1284    2.4591   25.9366 H   0  0  0  0  0
   44.4220    3.3991   27.9269 H   0  0  0  0  0
   47.6260   -0.2353   22.3002 H   0  0  0  0  0
   48.0079   -1.0957   25.1421 H   0  0  0  0  0
   45.9884   -2.2341   23.2640 H   0  0  0  0  0
   45.6967   -0.6950   24.2970 H   0  0  0  0  0
   46.2383   -3.4383   25.3580 H   0  0  0  0  0
   46.8047   -1.6110   26.8680 H   0  0  0  0  0
   45.1901   -0.8958   26.6390 H   0  0  0  0  0
   45.3584   -2.4744   27.4455 H   0  0  0  0  0
   43.5829   -2.0032   24.9546 H   0  0  0  0  0
   44.1272   -3.4674   24.0996 H   0  0  0  0  0
   43.8083   -3.5255   25.8506 H   0  0  0  0  0
   49.4859   -2.5449   25.4559 H   0  0  0  0  0
   49.8650   -4.6517   23.3632 H   0  0  0  0  0
   52.0505   -3.5605   25.1617 H   0  0  0  0  0
   52.3713   -5.8860   24.4726 H   0  0  0  0  0
   52.1177   -5.4309   22.7698 H   0  0  0  0  0
   53.5403   -4.8227   23.6516 H   0  0  0  0  0
   51.5185   -2.9996   22.2246 H   0  0  0  0  0
   51.3661   -1.8386   23.5661 H   0  0  0  0  0
   52.9642   -2.4940   23.1330 H   0  0  0  0  0
   49.0569   -6.5049   24.1680 H   0  0  0  0  0
   49.2378   -6.9240   27.1121 H   0  0  0  0  0
   47.4457   -8.3560   25.1216 H   0  0  0  0  0
   45.8142   -7.0209   26.1483 H   0  0  0  0  0
   47.9421   -9.7091   27.1112 H   0  0  0  0  0
   47.4638   -8.3552   28.1645 H   0  0  0  0  0
   46.2505   -9.1531   27.1338 H   0  0  0  0  0
   50.4822   -8.4309   27.9656 H   0  0  0  0  0
   52.1192  -10.0768   26.1667 H   0  0  0  0  0
   52.9466   -8.8603   28.2572 H   0  0  0  0  0
   53.4552  -10.5769   28.0422 H   0  0  0  0  0
   52.7463  -10.1085   30.1867 H   0  0  0  0  0
   51.8929  -12.1549   25.6965 H   0  0  0  0  0
   49.8027  -13.6228   27.2171 H   0  0  0  0  0
   50.0964  -15.9313   26.9240 H   0  0  0  0  0
   49.0490  -14.7722   25.2408 H   0  0  0  0  0
   48.0467  -12.5731   25.6140 H   0  0  0  0  0
   49.3317  -11.8016   24.6525 H   0  0  0  0  0
   48.1740  -12.9048   23.8691 H   0  0  0  0  0
   51.2338  -13.3186   23.7191 H   0  0  0  0  0
   51.1706  -15.0610   24.0814 H   0  0  0  0  0
   49.9637  -14.3336   22.9926 H   0  0  0  0  0
  1  2  1  0  0  0
  2  3  1  0  0  0
  2  5  1  0  0  0
  3  4  2  0  0  0
  3  7  1  0  0  0
  5  6  1  0  0  0
  7  8  1  0  0  0
  8  9  1  0  0  0
  8 11  1  0  0  0
  9 10  2  0  0  0
  9 19  1  0  0  0
 11 12  1  0  0  0
 12 13  4  0  0  0
 12 14  4  0  0  0
 13 15  4  0  0  0
 14 16  4  0  0  0
 15 17  4  0  0  0
 16 17  4  0  0  0
 17 18  1  0  0  0
 19 20  1  0  0  0
 20 21  1  0  0  0
 20 23  1  0  0  0
 21 22  2  0  0  0
 21 27  1  0  0  0
 23 24  1  0  0  0
 24 25  1  0  0  0
 24 26  1  0  0  0
 27 28  1  0  0  0
 28 29  1  0  0  0
 28 31  1  0  0  0
 29 30  2  0  0  0
 29 34  1  0  0  0
 31 32  1  0  0  0
 31 33  1  0  0  0
 34 35  1  0  0  0
 35 36  1  0  0  0
 35 38  1  0  0  0
 36 37  2  0  0  0
 36 41  1  0  0  0
 38 39  1  0  0  0
 38 40  1  0  0  0
 41 42  1  0  0  0
 42 43  1  0  0  0
 42 45  1  0  0  0
 43 44  2  0  0  0
 43 47  1  0  0  0
 45 46  1  0  0  0
 47 48  1  0  0  0
 48 49  1  0  0  0
 48 51  1  0  0  0
 49 50  1  0  0  0
 49 54  2  0  0  0
 51 52  1  0  0  0
 51 53  1  0  0  0
  1 55  1  0  0  0
  1 56  1  0  0  0
  1 57  1  0  0  0
  2 58  1  0  0  0
  5 59  1  0  0  0
  5 60  1  0  0  0
  6 61  1  0  0  0
  7 62  1  0  0  0
  8 63  1  0  0  0
 11 64  1  0  0  0
 11 65  1  0  0  0
 13 66  1  0  0  0
 14 67  1  0  0  0
 15 68  1  0  0  0
 16 69  1  0  0  0
 18 70  1  0  0  0
 19 71  1  0  0  0
 20 72  1  0  0  0
 23 73  1  0  0  0
 23 74  1  0  0  0
 24 75  1  0  0  0
 25 76  1  0  0  0
 25 77  1  0  0  0
 25 78  1  0  0  0
 26 79  1  0  0  0
 26 80  1  0  0  0
 26 81  1  0  0  0
 27 82  1  0  0  0
 28 83  1  0  0  0
 31 84  1  0  0  0
 32 85  1  0  0  0
 32 86  1  0  0  0
 32 87  1  0  0  0
 33 88  1  0  0  0
 33 89  1  0  0  0
 33 90  1  0  0  0
 34 91  1  0  0  0
 35 92  1  0  0  0
 38 93  1  0  0  0
 39 94  1  0  0  0
 40 95  1  0  0  0
 40 96  1  0  0  0
 40 97  1  0  0  0
 41 98  1  0  0  0
 42 99  1  0  0  0
 45100  1  0  0  0
 45101  1  0  0  0
 46102  1  0  0  0
 47103  1  0  0  0
 48104  1  0  0  0
 50105  1  0  0  0
 51106  1  0  0  0
 52107  1  0  0  0
 52108  1  0  0  0
 52109  1  0  0  0
 53110  1  0  0  0
 53111  1  0  0  0
 53112  1  0  0  0
M  END
$$$$
