### 
### Created by X-TOOL on Mon Sep 10 21:13:06 2018
### 

@<TRIPOS>MOLECULE
3rl7_ligand
  111   111     1     0     0
SMALL
GAST_HUCK


@<TRIPOS>ATOM
      1 N          50.6580    1.8390   18.8820 N.4       1 SER         0.2396
      2 CA         50.4120    0.5550   19.5960 C.3       1 SER         0.0885
      3 C          50.1380    0.8030   21.0800 C.2       1 SER         0.2291
      4 O          50.8410    0.2790   21.9490 O.2       1 SER        -0.3906
      5 CB         51.5970   -0.4000   19.4050 C.3       1 SER         0.1041
      6 OG         52.7390    0.0340   20.1260 O.3       1 SER        -0.3870
      7 N          49.1020    1.5950   21.3550 N.am      1 TYR        -0.2594
      8 CA         48.7590    2.0180   22.7180 C.3       1 TYR         0.1391
      9 C          48.5870    0.8690   23.7120 C.2       1 TYR         0.2057
     10 O          49.0340    0.9620   24.8590 O.2       1 TYR        -0.3942
     11 CB         47.5040    2.9040   22.7110 C.3       1 TYR         0.0164
     12 CG         46.9120    3.1510   24.0860 C.ar      1 TYR        -0.0493
     13 CD1        47.6080    3.8890   25.0470 C.ar      1 TYR        -0.0685
     14 CD2        45.6580    2.6430   24.4250 C.ar      1 TYR        -0.0685
     15 CE1        47.0700    4.1100   26.3110 C.ar      1 TYR        -0.0398
     16 CE2        45.1100    2.8620   25.6870 C.ar      1 TYR        -0.0398
     17 CZ         45.8220    3.5960   26.6230 C.ar      1 TYR         0.0805
     18 OH         45.2840    3.8180   27.8720 O.3       1 TYR        -0.3376
     19 N          47.9440   -0.2090   23.2690 N.am      1 LEU        -0.2636
     20 CA         47.6830   -1.3530   24.1340 C.3       1 LEU         0.1312
     21 C          48.4820   -2.5760   23.6930 C.2       1 LEU         0.2039
     22 O          48.3070   -3.0790   22.5820 O.2       1 LEU        -0.3944
     23 CB         46.1820   -1.6630   24.1720 C.3       1 LEU        -0.0101
     24 CG         45.6360   -2.5310   25.3110 C.3       1 LEU        -0.0425
     25 CD1        45.7560   -1.8270   26.6640 C.3       1 LEU        -0.0625
     26 CD2        44.1840   -2.9090   25.0340 C.3       1 LEU        -0.0625
     27 N          49.3700   -3.0370   24.5700 N.am      1 VAL        -0.2635
     28 CA         50.1850   -4.2210   24.3120 C.3       1 VAL         0.1333
     29 C          49.9850   -5.2230   25.4450 C.2       1 VAL         0.2042
     30 O          50.3890   -4.9690   26.5820 O.2       1 VAL        -0.3944
     31 CB         51.6910   -3.8720   24.1810 C.3       1 VAL        -0.0063
     32 CG1        52.4870   -5.0900   23.7370 C.3       1 VAL        -0.0584
     33 CG2        51.9000   -2.7180   23.2060 C.3       1 VAL        -0.0584
     34 N          49.3530   -6.3520   25.1320 N.am      1 THR        -0.2613
     35 CA         49.0720   -7.3800   26.1360 C.3       1 THR         0.1565
     36 C          50.0190   -8.5690   25.9920 C.2       1 THR         0.2065
     37 O          50.1720   -9.1250   24.9000 O.2       1 THR        -0.3943
     38 CB         47.6010   -7.8530   26.0760 C.3       1 THR         0.0924
     39 OG1        46.7260   -6.7230   26.1860 O.3       1 THR        -0.3874
     40 CG2        47.2920   -8.8390   27.2030 C.3       1 THR        -0.0346
     41 N          50.6540   -8.9440   27.1010 N.am      1 SER        -0.2615
     42 CA         51.5890  -10.0670   27.1190 C.3       1 SER         0.1539
     43 C          50.8460  -11.3920   27.2630 C.2       1 SER         0.2056
     44 O          50.0000  -11.5440   28.1480 O.2       1 SER        -0.3943
     45 CB         52.6230   -9.9010   28.2390 C.3       1 SER         0.0843
     46 OG         52.0740  -10.2230   29.5110 O.3       1 SER        -0.3903
     47 N          51.1640  -12.3420   26.3850 N.am      1 VAL        -0.2692
     48 CA         50.4980  -13.6490   26.3780 C.3       1 VAL         0.0967
     49 C          51.4710  -14.8140   26.6200 C.2       1 VAL         0.0603
     50 O          51.0560  -15.9420   26.8980 O.co2     1 VAL        -0.5666
     51 CB         49.6670  -13.8900   25.0740 C.3       1 VAL        -0.0118
     52 CG1        48.7370  -12.7060   24.7810 C.3       1 VAL        -0.0590
     53 CG2        50.5740  -14.1710   23.8810 C.3       1 VAL        -0.0590
     54 OXT        52.6930  -14.6670   26.5490 O.co2     1 VAL        -0.5666
     55 H          49.8614    2.4611   19.0194 H         1 SER         0.2016
     56 H          51.5010    2.2770   19.2533 H         1 SER         0.2016
     57 H          50.7794    1.6550   17.8861 H         1 SER         0.2016
     58 H          49.5260    0.0860   19.1679 H         1 SER         0.1122
     59 H          51.8492   -0.4281   18.3450 H         1 SER         0.0640
     60 H          51.3094   -1.3840   19.7753 H         1 SER         0.0640
     61 H          52.5291    0.0739   21.0619 H         1 SER         0.2099
     62 H          48.5210    1.9221   20.5831 H         1 TYR         0.1886
     63 H          49.6185    2.5899   23.0677 H         1 TYR         0.0821
     64 H          46.7469    2.3859   22.1224 H         1 TYR         0.0453
     65 H          47.7959    3.8733   22.3069 H         1 TYR         0.0453
     66 H          48.5882    4.2982   24.8025 H         1 TYR         0.0530
     67 H          45.0974    2.0650   23.6903 H         1 TYR         0.0530
     68 H          47.6272    4.6841   27.0513 H         1 TYR         0.0525
     69 H          44.1284    2.4591   25.9366 H         1 TYR         0.0525
     70 H          45.8977    4.3383   28.3957 H         1 TYR         0.2458
     71 H          47.6260   -0.2353   22.3002 H         1 LEU         0.1883
     72 H          48.0079   -1.0957   25.1421 H         1 LEU         0.0800
     73 H          45.9884   -2.2341   23.2640 H         1 LEU         0.0315
     74 H          45.6967   -0.6950   24.2970 H         1 LEU         0.0315
     75 H          46.2383   -3.4383   25.3580 H         1 LEU         0.0298
     76 H          46.8047   -1.6110   26.8680 H         1 LEU         0.0232
     77 H          45.1901   -0.8958   26.6390 H         1 LEU         0.0232
     78 H          45.3584   -2.4744   27.4455 H         1 LEU         0.0232
     79 H          43.5829   -2.0032   24.9546 H         1 LEU         0.0232
     80 H          44.1272   -3.4674   24.0996 H         1 LEU         0.0232
     81 H          43.8083   -3.5255   25.8506 H         1 LEU         0.0232
     82 H          49.4859   -2.5449   25.4559 H         1 VAL         0.1883
     83 H          49.8650   -4.6517   23.3632 H         1 VAL         0.0802
     84 H          52.0505   -3.5605   25.1617 H         1 VAL         0.0343
     85 H          52.3713   -5.8860   24.4726 H         1 VAL         0.0234
     86 H          52.1177   -5.4309   22.7698 H         1 VAL         0.0234
     87 H          53.5403   -4.8227   23.6516 H         1 VAL         0.0234
     88 H          51.5185   -2.9996   22.2246 H         1 VAL         0.0234
     89 H          51.3661   -1.8386   23.5661 H         1 VAL         0.0234
     90 H          52.9642   -2.4940   23.1330 H         1 VAL         0.0234
     91 H          49.0569   -6.5049   24.1680 H         1 THR         0.1884
     92 H          49.2378   -6.9240   27.1121 H         1 THR         0.0826
     93 H          47.4457   -8.3560   25.1216 H         1 THR         0.0639
     94 H          46.8959   -6.1165   25.4616 H         1 THR         0.2101
     95 H          47.9421   -9.7091   27.1112 H         1 THR         0.0257
     96 H          47.4638   -8.3552   28.1645 H         1 THR         0.0257
     97 H          46.2505   -9.1531   27.1338 H         1 THR         0.0257
     98 H          50.4822   -8.4309   27.9656 H         1 SER         0.1884
     99 H          52.1192  -10.0768   26.1667 H         1 SER         0.0823
    100 H          52.9466   -8.8603   28.2572 H         1 SER         0.0606
    101 H          53.4552  -10.5769   28.0422 H         1 SER         0.0606
    102 H          51.7744  -11.1351   29.5074 H         1 SER         0.2097
    103 H          51.8929  -12.1549   25.6965 H         1 VAL         0.1875
    104 H          49.8027  -13.6228   27.2171 H         1 VAL         0.0729
    105 H          49.0490  -14.7722   25.2408 H         1 VAL         0.0336
    106 H          48.0467  -12.5731   25.6140 H         1 VAL         0.0234
    107 H          49.3317  -11.8016   24.6525 H         1 VAL         0.0234
    108 H          48.1740  -12.9048   23.8691 H         1 VAL         0.0234
    109 H          51.2338  -13.3186   23.7191 H         1 VAL         0.0234
    110 H          51.1706  -15.0610   24.0814 H         1 VAL         0.0234
    111 H          49.9637  -14.3336   22.9926 H         1 VAL         0.0234
@<TRIPOS>BOND
     1    1    2 1  
     2    2    3 1  
     3    2    5 1  
     4    3    4 2  
     5    3    7 am 
     6    5    6 1  
     7    7    8 1  
     8    8    9 1  
     9    8   11 1  
    10    9   10 2  
    11    9   19 am 
    12   11   12 1  
    13   12   13 ar 
    14   12   14 ar 
    15   13   15 ar 
    16   14   16 ar 
    17   15   17 ar 
    18   16   17 ar 
    19   17   18 1  
    20   19   20 1  
    21   20   21 1  
    22   20   23 1  
    23   21   22 2  
    24   21   27 am 
    25   23   24 1  
    26   24   25 1  
    27   24   26 1  
    28   27   28 1  
    29   28   29 1  
    30   28   31 1  
    31   29   30 2  
    32   29   34 am 
    33   31   32 1  
    34   31   33 1  
    35   34   35 1  
    36   35   36 1  
    37   35   38 1  
    38   36   37 2  
    39   36   41 am 
    40   38   39 1  
    41   38   40 1  
    42   41   42 1  
    43   42   43 1  
    44   42   45 1  
    45   43   44 2  
    46   43   47 am 
    47   45   46 1  
    48   47   48 1  
    49   48   49 1  
    50   48   51 1  
    51   49   50 ar 
    52   49   54 ar 
    53   51   52 1  
    54   51   53 1  
    55    1   55 1  
    56    1   56 1  
    57    1   57 1  
    58    2   58 1  
    59    5   59 1  
    60    5   60 1  
    61    6   61 1  
    62    7   62 1  
    63    8   63 1  
    64   11   64 1  
    65   11   65 1  
    66   13   66 1  
    67   14   67 1  
    68   15   68 1  
    69   16   69 1  
    70   18   70 1  
    71   19   71 1  
    72   20   72 1  
    73   23   73 1  
    74   23   74 1  
    75   24   75 1  
    76   25   76 1  
    77   25   77 1  
    78   25   78 1  
    79   26   79 1  
    80   26   80 1  
    81   26   81 1  
    82   27   82 1  
    83   28   83 1  
    84   31   84 1  
    85   32   85 1  
    86   32   86 1  
    87   32   87 1  
    88   33   88 1  
    89   33   89 1  
    90   33   90 1  
    91   34   91 1  
    92   35   92 1  
    93   38   93 1  
    94   39   94 1  
    95   40   95 1  
    96   40   96 1  
    97   40   97 1  
    98   41   98 1  
    99   42   99 1  
   100   45  100 1  
   101   45  101 1  
   102   46  102 1  
   103   47  103 1  
   104   48  104 1  
   105   51  105 1  
   106   52  106 1  
   107   52  107 1  
   108   52  108 1  
   109   53  109 1  
   110   53  110 1  
   111   53  111 1  
@<TRIPOS>SUBSTRUCTURE
     1 SER         1

