1o5g_ligand
  -I-interpret- 

 50 53  0  0  0  0  0  0  0  0999 V2000
   11.8230  -11.7600   22.8690 C   0  0  0  0  0
   12.4000  -10.5120   22.4960 C   0  0  0  0  0
   12.1890   -9.3710   23.2090 F   0  0  0  0  0
   13.2330  -10.3900   21.3930 C   0  0  0  0  0
   13.4890  -11.5140   20.6660 C   0  0  0  0  0
   12.9610  -12.7310   20.9770 C   0  0  0  0  0
   12.1200  -12.8870   22.0800 C   0  0  0  0  0
   10.9690  -11.8780   23.9930 C   0  0  0  0  0
   10.3460  -13.0050   24.2180 N   0  0  0  0  0
   10.7760  -10.8740   24.8380 N   0  0  0  0  0
   14.2140  -11.7010   19.6210 N   0  0  0  0  0
   13.3450  -13.6740   20.1400 N   0  0  0  0  0
   14.1280  -12.9760   19.3080 C   0  0  0  0  0
   14.8170  -13.5360   18.2150 C   0  0  0  0  0
   14.7180  -14.9040   17.9350 C   0  0  0  0  0
   15.4060  -15.4600   16.8640 C   0  0  0  0  0
   16.1950  -14.6660   16.0530 C   0  0  0  0  0
   16.3190  -13.2970   16.3040 C   0  0  0  0  0
   15.6230  -12.7270   17.3890 C   0  0  0  0  0
   15.7140  -11.3680   17.6510 O   0  0  0  0  0
   17.1190  -12.5060   15.4870 O   0  0  0  0  0
   18.3140  -12.2050   13.3370 C   0  0  0  0  0
   19.3120  -11.0340   13.2760 C   0  0  0  0  0
   20.7350  -11.5510   13.5690 C   0  0  0  0  0
   20.7700  -12.5380   14.8000 C   0  0  0  0  0
   19.4830  -12.4310   15.6530 C   0  0  0  0  0
   18.3040  -12.8950   14.7810 C   0  0  0  0  0
   16.9210  -11.6870   12.9290 C   0  0  0  0  0
   13.6674   -9.4290   21.1177 H   0  0  0  0  0
   11.7013  -13.8629   22.3256 H   0  0  0  0  0
    9.7306  -13.0950   25.0265 H   0  0  0  0  0
   10.1547  -10.9931   25.6381 H   0  0  0  0  0
   11.2489   -9.9828   24.6877 H   0  0  0  0  0
   14.0946  -15.5395   18.5639 H   0  0  0  0  0
   15.3233  -16.5279   16.6621 H   0  0  0  0  0
   16.7247  -15.1114   15.2109 H   0  0  0  0  0
   16.2953  -10.9573   17.0068 H   0  0  0  0  0
   18.6203  -12.9831   12.6379 H   0  0  0  0  0
   19.0383  -10.2858   14.0199 H   0  0  0  0  0
   19.2864  -10.5878   12.2818 H   0  0  0  0  0
   21.3653  -10.6934   13.8043 H   0  0  0  0  0
   21.0864  -12.0923   12.6906 H   0  0  0  0  0
   21.6218  -12.2757   15.4275 H   0  0  0  0  0
   20.8488  -13.5573   14.4219 H   0  0  0  0  0
   19.3302  -11.4030   15.9816 H   0  0  0  0  0
   19.5650  -13.0548   16.5431 H   0  0  0  0  0
   18.3619  -13.9704   14.6126 H   0  0  0  0  0
   16.6119  -10.8995   13.6164 H   0  0  0  0  0
   16.9653  -11.2893   11.9151 H   0  0  0  0  0
   16.2041  -12.5071   12.9680 H   0  0  0  0  0
  1  2  4  0  0  0
  7  1  4  0  0  0
  1  8  1  0  0  0
  2  3  1  0  0  0
  4  2  4  0  0  0
  5  4  4  0  0  0
  6  5  4  0  0  0
 11  5  4  0  0  0
  6  7  4  0  0  0
 12  6  4  0  0  0
  8  9  2  0  0  0
  8 10  1  0  0  0
 13 11  4  0  0  0
 13 12  4  0  0  0
 14 13  1  0  0  0
 14 15  4  0  0  0
 19 14  4  0  0  0
 16 15  4  0  0  0
 17 16  4  0  0  0
 18 17  4  0  0  0
 18 19  4  0  0  0
 21 18  1  0  0  0
 19 20  1  0  0  0
 27 21  1  0  0  0
 22 23  1  0  0  0
 22 27  1  0  0  0
 22 28  1  0  0  0
 23 24  1  0  0  0
 24 25  1  0  0  0
 25 26  1  0  0  0
 26 27  1  0  0  0
  4 29  1  0  0  0
  7 30  1  0  0  0
  9 31  1  0  0  0
 10 32  1  0  0  0
 10 33  1  0  0  0
 15 34  1  0  0  0
 16 35  1  0  0  0
 17 36  1  0  0  0
 20 37  1  0  0  0
 22 38  1  0  0  0
 23 39  1  0  0  0
 23 40  1  0  0  0
 24 41  1  0  0  0
 24 42  1  0  0  0
 25 43  1  0  0  0
 25 44  1  0  0  0
 26 45  1  0  0  0
 26 46  1  0  0  0
 27 47  1  0  0  0
 28 48  1  0  0  0
 28 49  1  0  0  0
 28 50  1  0  0  0
M  END
$$$$
