1kds_ligand
  -I-interpret- 

 18 18  0  0  0  0  0  0  0  0999 V2000
   26.4920    5.2970   16.8690 B   0  0  0  0  0
   25.4220    4.2640   17.0270 O   0  0  0  0  0
   26.5900    6.3100   17.8640 O   0  0  0  0  0
   26.0080    6.0880   15.5980 C   0  0  0  0  0
   25.3670    5.4210   14.5950 C   0  0  0  0  0
   24.8870    6.0570   13.4910 C   0  0  0  0  0
   24.1380    5.2900   12.4280 N   0  0  0  0  0
   23.5710    5.8570   11.5650 O   0  0  0  0  0
   24.0030    4.1050   12.5110 O   0  0  0  0  0
   25.0640    7.4510   13.3740 C   0  0  0  0  0
   25.7190    8.1410   14.3850 C   0  0  0  0  0
   26.1880    7.4330   15.5000 C   0  0  0  0  0
   25.4655    3.6452   16.2943 H   0  0  0  0  0
   27.3116    6.9039   17.6445 H   0  0  0  0  0
   25.2347    4.3424   14.6805 H   0  0  0  0  0
   24.6902    7.9816   12.4983 H   0  0  0  0  0
   25.8665    9.2185   14.3127 H   0  0  0  0  0
   26.7034    7.9666   16.2986 H   0  0  0  0  0
  1  4  1  0  0  0
  1  3  1  0  0  0
  1  2  1  0  0  0
  4  5  4  0  0  0
  5  6  4  0  0  0
  6 10  4  0  0  0
 10 11  4  0  0  0
 11 12  4  0  0  0
 12  4  4  0  0  0
  6  7  1  0  0  0
  7  9  2  0  0  0
  7  8  2  0  0  0
  2 13  1  0  0  0
  3 14  1  0  0  0
  5 15  1  0  0  0
 10 16  1  0  0  0
 11 17  1  0  0  0
 12 18  1  0  0  0
M  END
$$$$
