### 
### Created by X-TOOL on Mon Sep 10 21:12:48 2018
### 

@<TRIPOS>MOLECULE
1kds_ligand
   18    18     1     0     0
SMALL
GAST_HUCK


@<TRIPOS>ATOM
      1 B          26.4920    5.2970   16.8690 B         1 NPB         0.7322
      2 OB1        25.4220    4.2640   17.0270 O.3       1 NPB        -0.4940
      3 OB2        26.5900    6.3100   17.8640 O.3       1 NPB        -0.4940
      4 CP1        26.0080    6.0880   15.5980 C.ar      1 NPB        -0.0447
      5 CP2        25.3670    5.4210   14.5950 C.ar      1 NPB        -0.0283
      6 CP3        24.8870    6.0570   13.4910 C.ar      1 NPB         0.1985
      7 NT         24.1380    5.2900   12.4280 N.2       1 NPB         0.3147
      8 O1         23.5710    5.8570   11.5650 O.2       1 NPB         0.1782
      9 O2         24.0030    4.1050   12.5110 O.2       1 NPB         0.1782
     10 CP4        25.0640    7.4510   13.3740 C.ar      1 NPB        -0.0189
     11 CP5        25.7190    8.1410   14.3850 C.ar      1 NPB        -0.0548
     12 CP6        26.1880    7.4330   15.5000 C.ar      1 NPB        -0.0660
     13 H1         24.5722    4.6885   17.0344 H         1 NPB         0.1669
     14 H2         26.7552    5.9078   18.7086 H         1 NPB         0.1669
     15 H3         25.2355    4.3484   14.6800 H         1 NPB         0.0680
     16 H4         24.6923    7.9787   12.5031 H         1 NPB         0.0692
     17 H5         25.8657    9.2126   14.3131 H         1 NPB         0.0632
     18 H6         26.7005    7.9637   16.2942 H         1 NPB         0.0648
@<TRIPOS>BOND
     1    1    4 1  
     2    1    3 1  
     3    1    2 1  
     4    4    5 ar 
     5    5    6 ar 
     6    6   10 ar 
     7   10   11 ar 
     8   11   12 ar 
     9   12    4 ar 
    10    6    7 1  
    11    7    9 2  
    12    7    8 2  
    13    2   13 1  
    14    3   14 1  
    15    5   15 1  
    16   10   16 1  
    17   11   17 1  
    18   12   18 1  
@<TRIPOS>SUBSTRUCTURE
     1 NPB         1

