6es0_ligand
  -I-interpret- 

 52 54  0  0  0  0  0  0  0  0999 V2000
    7.5030    0.9090   -0.6590 C   0  0  0  0  0
    7.3260    3.2930   -0.8150 C   0  0  0  0  0
    7.7410   -1.4720    0.2910 C   0  0  0  0  0
    8.3680   -6.2780    2.2820 C   0  0  0  0  0
    7.0120   -6.0410    2.1420 C   0  0  0  0  0
    9.2880   -5.2970    1.9550 C   0  0  0  0  0
    8.8430   -4.0710    1.4910 C   0  0  0  0  0
   14.6310    8.6230   -4.1950 C   0  0  0  0  0
   12.7100    7.2160   -3.4390 C   0  0  0  0  0
   11.9800    6.3790   -2.3920 C   0  0  0  0  0
   10.7540    5.8370   -2.7300 C   0  0  0  0  0
   10.0490    5.0590   -1.8310 C   0  0  0  0  0
   10.6190    4.8730   -0.5810 C   0  0  0  0  0
   11.8520    5.4450   -0.3000 C   0  0  0  0  0
    8.4010    3.3160   -1.6870 C   0  0  0  0  0
    9.0150    2.1280   -2.0640 C   0  0  0  0  0
    8.5710    0.9200   -1.5450 C   0  0  0  0  0
    6.8850    2.0870   -0.2960 C   0  0  0  0  0
    7.4860   -3.8340    1.3420 C   0  0  0  0  0
    6.5720   -4.8170    1.6790 C   0  0  0  0  0
    9.8410   -8.7000    1.5430 C   0  0  0  0  0
    9.0350   -8.5790    0.2490 C   0  0  0  0  0
    5.8340    2.0410    0.5780 F   0  0  0  0  0
   10.6280   -5.5290    2.0900 F   0  0  0  0  0
   13.9890    7.8390   -3.1540 N   0  0  0  0  0
   12.4990    6.1750   -1.1940 N   0  0  0  0  0
    6.9690   -0.3010   -0.0680 N   0  0  0  0  0
    6.9710   -2.5580    0.8750 N   0  0  0  0  0
    8.8030    4.5470   -2.2190 O   0  0  0  0  0
    9.5440   -8.0270   -0.7630 O   0  0  0  0  0
    7.8610   -9.0290    0.1910 O   0  0  0  0  0
    8.9110   -1.5260    0.1090 O   0  0  0  0  0
   12.2180    7.3550   -4.5060 O   0  0  0  0  0
    8.9260   -7.8960    2.8910 S   0  0  0  0  0
    6.8278    4.2219   -0.5375 H   0  0  0  0  0
    6.2925   -6.8192    2.3968 H   0  0  0  0  0
    9.5618   -3.2903    1.2423 H   0  0  0  0  0
   14.8188    7.9893   -5.0617 H   0  0  0  0  0
   13.9788    9.4481   -4.4811 H   0  0  0  0  0
   15.5755    9.0178   -3.8205 H   0  0  0  0  0
   10.3374    6.0258   -3.7194 H   0  0  0  0  0
   10.1027    4.2820    0.1755 H   0  0  0  0  0
   12.2986    5.2889    0.6820 H   0  0  0  0  0
    9.8466    2.1449   -2.7684 H   0  0  0  0  0
    9.0572   -0.0127   -1.8310 H   0  0  0  0  0
    5.5038   -4.6247    1.5788 H   0  0  0  0  0
   10.8098   -8.2163    1.4180 H   0  0  0  0  0
    9.9957   -9.7523    1.7815 H   0  0  0  0  0
   14.4289    7.7286   -2.2404 H   0  0  0  0  0
    5.9651   -0.3304    0.1101 H   0  0  0  0  0
    5.9661   -2.4090    0.9663 H   0  0  0  0  0
   10.4366   -7.7412   -0.5552 H   0  0  0  0  0
  1 17  4  0  0  0
  1 18  4  0  0  0
 27  1  1  0  0  0
  2 15  4  0  0  0
 18  2  4  0  0  0
  3 27  1  0  0  0
 28  3  1  0  0  0
  3 32  2  0  0  0
  4  5  4  0  0  0
  4  6  4  0  0  0
 34  4  1  0  0  0
  5 20  4  0  0  0
  6  7  4  0  0  0
  6 24  1  0  0  0
  7 19  4  0  0  0
 25  8  1  0  0  0
 10  9  1  0  0  0
  9 25  1  0  0  0
  9 33  2  0  0  0
 11 10  4  0  0  0
 10 26  4  0  0  0
 12 11  4  0  0  0
 12 13  4  0  0  0
 29 12  1  0  0  0
 13 14  4  0  0  0
 14 26  4  0  0  0
 16 15  4  0  0  0
 15 29  1  0  0  0
 17 16  4  0  0  0
 18 23  1  0  0  0
 20 19  4  0  0  0
 19 28  1  0  0  0
 21 22  1  0  0  0
 21 34  1  0  0  0
 22 30  1  0  0  0
 22 31  2  0  0  0
  2 35  1  0  0  0
  5 36  1  0  0  0
  7 37  1  0  0  0
  8 38  1  0  0  0
  8 39  1  0  0  0
  8 40  1  0  0  0
 11 41  1  0  0  0
 13 42  1  0  0  0
 14 43  1  0  0  0
 16 44  1  0  0  0
 17 45  1  0  0  0
 20 46  1  0  0  0
 21 47  1  0  0  0
 21 48  1  0  0  0
 25 49  1  0  0  0
 27 50  1  0  0  0
 28 51  1  0  0  0
 30 52  1  0  0  0
M  END
$$$$
