5yy9_ligand
  -I-interpret- 

215216  0  0  0  0  0  0  0  0999 V2000
    1.1410  -18.6640   10.1370 N   0  3  0  0  0
    0.9350  -17.8400    8.9520 C   0  0  0  0  0
    2.1200  -16.8920    8.7570 C   0  0  0  0  0
    2.7160  -16.4270    9.7320 O   0  0  0  0  0
   -0.3940  -17.0550    9.0450 C   0  0  0  0  0
    2.4730  -16.6130    7.5030 N   0  0  0  0  0
    3.5230  -15.6190    7.2470 C   0  0  0  0  0
    3.0730  -14.2320    7.6800 C   0  0  0  0  0
    1.9130  -13.8520    7.5060 O   0  0  0  0  0
    3.7370  -15.7010    5.7290 C   0  0  0  0  0
    2.4810  -16.2940    5.1930 C   0  0  0  0  0
    1.9750  -17.2290    6.2610 C   0  0  0  0  0
    4.0060  -13.4820    8.2640 N   0  0  0  0  0
    3.6800  -12.1630    8.7890 C   0  0  0  0  0
    3.2360  -11.2400    7.6590 C   0  0  0  0  0
    3.7750  -11.2870    6.5500 O   0  0  0  0  0
    4.8870  -11.5740    9.5260 C   0  0  0  0  0
    4.6170  -10.2560   10.2390 C   0  0  0  0  0
    2.2250  -10.4200    7.9360 N   0  0  0  0  0
    1.7350   -9.4660    6.9560 C   0  0  0  0  0
    2.6330   -8.2340    6.9200 C   0  0  0  0  0
    3.3150   -7.8980    7.8930 O   0  0  0  0  0
    0.2980   -9.0410    7.2710 C   0  0  0  0  0
   -0.7160  -10.1720    7.3080 C   0  0  0  0  0
   -2.1470   -9.6390    7.3820 C   0  0  0  0  0
   -2.3940   -8.7930    8.5500 N   0  0  0  0  0
   -2.9090   -9.2310    9.7010 C   0  0  0  0  0
   -3.2290  -10.5130    9.8470 N   0  0  0  0  0
   -3.1040   -8.3910   10.7110 N   0  0  0  0  0
    2.6180   -7.5520    5.7790 N   0  0  0  0  0
    3.3520   -6.3050    5.6080 C   0  0  0  0  0
    2.4460   -5.1580    6.0390 C   0  0  0  0  0
    1.4140   -4.9020    5.4090 O   0  0  0  0  0
    3.8020   -6.1400    4.1600 C   0  0  0  0  0
    4.4750   -7.3720    3.5850 C   0  0  0  0  0
    4.5570   -7.2930    2.0680 C   0  0  0  0  0
    4.5320   -8.6230    1.4670 N   0  0  0  0  0
    4.2500   -8.8640    0.1920 C   0  0  0  0  0
    3.9640   -7.8600   -0.6300 N   0  0  0  0  0
    4.2520  -10.1120   -0.2590 N   0  0  0  0  0
    2.8290   -4.4660    7.1090 N   0  0  0  0  0
    2.0200   -3.3950    7.6710 C   0  0  0  0  0
    2.8920   -2.1930    7.9890 C   0  0  0  0  0
    4.0310   -2.3390    8.4400 O   0  0  0  0  0
    1.3070   -3.8400    8.9460 C   0  0  0  0  0
    0.8350   -5.1830    8.7900 O   0  0  0  0  0
    0.1310   -2.9220    9.2340 C   0  0  0  0  0
    2.3460   -1.0040    7.7640 N   0  0  0  0  0
    3.0130    0.2050    8.2040 C   0  0  0  0  0
    3.0930    0.2480    9.7340 C   0  0  0  0  0
    2.4020   -0.4810   10.4520 O   0  0  0  0  0
    2.2820    1.4370    7.6760 C   0  0  0  0  0
    3.9590    1.1220   10.2280 N   0  0  0  0  0
    4.0980    1.3600   11.6560 C   0  0  0  0  0
    3.1780    2.4760   12.1240 C   0  0  0  0  0
    3.0680    3.5050   11.4630 O   0  0  0  0  0
    5.5410    1.7160   11.9900 C   0  0  0  0  0
    6.3700    0.5480   12.4590 C   0  0  0  0  0
    6.3000    0.4430   13.9630 C   0  0  0  0  0
    6.6580   -0.8930   14.4150 N   0  0  0  0  0
    6.6140   -1.2850   15.6820 C   0  0  0  0  0
    6.2240   -0.4420   16.6290 N   0  0  0  0  0
    6.9590   -2.5230   15.9970 N   0  0  0  0  0
    2.5240    2.2820   13.2650 N   0  0  0  0  0
    1.7200    3.3380   13.8380 C   0  0  0  0  0
    0.8400    2.9260   15.0280 C   0  0  0  0  0
    0.2830    1.5360   14.8570 C   0  0  0  0  0
   -0.8680    1.3400   15.8190 C   0  0  0  0  0
   -0.3450    0.6960   17.0950 C   0  0  0  0  0
   -1.3610   -0.0910   17.8910 N   0  3  0  0  0
    2.5620    4.5080   14.3350 C   0  0  0  0  0
    3.5880    4.3750   15.0030 O   0  0  0  0  0
   -2.5870    0.7200   18.1560 C   0  0  0  0  0
   -0.7720   -0.5750   19.1740 C   0  0  0  0  0
   -1.7500   -1.2820   17.0700 C   0  0  0  0  0
    2.1030    5.7060   13.9930 N   0  0  0  0  0
    2.8060    6.9180   14.3900 C   0  0  0  0  0
    2.1680    7.5740   15.6150 C   0  0  0  0  0
    0.9990    7.3420   15.9270 O   0  0  0  0  0
    2.8520    7.9140   13.2290 C   0  0  0  0  0
    3.0370    7.2820   11.8580 C   0  0  0  0  0
    4.3820    6.5970   11.6830 C   0  0  0  0  0
    5.2730    6.7060   12.5290 O   0  0  0  0  0
    4.5370    5.8860   10.5710 N   0  0  0  0  0
    2.9540    8.3950   16.2960 N   0  0  0  0  0
    2.5190    9.1050   17.4930 C   0  0  0  0  0
    1.7300   10.3450   17.0790 C   0  0  0  0  0
    1.6010   10.6560   15.8910 O   0  0  0  0  0
    3.7390    9.4470   18.3460 C   0  0  0  0  0
    4.5010    8.2510   18.9150 C   0  0  0  0  0
    5.8900    8.6730   19.3680 C   0  0  0  0  0
    3.7230    7.6140   20.0600 C   0  0  0  0  0
    1.1560   11.0860   18.0470 N   0  0  0  0  0
    0.5220   12.3480   17.6450 C   0  0  0  0  0
    1.5380   13.4080   17.2170 C   0  0  0  0  0
    1.1980   14.2660   16.4000 O   0  0  0  0  0
   -0.2250   12.7910   18.9110 C   0  0  0  0  0
   -0.3180   11.5730   19.7690 C   0  0  0  0  0
    0.9020   10.7730   19.4650 C   0  0  0  0  0
    2.6720   13.3780   17.7000 O   0  0  0  0  0
    2.0226  -19.1694   10.0491 H   0  0  0  0  0
    1.1708  -18.0672   10.9637 H   0  0  0  0  0
    0.3732  -19.3298   10.2243 H   0  0  0  0  0
    0.8693  -18.4950    8.0833 H   0  0  0  0  0
   -0.3512  -16.3696    9.8915 H   0  0  0  0  0
   -0.5457  -16.4897    8.1255 H   0  0  0  0  0
   -1.2186  -17.7543    9.1834 H   0  0  0  0  0
    4.4400  -15.8099    7.8044 H   0  0  0  0  0
    4.6083  -16.3052    5.4764 H   0  0  0  0  0
    3.9372  -14.7208    5.2962 H   0  0  0  0  0
    2.6620  -16.8237    4.2577 H   0  0  0  0  0
    1.7464  -15.5222    4.9634 H   0  0  0  0  0
    0.8905  -17.3376    6.2484 H   0  0  0  0  0
    2.3250  -18.2525    6.1271 H   0  0  0  0  0
    4.9595  -13.8353    8.3445 H   0  0  0  0  0
    2.8571  -12.2591    9.4974 H   0  0  0  0  0
    5.6519  -11.3772    8.7748 H   0  0  0  0  0
    5.1741  -12.2953   10.2911 H   0  0  0  0  0
    4.2966   -9.5099    9.5118 H   0  0  0  0  0
    3.8332  -10.4005   10.9825 H   0  0  0  0  0
    5.5286   -9.9173   10.7313 H   0  0  0  0  0
    1.7851  -10.4622    8.8553 H   0  0  0  0  0
    1.7490   -9.9538    5.9814 H   0  0  0  0  0
   -0.0122   -8.3678    6.4718 H   0  0  0  0  0
    0.3127   -8.6003    8.2678 H   0  0  0  0  0
   -0.5265  -10.7769    8.1947 H   0  0  0  0  0
   -0.6127  -10.7585    6.3950 H   0  0  0  0  0
   -2.8138  -10.4983    7.4526 H   0  0  0  0  0
   -2.3164   -9.0299    6.4941 H   0  0  0  0  0
   -2.1571   -7.8034    8.4801 H   0  0  0  0  0
   -3.6205  -10.8437   10.7289 H   0  0  0  0  0
   -3.0830  -11.1660    9.0771 H   0  0  0  0  0
   -2.8599   -7.4059   10.6094 H   0  0  0  0  0
    2.0738   -7.9142    4.9961 H   0  0  0  0  0
    4.2518   -6.3106    6.2232 H   0  0  0  0  0
    4.5309   -5.3299    4.1360 H   0  0  0  0  0
    2.9111   -5.9470    3.5623 H   0  0  0  0  0
    3.8884   -8.2493    3.8575 H   0  0  0  0  0
    5.4864   -7.4365    3.9863 H   0  0  0  0  0
    5.4933   -6.8060    1.7955 H   0  0  0  0  0
    3.6981   -6.7302    1.7024 H   0  0  0  0  0
    4.7453   -9.4203    2.0663 H   0  0  0  0  0
    3.7458   -8.0483   -1.6084 H   0  0  0  0  0
    3.9627   -6.9010   -0.2826 H   0  0  0  0  0
    4.4697  -10.8824    0.3731 H   0  0  0  0  0
    3.7199   -4.6940    7.5503 H   0  0  0  0  0
    1.2698   -3.1281    6.9266 H   0  0  0  0  0
    2.0094   -3.7934    9.7782 H   0  0  0  0  0
    0.3875   -5.4591    9.5932 H   0  0  0  0  0
    0.4914   -1.9014    9.3625 H   0  0  0  0  0
   -0.5698   -2.9589    8.4000 H   0  0  0  0  0
   -0.3693   -3.2495   10.1454 H   0  0  0  0  0
    1.4513   -0.9410    7.2783 H   0  0  0  0  0
    4.0274    0.2042    7.8051 H   0  0  0  0  0
    2.2716    1.4125    6.5863 H   0  0  0  0  0
    1.2583    1.4387    8.0504 H   0  0  0  0  0
    2.7960    2.3362    8.0156 H   0  0  0  0  0
    4.5495    1.6468    9.5828 H   0  0  0  0  0
    3.8170    0.4433   12.1744 H   0  0  0  0  0
    5.5144    2.4402   12.8042 H   0  0  0  0  0
    6.0006    2.0912   11.0756 H   0  0  0  0  0
    7.4064    0.6967   12.1558 H   0  0  0  0  0
    5.9837   -0.3696   12.0152 H   0  0  0  0  0
    5.2786    0.6550   14.2792 H   0  0  0  0  0
    7.0026    1.1559   14.3944 H   0  0  0  0  0
    6.9614   -1.5698   13.7149 H   0  0  0  0  0
    6.1898   -0.7478   17.6015 H   0  0  0  0  0
    5.9583    0.5120   16.3847 H   0  0  0  0  0
    7.2569   -3.1707   15.2675 H   0  0  0  0  0
    2.5900    1.3816   13.7396 H   0  0  0  0  0
    1.0816    3.6137   12.9986 H   0  0  0  0  0
    0.0054    3.6239   15.0949 H   0  0  0  0  0
    1.4531    2.9411   15.9291 H   0  0  0  0  0
    1.0617    0.8018   15.0635 H   0  0  0  0  0
   -0.0692    1.4062   13.8337 H   0  0  0  0  0
   -1.6206    0.6957   15.3645 H   0  0  0  0  0
   -1.3192    2.3043   16.0528 H   0  0  0  0  0
   -0.0097    1.5096   17.7382 H   0  0  0  0  0
    0.4268   -0.0114   16.7917 H   0  0  0  0  0
   -2.3162    1.6112   18.7221 H   0  0  0  0  0
   -3.0389    1.0133   17.2084 H   0  0  0  0  0
   -3.2974    0.1252   18.7302 H   0  0  0  0  0
    0.0818   -1.2182   18.9606 H   0  0  0  0  0
   -0.4458    0.2790   19.7675 H   0  0  0  0  0
   -1.5233   -1.1381   19.7276 H   0  0  0  0  0
   -2.1809   -0.9464   16.1267 H   0  0  0  0  0
   -0.8668   -1.8892   16.8718 H   0  0  0  0  0
   -2.4844   -1.8740   17.6162 H   0  0  0  0  0
    1.2461    5.7785   13.4446 H   0  0  0  0  0
    3.8220    6.6288   14.6587 H   0  0  0  0  0
    3.7125    8.5610   13.3993 H   0  0  0  0  0
    1.8916    8.4294   13.2143 H   0  0  0  0  0
    2.9772    8.0804   11.1184 H   0  0  0  0  0
    2.2645    6.5220   11.7406 H   0  0  0  0  0
    5.4184    5.4049   10.3920 H   0  0  0  0  0
    3.7746    5.8214    9.8965 H   0  0  0  0  0
    3.9090    8.5372   15.9672 H   0  0  0  0  0
    1.8606    8.4820   18.0984 H   0  0  0  0  0
    3.3707   10.0150   19.2003 H   0  0  0  0  0
    4.4344    9.9763   17.6945 H   0  0  0  0  0
    4.6124    7.5047   18.1284 H   0  0  0  0  0
    6.4418    9.0740   18.5178 H   0  0  0  0  0
    5.8024    9.4381   20.1394 H   0  0  0  0  0
    6.4179    7.8084   19.7703 H   0  0  0  0  0
    3.5768    8.3491   20.8515 H   0  0  0  0  0
    2.7540    7.2743   19.6944 H   0  0  0  0  0
    4.2837    6.7646   20.4502 H   0  0  0  0  0
   -0.1244   12.2184   16.7770 H   0  0  0  0  0
   -1.2122   13.1872   18.6731 H   0  0  0  0  0
    0.2997   13.5987   19.4212 H   0  0  0  0  0
   -1.2265   11.0079   19.5608 H   0  0  0  0  0
   -0.3697   11.8338   20.8261 H   0  0  0  0  0
    1.7437   11.0226   20.1110 H   0  0  0  0  0
    0.7648    9.7068   19.6451 H   0  0  0  0  0
    2.7390   12.6406   18.3110 H   0  0  0  0  0
  1  2  1  0  0  0
  2  3  1  0  0  0
  2  5  1  0  0  0
  3  4  2  0  0  0
  3  6  1  0  0  0
  6  7  1  0  0  0
  6 12  1  0  0  0
  7  8  1  0  0  0
  7 10  1  0  0  0
  8  9  2  0  0  0
  8 13  1  0  0  0
 10 11  1  0  0  0
 11 12  1  0  0  0
 13 14  1  0  0  0
 14 15  1  0  0  0
 14 17  1  0  0  0
 15 16  2  0  0  0
 15 19  1  0  0  0
 17 18  1  0  0  0
 19 20  1  0  0  0
 20 21  1  0  0  0
 20 23  1  0  0  0
 21 22  2  0  0  0
 21 30  1  0  0  0
 23 24  1  0  0  0
 24 25  1  0  0  0
 25 26  1  0  0  0
 26 27  1  0  0  0
 27 28  1  0  0  0
 27 29  2  0  0  0
 30 31  1  0  0  0
 31 32  1  0  0  0
 31 34  1  0  0  0
 32 33  2  0  0  0
 32 41  1  0  0  0
 34 35  1  0  0  0
 35 36  1  0  0  0
 36 37  1  0  0  0
 37 38  1  0  0  0
 38 39  1  0  0  0
 38 40  2  0  0  0
 41 42  1  0  0  0
 42 43  1  0  0  0
 42 45  1  0  0  0
 43 44  2  0  0  0
 43 48  1  0  0  0
 45 46  1  0  0  0
 45 47  1  0  0  0
 48 49  1  0  0  0
 49 50  1  0  0  0
 49 52  1  0  0  0
 50 51  2  0  0  0
 50 53  1  0  0  0
 53 54  1  0  0  0
 54 55  1  0  0  0
 54 57  1  0  0  0
 55 56  2  0  0  0
 55 64  1  0  0  0
 57 58  1  0  0  0
 58 59  1  0  0  0
 59 60  1  0  0  0
 60 61  1  0  0  0
 61 62  1  0  0  0
 61 63  2  0  0  0
 64 65  1  0  0  0
 65 66  1  0  0  0
 65 71  1  0  0  0
 66 67  1  0  0  0
 67 68  1  0  0  0
 68 69  1  0  0  0
 69 70  1  0  0  0
 70 73  1  0  0  0
 70 74  1  0  0  0
 70 75  1  0  0  0
 71 72  2  0  0  0
 71 76  1  0  0  0
 76 77  1  0  0  0
 77 78  1  0  0  0
 77 80  1  0  0  0
 78 79  2  0  0  0
 78 85  1  0  0  0
 80 81  1  0  0  0
 81 82  1  0  0  0
 82 83  2  0  0  0
 82 84  1  0  0  0
 85 86  1  0  0  0
 86 87  1  0  0  0
 86 89  1  0  0  0
 87 88  2  0  0  0
 87 93  1  0  0  0
 89 90  1  0  0  0
 90 91  1  0  0  0
 90 92  1  0  0  0
 93 94  1  0  0  0
 93 99  1  0  0  0
 94 95  1  0  0  0
 94 97  1  0  0  0
 95 96  2  0  0  0
 95100  1  0  0  0
 97 98  1  0  0  0
 98 99  1  0  0  0
  1101  1  0  0  0
  1102  1  0  0  0
  1103  1  0  0  0
  2104  1  0  0  0
  5105  1  0  0  0
  5106  1  0  0  0
  5107  1  0  0  0
  7108  1  0  0  0
 10109  1  0  0  0
 10110  1  0  0  0
 11111  1  0  0  0
 11112  1  0  0  0
 12113  1  0  0  0
 12114  1  0  0  0
 13115  1  0  0  0
 14116  1  0  0  0
 17117  1  0  0  0
 17118  1  0  0  0
 18119  1  0  0  0
 18120  1  0  0  0
 18121  1  0  0  0
 19122  1  0  0  0
 20123  1  0  0  0
 23124  1  0  0  0
 23125  1  0  0  0
 24126  1  0  0  0
 24127  1  0  0  0
 25128  1  0  0  0
 25129  1  0  0  0
 26130  1  0  0  0
 28131  1  0  0  0
 28132  1  0  0  0
 29133  1  0  0  0
 30134  1  0  0  0
 31135  1  0  0  0
 34136  1  0  0  0
 34137  1  0  0  0
 35138  1  0  0  0
 35139  1  0  0  0
 36140  1  0  0  0
 36141  1  0  0  0
 37142  1  0  0  0
 39143  1  0  0  0
 39144  1  0  0  0
 40145  1  0  0  0
 41146  1  0  0  0
 42147  1  0  0  0
 45148  1  0  0  0
 46149  1  0  0  0
 47150  1  0  0  0
 47151  1  0  0  0
 47152  1  0  0  0
 48153  1  0  0  0
 49154  1  0  0  0
 52155  1  0  0  0
 52156  1  0  0  0
 52157  1  0  0  0
 53158  1  0  0  0
 54159  1  0  0  0
 57160  1  0  0  0
 57161  1  0  0  0
 58162  1  0  0  0
 58163  1  0  0  0
 59164  1  0  0  0
 59165  1  0  0  0
 60166  1  0  0  0
 62167  1  0  0  0
 62168  1  0  0  0
 63169  1  0  0  0
 64170  1  0  0  0
 65171  1  0  0  0
 66172  1  0  0  0
 66173  1  0  0  0
 67174  1  0  0  0
 67175  1  0  0  0
 68176  1  0  0  0
 68177  1  0  0  0
 69178  1  0  0  0
 69179  1  0  0  0
 73180  1  0  0  0
 73181  1  0  0  0
 73182  1  0  0  0
 74183  1  0  0  0
 74184  1  0  0  0
 74185  1  0  0  0
 75186  1  0  0  0
 75187  1  0  0  0
 75188  1  0  0  0
 76189  1  0  0  0
 77190  1  0  0  0
 80191  1  0  0  0
 80192  1  0  0  0
 81193  1  0  0  0
 81194  1  0  0  0
 84195  1  0  0  0
 84196  1  0  0  0
 85197  1  0  0  0
 86198  1  0  0  0
 89199  1  0  0  0
 89200  1  0  0  0
 90201  1  0  0  0
 91202  1  0  0  0
 91203  1  0  0  0
 91204  1  0  0  0
 92205  1  0  0  0
 92206  1  0  0  0
 92207  1  0  0  0
 94208  1  0  0  0
 97209  1  0  0  0
 97210  1  0  0  0
 98211  1  0  0  0
 98212  1  0  0  0
 99213  1  0  0  0
 99214  1  0  0  0
100215  1  0  0  0
M  END
$$$$
