### 
### Created by X-TOOL on Mon Aug  2 16:17:02 2021
### 

@<TRIPOS>MOLECULE
5yy9_ligand
  217   218     1     0     0
SMALL
GAST_HUCK


@<TRIPOS>ATOM
      1 N           1.1410  -18.6640   10.1370 N.4       1 ILE         0.2377
      2 CA          0.9350  -17.8400    8.9520 C.3       1 ILE         0.0623
      3 C           2.1200  -16.8920    8.7570 C.2       1 ILE         0.2289
      4 O           2.7160  -16.4270    9.7320 O.2       1 ILE        -0.3905
      5 CB         -0.3940  -17.0550    9.0450 C.3       1 ILE        -0.0040
      6 N           2.4730  -16.6130    7.5030 N.am      1 ILE        -0.2471
      7 CA          3.5230  -15.6190    7.2470 C.3       1 ILE         0.1339
      8 C           3.0730  -14.2320    7.6800 C.2       1 ILE         0.2041
      9 O           1.9130  -13.8520    7.5060 O.2       1 ILE        -0.3944
     10 CB          3.7370  -15.7010    5.7290 C.3       1 ILE        -0.0104
     11 CG          2.4810  -16.2940    5.1930 C.3       1 ILE        -0.0281
     12 CD          1.9750  -17.2290    6.2610 C.3       1 ILE         0.0371
     13 N           4.0060  -13.4820    8.2640 N.am      1 ILE        -0.2637
     14 CA          3.6800  -12.1630    8.7890 C.3       1 ILE         0.1307
     15 C           3.2360  -11.2400    7.6590 C.2       1 ILE         0.2039
     16 O           3.7750  -11.2870    6.5500 O.2       1 ILE        -0.3944
     17 CB          4.8870  -11.5740    9.5260 C.3       1 ILE        -0.0152
     18 CG          4.6170  -10.2560   10.2390 C.3       1 ILE        -0.0610
     19 N           2.2250  -10.4200    7.9360 N.am      1 ILE        -0.2637
     20 CA          1.7350   -9.4660    6.9560 C.3       1 ILE         0.1311
     21 C           2.6330   -8.2340    6.9200 C.2       1 ILE         0.2039
     22 O           3.3150   -7.8980    7.8930 O.2       1 ILE        -0.3944
     23 CB          0.2980   -9.0410    7.2710 C.3       1 ILE        -0.0092
     24 CG         -0.7160  -10.1720    7.3080 C.3       1 ILE        -0.0156
     25 CD         -2.1470   -9.6390    7.3820 C.3       1 ILE         0.0627
     26 NE         -2.3940   -8.7930    8.5500 N.pl3     1 ILE        -0.2723
     27 CZ         -2.9090   -9.2310    9.7010 C.cat     1 ILE         0.2882
     28 NH1        -3.2290  -10.5130    9.8470 N.pl3     1 ILE        -0.2849
     29 NH2        -3.1040   -8.3910   10.7110 N.pl3     1 ILE        -0.2849
     30 N           2.6180   -7.5520    5.7790 N.am      1 ILE        -0.2637
     31 CA          3.3520   -6.3050    5.6080 C.3       1 ILE         0.1311
     32 C           2.4460   -5.1580    6.0390 C.2       1 ILE         0.2040
     33 O           1.4140   -4.9020    5.4090 O.2       1 ILE        -0.3944
     34 CB          3.8020   -6.1400    4.1600 C.3       1 ILE        -0.0092
     35 CG          4.4750   -7.3720    3.5850 C.3       1 ILE        -0.0156
     36 CD          4.5570   -7.2930    2.0680 C.3       1 ILE         0.0627
     37 NE          4.5320   -8.6230    1.4670 N.pl3     1 ILE        -0.2723
     38 CZ          4.2500   -8.8640    0.1920 C.cat     1 ILE         0.2882
     39 NH1         3.9640   -7.8600   -0.6300 N.pl3     1 ILE        -0.2849
     40 NH2         4.2520  -10.1120   -0.2590 N.pl3     1 ILE        -0.2849
     41 N           2.8290   -4.4660    7.1090 N.am      1 ILE        -0.2613
     42 CA          2.0200   -3.3950    7.6710 C.3       1 ILE         0.1565
     43 C           2.8920   -2.1930    7.9890 C.2       1 ILE         0.2065
     44 O           4.0310   -2.3390    8.4400 O.2       1 ILE        -0.3943
     45 CB          1.3070   -3.8400    8.9460 C.3       1 ILE         0.0924
     46 OG1         0.8350   -5.1830    8.7900 O.3       1 ILE        -0.3874
     47 CG2         0.1310   -2.9220    9.2340 C.3       1 ILE        -0.0346
     48 N           2.3460   -1.0040    7.7640 N.am      1 ILE        -0.2639
     49 CA          3.0130    0.2050    8.2040 C.3       1 ILE         0.1282
     50 C           3.0930    0.2480    9.7340 C.2       1 ILE         0.2036
     51 O           2.4020   -0.4810   10.4520 O.2       1 ILE        -0.3944
     52 CB          2.2820    1.4370    7.6760 C.3       1 ILE        -0.0244
     53 N           3.9590    1.1220   10.2280 N.am      1 ILE        -0.2637
     54 CA          4.0980    1.3600   11.6560 C.3       1 ILE         0.1311
     55 C           3.1780    2.4760   12.1240 C.2       1 ILE         0.2039
     56 O           3.0680    3.5050   11.4630 O.2       1 ILE        -0.3944
     57 CB          5.5410    1.7160   11.9900 C.3       1 ILE        -0.0092
     58 CG          6.3700    0.5480   12.4590 C.3       1 ILE        -0.0156
     59 CD          6.3000    0.4430   13.9630 C.3       1 ILE         0.0627
     60 NE          6.6580   -0.8930   14.4150 N.pl3     1 ILE        -0.2723
     61 CZ          6.6140   -1.2850   15.6820 C.cat     1 ILE         0.2882
     62 NH1         6.2240   -0.4420   16.6290 N.pl3     1 ILE        -0.2849
     63 NH2         6.9590   -2.5230   15.9970 N.pl3     1 ILE        -0.2849
     64 N           2.5240    2.2820   13.2650 N.am      1 ILE        -0.2637
     65 CA          1.7200    3.3380   13.8380 C.3       1 ILE         0.1310
     66 CB          0.8400    2.9260   15.0280 C.3       1 ILE        -0.0122
     67 CG          0.2830    1.5360   14.8570 C.3       1 ILE        -0.0440
     68 CD         -0.8680    1.3400   15.8190 C.3       1 ILE        -0.0123
     69 CE         -0.3450    0.6960   17.0950 C.3       1 ILE        -0.0309
     70 NZ         -1.3610   -0.0910   17.8910 N.4       1 ILE         0.2369
     71 C           2.5620    4.5080   14.3350 C.2       1 ILE         0.2039
     72 O           3.5880    4.3750   15.0030 O.2       1 ILE        -0.3944
     73 CM1        -2.5870    0.7200   18.1560 C.3       1 ILE        -0.0418
     74 CM2        -0.7720   -0.5750   19.1740 C.3       1 ILE        -0.0418
     75 CM3        -1.7500   -1.2820   17.0700 C.3       1 ILE        -0.0418
     76 N           2.1030    5.7060   13.9930 N.am      1 ILE        -0.2636
     77 CA          2.8060    6.9180   14.3900 C.3       1 ILE         0.1330
     78 C           2.1680    7.5740   15.6150 C.2       1 ILE         0.2040
     79 O           0.9990    7.3420   15.9270 O.2       1 ILE        -0.3944
     80 CB          2.8520    7.9140   13.2290 C.3       1 ILE         0.0045
     81 CG          3.0370    7.2820   11.8580 C.3       1 ILE         0.0412
     82 CD          4.3820    6.5970   11.6830 C.2       1 ILE         0.1737
     83 OE1         5.2730    6.7060   12.5290 O.2       1 ILE        -0.3973
     84 NE2         4.5370    5.8860   10.5710 N.am      1 ILE        -0.3009
     85 N           2.9540    8.3950   16.2960 N.am      1 ILE        -0.2637
     86 CA          2.5190    9.1050   17.4930 C.3       1 ILE         0.1314
     87 C           1.7300   10.3450   17.0790 C.2       1 ILE         0.2058
     88 O           1.6010   10.6560   15.8910 O.2       1 ILE        -0.3942
     89 CB          3.7390    9.4470   18.3460 C.3       1 ILE        -0.0101
     90 CG          4.5010    8.2510   18.9150 C.3       1 ILE        -0.0425
     91 CD1         5.8900    8.6730   19.3680 C.3       1 ILE        -0.0625
     92 CD2         3.7230    7.6140   20.0600 C.3       1 ILE        -0.0625
     93 N           1.1560   11.0860   18.0470 N.am      1 ILE        -0.2556
     94 CA          0.5220   12.3480   17.6450 C.3       1 ILE         0.0972
     95 C           1.5380   13.4080   17.2170 C.2       1 ILE         0.0603
     96 O           1.1980   14.2660   16.4000 O.co2     1 ILE        -0.5666
     97 CB         -0.2250   12.7910   18.9110 C.3       1 ILE        -0.0159
     98 CG         -0.3180   11.5730   19.7690 C.3       1 ILE        -0.0288
     99 CD          0.9020   10.7730   19.4650 C.3       1 ILE         0.0362
    100 OXT         2.6720   13.3780   17.7000 O.co2     1 ILE        -0.5666
    101 H1          0.3552  -19.2841   10.2558 H         1 ILE         0.2015
    102 H2          1.2267  -18.0712   10.9477 H         1 ILE         0.2015
    103 H3          1.9834  -19.2065   10.0268 H         1 ILE         0.2015
    104 H4          0.8779  -18.5041    8.0769 H         1 ILE         0.1095
    105 H5         -0.5228  -16.4436    8.1397 H         1 ILE         0.0310
    106 H6         -0.3725  -16.4010    9.9292 H         1 ILE         0.0310
    107 H7         -1.2322  -17.7620    9.1322 H         1 ILE         0.0310
    108 H8          4.4474  -15.8817    7.7821 H         1 ILE         0.0802
    109 H9          4.5984  -16.3435    5.4944 H         1 ILE         0.0313
    110 H10         3.9016  -14.6985    5.3073 H         1 ILE         0.0313
    111 H11         2.6855  -16.8484    4.2652 H         1 ILE         0.0287
    112 H12         1.7407  -15.5053    4.9933 H         1 ILE         0.0287
    113 H13         0.8761  -17.2769    6.2563 H         1 ILE         0.0524
    114 H14         2.3867  -18.2404    6.1285 H         1 ILE         0.0524
    115 H15         4.9408  -13.8283    8.3429 H         1 ILE         0.1883
    116 H16         2.8499  -12.2648    9.5035 H         1 ILE         0.0800
    117 H17         5.6891  -11.4081    8.7918 H         1 ILE         0.0310
    118 H18         5.2216  -12.3064   10.2754 H         1 ILE         0.0310
    119 H19         5.5363   -9.9131   10.7363 H         1 ILE         0.0232
    120 H20         3.8261  -10.4005   10.9897 H         1 ILE         0.0232
    121 H21         4.2936   -9.5022    9.5061 H         1 ILE         0.0232
    122 H22         1.7937  -10.4614    8.8373 H         1 ILE         0.1883
    123 H23         1.7508   -9.9448    5.9658 H         1 ILE         0.0800
    124 H24        -0.0211   -8.3225    6.5017 H         1 ILE         0.0313
    125 H25         0.2961   -8.5495    8.2551 H         1 ILE         0.0313
    126 H26        -0.5215  -10.7978    8.1915 H         1 ILE         0.0301
    127 H27        -0.6075  -10.7794    6.3974 H         1 ILE         0.0301
    128 H28        -2.8362  -10.4954    7.4202 H         1 ILE         0.0689
    129 H29        -2.3461   -9.0483    6.4757 H         1 ILE         0.0689
    130 H30        -2.1547   -7.7937    8.4794 H         1 ILE         0.2642
    131 H31        -3.6261  -10.8466   10.7369 H         1 ILE         0.2615
    132 H32        -3.0798  -11.1727    9.0702 H         1 ILE         0.2615
    133 H33        -2.8593   -7.3958   10.6078 H         1 ILE         0.2615
    134 H34        -3.4999   -8.7347   11.5976 H         1 ILE         0.2615
    135 H35         2.0844   -7.9071    5.0114 H         1 ILE         0.1883
    136 H36         4.2436   -6.3195    6.2520 H         1 ILE         0.0800
    137 H37         4.5125   -5.3017    4.1108 H         1 ILE         0.0313
    138 H38         2.9189   -5.9088    3.5463 H         1 ILE         0.0313
    139 H39         3.8952   -8.2631    3.8676 H         1 ILE         0.0301
    140 H40         5.4922   -7.4507    3.9962 H         1 ILE         0.0301
    141 H41         5.4931   -6.7893    1.7852 H         1 ILE         0.0689
    142 H42         3.7008   -6.7136    1.6923 H         1 ILE         0.0689
    143 H43         4.7474   -9.4281    2.0722 H         1 ILE         0.2642
    144 H44         3.7456   -8.0500   -1.6185 H         1 ILE         0.2615
    145 H45         3.9607   -6.8918   -0.2787 H         1 ILE         0.2615
    146 H46         4.4738  -10.8897    0.3788 H         1 ILE         0.2615
    147 H47         4.0317  -10.3029   -1.2469 H         1 ILE         0.2615
    148 H48         3.7024   -4.6895    7.5416 H         1 ILE         0.1884
    149 H49         1.2639   -3.1024    6.9276 H         1 ILE         0.0826
    150 H50         2.0134   -3.7983    9.7881 H         1 ILE         0.0639
    151 H51         0.3922   -5.4562    9.5849 H         1 ILE         0.2101
    152 H52        -0.3747   -3.2515   10.1536 H         1 ILE         0.0257
    153 H53        -0.5771   -2.9583    8.3930 H         1 ILE         0.0257
    154 H54         0.4934   -1.8916    9.3640 H         1 ILE         0.0257
    155 H55         1.4688   -0.9422    7.2878 H         1 ILE         0.1883
    156 H56         4.0363    0.2058    7.8006 H         1 ILE         0.0797
    157 H57         2.7998    2.3452    8.0181 H         1 ILE         0.0277
    158 H58         1.2487    1.4400    8.0532 H         1 ILE         0.0277
    159 H59         2.2709    1.4135    6.5763 H         1 ILE         0.0277
    160 H60         4.5379    1.6365    9.5954 H         1 ILE         0.1883
    161 H61         3.8281    0.4371   12.1901 H         1 ILE         0.0800
    162 H62         5.5342    2.4761   12.7851 H         1 ILE         0.0313
    163 H63         6.0116    2.1334   11.0876 H         1 ILE         0.0313
    164 H64         7.4158    0.6955   12.1515 H         1 ILE         0.0301
    165 H65         5.9829   -0.3785   12.0098 H         1 ILE         0.0301
    166 H66         5.2749    0.6699   14.2911 H         1 ILE         0.0689
    167 H67         6.9963    1.1701   14.4062 H         1 ILE         0.0689
    168 H68         6.9644   -1.5765   13.7080 H         1 ILE         0.2642
    169 H69         6.1912   -0.7502   17.6113 H         1 ILE         0.2615
    170 H70         5.9539    0.5208   16.3821 H         1 ILE         0.2615
    171 H71         7.2616   -3.1765   15.2606 H         1 ILE         0.2615
    172 H72         6.9249   -2.8332   16.9786 H         1 ILE         0.2615
    173 H73         2.5887    1.3992   13.7303 H         1 ILE         0.1883
    174 H74         1.0583    3.6992   13.0369 H         1 ILE         0.0800
    175 H75         0.0045    3.6361   15.1158 H         1 ILE         0.0312
    176 H76         1.4453    2.9566   15.9460 H         1 ILE         0.0312
    177 H77         1.0690    0.7960   15.0681 H         1 ILE         0.0269
    178 H78        -0.0743    1.4071   13.8247 H         1 ILE         0.0269
    179 H79        -1.6248    0.6869   15.3600 H         1 ILE         0.0317
    180 H80        -1.3199    2.3144   16.0565 H         1 ILE         0.0317
    181 H81         0.0469    1.4949   17.7417 H         1 ILE         0.0815
    182 H82         0.4722    0.0131   16.8196 H         1 ILE         0.0815
    183 H83        -3.3048    0.1208   18.7354 H         1 ILE         0.0778
    184 H84        -3.0441    1.0166   17.2005 H         1 ILE         0.0778
    185 H85        -2.3151    1.6198   18.7273 H         1 ILE         0.0778
    186 H86         0.1288   -1.1698   18.9625 H         1 ILE         0.0778
    187 H87        -1.5075   -1.1990   19.7028 H         1 ILE         0.0778
    188 H88        -0.5031    0.2869   19.8023 H         1 ILE         0.0778
    189 H89        -2.1870   -0.9446   16.1186 H         1 ILE         0.0778
    190 H90        -2.4897   -1.8814   17.6210 H         1 ILE         0.0778
    191 H91        -0.8591   -1.8946   16.8675 H         1 ILE         0.0778
    192 H92         1.2628    5.7770   13.4553 H         1 ILE         0.1883
    193 H93         3.8384    6.6414   14.6502 H         1 ILE         0.0801
    194 H94         3.6894    8.6056   13.4035 H         1 ILE         0.0337
    195 H95         1.9069    8.4768   13.2224 H         1 ILE         0.0337
    196 H96         2.9460    8.0701   11.0961 H         1 ILE         0.0504
    197 H97         2.2437    6.5347   11.7092 H         1 ILE         0.0504
    198 H98         5.3997    5.4111   10.3974 H         1 ILE         0.1814
    199 H99         3.7909    5.8259    9.9079 H         1 ILE         0.1814
    200 H100        3.8903    8.5344   15.9736 H         1 ILE         0.1883
    201 H101        1.8571    8.4507   18.0793 H         1 ILE         0.0800
    202 H102        3.3996   10.0651   19.1902 H         1 ILE         0.0315
    203 H103        4.4357   10.0274   17.7234 H         1 ILE         0.0315
    204 H104        4.6124    7.5017   18.1175 H         1 ILE         0.0298
    205 H105        6.4238    7.8012   19.7742 H         1 ILE         0.0232
    206 H106        5.8030    9.4451   20.1466 H         1 ILE         0.0232
    207 H107        6.4480    9.0779   18.5109 H         1 ILE         0.0232
    208 H108        2.7244    7.3189   19.7053 H         1 ILE         0.0232
    209 H109        3.6210    8.3382   20.8816 H         1 ILE         0.0232
    210 H110        4.2618    6.7250   20.4196 H         1 ILE         0.0232
    211 H111       -0.1823   12.1752   16.8179 H         1 ILE         0.0728
    212 H112       -1.2299   13.1581   18.6553 H         1 ILE         0.0306
    213 H113        0.3342   13.5839   19.4292 H         1 ILE         0.0306
    214 H114       -1.2240   10.9993   19.5240 H         1 ILE         0.0286
    215 H115       -0.3379   11.8533   20.8325 H         1 ILE         0.0286
    216 H116        1.7470   11.0845   20.0966 H         1 ILE         0.0524
    217 H117        0.7156    9.6981   19.6058 H         1 ILE         0.0524
@<TRIPOS>BOND
     1    1    2 1  
     2    2    3 1  
     3    2    5 1  
     4    3    4 2  
     5    3    6 am 
     6    6    7 1  
     7    6   12 1  
     8    7    8 1  
     9    7   10 1  
    10    8    9 2  
    11    8   13 am 
    12   10   11 1  
    13   11   12 1  
    14   13   14 1  
    15   14   15 1  
    16   14   17 1  
    17   15   16 2  
    18   15   19 am 
    19   17   18 1  
    20   19   20 1  
    21   20   21 1  
    22   20   23 1  
    23   21   22 2  
    24   21   30 am 
    25   23   24 1  
    26   24   25 1  
    27   25   26 1  
    28   26   27 ar 
    29   27   28 ar 
    30   27   29 ar 
    31   30   31 1  
    32   31   32 1  
    33   31   34 1  
    34   32   33 2  
    35   32   41 am 
    36   34   35 1  
    37   35   36 1  
    38   36   37 1  
    39   37   38 ar 
    40   38   39 ar 
    41   38   40 ar 
    42   41   42 1  
    43   42   43 1  
    44   42   45 1  
    45   43   44 2  
    46   43   48 am 
    47   45   46 1  
    48   45   47 1  
    49   48   49 1  
    50   49   50 1  
    51   49   52 1  
    52   50   51 2  
    53   50   53 am 
    54   53   54 1  
    55   54   55 1  
    56   54   57 1  
    57   55   56 2  
    58   55   64 am 
    59   57   58 1  
    60   58   59 1  
    61   59   60 1  
    62   60   61 ar 
    63   61   62 ar 
    64   61   63 ar 
    65   64   65 1  
    66   65   66 1  
    67   65   71 1  
    68   66   67 1  
    69   67   68 1  
    70   68   69 1  
    71   69   70 1  
    72   70   73 1  
    73   70   74 1  
    74   70   75 1  
    75   71   72 2  
    76   71   76 am 
    77   76   77 1  
    78   77   78 1  
    79   77   80 1  
    80   78   79 2  
    81   78   85 am 
    82   80   81 1  
    83   81   82 1  
    84   82   83 2  
    85   82   84 am 
    86   85   86 1  
    87   86   87 1  
    88   86   89 1  
    89   87   88 2  
    90   87   93 am 
    91   89   90 1  
    92   90   91 1  
    93   90   92 1  
    94   93   94 1  
    95   93   99 1  
    96   94   95 1  
    97   94   97 1  
    98   95   96 ar 
    99   95  100 ar 
   100   97   98 1  
   101   98   99 1  
   102    1  101 1  
   103    1  102 1  
   104    1  103 1  
   105    2  104 1  
   106    5  105 1  
   107    5  106 1  
   108    5  107 1  
   109    7  108 1  
   110   10  109 1  
   111   10  110 1  
   112   11  111 1  
   113   11  112 1  
   114   12  113 1  
   115   12  114 1  
   116   13  115 1  
   117   14  116 1  
   118   17  117 1  
   119   17  118 1  
   120   18  119 1  
   121   18  120 1  
   122   18  121 1  
   123   19  122 1  
   124   20  123 1  
   125   23  124 1  
   126   23  125 1  
   127   24  126 1  
   128   24  127 1  
   129   25  128 1  
   130   25  129 1  
   131   26  130 1  
   132   28  131 1  
   133   28  132 1  
   134   29  133 1  
   135   29  134 1  
   136   30  135 1  
   137   31  136 1  
   138   34  137 1  
   139   34  138 1  
   140   35  139 1  
   141   35  140 1  
   142   36  141 1  
   143   36  142 1  
   144   37  143 1  
   145   39  144 1  
   146   39  145 1  
   147   40  146 1  
   148   40  147 1  
   149   41  148 1  
   150   42  149 1  
   151   45  150 1  
   152   46  151 1  
   153   47  152 1  
   154   47  153 1  
   155   47  154 1  
   156   48  155 1  
   157   49  156 1  
   158   52  157 1  
   159   52  158 1  
   160   52  159 1  
   161   53  160 1  
   162   54  161 1  
   163   57  162 1  
   164   57  163 1  
   165   58  164 1  
   166   58  165 1  
   167   59  166 1  
   168   59  167 1  
   169   60  168 1  
   170   62  169 1  
   171   62  170 1  
   172   63  171 1  
   173   63  172 1  
   174   64  173 1  
   175   65  174 1  
   176   66  175 1  
   177   66  176 1  
   178   67  177 1  
   179   67  178 1  
   180   68  179 1  
   181   68  180 1  
   182   69  181 1  
   183   69  182 1  
   184   73  183 1  
   185   73  184 1  
   186   73  185 1  
   187   74  186 1  
   188   74  187 1  
   189   74  188 1  
   190   75  189 1  
   191   75  190 1  
   192   75  191 1  
   193   76  192 1  
   194   77  193 1  
   195   80  194 1  
   196   80  195 1  
   197   81  196 1  
   198   81  197 1  
   199   84  198 1  
   200   84  199 1  
   201   85  200 1  
   202   86  201 1  
   203   89  202 1  
   204   89  203 1  
   205   90  204 1  
   206   91  205 1  
   207   91  206 1  
   208   91  207 1  
   209   92  208 1  
   210   92  209 1  
   211   92  210 1  
   212   94  211 1  
   213   97  212 1  
   214   97  213 1  
   215   98  214 1  
   216   98  215 1  
   217   99  216 1  
   218   99  217 1  
@<TRIPOS>SUBSTRUCTURE
     1 ILE         1

