3tcg_ligand
  -I-interpret- 

 49 48  0  0  0  0  0  0  0  0999 V2000
   12.0700  -23.2270   12.9950 N   0  3  0  0  0
   12.5270  -23.4130   11.5830 C   0  0  0  0  0
   13.9210  -24.0190   11.5400 C   0  0  0  0  0
   14.7210  -23.7560   12.4120 O   0  0  0  0  0
   12.5120  -22.0790   10.8140 C   0  0  0  0  0
   13.2160  -20.9120   11.4740 C   0  0  0  0  0
   13.2330  -19.7320   10.5010 C   0  0  0  0  0
   13.6570  -18.4060   11.0860 C   0  0  0  0  0
   14.2400  -18.4610   12.4580 N   0  3  0  0  0
   14.1860  -24.8270   10.5140 N   0  0  0  0  0
   15.4790  -25.5000   10.3430 C   0  0  0  0  0
   16.5280  -24.6010    9.7280 C   0  0  0  0  0
   16.2490  -23.8520    8.7960 O   0  0  0  0  0
   17.7510  -24.6870   10.2410 N   0  0  0  0  0
   18.8180  -23.7670    9.8570 C   0  0  0  0  0
   20.0970  -24.5320    9.5410 C   0  0  0  0  0
   20.8340  -24.1310    8.6430 O   0  0  0  0  0
   19.0170  -22.7530   10.9820 C   0  0  0  0  0
   20.4000  -22.1180   11.1590 C   0  0  0  0  0
   20.8480  -21.2230   10.0190 C   0  0  0  0  0
   20.2280  -20.1580    9.7930 O   0  0  0  0  0
   21.8670  -21.5690    9.3780 O   0  0  0  0  0
   20.3966  -25.5667   10.1946 O   0  0  0  0  0
   12.0902  -24.1248   13.4787 H   0  0  0  0  0
   12.6907  -22.5704   13.4683 H   0  0  0  0  0
   11.1185  -22.8594   12.9975 H   0  0  0  0  0
   11.8304  -24.0988   11.1008 H   0  0  0  0  0
   11.4642  -21.7910   10.7289 H   0  0  0  0  0
   13.0424  -22.2628    9.8797 H   0  0  0  0  0
   14.2372  -21.1939   11.7304 H   0  0  0  0  0
   12.6894  -20.6310   12.3861 H   0  0  0  0  0
   12.2075  -19.6027   10.1551 H   0  0  0  0  0
   13.9646  -19.9775    9.7312 H   0  0  0  0  0
   12.7553  -17.7979   11.1580 H   0  0  0  0  0
   14.4388  -18.0168   10.4338 H   0  0  0  0  0
   14.4912  -17.5189   12.7574 H   0  0  0  0  0
   13.5530  -18.8520   13.1026 H   0  0  0  0  0
   15.0730  -19.0496   12.4488 H   0  0  0  0  0
   13.4583  -24.9847    9.8169 H   0  0  0  0  0
   15.3295  -26.3468    9.6732 H   0  0  0  0  0
   15.8326  -25.8010   11.3291 H   0  0  0  0  0
   17.9504  -25.4180   10.9238 H   0  0  0  0  0
   18.5438  -23.2300    8.9489 H   0  0  0  0  0
   18.8398  -23.3101   11.9019 H   0  0  0  0  0
   18.3523  -21.9241   10.7389 H   0  0  0  0  0
   21.1166  -22.9374   11.2149 H   0  0  0  0  0
   20.3454  -21.4899   12.0482 H   0  0  0  0  0
   19.4829  -20.0890   10.3944 H   0  0  0  0  0
   19.7178  -25.7364   10.8519 H   0  0  0  0  0
  1  2  1  0  0  0
  2  3  1  0  0  0
  2  5  1  0  0  0
  3  4  2  0  0  0
  3 10  1  0  0  0
  5  6  1  0  0  0
  6  7  1  0  0  0
  7  8  1  0  0  0
  8  9  1  0  0  0
 10 11  1  0  0  0
 11 12  1  0  0  0
 12 13  2  0  0  0
 12 14  1  0  0  0
 14 15  1  0  0  0
 15 16  1  0  0  0
 15 18  1  0  0  0
 16 17  2  0  0  0
 18 19  1  0  0  0
 19 20  1  0  0  0
 20 21  1  0  0  0
 20 22  2  0  0  0
 16 23  1  0  0  0
  1 24  1  0  0  0
  1 25  1  0  0  0
  1 26  1  0  0  0
  2 27  1  0  0  0
  5 28  1  0  0  0
  5 29  1  0  0  0
  6 30  1  0  0  0
  6 31  1  0  0  0
  7 32  1  0  0  0
  7 33  1  0  0  0
  8 34  1  0  0  0
  8 35  1  0  0  0
  9 36  1  0  0  0
  9 37  1  0  0  0
  9 38  1  0  0  0
 10 39  1  0  0  0
 11 40  1  0  0  0
 11 41  1  0  0  0
 14 42  1  0  0  0
 15 43  1  0  0  0
 18 44  1  0  0  0
 18 45  1  0  0  0
 19 46  1  0  0  0
 19 47  1  0  0  0
 21 48  1  0  0  0
 23 49  1  0  0  0
M  END
$$$$
