4kqo_ligand
  -I-interpret- 

 66 68  0  0  0  0  0  0  0  0999 V2000
   -5.4460    6.0280   24.3190 S   0  0  0  0  0
   -2.7810    4.2700   20.8680 O   0  0  0  0  0
   -7.6280    3.5960   20.9110 O   0  0  0  0  0
   -7.5630    5.6330   20.1020 O   0  0  0  0  0
   -1.8700    6.5220   24.6720 O   0  0  0  0  0
    0.5590    9.2570   21.7460 O   0  0  0  0  0
    1.4390    7.8230   25.2540 O   0  0  0  0  0
    3.7860    8.3290   26.4670 O   0  0  0  0  0
   -5.5970    4.0940   22.6330 N   0  3  0  0  0
   -2.7750    5.9800   22.6530 N   0  0  0  0  0
   -0.2340    8.2540   23.6240 N   0  0  0  0  0
    2.1960    8.8740   23.4210 N   0  0  0  0  0
    4.7700    8.6960   24.4360 N   0  0  0  0  0
   -4.6690    4.5570   23.6650 C   0  0  0  0  0
   -6.7580    6.0930   23.0970 C   0  0  0  0  0
   -6.1780    5.2050   21.9690 C   0  0  0  0  0
   -3.2480    4.6930   23.1500 C   0  0  0  0  0
   -3.0590    3.7810   21.9670 C   0  0  0  0  0
   -8.0440    5.4950   23.6340 C   0  0  0  0  0
   -6.9930    7.5330   22.6290 C   0  0  0  0  0
   -7.1710    4.7830   20.9520 C   0  0  0  0  0
   -2.0740    6.8560   23.5180 C   0  0  0  0  0
   -1.5670    8.1520   23.0080 C   0  0  0  0  0
   -2.4720    9.3370   23.2090 C   0  0  0  0  0
    0.8260    8.8390   22.8500 C   0  0  0  0  0
   -3.6720    9.4430   22.3370 C   0  0  0  0  0
   -2.2360   10.3160   24.1500 C   0  0  0  0  0
    3.2040    9.5130   22.6190 C   0  0  0  0  0
    4.5890    8.8040   22.9270 C   0  0  0  0  0
    2.3770    8.3180   24.6480 C   0  0  0  0  0
   -4.5450   10.5020   22.4650 C   0  0  0  0  0
   -3.1850   11.4760   24.2880 C   0  0  0  0  0
    3.6550    8.4070   25.2560 C   0  0  0  0  0
    6.1230    8.8430   24.9280 C   0  0  0  0  0
   -4.2940   11.5710   23.4860 C   0  0  0  0  0
    6.8630    7.5790   24.6800 C   0  0  0  0  0
   -7.2348    3.0784   21.6175 H   0  0  0  0  0
   -6.3345    3.5403   23.0689 H   0  0  0  0  0
   -5.0888    3.5261   21.9551 H   0  0  0  0  0
   -2.9486    6.2489   21.6845 H   0  0  0  0  0
   -0.0675    7.9191   24.5729 H   0  0  0  0  0
   -4.5107    3.8454   24.4754 H   0  0  0  0  0
   -5.4518    5.7703   21.3849 H   0  0  0  0  0
   -2.6863    4.4770   24.0588 H   0  0  0  0  0
   -3.1663    2.7021   22.0795 H   0  0  0  0  0
   -8.7741    5.4230   22.8278 H   0  0  0  0  0
   -7.8421    4.5009   24.0329 H   0  0  0  0  0
   -8.4369    6.1328   24.4258 H   0  0  0  0  0
   -6.0472    7.9672   22.3048 H   0  0  0  0  0
   -7.6981    7.5330   21.7978 H   0  0  0  0  0
   -7.4002    8.1195   23.4526 H   0  0  0  0  0
   -1.5208    8.1733   21.9192 H   0  0  0  0  0
   -3.8634    8.6745   21.5881 H   0  0  0  0  0
   -1.3602   10.2500   24.7956 H   0  0  0  0  0
    3.2609   10.5750   22.8577 H   0  0  0  0  0
    2.9594    9.4226   21.5606 H   0  0  0  0  0
    4.5969    7.8078   22.4848 H   0  0  0  0  0
    5.4034    9.3903   22.5013 H   0  0  0  0  0
   -5.4222   10.5626   21.8208 H   0  0  0  0  0
   -2.9893   12.2480   25.0322 H   0  0  0  0  0
    6.1060    9.0573   25.9966 H   0  0  0  0  0
    6.6161    9.6668   24.4120 H   0  0  0  0  0
   -4.9818   12.4103   23.5894 H   0  0  0  0  0
    6.3667    6.7606   25.2016 H   0  0  0  0  0
    6.8790    7.3728   23.6098 H   0  0  0  0  0
    7.8843    7.6794   25.0473 H   0  0  0  0  0
 14  1  1  0  0  0
  1 15  1  0  0  0
 18  2  2  0  0  0
 21  3  1  0  0  0
 21  4  2  0  0  0
 22  5  2  0  0  0
 25  6  2  0  0  0
 30  7  2  0  0  0
 33  8  2  0  0  0
 14  9  1  0  0  0
  9 16  1  0  0  0
 10 17  1  0  0  0
 22 10  1  0  0  0
 11 23  1  0  0  0
 25 11  1  0  0  0
 12 25  1  0  0  0
 28 12  1  0  0  0
 12 30  1  0  0  0
 29 13  1  0  0  0
 13 33  1  0  0  0
 13 34  1  0  0  0
 17 14  1  0  0  0
 16 15  1  0  0  0
 15 19  1  0  0  0
 15 20  1  0  0  0
 16 21  1  0  0  0
 17 18  1  0  0  0
 23 22  1  0  0  0
 23 24  1  0  0  0
 24 26  4  0  0  0
 24 27  4  0  0  0
 26 31  4  0  0  0
 27 32  4  0  0  0
 28 29  1  0  0  0
 30 33  1  0  0  0
 31 35  4  0  0  0
 32 35  4  0  0  0
 34 36  1  0  0  0
  3 37  1  0  0  0
  9 38  1  0  0  0
  9 39  1  0  0  0
 10 40  1  0  0  0
 11 41  1  0  0  0
 14 42  1  0  0  0
 16 43  1  0  0  0
 17 44  1  0  0  0
 18 45  1  0  0  0
 19 46  1  0  0  0
 19 47  1  0  0  0
 19 48  1  0  0  0
 20 49  1  0  0  0
 20 50  1  0  0  0
 20 51  1  0  0  0
 23 52  1  0  0  0
 26 53  1  0  0  0
 27 54  1  0  0  0
 28 55  1  0  0  0
 28 56  1  0  0  0
 29 57  1  0  0  0
 29 58  1  0  0  0
 31 59  1  0  0  0
 32 60  1  0  0  0
 34 61  1  0  0  0
 34 62  1  0  0  0
 35 63  1  0  0  0
 36 64  1  0  0  0
 36 65  1  0  0  0
 36 66  1  0  0  0
M  END
$$$$
