5t2m_ligand
  -I-interpret- 

 52 56  0  0  0  0  0  0  0  0999 V2000
   13.6430    0.7280  -24.5260 C   0  0  0  0  0
   13.5770    3.1360  -23.6910 C   0  0  0  0  0
   11.9720    2.5570  -25.0960 N   0  0  0  0  0
   10.6880    4.7140  -25.1730 C   0  0  0  0  0
    9.6230    4.2160  -25.9370 C   0  0  0  0  0
    8.5730    6.2830  -25.8150 C   0  0  0  0  0
    9.6310    6.8070  -25.0170 C   0  0  0  0  0
    9.6570    8.2140  -24.4830 C   0  0  0  0  0
    9.0350    9.2670  -25.1860 C   0  0  0  0  0
    9.0430   10.5680  -24.7090 C   0  0  0  0  0
    9.6970   10.8760  -23.5010 C   0  0  0  0  0
    9.7030   12.2900  -23.0250 C   0  0  0  0  0
   16.1570    2.8860  -23.3370 C   0  0  0  0  0
   15.4490    2.8050  -20.3050 C   0  0  0  0  0
   12.8460    2.1240  -19.6140 C   0  0  0  0  0
   13.1570    2.4720  -20.9230 C   0  0  0  0  0
   13.1100    2.0920  -24.4160 N   0  0  0  0  0
   12.7680    4.1440  -23.8900 N   0  0  0  0  0
   11.8060    3.8200  -24.7630 C   0  0  0  0  0
    8.6110    5.0180  -26.2370 N   0  0  0  0  0
   10.6400    5.9770  -24.7220 N   0  0  0  0  0
   10.3340    9.8340  -22.7830 C   0  0  0  0  0
   10.3080    8.5250  -23.2630 C   0  0  0  0  0
   10.7250   12.8190  -22.6350 O   0  0  0  0  0
    8.5790   13.0300  -23.0360 N   0  0  0  0  0
    7.4700    7.0350  -26.1800 N   0  0  0  0  0
   14.7680    3.1860  -22.7470 C   0  0  0  0  0
   15.7780    4.3230  -22.9870 C   0  0  0  0  0
   14.4610    2.8130  -21.2960 C   0  0  0  0  0
   15.1440    2.4610  -18.9920 C   0  0  0  0  0
   13.8410    2.1280  -18.6510 C   0  0  0  0  0
   14.6592    0.7669  -24.9185 H   0  0  0  0  0
   13.6502    0.2616  -23.5409 H   0  0  0  0  0
   13.0138    0.1467  -25.2000 H   0  0  0  0  0
    9.6271    3.1815  -26.2803 H   0  0  0  0  0
    8.5345    9.0514  -26.1300 H   0  0  0  0  0
    8.5412   11.3556  -25.2711 H   0  0  0  0  0
   16.5850    2.3372  -24.1759 H   0  0  0  0  0
   16.9836    2.1964  -23.1659 H   0  0  0  0  0
   16.4730    3.0723  -20.5658 H   0  0  0  0  0
   11.8254    1.8497  -19.3471 H   0  0  0  0  0
   12.3679    2.4793  -21.6749 H   0  0  0  0  0
   10.8483   10.0572  -21.8483 H   0  0  0  0  0
   10.7936    7.7324  -22.6938 H   0  0  0  0  0
    8.6044   14.0006  -22.7236 H   0  0  0  0  0
    7.7017   12.6202  -23.3568 H   0  0  0  0  0
    7.3913    8.0055  -25.8763 H   0  0  0  0  0
    6.7358    6.6187  -26.7527 H   0  0  0  0  0
   15.8011    5.3088  -23.4515 H   0  0  0  0  0
   16.1993    5.1681  -22.4425 H   0  0  0  0  0
   15.9265    2.4531  -18.2332 H   0  0  0  0  0
   13.5995    1.8683  -17.6203 H   0  0  0  0  0
 17  1  1  0  0  0
  2 17  4  0  0  0
  2 18  4  0  0  0
 27  2  1  0  0  0
 17  3  4  0  0  0
 19  3  4  0  0  0
  4  5  4  0  0  0
 19  4  1  0  0  0
  4 21  4  0  0  0
  5 20  4  0  0  0
  7  6  4  0  0  0
 20  6  4  0  0  0
  6 26  1  0  0  0
  7  8  1  0  0  0
 21  7  4  0  0  0
  8  9  4  0  0  0
  8 23  4  0  0  0
  9 10  4  0  0  0
 10 11  4  0  0  0
 11 12  1  0  0  0
 22 11  4  0  0  0
 12 24  2  0  0  0
 12 25  1  0  0  0
 27 13  1  0  0  0
 28 13  1  0  0  0
 29 14  4  0  0  0
 14 30  4  0  0  0
 16 15  4  0  0  0
 15 31  4  0  0  0
 29 16  4  0  0  0
 18 19  4  0  0  0
 23 22  4  0  0  0
 27 28  1  0  0  0
 27 29  1  0  0  0
 30 31  4  0  0  0
  1 32  1  0  0  0
  1 33  1  0  0  0
  1 34  1  0  0  0
  5 35  1  0  0  0
  9 36  1  0  0  0
 10 37  1  0  0  0
 13 38  1  0  0  0
 13 39  1  0  0  0
 14 40  1  0  0  0
 15 41  1  0  0  0
 16 42  1  0  0  0
 22 43  1  0  0  0
 23 44  1  0  0  0
 25 45  1  0  0  0
 25 46  1  0  0  0
 26 47  1  0  0  0
 26 48  1  0  0  0
 28 49  1  0  0  0
 28 50  1  0  0  0
 30 51  1  0  0  0
 31 52  1  0  0  0
M  END
$$$$
