5dgu_ligand
  -I-interpret- 

 84 87  0  0  0  0  0  0  0  0999 V2000
   21.0870   27.7320   14.9240 C   0  0  0  0  0
   19.7070   27.7450   14.6640 C   0  0  0  0  0
   18.9320   26.6070   14.9660 C   0  0  0  0  0
   19.5170   25.4800   15.5180 C   0  0  0  0  0
   20.8850   25.4560   15.7790 C   0  0  0  0  0
   21.6820   26.5810   15.4840 C   0  0  0  0  0
   18.5240   24.0650   15.8910 S   0  0  0  0  0
   17.4480   24.0070   14.8840 O   0  0  0  0  0
   19.4510   22.9130   16.0770 O   0  0  0  0  0
   17.8140   24.3110   17.3700 N   0  0  0  0  0
   18.6980   24.6170   18.4740 C   0  0  0  0  0
   18.3800   23.8620   19.7750 C   0  0  0  0  0
   18.4680   22.3390   19.6070 C   0  0  0  0  0
   19.3680   24.2860   20.8840 C   0  0  0  0  0
   16.5420   25.0170   17.3990 C   0  0  0  0  0
   15.4480   24.0820   17.9260 C   0  0  0  0  0
   14.2740   24.8400   18.2620 O   0  0  0  0  0
   15.0590   22.9940   16.9270 C   0  0  0  0  0
   14.1890   22.0000   17.5610 N   0  0  0  0  0
   14.4580   20.7030   17.7020 C   0  0  0  0  0
   15.5710   20.1940   17.4960 O   0  0  0  0  0
   13.3670   19.9680   18.0730 O   0  0  0  0  0
   13.6300   18.5770   18.2790 C   0  0  0  0  0
   13.8690   18.4070   19.7820 C   0  0  0  0  0
   11.4290   18.0130   20.1880 O   0  0  0  0  0
   11.1900   17.9780   18.7800 C   0  0  0  0  0
   10.6250   19.2310   18.3840 O   0  0  0  0  0
   10.8520   19.4230   16.9840 C   0  0  0  0  0
   11.8050   18.3120   16.5290 C   0  0  0  0  0
   12.3780   17.7920   17.8760 C   0  0  0  0  0
   14.3360   23.5560   15.6800 C   0  0  0  0  0
   12.7860   21.9140   14.5710 C   0  0  0  0  0
   12.4990   20.8520   13.7360 C   0  0  0  0  0
   13.5220   20.1560   13.0710 C   0  0  0  0  0
   14.7970   20.6790   13.1340 C   0  0  0  0  0
   15.0940   21.7790   13.9810 C   0  0  0  0  0
   14.0840   22.3860   14.7020 C   0  0  0  0  0
   21.7730   28.8690   14.6040 O   0  0  0  0  0
   23.1060   28.8440   15.0580 C   0  0  0  0  0
   10.9720   17.2700   15.9700 O   0  0  0  0  0
   10.7600   17.4680   14.5710 C   0  0  0  0  0
   12.6050   18.7500   20.5460 C   0  0  0  0  0
   19.2384   28.6291   14.2316 H   0  0  0  0  0
   17.8611   26.6143   14.7629 H   0  0  0  0  0
   21.3404   24.5655   16.2123 H   0  0  0  0  0
   22.7527   26.5620   15.6874 H   0  0  0  0  0
   18.5856   25.6801   18.6869 H   0  0  0  0  0
   19.7017   24.3197   18.1703 H   0  0  0  0  0
   17.3556   24.1190   20.0444 H   0  0  0  0  0
   17.7549   22.0166   18.8482 H   0  0  0  0  0
   19.4772   22.0665   19.2981 H   0  0  0  0  0
   18.2341   21.8560   20.5557 H   0  0  0  0  0
   20.3856   24.0518   20.5713 H   0  0  0  0  0
   19.2779   25.3581   21.0586 H   0  0  0  0  0
   19.1353   23.7462   21.8019 H   0  0  0  0  0
   16.2854   25.3433   16.3911 H   0  0  0  0  0
   16.6238   25.8846   18.0538 H   0  0  0  0  0
   15.8607   23.5915   18.8076 H   0  0  0  0  0
   13.5947   24.2467   18.5909 H   0  0  0  0  0
   15.9924   22.5343   16.6021 H   0  0  0  0  0
   13.2966   22.3311   17.9276 H   0  0  0  0  0
   14.4832   18.2249   17.6992 H   0  0  0  0  0
   14.6720   19.0736   20.0966 H   0  0  0  0  0
   14.1448   17.3728   19.9880 H   0  0  0  0  0
   10.5551   17.1004   18.6582 H   0  0  0  0  0
   11.2854   20.4050   16.7943 H   0  0  0  0  0
    9.9138   19.3773   16.4310 H   0  0  0  0  0
   12.5684   18.6163   15.8129 H   0  0  0  0  0
   12.7394   16.7636   17.8793 H   0  0  0  0  0
   14.9503   24.3191   15.2020 H   0  0  0  0  0
   13.3901   24.0140   15.9691 H   0  0  0  0  0
   11.9821   22.3876   15.1345 H   0  0  0  0  0
   11.4621   20.5491   13.5907 H   0  0  0  0  0
   13.3158   19.2356   12.5247 H   0  0  0  0  0
   15.5878   20.2414   12.5247 H   0  0  0  0  0
   16.1178   22.1442   14.0623 H   0  0  0  0  0
   23.1171   28.7402   16.1430 H   0  0  0  0  0
   23.6268   28.0000   14.6057 H   0  0  0  0  0
   23.6022   29.7725   14.7755 H   0  0  0  0  0
   10.2688   18.4279   14.4115 H   0  0  0  0  0
   11.7199   17.4594   14.0546 H   0  0  0  0  0
   10.1302   16.6673   14.1834 H   0  0  0  0  0
   12.3888   19.7948   20.3230 H   0  0  0  0  0
   12.8068   18.5122   21.5904 H   0  0  0  0  0
  2  1  4  0  0  0
  6  1  4  0  0  0
  1 38  1  0  0  0
  3  2  4  0  0  0
  4  3  4  0  0  0
  4  5  4  0  0  0
  7  4  1  0  0  0
  5  6  4  0  0  0
  7  8  2  0  0  0
  7  9  2  0  0  0
 10  7  1  0  0  0
 10 11  1  0  0  0
 15 10  1  0  0  0
 11 12  1  0  0  0
 12 13  1  0  0  0
 12 14  1  0  0  0
 16 15  1  0  0  0
 16 17  1  0  0  0
 18 16  1  0  0  0
 18 19  1  0  0  0
 31 18  1  0  0  0
 19 20  1  0  0  0
 20 21  2  0  0  0
 20 22  1  0  0  0
 22 23  1  0  0  0
 23 24  1  0  0  0
 23 30  1  0  0  0
 24 42  1  0  0  0
 26 25  1  0  0  0
 42 25  1  0  0  0
 26 27  1  0  0  0
 30 26  1  0  0  0
 28 27  1  0  0  0
 29 28  1  0  0  0
 30 29  1  0  0  0
 29 40  1  0  0  0
 37 31  1  0  0  0
 32 33  4  0  0  0
 32 37  4  0  0  0
 33 34  4  0  0  0
 34 35  4  0  0  0
 35 36  4  0  0  0
 36 37  4  0  0  0
 38 39  1  0  0  0
 40 41  1  0  0  0
  2 43  1  0  0  0
  3 44  1  0  0  0
  5 45  1  0  0  0
  6 46  1  0  0  0
 11 47  1  0  0  0
 11 48  1  0  0  0
 12 49  1  0  0  0
 13 50  1  0  0  0
 13 51  1  0  0  0
 13 52  1  0  0  0
 14 53  1  0  0  0
 14 54  1  0  0  0
 14 55  1  0  0  0
 15 56  1  0  0  0
 15 57  1  0  0  0
 16 58  1  0  0  0
 17 59  1  0  0  0
 18 60  1  0  0  0
 19 61  1  0  0  0
 23 62  1  0  0  0
 24 63  1  0  0  0
 24 64  1  0  0  0
 26 65  1  0  0  0
 28 66  1  0  0  0
 28 67  1  0  0  0
 29 68  1  0  0  0
 30 69  1  0  0  0
 31 70  1  0  0  0
 31 71  1  0  0  0
 32 72  1  0  0  0
 33 73  1  0  0  0
 34 74  1  0  0  0
 35 75  1  0  0  0
 36 76  1  0  0  0
 39 77  1  0  0  0
 39 78  1  0  0  0
 39 79  1  0  0  0
 41 80  1  0  0  0
 41 81  1  0  0  0
 41 82  1  0  0  0
 42 83  1  0  0  0
 42 84  1  0  0  0
M  END
$$$$
