### 
### Created by X-TOOL on Mon Sep 10 21:13:07 2018
### 

@<TRIPOS>MOLECULE
3ax5_ligand
  177   178     1     0     0
SMALL
GAST_HUCK


@<TRIPOS>ATOM
      1 N         -10.9570   37.2300    8.5180 N.4       1 GLY         0.2357
      2 CA        -10.4130   36.8250    9.8680 C.3       1 GLY         0.0545
      3 C          -9.0010   37.3330   10.1170 C.2       1 GLY         0.2237
      4 O          -8.2190   37.4570    9.1670 O.2       1 GLY        -0.3910
      5 N          -8.6510   37.6170   11.3770 N.am      1 DCY        -0.2604
      6 CA         -7.3210   38.1480   11.6820 C.3       1 DCY         0.1407
      7 C          -7.3290   39.1760   12.8200 C.2       1 DCY         0.2047
      8 O          -6.3670   39.2840   13.5650 O.2       1 DCY        -0.3944
      9 CB         -6.3040   37.0110   11.9540 C.3       1 DCY         0.0443
     10 SG         -6.5120   36.1750   13.5660 S.3       1 DCY        -0.0882
     11 N          -8.4070   39.9410   12.9560 N.am      1 ARG        -0.2637
     12 CA         -8.4660   40.9810   13.9990 C.3       1 ARG         0.1311
     13 C          -8.2120   40.4370   15.4120 C.2       1 ARG         0.2039
     14 O          -7.6080   41.1040   16.2420 O.2       1 ARG        -0.3944
     15 CB         -9.8100   41.7260   13.9080 C.3       1 ARG        -0.0092
     16 CG        -10.4940   41.9430   15.2230 C.3       1 ARG        -0.0156
     17 CD        -12.0140   41.6060   15.1410 C.3       1 ARG         0.0627
     18 NE        -12.6940   41.5970   16.4540 N.pl3     1 ARG        -0.2723
     19 CZ        -12.4490   42.4470   17.4690 C.cat     1 ARG         0.2882
     20 NH1       -11.5410   43.4260   17.3500 N.pl3     1 ARG        -0.2849
     21 NH2       -13.1340   42.3380   18.6070 N.pl3     1 ARG        -0.2849
     22 N          -8.7130   39.2310   15.6820 N.am      1 LEU        -0.2637
     23 CA         -8.4260   38.5110   16.9330 C.3       1 LEU         0.1312
     24 C          -6.9350   38.2660   17.1620 C.2       1 LEU         0.2039
     25 O          -6.4610   38.5490   18.2460 O.2       1 LEU        -0.3944
     26 CB         -9.2290   37.2060   17.0410 C.3       1 LEU        -0.0101
     27 CG         -9.2570   36.5510   18.4140 C.3       1 LEU        -0.0425
     28 CD1        -9.3260   37.5500   19.6210 C.3       1 LEU        -0.0625
     29 CD2       -10.4300   35.4930   18.4690 C.3       1 LEU        -0.0625
     30 N          -6.1990   37.7950   16.1690 N.am      1 CYS        -0.2629
     31 CA         -4.7410   37.6220   16.3350 C.3       1 CYS         0.1406
     32 C          -4.0130   38.9190   16.7240 C.2       1 CYS         0.2047
     33 O          -3.0940   38.8840   17.5490 O.2       1 CYS        -0.3944
     34 CB         -4.0890   37.0800   15.0680 C.3       1 CYS         0.0443
     35 SG         -4.7820   35.4740   14.4620 S.3       1 CYS        -0.0882
     36 N          -4.4530   40.0180   16.0980 N.am      1 ARG        -0.2637
     37 CA         -3.8840   41.3960   16.1950 C.3       1 ARG         0.1311
     38 C          -4.1460   41.8650   17.6140 C.2       1 ARG         0.2039
     39 O          -3.2620   42.3620   18.3360 O.2       1 ARG        -0.3944
     40 CB         -4.6770   42.3260   15.2470 C.3       1 ARG        -0.0092
     41 CG         -3.9350   43.1840   14.2270 C.3       1 ARG        -0.0156
     42 CD         -3.9700   42.6020   12.7690 C.3       1 ARG         0.0627
     43 NE         -5.3070   42.7100   12.1520 N.pl3     1 ARG        -0.2723
     44 CZ         -5.6890   42.1510   10.9940 C.cat     1 ARG         0.2882
     45 NH1        -4.8380   41.4140   10.2760 N.pl3     1 ARG        -0.2849
     46 NH2        -6.9400   42.3290   10.5550 N.pl3     1 ARG        -0.2849
     47 N          -5.3930   41.6730   18.0250 N.am      1 LEU        -0.2637
     48 CA         -5.7720   42.0250   19.3610 C.3       1 LEU         0.1312
     49 C          -4.9600   41.2660   20.4060 C.2       1 LEU         0.2039
     50 O          -4.5190   41.8570   21.4170 O.2       1 LEU        -0.3944
     51 CB         -7.2440   41.7720   19.5390 C.3       1 LEU        -0.0101
     52 CG         -7.8190   41.9390   20.9180 C.3       1 LEU        -0.0425
     53 CD1        -7.5520   43.3520   21.4550 C.3       1 LEU        -0.0625
     54 CD2        -9.2960   41.6530   20.7430 C.3       1 LEU        -0.0625
     55 N          -4.7420   39.9710   20.1660 N.am      1 LEU        -0.2637
     56 CA         -3.9340   39.1620   21.0990 C.3       1 LEU         0.1312
     57 C          -2.4770   39.6340   21.2120 C.2       1 LEU         0.2040
     58 O          -1.9490   39.6690   22.3190 O.2       1 LEU        -0.3944
     59 CB         -4.0170   37.6500   20.7790 C.3       1 LEU        -0.0101
     60 CG         -5.4200   37.0740   20.9750 C.3       1 LEU        -0.0425
     61 CD1        -5.5190   35.6620   20.4530 C.3       1 LEU        -0.0625
     62 CD2        -5.8230   37.1060   22.4310 C.3       1 LEU        -0.0625
     63 N          -1.8420   40.0200   20.0930 N.am      1 SER        -0.2616
     64 CA         -0.4270   40.5210   20.1550 C.3       1 SER         0.1539
     65 C          -0.2370   41.7620   20.9600 C.2       1 SER         0.2063
     66 O           0.8020   41.9520   21.5570 O.2       1 SER        -0.3943
     67 CB          0.0990   40.8670   18.7670 C.3       1 SER         0.0843
     68 OG         -0.2990   39.8440   17.9030 O.3       1 SER        -0.3903
     69 N          -1.2080   42.6650   20.8620 N.am      1 TYR        -0.2621
     70 CA         -1.1390   43.9890   21.4900 C.3       1 TYR         0.1390
     71 C          -0.9780   43.8940   23.0220 C.2       1 TYR         0.2052
     72 O          -1.8860   43.4610   23.7000 O.2       1 TYR        -0.3943
     73 CB         -2.3690   44.7970   21.0920 C.3       1 TYR         0.0163
     74 CG         -2.4430   46.1540   21.7570 C.ar      1 TYR        -0.0493
     75 CD1        -1.4050   47.0820   21.6280 C.ar      1 TYR        -0.0685
     76 CD2        -3.5480   46.5060   22.5210 C.ar      1 TYR        -0.0685
     77 CE1        -1.4520   48.3380   22.2390 C.ar      1 TYR        -0.0398
     78 CE2        -3.6230   47.7620   23.0960 C.ar      1 TYR        -0.0398
     79 CZ         -2.5590   48.6710   22.9640 C.ar      1 TYR         0.0805
     80 OH         -2.6450   49.8920   23.5790 O.3       1 TYR        -0.3376
     81 N           0.2130   44.2330   23.5310 N.am      1 ALA        -0.2696
     82 CA          0.6350   43.9520   24.9510 C.3       1 ALA         0.0916
     83 C           2.0850   44.3350   25.3370 C.2       1 ALA         0.0598
     84 O           2.6160   43.9110   26.4180 O.co2     1 ALA        -0.5666
     85 CB          0.3260   42.4210   25.3830 C.3       1 ALA        -0.0300
     86 H         -11.9021   36.8622    8.4094 H         1 GLY         0.2012
     87 H         -10.9773   38.2477    8.4523 H         1 GLY         0.2012
     88 H         -10.3575   36.8526    7.7841 H         1 GLY         0.2012
     89 H         -10.3846   35.7359    9.9013 H         1 GLY         0.1061
     90 H         -11.0607   37.2579   10.6303 H         1 GLY         0.1061
     91 H          -9.3179   37.4619   12.1330 H         1 DCY         0.1885
     92 H          -6.9974   38.6840   10.7898 H         1 DCY         0.0808
     93 H          -5.3127   37.4642   11.9559 H         1 DCY         0.0432
     94 H          -6.4559   36.2565   11.1821 H         1 DCY         0.0432
     95 H          -9.2025   39.8071   12.3317 H         1 ARG         0.1883
     96 H          -7.6529   41.6824   13.8118 H         1 ARG         0.0800
     97 H         -10.4744   41.1100   13.3020 H         1 ARG         0.0313
     98 H          -9.5996   42.7116   13.4928 H         1 ARG         0.0313
     99 H         -10.3880   42.9925   15.4975 H         1 ARG         0.0301
    100 H         -10.0350   41.2870   15.9626 H         1 ARG         0.0301
    101 H         -12.1029   40.6038   14.7216 H         1 ARG         0.0689
    102 H         -12.4865   42.3792   14.5352 H         1 ARG         0.0689
    103 H         -13.4099   40.8860   16.6036 H         1 ARG         0.2642
    104 H         -11.0217   43.5368   16.4791 H         1 ARG         0.2615
    105 H         -11.3695   44.0601   18.1303 H         1 ARG         0.2615
    106 H         -13.8427   41.6114   18.7081 H         1 ARG         0.2615
    107 H         -12.9496   42.9812   19.3769 H         1 ARG         0.2615
    108 H          -9.3208   38.7889   14.9924 H         1 LEU         0.1883
    109 H          -8.7540   39.1732   17.7342 H         1 LEU         0.0800
    110 H          -8.7462   36.4936   16.3721 H         1 LEU         0.0315
    111 H         -10.2615   37.4616   16.8030 H         1 LEU         0.0315
    112 H          -8.2955   36.0524   18.5367 H         1 LEU         0.0298
    113 H          -8.4525   38.2017   19.6020 H         1 LEU         0.0232
    114 H         -10.2315   38.1516   19.5418 H         1 LEU         0.0232
    115 H          -9.3418   36.9886   20.5552 H         1 LEU         0.0232
    116 H         -11.3797   35.9956   18.2860 H         1 LEU         0.0232
    117 H         -10.2672   34.7319   17.7058 H         1 LEU         0.0232
    118 H         -10.4491   35.0244   19.4530 H         1 LEU         0.0232
    119 H          -6.6408   37.5496   15.2830 H         1 CYS         0.1884
    120 H          -4.6399   36.9066   17.1511 H         1 CYS         0.0808
    121 H          -3.0398   36.9023   15.3039 H         1 CYS         0.0432
    122 H          -4.2640   37.8158   14.2831 H         1 CYS         0.0432
    123 H          -5.2635   39.9018   15.4897 H         1 ARG         0.1883
    124 H          -2.8245   41.4079   15.9392 H         1 ARG         0.0800
    125 H          -5.1591   43.0448   15.9096 H         1 ARG         0.0313
    126 H          -5.2839   41.6495   14.6452 H         1 ARG         0.0313
    127 H          -2.8906   43.2277   14.5358 H         1 ARG         0.0301
    128 H          -4.4250   44.1573   14.2015 H         1 ARG         0.0301
    129 H          -3.7069   41.5455   12.8211 H         1 ARG         0.0689
    130 H          -3.2703   43.1748   12.1603 H         1 ARG         0.0689
    131 H          -6.0047   43.2606   12.6526 H         1 ARG         0.2642
    132 H          -3.8837   41.2701   10.6063 H         1 ARG         0.2615
    133 H          -5.1422   40.9949    9.3972 H         1 ARG         0.2615
    134 H          -7.5972   42.8871   11.1000 H         1 ARG         0.2615
    135 H          -7.2367   41.9066    9.6753 H         1 ARG         0.2615
    136 H          -6.0830   41.2740   17.3885 H         1 LEU         0.1883
    137 H          -5.5608   43.0837   19.5111 H         1 LEU         0.0800
    138 H          -7.3926   40.7223   19.2858 H         1 LEU         0.0315
    139 H          -7.7452   42.5173   18.9214 H         1 LEU         0.0315
    140 H          -7.3686   41.2715   21.6526 H         1 LEU         0.0298
    141 H          -6.4768   43.5252   21.4995 H         1 LEU         0.0232
    142 H          -8.0121   44.0844   20.7916 H         1 LEU         0.0232
    143 H          -7.9782   43.4463   22.4538 H         1 LEU         0.0232
    144 H          -9.7208   42.3634   20.0338 H         1 LEU         0.0232
    145 H          -9.4261   40.6388   20.3655 H         1 LEU         0.0232
    146 H          -9.8003   41.7517   21.7043 H         1 LEU         0.0232
    147 H          -5.1369   39.5374   19.3315 H         1 LEU         0.1883
    148 H          -4.3801   39.3178   22.0813 H         1 LEU         0.0800
    149 H          -3.3457   37.1288   21.4615 H         1 LEU         0.0315
    150 H          -3.7467   37.5169   19.7315 H         1 LEU         0.0315
    151 H          -6.1032   37.7023   20.4036 H         1 LEU         0.0298
    152 H          -5.2885   35.6528   19.3877 H         1 LEU         0.0232
    153 H          -4.8091   35.0287   20.9851 H         1 LEU         0.0232
    154 H          -6.5306   35.2879   20.6104 H         1 LEU         0.0232
    155 H          -5.1180   36.5143   23.0149 H         1 LEU         0.0232
    156 H          -5.8159   38.1365   22.7861 H         1 LEU         0.0232
    157 H          -6.8248   36.6902   22.5386 H         1 LEU         0.0232
    158 H          -2.3237   39.9726   19.1952 H         1 SER         0.1884
    159 H           0.1073   39.6949   20.6242 H         1 SER         0.0823
    160 H           1.1854   40.9546   18.7808 H         1 SER         0.0606
    161 H          -0.3007   41.8251   18.4347 H         1 SER         0.0606
    162 H          -1.2573   39.7876   17.8956 H         1 SER         0.2097
    163 H          -2.0410   42.4256   20.3243 H         1 TYR         0.1885
    164 H          -0.2488   44.5045   21.1296 H         1 TYR         0.0821
    165 H          -3.2469   44.2315   21.4045 H         1 TYR         0.0453
    166 H          -2.3173   44.9626   20.0159 H         1 TYR         0.0453
    167 H          -0.5316   46.8174   21.0320 H         1 TYR         0.0530
    168 H          -4.3578   45.7913   22.6679 H         1 TYR         0.0530
    169 H          -0.6217   49.0370   22.1385 H         1 TYR         0.0525
    170 H          -4.5135   48.0488   23.6554 H         1 TYR         0.0525
    171 H          -1.8487   50.3968   23.3983 H         1 TYR         0.2458
    172 H           0.8758   44.7109   22.9205 H         1 ALA         0.1875
    173 H           0.0099   44.6379   25.5227 H         1 ALA         0.0723
    174 O1          2.7531   45.0788   24.5702 O.co2     1 ALA        -0.5666
    175 H          -0.7441   42.2305   25.3007 H         1 ALA         0.0270
    176 H           0.8688   41.7425   24.7248 H         1 ALA         0.0270
    177 H           0.6462   42.2638   26.4130 H         1 ALA         0.0270
@<TRIPOS>BOND
     1    1    2 1  
     2    2    3 1  
     3    3    4 2  
     4    3    5 am 
     5    5    6 1  
     6    6    7 1  
     7    6    9 1  
     8    7    8 2  
     9    7   11 am 
    10    9   10 1  
    11   10   35 1  
    12   11   12 1  
    13   12   13 1  
    14   12   15 1  
    15   13   14 2  
    16   13   22 am 
    17   15   16 1  
    18   16   17 1  
    19   17   18 1  
    20   18   19 ar 
    21   19   20 ar 
    22   19   21 ar 
    23   22   23 1  
    24   23   24 1  
    25   23   26 1  
    26   24   25 2  
    27   24   30 am 
    28   26   27 1  
    29   27   28 1  
    30   27   29 1  
    31   30   31 1  
    32   31   32 1  
    33   31   34 1  
    34   32   33 2  
    35   32   36 am 
    36   34   35 1  
    37   36   37 1  
    38   37   38 1  
    39   37   40 1  
    40   38   39 2  
    41   38   47 am 
    42   40   41 1  
    43   41   42 1  
    44   42   43 1  
    45   43   44 ar 
    46   44   45 ar 
    47   44   46 ar 
    48   47   48 1  
    49   48   49 1  
    50   48   51 1  
    51   49   50 2  
    52   49   55 am 
    53   51   52 1  
    54   52   53 1  
    55   52   54 1  
    56   55   56 1  
    57   56   57 1  
    58   56   59 1  
    59   57   58 2  
    60   57   63 am 
    61   59   60 1  
    62   60   61 1  
    63   60   62 1  
    64   63   64 1  
    65   64   65 1  
    66   64   67 1  
    67   65   66 2  
    68   65   69 am 
    69   67   68 1  
    70   69   70 1  
    71   70   71 1  
    72   70   73 1  
    73   71   72 2  
    74   71   81 am 
    75   73   74 1  
    76   74   75 ar 
    77   74   76 ar 
    78   75   77 ar 
    79   76   78 ar 
    80   77   79 ar 
    81   78   79 ar 
    82   79   80 1  
    83   81   82 1  
    84   82   83 1  
    85   82   85 1  
    86   83   84 ar 
    87    1   86 1  
    88    1   87 1  
    89    1   88 1  
    90    2   89 1  
    91    2   90 1  
    92    5   91 1  
    93    6   92 1  
    94    9   93 1  
    95    9   94 1  
    96   11   95 1  
    97   12   96 1  
    98   15   97 1  
    99   15   98 1  
   100   16   99 1  
   101   16  100 1  
   102   17  101 1  
   103   17  102 1  
   104   18  103 1  
   105   20  104 1  
   106   20  105 1  
   107   21  106 1  
   108   21  107 1  
   109   22  108 1  
   110   23  109 1  
   111   26  110 1  
   112   26  111 1  
   113   27  112 1  
   114   28  113 1  
   115   28  114 1  
   116   28  115 1  
   117   29  116 1  
   118   29  117 1  
   119   29  118 1  
   120   30  119 1  
   121   31  120 1  
   122   34  121 1  
   123   34  122 1  
   124   36  123 1  
   125   37  124 1  
   126   40  125 1  
   127   40  126 1  
   128   41  127 1  
   129   41  128 1  
   130   42  129 1  
   131   42  130 1  
   132   43  131 1  
   133   45  132 1  
   134   45  133 1  
   135   46  134 1  
   136   46  135 1  
   137   47  136 1  
   138   48  137 1  
   139   51  138 1  
   140   51  139 1  
   141   52  140 1  
   142   53  141 1  
   143   53  142 1  
   144   53  143 1  
   145   54  144 1  
   146   54  145 1  
   147   54  146 1  
   148   55  147 1  
   149   56  148 1  
   150   59  149 1  
   151   59  150 1  
   152   60  151 1  
   153   61  152 1  
   154   61  153 1  
   155   61  154 1  
   156   62  155 1  
   157   62  156 1  
   158   62  157 1  
   159   63  158 1  
   160   64  159 1  
   161   67  160 1  
   162   67  161 1  
   163   68  162 1  
   164   69  163 1  
   165   70  164 1  
   166   73  165 1  
   167   73  166 1  
   168   75  167 1  
   169   76  168 1  
   170   77  169 1  
   171   78  170 1  
   172   80  171 1  
   173   81  172 1  
   174   82  173 1  
   175   83  174 ar 
   176   85  175 1  
   177   85  176 1  
   178   85  177 1  
@<TRIPOS>SUBSTRUCTURE
     1 GLY         1

