3ax5_ligand
  -I-interpret- 

176177  0  0  0  0  0  0  0  0999 V2000
  -10.9570   37.2300    8.5180 N   0  3  0  0  0
  -10.4130   36.8250    9.8680 C   0  0  0  0  0
   -9.0010   37.3330   10.1170 C   0  0  0  0  0
   -8.2190   37.4570    9.1670 O   0  0  0  0  0
   -8.6510   37.6170   11.3770 N   0  0  0  0  0
   -7.3210   38.1480   11.6820 C   0  0  0  0  0
   -7.3290   39.1760   12.8200 C   0  0  0  0  0
   -6.3670   39.2840   13.5650 O   0  0  0  0  0
   -6.3040   37.0110   11.9540 C   0  0  0  0  0
   -6.5120   36.1750   13.5660 S   0  0  0  0  0
   -8.4070   39.9410   12.9560 N   0  0  0  0  0
   -8.4660   40.9810   13.9990 C   0  0  0  0  0
   -8.2120   40.4370   15.4120 C   0  0  0  0  0
   -7.6080   41.1040   16.2420 O   0  0  0  0  0
   -9.8100   41.7260   13.9080 C   0  0  0  0  0
  -10.4940   41.9430   15.2230 C   0  0  0  0  0
  -12.0140   41.6060   15.1410 C   0  0  0  0  0
  -12.6940   41.5970   16.4540 N   0  0  0  0  0
  -12.4490   42.4470   17.4690 C   0  0  0  0  0
  -11.5410   43.4260   17.3500 N   0  0  0  0  0
  -13.1340   42.3380   18.6070 N   0  0  0  0  0
   -8.7130   39.2310   15.6820 N   0  0  0  0  0
   -8.4260   38.5110   16.9330 C   0  0  0  0  0
   -6.9350   38.2660   17.1620 C   0  0  0  0  0
   -6.4610   38.5490   18.2460 O   0  0  0  0  0
   -9.2290   37.2060   17.0410 C   0  0  0  0  0
   -9.2570   36.5510   18.4140 C   0  0  0  0  0
   -9.3260   37.5500   19.6210 C   0  0  0  0  0
  -10.4300   35.4930   18.4690 C   0  0  0  0  0
   -6.1990   37.7950   16.1690 N   0  0  0  0  0
   -4.7410   37.6220   16.3350 C   0  0  0  0  0
   -4.0130   38.9190   16.7240 C   0  0  0  0  0
   -3.0940   38.8840   17.5490 O   0  0  0  0  0
   -4.0890   37.0800   15.0680 C   0  0  0  0  0
   -4.7820   35.4740   14.4620 S   0  0  0  0  0
   -4.4530   40.0180   16.0980 N   0  0  0  0  0
   -3.8840   41.3960   16.1950 C   0  0  0  0  0
   -4.1460   41.8650   17.6140 C   0  0  0  0  0
   -3.2620   42.3620   18.3360 O   0  0  0  0  0
   -4.6770   42.3260   15.2470 C   0  0  0  0  0
   -3.9350   43.1840   14.2270 C   0  0  0  0  0
   -3.9700   42.6020   12.7690 C   0  0  0  0  0
   -5.3070   42.7100   12.1520 N   0  0  0  0  0
   -5.6890   42.1510   10.9940 C   0  0  0  0  0
   -4.8380   41.4140   10.2760 N   0  0  0  0  0
   -6.9400   42.3290   10.5550 N   0  0  0  0  0
   -5.3930   41.6730   18.0250 N   0  0  0  0  0
   -5.7720   42.0250   19.3610 C   0  0  0  0  0
   -4.9600   41.2660   20.4060 C   0  0  0  0  0
   -4.5190   41.8570   21.4170 O   0  0  0  0  0
   -7.2440   41.7720   19.5390 C   0  0  0  0  0
   -7.8190   41.9390   20.9180 C   0  0  0  0  0
   -7.5520   43.3520   21.4550 C   0  0  0  0  0
   -9.2960   41.6530   20.7430 C   0  0  0  0  0
   -4.7420   39.9710   20.1660 N   0  0  0  0  0
   -3.9340   39.1620   21.0990 C   0  0  0  0  0
   -2.4770   39.6340   21.2120 C   0  0  0  0  0
   -1.9490   39.6690   22.3190 O   0  0  0  0  0
   -4.0170   37.6500   20.7790 C   0  0  0  0  0
   -5.4200   37.0740   20.9750 C   0  0  0  0  0
   -5.5190   35.6620   20.4530 C   0  0  0  0  0
   -5.8230   37.1060   22.4310 C   0  0  0  0  0
   -1.8420   40.0200   20.0930 N   0  0  0  0  0
   -0.4270   40.5210   20.1550 C   0  0  0  0  0
   -0.2370   41.7620   20.9600 C   0  0  0  0  0
    0.8020   41.9520   21.5570 O   0  0  0  0  0
    0.0990   40.8670   18.7670 C   0  0  0  0  0
   -0.2990   39.8440   17.9030 O   0  0  0  0  0
   -1.2080   42.6650   20.8620 N   0  0  0  0  0
   -1.1390   43.9890   21.4900 C   0  0  0  0  0
   -0.9780   43.8940   23.0220 C   0  0  0  0  0
   -1.8860   43.4610   23.7000 O   0  0  0  0  0
   -2.3690   44.7970   21.0920 C   0  0  0  0  0
   -2.4430   46.1540   21.7570 C   0  0  0  0  0
   -1.4050   47.0820   21.6280 C   0  0  0  0  0
   -3.5480   46.5060   22.5210 C   0  0  0  0  0
   -1.4520   48.3380   22.2390 C   0  0  0  0  0
   -3.6230   47.7620   23.0960 C   0  0  0  0  0
   -2.5590   48.6710   22.9640 C   0  0  0  0  0
   -2.6450   49.8920   23.5790 O   0  0  0  0  0
    0.2130   44.2330   23.5310 N   0  0  0  0  0
    0.6350   43.9520   24.9510 C   0  0  0  0  0
    2.0850   44.3350   25.3370 C   0  0  0  0  0
    2.6160   43.9110   26.4180 O   0  0  0  0  0
    0.3260   42.4210   25.3830 C   0  0  0  0  0
    2.7531   45.0788   24.5702 O   0  0  0  0  0
  -11.9021   36.8622    8.4094 H   0  0  0  0  0
  -10.9773   38.2477    8.4523 H   0  0  0  0  0
  -10.3575   36.8526    7.7841 H   0  0  0  0  0
  -10.3846   35.7359    9.9013 H   0  0  0  0  0
  -11.0607   37.2579   10.6303 H   0  0  0  0  0
   -9.3179   37.4619   12.1330 H   0  0  0  0  0
   -6.9974   38.6840   10.7898 H   0  0  0  0  0
   -5.3127   37.4642   11.9559 H   0  0  0  0  0
   -6.4559   36.2565   11.1821 H   0  0  0  0  0
   -9.2025   39.8071   12.3317 H   0  0  0  0  0
   -7.6529   41.6824   13.8118 H   0  0  0  0  0
  -10.4744   41.1100   13.3020 H   0  0  0  0  0
   -9.5996   42.7116   13.4928 H   0  0  0  0  0
  -10.3880   42.9925   15.4975 H   0  0  0  0  0
  -10.0350   41.2870   15.9626 H   0  0  0  0  0
  -12.1029   40.6038   14.7216 H   0  0  0  0  0
  -12.4865   42.3792   14.5352 H   0  0  0  0  0
  -13.4099   40.8860   16.6036 H   0  0  0  0  0
  -11.3837   44.0724   18.1232 H   0  0  0  0  0
  -11.0075   43.5245   16.4863 H   0  0  0  0  0
  -13.8427   41.6114   18.7081 H   0  0  0  0  0
   -9.3208   38.7889   14.9924 H   0  0  0  0  0
   -8.7540   39.1732   17.7342 H   0  0  0  0  0
   -8.7462   36.4936   16.3721 H   0  0  0  0  0
  -10.2615   37.4616   16.8030 H   0  0  0  0  0
   -8.2955   36.0524   18.5367 H   0  0  0  0  0
   -8.4525   38.2017   19.6020 H   0  0  0  0  0
  -10.2315   38.1516   19.5418 H   0  0  0  0  0
   -9.3418   36.9886   20.5552 H   0  0  0  0  0
  -11.3797   35.9956   18.2860 H   0  0  0  0  0
  -10.2672   34.7319   17.7058 H   0  0  0  0  0
  -10.4491   35.0244   19.4530 H   0  0  0  0  0
   -6.6408   37.5496   15.2830 H   0  0  0  0  0
   -4.6399   36.9066   17.1511 H   0  0  0  0  0
   -3.0398   36.9023   15.3039 H   0  0  0  0  0
   -4.2640   37.8158   14.2831 H   0  0  0  0  0
   -5.2635   39.9018   15.4897 H   0  0  0  0  0
   -2.8245   41.4079   15.9392 H   0  0  0  0  0
   -5.1591   43.0448   15.9096 H   0  0  0  0  0
   -5.2839   41.6495   14.6452 H   0  0  0  0  0
   -2.8906   43.2277   14.5358 H   0  0  0  0  0
   -4.4250   44.1573   14.2015 H   0  0  0  0  0
   -3.7069   41.5455   12.8211 H   0  0  0  0  0
   -3.2703   43.1748   12.1603 H   0  0  0  0  0
   -6.0047   43.2606   12.6526 H   0  0  0  0  0
   -3.8837   41.2701   10.6063 H   0  0  0  0  0
   -7.2380   41.9031    9.6774 H   0  0  0  0  0
   -7.5959   42.8907   11.0979 H   0  0  0  0  0
   -6.0830   41.2740   17.3885 H   0  0  0  0  0
   -5.5608   43.0837   19.5111 H   0  0  0  0  0
   -7.3926   40.7223   19.2858 H   0  0  0  0  0
   -7.7452   42.5173   18.9214 H   0  0  0  0  0
   -7.3686   41.2715   21.6526 H   0  0  0  0  0
   -6.4768   43.5252   21.4995 H   0  0  0  0  0
   -8.0121   44.0844   20.7916 H   0  0  0  0  0
   -7.9782   43.4463   22.4538 H   0  0  0  0  0
   -9.7208   42.3634   20.0338 H   0  0  0  0  0
   -9.4261   40.6388   20.3655 H   0  0  0  0  0
   -9.8003   41.7517   21.7043 H   0  0  0  0  0
   -5.1369   39.5374   19.3315 H   0  0  0  0  0
   -4.3801   39.3178   22.0813 H   0  0  0  0  0
   -3.3457   37.1288   21.4615 H   0  0  0  0  0
   -3.7467   37.5169   19.7315 H   0  0  0  0  0
   -6.1032   37.7023   20.4036 H   0  0  0  0  0
   -5.2885   35.6528   19.3877 H   0  0  0  0  0
   -4.8091   35.0287   20.9851 H   0  0  0  0  0
   -6.5306   35.2879   20.6104 H   0  0  0  0  0
   -5.1180   36.5143   23.0149 H   0  0  0  0  0
   -5.8159   38.1365   22.7861 H   0  0  0  0  0
   -6.8248   36.6902   22.5386 H   0  0  0  0  0
   -2.3237   39.9726   19.1952 H   0  0  0  0  0
    0.1073   39.6949   20.6242 H   0  0  0  0  0
    1.1854   40.9546   18.7808 H   0  0  0  0  0
   -0.3007   41.8251   18.4347 H   0  0  0  0  0
    0.0183   40.0334   17.0170 H   0  0  0  0  0
   -2.0410   42.4256   20.3243 H   0  0  0  0  0
   -0.2488   44.5045   21.1296 H   0  0  0  0  0
   -3.2469   44.2315   21.4045 H   0  0  0  0  0
   -2.3173   44.9626   20.0159 H   0  0  0  0  0
   -0.5316   46.8174   21.0320 H   0  0  0  0  0
   -4.3578   45.7913   22.6679 H   0  0  0  0  0
   -0.6217   49.0370   22.1385 H   0  0  0  0  0
   -4.5135   48.0488   23.6554 H   0  0  0  0  0
   -3.4838   49.9579   24.0412 H   0  0  0  0  0
    0.8758   44.7109   22.9205 H   0  0  0  0  0
    0.0099   44.6379   25.5227 H   0  0  0  0  0
    1.9855   43.3610   26.8886 H   0  0  0  0  0
   -0.7441   42.2305   25.3007 H   0  0  0  0  0
    0.8688   41.7425   24.7248 H   0  0  0  0  0
    0.6462   42.2638   26.4130 H   0  0  0  0  0
  1  2  1  0  0  0
  2  3  1  0  0  0
  3  4  2  0  0  0
  3  5  1  0  0  0
  5  6  1  0  0  0
  6  7  1  0  0  0
  6  9  1  0  0  0
  7  8  2  0  0  0
  7 11  1  0  0  0
  9 10  1  0  0  0
 10 35  1  0  0  0
 11 12  1  0  0  0
 12 13  1  0  0  0
 12 15  1  0  0  0
 13 14  2  0  0  0
 13 22  1  0  0  0
 15 16  1  0  0  0
 16 17  1  0  0  0
 17 18  1  0  0  0
 18 19  1  0  0  0
 19 20  1  0  0  0
 19 21  2  0  0  0
 22 23  1  0  0  0
 23 24  1  0  0  0
 23 26  1  0  0  0
 24 25  2  0  0  0
 24 30  1  0  0  0
 26 27  1  0  0  0
 27 28  1  0  0  0
 27 29  1  0  0  0
 30 31  1  0  0  0
 31 32  1  0  0  0
 31 34  1  0  0  0
 32 33  2  0  0  0
 32 36  1  0  0  0
 34 35  1  0  0  0
 36 37  1  0  0  0
 37 38  1  0  0  0
 37 40  1  0  0  0
 38 39  2  0  0  0
 38 47  1  0  0  0
 40 41  1  0  0  0
 41 42  1  0  0  0
 42 43  1  0  0  0
 43 44  1  0  0  0
 44 45  2  0  0  0
 44 46  1  0  0  0
 47 48  1  0  0  0
 48 49  1  0  0  0
 48 51  1  0  0  0
 49 50  2  0  0  0
 49 55  1  0  0  0
 51 52  1  0  0  0
 52 53  1  0  0  0
 52 54  1  0  0  0
 55 56  1  0  0  0
 56 57  1  0  0  0
 56 59  1  0  0  0
 57 58  2  0  0  0
 57 63  1  0  0  0
 59 60  1  0  0  0
 60 61  1  0  0  0
 60 62  1  0  0  0
 63 64  1  0  0  0
 64 65  1  0  0  0
 64 67  1  0  0  0
 65 66  2  0  0  0
 65 69  1  0  0  0
 67 68  1  0  0  0
 69 70  1  0  0  0
 70 71  1  0  0  0
 70 73  1  0  0  0
 71 72  2  0  0  0
 71 81  1  0  0  0
 73 74  1  0  0  0
 74 75  4  0  0  0
 74 76  4  0  0  0
 75 77  4  0  0  0
 76 78  4  0  0  0
 77 79  4  0  0  0
 78 79  4  0  0  0
 79 80  1  0  0  0
 81 82  1  0  0  0
 82 83  1  0  0  0
 82 85  1  0  0  0
 83 84  1  0  0  0
 83 86  2  0  0  0
  1 87  1  0  0  0
  1 88  1  0  0  0
  1 89  1  0  0  0
  2 90  1  0  0  0
  2 91  1  0  0  0
  5 92  1  0  0  0
  6 93  1  0  0  0
  9 94  1  0  0  0
  9 95  1  0  0  0
 11 96  1  0  0  0
 12 97  1  0  0  0
 15 98  1  0  0  0
 15 99  1  0  0  0
 16100  1  0  0  0
 16101  1  0  0  0
 17102  1  0  0  0
 17103  1  0  0  0
 18104  1  0  0  0
 20105  1  0  0  0
 20106  1  0  0  0
 21107  1  0  0  0
 22108  1  0  0  0
 23109  1  0  0  0
 26110  1  0  0  0
 26111  1  0  0  0
 27112  1  0  0  0
 28113  1  0  0  0
 28114  1  0  0  0
 28115  1  0  0  0
 29116  1  0  0  0
 29117  1  0  0  0
 29118  1  0  0  0
 30119  1  0  0  0
 31120  1  0  0  0
 34121  1  0  0  0
 34122  1  0  0  0
 36123  1  0  0  0
 37124  1  0  0  0
 40125  1  0  0  0
 40126  1  0  0  0
 41127  1  0  0  0
 41128  1  0  0  0
 42129  1  0  0  0
 42130  1  0  0  0
 43131  1  0  0  0
 45132  1  0  0  0
 46133  1  0  0  0
 46134  1  0  0  0
 47135  1  0  0  0
 48136  1  0  0  0
 51137  1  0  0  0
 51138  1  0  0  0
 52139  1  0  0  0
 53140  1  0  0  0
 53141  1  0  0  0
 53142  1  0  0  0
 54143  1  0  0  0
 54144  1  0  0  0
 54145  1  0  0  0
 55146  1  0  0  0
 56147  1  0  0  0
 59148  1  0  0  0
 59149  1  0  0  0
 60150  1  0  0  0
 61151  1  0  0  0
 61152  1  0  0  0
 61153  1  0  0  0
 62154  1  0  0  0
 62155  1  0  0  0
 62156  1  0  0  0
 63157  1  0  0  0
 64158  1  0  0  0
 67159  1  0  0  0
 67160  1  0  0  0
 68161  1  0  0  0
 69162  1  0  0  0
 70163  1  0  0  0
 73164  1  0  0  0
 73165  1  0  0  0
 75166  1  0  0  0
 76167  1  0  0  0
 77168  1  0  0  0
 78169  1  0  0  0
 80170  1  0  0  0
 81171  1  0  0  0
 82172  1  0  0  0
 84173  1  0  0  0
 85174  1  0  0  0
 85175  1  0  0  0
 85176  1  0  0  0
M  END
$$$$
