4d2w_ligand
  -I-interpret- 

 39 41  0  0  0  0  0  0  0  0999 V2000
    1.6220    0.0700   -8.4270 Br  0  0  0  0  0
    1.0170   -1.5960   -9.0700 C   0  0  0  0  0
    1.4830   -2.7610   -8.4670 C   0  0  0  0  0
    1.0160   -3.9750   -8.9320 C   0  0  0  0  0
    0.1130   -4.0300   -9.9860 C   0  0  0  0  0
   -0.3500   -2.8530  -10.5760 C   0  0  0  0  0
    0.1100   -1.6330  -10.1250 C   0  0  0  0  0
   -0.3810   -5.3570  -10.4510 C   0  0  0  0  0
    0.3090   -6.3640  -10.3630 O   0  0  0  0  0
   -1.6330   -5.3450  -10.9490 N   0  0  0  0  0
   -2.3440   -6.3240  -11.6700 C   0  0  0  0  0
   -1.7840   -7.4640  -12.2340 C   0  0  0  0  0
   -2.5800   -8.3440  -12.9400 C   0  0  0  0  0
   -3.9450   -8.1030  -13.1000 C   0  0  0  0  0
   -4.7700   -9.0990  -13.8790 C   0  0  0  0  0
   -5.9060   -9.7170  -13.0780 C   0  0  0  0  0
   -7.0860   -8.8640  -12.9020 N   0  3  0  0  0
   -6.8890   -7.6890  -12.0490 C   0  0  0  0  0
   -5.9830   -6.6170  -12.6450 C   0  0  0  0  0
   -4.5150   -6.9570  -12.5270 C   0  0  0  0  0
   -3.6990   -6.0800  -11.8270 C   0  0  0  0  0
    2.1997   -2.7163   -7.6470 H   0  0  0  0  0
    1.3596   -4.8991   -8.4671 H   0  0  0  0  0
   -1.0728   -2.8975  -11.3906 H   0  0  0  0  0
   -0.2330   -0.7086  -10.5897 H   0  0  0  0  0
   -2.1519   -4.4842  -10.7750 H   0  0  0  0  0
   -0.7185   -7.6631  -12.1193 H   0  0  0  0  0
   -2.1365   -9.2382  -13.3779 H   0  0  0  0  0
   -4.1046   -9.9093  -14.1769 H   0  0  0  0  0
   -5.2171   -8.5650  -14.7175 H   0  0  0  0  0
   -5.5128   -9.9150  -12.0809 H   0  0  0  0  0
   -6.2362  -10.5957  -13.6320 H   0  0  0  0  0
   -7.7960   -9.4384  -12.4478 H   0  0  0  0  0
   -7.3338   -8.5143  -13.8276 H   0  0  0  0  0
   -6.4106   -8.0370  -11.1335 H   0  0  0  0  0
   -7.8685   -7.2332  -11.9039 H   0  0  0  0  0
   -6.1560   -5.6914  -12.0959 H   0  0  0  0  0
   -6.2211   -6.5311  -13.7052 H   0  0  0  0  0
   -4.1330   -5.1800  -11.3913 H   0  0  0  0  0
  1  2  1  0  0  0
  2  3  4  0  0  0
  2  7  4  0  0  0
  3  4  4  0  0  0
  4  5  4  0  0  0
  5  6  4  0  0  0
  5  8  1  0  0  0
  6  7  4  0  0  0
  8  9  2  0  0  0
  8 10  1  0  0  0
 10 11  1  0  0  0
 11 12  4  0  0  0
 11 21  4  0  0  0
 12 13  4  0  0  0
 13 14  4  0  0  0
 14 15  1  0  0  0
 14 20  4  0  0  0
 15 16  1  0  0  0
 16 17  1  0  0  0
 17 18  1  0  0  0
 18 19  1  0  0  0
 19 20  1  0  0  0
 20 21  4  0  0  0
  3 22  1  0  0  0
  4 23  1  0  0  0
  6 24  1  0  0  0
  7 25  1  0  0  0
 10 26  1  0  0  0
 12 27  1  0  0  0
 13 28  1  0  0  0
 15 29  1  0  0  0
 15 30  1  0  0  0
 16 31  1  0  0  0
 16 32  1  0  0  0
 17 33  1  0  0  0
 17 34  1  0  0  0
 18 35  1  0  0  0
 18 36  1  0  0  0
 19 37  1  0  0  0
 19 38  1  0  0  0
 21 39  1  0  0  0
M  END
$$$$
