4ruu_ligand
  -I-interpret- 

 50 50  0  0  0  0  0  0  0  0999 V2000
    6.9630   -1.7770    5.7420 C   0  0  0  0  0
    7.2490   -2.7830    6.8400 C   0  0  0  0  0
    7.8290   -4.0500    6.2490 C   0  0  0  0  0
    6.7200   -4.7300    5.4660 C   0  0  0  0  0
    6.1470   -3.7760    4.4430 C   0  0  0  0  0
    6.2520   -2.4370    4.5740 C   0  0  0  0  0
    5.7070   -1.4970    3.5670 C   0  0  0  0  0
    4.4220   -1.3320    3.2700 C   0  0  0  0  0
    4.0860   -0.3230    2.2560 C   0  0  0  0  0
    2.8730   -0.2580    1.7050 C   0  0  0  0  0
    2.6210    0.7850    0.7150 C   0  0  0  0  0
    1.4200    0.9030    0.1630 C   0  0  0  0  0
    1.1650    1.9610   -0.8290 C   0  0  0  0  0
   -0.0840    2.4140   -0.9800 C   0  0  0  0  0
   -0.3710    3.4630   -1.9540 C   0  0  0  0  0
    8.2550   -1.1620    5.2150 C   0  0  0  0  0
    6.0980   -0.6710    6.3400 C   0  0  0  0  0
    5.4450   -4.4010    3.2670 C   0  0  0  0  0
    5.1270    0.6720    1.8580 C   0  0  0  0  0
    2.2830    2.5130   -1.6660 C   0  0  0  0  0
    6.3191   -3.0227    7.3557 H   0  0  0  0  0
    7.9668   -2.3540    7.5392 H   0  0  0  0  0
    8.1999   -4.7057    7.0367 H   0  0  0  0  0
    8.6719   -3.8185    5.5978 H   0  0  0  0  0
    5.9307   -5.0338    6.1536 H   0  0  0  0  0
    7.1263   -5.6022    4.9539 H   0  0  0  0  0
    6.4247   -0.8854    3.0202 H   0  0  0  0  0
    3.6475   -1.9223    3.7596 H   0  0  0  0  0
    2.0916   -0.9640    1.9861 H   0  0  0  0  0
    3.4208    1.4680    0.4287 H   0  0  0  0  0
    0.6216    0.2162    0.4441 H   0  0  0  0  0
   -0.8898    1.9991   -0.3745 H   0  0  0  0  0
    0.2036    4.3552   -1.7051 H   0  0  0  0  0
   -0.0947    3.1175   -2.9502 H   0  0  0  0  0
   -1.4354    3.6968   -1.9313 H   0  0  0  0  0
    8.0183   -0.4234    4.4492 H   0  0  0  0  0
    8.7871   -0.6795    6.0349 H   0  0  0  0  0
    8.8799   -1.9451    4.7856 H   0  0  0  0  0
    6.6379   -0.1903    7.1558 H   0  0  0  0  0
    5.8691    0.0659    5.5701 H   0  0  0  0  0
    5.1714   -1.1014    6.7197 H   0  0  0  0  0
    4.4075   -4.0675    3.2456 H   0  0  0  0  0
    5.9438   -4.1000    2.3458 H   0  0  0  0  0
    5.4772   -5.4864    3.3612 H   0  0  0  0  0
    5.3125    0.5931    0.7868 H   0  0  0  0  0
    4.7766    1.6767    2.0943 H   0  0  0  0  0
    6.0487    0.4695    2.4035 H   0  0  0  0  0
    2.0685    2.3347   -2.7197 H   0  0  0  0  0
    2.3730    3.5847   -1.4885 H   0  0  0  0  0
    3.2161    2.0189   -1.3951 H   0  0  0  0  0
  1  2  1  0  0  0
  1  6  1  0  0  0
  1 16  1  0  0  0
  1 17  1  0  0  0
  2  3  1  0  0  0
  3  4  1  0  0  0
  4  5  1  0  0  0
  5  6  2  0  0  0
  5 18  1  0  0  0
  6  7  1  0  0  0
  7  8  2  0  0  0
  8  9  1  0  0  0
  9 10  2  0  0  0
  9 19  1  0  0  0
 10 11  1  0  0  0
 11 12  2  0  0  0
 12 13  1  0  0  0
 13 14  2  0  0  0
 13 20  1  0  0  0
 14 15  1  0  0  0
  2 21  1  0  0  0
  2 22  1  0  0  0
  3 23  1  0  0  0
  3 24  1  0  0  0
  4 25  1  0  0  0
  4 26  1  0  0  0
  7 27  1  0  0  0
  8 28  1  0  0  0
 10 29  1  0  0  0
 11 30  1  0  0  0
 12 31  1  0  0  0
 14 32  1  0  0  0
 15 33  1  0  0  0
 15 34  1  0  0  0
 15 35  1  0  0  0
 16 36  1  0  0  0
 16 37  1  0  0  0
 16 38  1  0  0  0
 17 39  1  0  0  0
 17 40  1  0  0  0
 17 41  1  0  0  0
 18 42  1  0  0  0
 18 43  1  0  0  0
 18 44  1  0  0  0
 19 45  1  0  0  0
 19 46  1  0  0  0
 19 47  1  0  0  0
 20 48  1  0  0  0
 20 49  1  0  0  0
 20 50  1  0  0  0
M  END
$$$$
