1i7z_ligand
  -I-interpret- 

 44 46  0  0  0  0  0  0  0  0999 V2000
   40.3620    4.8820   50.1180 C   0  0  0  0  0
   39.6820    4.2280   49.0120 O   0  0  0  0  0
   40.1310    4.4390   47.7590 C   0  0  0  0  0
   41.2660    4.7520   47.4970 O   0  0  0  0  0
   38.9430    4.2070   46.8010 C   0  0  0  0  0
   39.4460    3.4330   45.5100 C   0  0  0  0  0
   40.5100    4.2460   44.8810 N   0  3  0  0  0
   41.3640    3.4710   43.9470 C   0  0  0  0  0
   38.3560    3.2370   44.4180 C   0  0  0  0  0
   38.5320    4.4870   43.5100 C   0  0  0  0  0
   39.6850    5.2640   44.1930 C   0  0  0  0  0
   39.1480    6.2560   45.2890 C   0  0  0  0  0
   38.2790    5.5110   46.3060 C   0  0  0  0  0
   37.9450    6.3730   47.4520 O   0  0  0  0  0
   36.9150    6.0730   48.2820 C   0  0  0  0  0
   36.0530    5.2800   48.0160 O   0  0  0  0  0
   36.9850    6.8630   49.5910 C   0  0  0  0  0
   36.0250    6.5910   50.6020 C   0  0  0  0  0
   36.0760    7.3130   51.8230 C   0  0  0  0  0
   37.0400    8.2650   52.0360 C   0  0  0  0  0
   37.9830    8.5380   51.0520 C   0  0  0  0  0
   37.9560    7.8350   49.8230 C   0  0  0  0  0
   41.4045    4.5644   50.1407 H   0  0  0  0  0
   40.3129    5.9627   49.9850 H   0  0  0  0  0
   39.8767    4.6074   51.0546 H   0  0  0  0  0
   38.2092    3.6408   47.3746 H   0  0  0  0  0
   39.7686    2.4486   45.8490 H   0  0  0  0  0
   41.1961    4.6216   45.5357 H   0  0  0  0  0
   40.7333    2.9554   43.2228 H   0  0  0  0  0
   42.0384    4.1499   43.4251 H   0  0  0  0  0
   41.9454    2.7405   44.5095 H   0  0  0  0  0
   37.3522    3.1593   44.8357 H   0  0  0  0  0
   38.4725    2.3011   43.8715 H   0  0  0  0  0
   38.7566    4.2262   42.4758 H   0  0  0  0  0
   37.6195    5.0773   43.4271 H   0  0  0  0  0
   40.2314    5.8418   43.4475 H   0  0  0  0  0
   38.5467    7.0262   44.8059 H   0  0  0  0  0
   39.9957    6.7037   45.8077 H   0  0  0  0  0
   37.3596    5.2391   45.7875 H   0  0  0  0  0
   35.2564    5.8349   50.4417 H   0  0  0  0  0
   35.3402    7.1084   52.6007 H   0  0  0  0  0
   37.0667    8.8093   52.9800 H   0  0  0  0  0
   38.7463    9.2962   51.2270 H   0  0  0  0  0
   38.6979    8.0552   49.0554 H   0  0  0  0  0
  1  2  1  0  0  0
  2  3  1  0  0  0
  3  5  1  0  0  0
  3  4  2  0  0  0
  5 13  1  0  0  0
  5  6  1  0  0  0
  6  9  1  0  0  0
  6  7  1  0  0  0
  7 11  1  0  0  0
  7  8  1  0  0  0
 11 12  1  0  0  0
 11 10  1  0  0  0
 10  9  1  0  0  0
 12 13  1  0  0  0
 13 14  1  0  0  0
 14 15  1  0  0  0
 15 17  1  0  0  0
 15 16  2  0  0  0
 17 22  4  0  0  0
 17 18  4  0  0  0
 18 19  4  0  0  0
 19 20  4  0  0  0
 20 21  4  0  0  0
 21 22  4  0  0  0
  1 23  1  0  0  0
  1 24  1  0  0  0
  1 25  1  0  0  0
  5 26  1  0  0  0
  6 27  1  0  0  0
  7 28  1  0  0  0
  8 29  1  0  0  0
  8 30  1  0  0  0
  8 31  1  0  0  0
  9 32  1  0  0  0
  9 33  1  0  0  0
 10 34  1  0  0  0
 10 35  1  0  0  0
 11 36  1  0  0  0
 12 37  1  0  0  0
 12 38  1  0  0  0
 13 39  1  0  0  0
 18 40  1  0  0  0
 19 41  1  0  0  0
 20 42  1  0  0  0
 21 43  1  0  0  0
 22 44  1  0  0  0
M  END
$$$$
