2pwc_ligand
  -I-interpret- 

 75 79  0  0  0  0  0  0  0  0999 V2000
  -14.3930   23.8410   -1.7170 C   0  0  0  0  0
  -13.2940   24.2110   -2.5180 C   0  0  0  0  0
  -13.4200   24.1610   -3.9240 C   0  0  0  0  0
  -14.5970   23.6370   -4.5150 C   0  0  0  0  0
  -15.7080   23.2600   -3.7170 C   0  0  0  0  0
  -15.5980   23.3790   -2.3120 C   0  0  0  0  0
  -17.1770   22.6560   -4.5330 S   0  0  0  0  0
  -18.2600   23.0640   -3.6580 O   0  0  0  0  0
  -17.0310   22.9690   -5.9390 O   0  0  0  0  0
  -16.8730   20.9700   -4.2350 N   0  0  0  0  0
  -17.4250   20.3890   -2.9790 C   0  0  0  0  0
  -18.7020   19.5640   -3.0720 C   0  0  0  0  0
  -18.8410   18.4070   -2.2460 C   0  0  0  0  0
  -20.0290   17.6330   -2.2510 C   0  0  0  0  0
  -21.0550   17.9890   -3.1700 C   0  0  0  0  0
  -20.8840   19.1030   -4.0450 C   0  0  0  0  0
  -19.7210   19.9180   -3.9850 C   0  0  0  0  0
  -16.0310   20.2480   -5.2530 C   0  0  0  0  0
  -14.6390   19.7940   -4.7320 C   0  0  0  0  0
  -14.6030   18.3100   -4.6830 N   0  3  0  0  0
  -15.9330   17.7750   -5.0670 C   0  0  0  0  0
  -16.7060   18.9120   -5.7750 C   0  0  0  0  0
  -16.5220   18.8330   -7.2620 N   0  0  0  0  0
  -15.2420   18.5460   -7.9590 C   0  0  0  0  0
  -14.4040   19.8270   -8.1220 C   0  0  0  0  0
  -13.0040   19.8080   -7.8240 C   0  0  0  0  0
  -12.1970   20.9630   -7.9810 C   0  0  0  0  0
  -12.8180   22.1810   -8.3990 C   0  0  0  0  0
  -14.2090   22.2100   -8.7040 C   0  0  0  0  0
  -15.0110   21.0380   -8.5660 C   0  0  0  0  0
  -17.8690   19.1340   -8.2350 S   0  0  0  0  0
  -18.9880   17.7820   -8.2170 C   0  0  0  0  0
  -18.7720   16.5260   -8.8500 C   0  0  0  0  0
  -19.7440   15.4850   -8.7900 C   0  0  0  0  0
  -20.9710   15.6840   -8.0650 C   0  0  0  0  0
  -21.2110   16.9460   -7.4330 C   0  0  0  0  0
  -20.2130   17.9610   -7.4910 C   0  0  0  0  0
  -17.3410   19.2720   -9.6130 O   0  0  0  0  0
  -18.5680   20.3140   -7.6860 O   0  0  0  0  0
  -21.9240   14.7290   -7.9830 N   0  0  0  0  0
  -12.1650   24.6900   -1.9540 N   0  0  0  0  0
  -14.3181   23.9098   -0.6318 H   0  0  0  0  0
  -12.6104   24.5262   -4.5559 H   0  0  0  0  0
  -14.6493   23.5221   -5.5977 H   0  0  0  0  0
  -16.4453   23.1139   -1.6797 H   0  0  0  0  0
  -17.6788   21.2441   -2.3526 H   0  0  0  0  0
  -16.6612   19.6992   -2.6200 H   0  0  0  0  0
  -18.0157   18.1126   -1.5976 H   0  0  0  0  0
  -20.1525   16.7902   -1.5709 H   0  0  0  0  0
  -21.9764   17.4078   -3.2059 H   0  0  0  0  0
  -21.6608   19.3337   -4.7741 H   0  0  0  0  0
  -19.6178   20.7932   -4.6265 H   0  0  0  0  0
  -15.9285   20.9998   -6.0355 H   0  0  0  0  0
  -14.4692   20.1994   -3.7346 H   0  0  0  0  0
  -13.8589   20.1592   -5.4000 H   0  0  0  0  0
  -14.3719   18.0048   -3.7376 H   0  0  0  0  0
  -13.8953   17.9638   -5.3309 H   0  0  0  0  0
  -16.4766   17.4369   -4.1848 H   0  0  0  0  0
  -15.8214   16.9188   -5.7322 H   0  0  0  0  0
  -17.7745   18.8560   -5.5671 H   0  0  0  0  0
  -15.4643   18.1451   -8.9479 H   0  0  0  0  0
  -14.6738   17.8293   -7.3661 H   0  0  0  0  0
  -12.5479   18.8842   -7.4682 H   0  0  0  0  0
  -11.1251   20.9232   -7.7870 H   0  0  0  0  0
  -12.2245   23.0912   -8.4846 H   0  0  0  0  0
  -14.6661   23.1383   -9.0468 H   0  0  0  0  0
  -16.0757   21.0683   -8.7974 H   0  0  0  0  0
  -17.8423   16.3561   -9.3930 H   0  0  0  0  0
  -19.5575   14.5367   -9.2941 H   0  0  0  0  0
  -22.1504   17.1289   -6.9113 H   0  0  0  0  0
  -20.3850   18.9019   -6.9682 H   0  0  0  0  0
  -21.7861   13.8299   -8.4446 H   0  0  0  0  0
  -22.7811   14.9074   -7.4595 H   0  0  0  0  0
  -12.1025   24.7866   -0.9405 H   0  0  0  0  0
  -11.3744   24.9554   -2.5413 H   0  0  0  0  0
  1  2  4  0  0  0
  1  6  4  0  0  0
  2  3  4  0  0  0
  2 41  1  0  0  0
  3  4  4  0  0  0
  4  5  4  0  0  0
  5  6  4  0  0  0
  5  7  1  0  0  0
  7  8  2  0  0  0
  7  9  2  0  0  0
  7 10  1  0  0  0
 10 11  1  0  0  0
 10 18  1  0  0  0
 11 12  1  0  0  0
 12 13  4  0  0  0
 12 17  4  0  0  0
 13 14  4  0  0  0
 14 15  4  0  0  0
 15 16  4  0  0  0
 16 17  4  0  0  0
 18 19  1  0  0  0
 18 22  1  0  0  0
 19 20  1  0  0  0
 20 21  1  0  0  0
 21 22  1  0  0  0
 22 23  1  0  0  0
 23 24  1  0  0  0
 23 31  1  0  0  0
 24 25  1  0  0  0
 25 26  4  0  0  0
 25 30  4  0  0  0
 26 27  4  0  0  0
 27 28  4  0  0  0
 28 29  4  0  0  0
 29 30  4  0  0  0
 31 32  1  0  0  0
 31 38  2  0  0  0
 31 39  2  0  0  0
 32 33  4  0  0  0
 32 37  4  0  0  0
 33 34  4  0  0  0
 34 35  4  0  0  0
 35 36  4  0  0  0
 35 40  1  0  0  0
 36 37  4  0  0  0
  1 42  1  0  0  0
  3 43  1  0  0  0
  4 44  1  0  0  0
  6 45  1  0  0  0
 11 46  1  0  0  0
 11 47  1  0  0  0
 13 48  1  0  0  0
 14 49  1  0  0  0
 15 50  1  0  0  0
 16 51  1  0  0  0
 17 52  1  0  0  0
 18 53  1  0  0  0
 19 54  1  0  0  0
 19 55  1  0  0  0
 20 56  1  0  0  0
 20 57  1  0  0  0
 21 58  1  0  0  0
 21 59  1  0  0  0
 22 60  1  0  0  0
 24 61  1  0  0  0
 24 62  1  0  0  0
 26 63  1  0  0  0
 27 64  1  0  0  0
 28 65  1  0  0  0
 29 66  1  0  0  0
 30 67  1  0  0  0
 33 68  1  0  0  0
 34 69  1  0  0  0
 36 70  1  0  0  0
 37 71  1  0  0  0
 40 72  1  0  0  0
 40 73  1  0  0  0
 41 74  1  0  0  0
 41 75  1  0  0  0
M  END
$$$$
