4ge4_ligand
  -I-interpret- 

 50 52  0  0  0  0  0  0  0  0999 V2000
   24.8930   -0.7420  -19.6270 C   0  0  0  0  0
   24.5150   -1.1520  -20.8920 C   0  0  0  0  0
   25.2060   -3.3820  -20.3790 C   0  0  0  0  0
   28.4960    1.4160  -12.0650 C   0  0  0  0  0
   25.4130   -1.6530  -18.7250 C   0  0  0  0  0
   27.7340    1.1350  -13.1800 C   0  0  0  0  0
   27.4990   -0.1930  -13.5020 C   0  0  0  0  0
   25.5800   -2.9570  -19.1240 C   0  0  0  0  0
   24.6640   -2.4780  -21.2620 C   0  0  0  0  0
   28.0630   -1.1570  -12.6770 C   0  0  0  0  0
   28.8350   -0.7780  -11.5970 C   0  0  0  0  0
   25.8110   -1.2710  -17.3740 C   0  0  0  0  0
   26.3510   -2.1440  -16.5010 C   0  0  0  0  0
   26.5420   -3.5670  -16.9320 C   0  0  0  0  0
   29.4550   -1.8160  -10.7230 C   0  0  0  0  0
   23.8570   -1.9500  -23.3550 C   0  0  0  0  0
   26.6460   -0.5040  -14.6990 C   0  0  0  0  0
   27.2010    2.2760  -13.9900 C   0  0  0  0  0
   29.0530    0.5030  -11.2640 N   0  0  0  0  0
   26.1350   -3.8550  -18.2200 N   0  0  0  0  0
   26.7580   -1.8550  -15.2110 N   0  0  0  0  0
   24.5670    3.8360  -12.7350 O   0  0  0  0  0
   25.7640    4.6360  -14.7960 O   0  0  0  0  0
   27.0360   -4.4060  -16.1800 O   0  0  0  0  0
   23.7880    3.1250  -15.0650 O   0  0  0  0  0
   27.8720   -2.5130  -12.8900 O   0  0  0  0  0
   26.3020   -5.1910  -18.6620 O   0  0  0  0  0
   24.3040   -2.9980  -22.5030 O   0  0  0  0  0
   25.7860    2.1810  -14.0940 O   0  0  0  0  0
   24.9090    3.5520  -14.1730 P   0  0  0  0  0
   24.7809    0.3033  -19.3391 H   0  0  0  0  0
   24.1001   -0.4321  -21.5975 H   0  0  0  0  0
   25.3382   -4.4242  -20.6696 H   0  0  0  0  0
   28.6564    2.4654  -11.8179 H   0  0  0  0  0
   25.6656   -0.2379  -17.0583 H   0  0  0  0  0
   28.6721   -2.4346  -10.2842 H   0  0  0  0  0
   30.1216   -2.4397  -11.3186 H   0  0  0  0  0
   30.0227   -1.3294   -9.9298 H   0  0  0  0  0
   22.9932   -1.4609  -22.9048 H   0  0  0  0  0
   24.6592   -1.2240  -23.4873 H   0  0  0  0  0
   23.5774   -2.3650  -24.3233 H   0  0  0  0  0
   26.9785    0.1591  -15.4977 H   0  0  0  0  0
   25.6104   -0.3765  -14.3836 H   0  0  0  0  0
   27.6367    2.2407  -14.9885 H   0  0  0  0  0
   27.4620    3.2148  -13.5014 H   0  0  0  0  0
   27.1376   -2.5940  -14.6192 H   0  0  0  0  0
   25.3612    4.0994  -12.2644 H   0  0  0  0  0
   26.4674    4.8760  -14.1883 H   0  0  0  0  0
   28.3408   -3.0108  -12.2162 H   0  0  0  0  0
   26.6910   -5.7138  -17.9571 H   0  0  0  0  0
  1  2  4  0  0  0
  5  1  4  0  0  0
  2  9  4  0  0  0
  8  3  4  0  0  0
  3  9  4  0  0  0
  6  4  4  0  0  0
  4 19  4  0  0  0
  5  8  4  0  0  0
 12  5  1  0  0  0
  6  7  4  0  0  0
 18  6  1  0  0  0
  7 10  4  0  0  0
  7 17  1  0  0  0
 20  8  1  0  0  0
  9 28  1  0  0  0
 10 11  4  0  0  0
 10 26  1  0  0  0
 11 15  1  0  0  0
 19 11  4  0  0  0
 13 12  2  0  0  0
 13 14  1  0  0  0
 21 13  1  0  0  0
 14 20  1  0  0  0
 14 24  2  0  0  0
 28 16  1  0  0  0
 17 21  1  0  0  0
 29 18  1  0  0  0
 20 27  1  0  0  0
 30 22  1  0  0  0
 30 23  1  0  0  0
 30 25  2  0  0  0
 29 30  1  0  0  0
  1 31  1  0  0  0
  2 32  1  0  0  0
  3 33  1  0  0  0
  4 34  1  0  0  0
 12 35  1  0  0  0
 15 36  1  0  0  0
 15 37  1  0  0  0
 15 38  1  0  0  0
 16 39  1  0  0  0
 16 40  1  0  0  0
 16 41  1  0  0  0
 17 42  1  0  0  0
 17 43  1  0  0  0
 18 44  1  0  0  0
 18 45  1  0  0  0
 21 46  1  0  0  0
 22 47  1  0  0  0
 23 48  1  0  0  0
 26 49  1  0  0  0
 27 50  1  0  0  0
M  END
$$$$
