### 
### Created by X-TOOL on Mon Sep 10 21:13:09 2018
### 

@<TRIPOS>MOLECULE
4ge4_ligand
   48    50     1     0     0
SMALL
GAST_HUCK


@<TRIPOS>ATOM
      1 C14        24.8930   -0.7420  -19.6270 C.ar      1 0KE        -0.0782
      2 C13        24.5150   -1.1520  -20.8920 C.ar      1 0KE        -0.0490
      3 C15        25.2060   -3.3820  -20.3790 C.ar      1 0KE        -0.0104
      4 C21        28.4960    1.4160  -12.0650 C.ar      1 0KE        -0.0131
      5 C1         25.4130   -1.6530  -18.7250 C.ar      1 0KE        -0.0188
      6 C22        27.7340    1.1350  -13.1800 C.ar      1 0KE         0.0026
      7 C17        27.4990   -0.1930  -13.5020 C.ar      1 0KE         0.0250
      8 C16        25.5800   -2.9570  -19.1240 C.ar      1 0KE         0.1047
      9 C12        24.6640   -2.4780  -21.2620 C.ar      1 0KE         0.0762
     10 C18        28.0630   -1.1570  -12.6770 C.ar      1 0KE         0.1136
     11 C19        28.8350   -0.7780  -11.5970 C.ar      1 0KE         0.0389
     12 C2         25.8110   -1.2710  -17.3740 C.2       1 0KE        -0.0449
     13 C3         26.3510   -2.1440  -16.5010 C.2       1 0KE         0.1143
     14 C4         26.5420   -3.5670  -16.9320 C.2       1 0KE         0.2693
     15 C24        29.4550   -1.8160  -10.7230 C.3       1 0KE        -0.0224
     16 C10        23.8570   -1.9500  -23.3550 C.3       1 0KE         0.0587
     17 C11        26.6460   -0.5040  -14.6990 C.3       1 0KE         0.0593
     18 C25        27.2010    2.2760  -13.9900 C.3       1 0KE         0.1104
     19 N20        29.0530    0.5030  -11.2640 N.ar      1 0KE        -0.3257
     20 N5         26.1350   -3.8550  -18.2200 N.am      1 0KE        -0.0857
     21 N8         26.7580   -1.8550  -15.2110 N.pl3     1 0KE        -0.3082
     22 O29        24.5670    3.8360  -12.7350 O.co2     1 0KE        -0.5536
     23 O30        25.7640    4.6360  -14.7960 O.co2     1 0KE        -0.5536
     24 O7         27.0360   -4.4060  -16.1800 O.2       1 0KE        -0.3927
     25 O28        23.7880    3.1250  -15.0650 O.co2     1 0KE        -0.5536
     26 O23        27.8720   -2.5130  -12.8900 O.3       1 0KE        -0.3348
     27 O6         26.3020   -5.1910  -18.6620 O.3       1 0KE        -0.2385
     28 O9         24.3040   -2.9980  -22.5030 O.3       1 0KE        -0.3262
     29 O26        25.7860    2.1810  -14.0940 O.3       1 0KE        -0.2651
     30 P27        24.9090    3.5520  -14.1730 P.3       1 0KE         0.2035
     31 H1         24.7815    0.2975  -19.3407 H         1 0KE         0.0522
     32 H2         24.1023   -0.4361  -21.5936 H         1 0KE         0.0434
     33 H3         25.3374   -4.4185  -20.6680 H         1 0KE         0.0414
     34 H4         28.6555    2.4597  -11.8193 H         1 0KE         0.0621
     35 H5         25.6658   -0.2388  -17.0586 H         1 0KE         0.0407
     36 H6         30.0282   -1.3262   -9.9221 H         1 0KE         0.0382
     37 H7         30.1281   -2.4461  -11.3229 H         1 0KE         0.0382
     38 H8         28.6659   -2.4410  -10.2795 H         1 0KE         0.0382
     39 H9         23.5745   -2.3676  -24.3327 H         1 0KE         0.0577
     40 H10        24.6657   -1.2166  -23.4894 H         1 0KE         0.0577
     41 H11        22.9852   -1.4556  -22.9018 H         1 0KE         0.0577
     42 H12        26.9285    0.1885  -15.5056 H         1 0KE         0.0663
     43 H13        25.5957   -0.3333  -14.4202 H         1 0KE         0.0663
     44 H14        27.6428    2.2454  -14.9969 H         1 0KE         0.0762
     45 H15        27.4672    3.2249  -13.5014 H         1 0KE         0.0762
     46 H16        27.1413   -2.6012  -14.6134 H         1 0KE         0.1798
     47 H17        27.4449   -2.8944  -12.1320 H         1 0KE         0.2454
     48 H18        25.9894   -5.2691  -19.5557 H         1 0KE         0.2600
@<TRIPOS>BOND
     1    1    2 ar 
     2    5    1 ar 
     3    2    9 ar 
     4    8    3 ar 
     5    3    9 ar 
     6    6    4 ar 
     7    4   19 ar 
     8    5    8 ar 
     9   12    5 1  
    10    6    7 ar 
    11   18    6 1  
    12    7   10 ar 
    13    7   17 1  
    14   20    8 1  
    15    9   28 1  
    16   10   11 ar 
    17   10   26 1  
    18   11   15 1  
    19   19   11 ar 
    20   13   12 2  
    21   13   14 1  
    22   21   13 1  
    23   14   20 am 
    24   14   24 2  
    25   28   16 1  
    26   17   21 1  
    27   29   18 1  
    28   20   27 1  
    29   30   22 ar 
    30   30   23 ar 
    31   30   25 ar 
    32   29   30 1  
    33    1   31 1  
    34    2   32 1  
    35    3   33 1  
    36    4   34 1  
    37   12   35 1  
    38   15   36 1  
    39   15   37 1  
    40   15   38 1  
    41   16   39 1  
    42   16   40 1  
    43   16   41 1  
    44   17   42 1  
    45   17   43 1  
    46   18   44 1  
    47   18   45 1  
    48   21   46 1  
    49   26   47 1  
    50   27   48 1  
@<TRIPOS>SUBSTRUCTURE
     1 0KE         1

