5znp_ligand
  -I-interpret- 

146145  0  0  0  0  0  0  0  0999 V2000
  -23.0350   10.9660   16.4110 N   0  3  0  0  0
  -22.9300    9.8900   15.4320 C   0  0  0  0  0
  -21.7500    8.9650   15.7200 C   0  0  0  0  0
  -20.7190    9.3980   16.2360 O   0  0  0  0  0
  -22.7950   10.4440   14.0000 C   0  0  0  0  0
  -21.8040   11.4790   13.9790 O   0  0  0  0  0
  -24.1210   11.0130   13.5210 C   0  0  0  0  0
  -21.9120    7.6890   15.3820 N   0  0  0  0  0
  -20.8840    6.6970   15.5900 C   0  0  0  0  0
  -21.3100    5.5910   16.5690 C   0  0  0  0  0
  -21.2200    6.0360   18.0100 C   0  0  0  0  0
  -20.7030    4.9070   18.8840 C   0  0  0  0  0
  -21.8340    3.9260   19.1670 C   0  0  0  0  0
  -21.8220    3.2470   20.5200 N   0  3  0  0  0
  -20.5000    5.9390   14.3260 C   0  0  0  0  0
  -21.3220    5.3250   13.6440 O   0  0  0  0  0
  -22.9840    2.3260   20.6780 C   0  0  0  0  0
  -21.8210    4.2500   21.6250 C   0  0  0  0  0
  -20.5620    2.4470   20.6210 C   0  0  0  0  0
  -19.2060    5.9760   14.0120 N   0  0  0  0  0
  -18.6720    5.1880   12.9030 C   0  0  0  0  0
  -17.1490    5.1310   12.8860 C   0  0  0  0  0
  -16.4690    6.0830   13.2690 O   0  0  0  0  0
  -19.1610    5.7340   11.5590 C   0  0  0  0  0
  -19.3110    4.6590   10.4940 C   0  0  0  0  0
  -19.7980    5.2050    9.1680 C   0  0  0  0  0
  -19.5810    6.3730    8.8460 O   0  0  0  0  0
  -20.4690    4.3610    8.3930 N   0  0  0  0  0
  -16.6280    3.9950   12.4360 N   0  0  0  0  0
  -15.2110    3.8470   12.1430 C   0  0  0  0  0
  -15.0590    3.5700   10.6510 C   0  0  0  0  0
  -15.4630    2.5130   10.1650 O   0  0  0  0  0
  -14.5660    2.7120   12.9610 C   0  0  0  0  0
  -14.9410    1.4440   12.4080 O   0  0  0  0  0
  -15.0050    2.7840   14.4160 C   0  0  0  0  0
  -14.4910    4.5280    9.9250 N   0  0  0  0  0
  -14.3940    4.4280    8.4730 C   0  0  0  0  0
  -13.1080    3.7350    8.0330 C   0  0  0  0  0
  -12.0280    4.0100    8.5550 O   0  0  0  0  0
  -14.4940    5.8080    7.8430 C   0  0  0  0  0
  -13.2400    2.8440    7.0560 N   0  0  0  0  0
  -12.1340    2.0090    6.6020 C   0  0  0  0  0
  -11.6130    2.4400    5.2310 C   0  0  0  0  0
  -12.3060    2.3030    4.2230 O   0  0  0  0  0
  -12.5820    0.5480    6.5610 C   0  0  0  0  0
  -14.0290    0.3860    6.1200 C   0  0  0  0  0
  -14.5190   -1.0400    6.2630 C   0  0  0  0  0
  -13.5960   -2.0000    5.6670 N   0  0  0  0  0
  -13.9510   -3.2120    5.2580 C   0  0  0  0  0
  -13.0500   -4.0290    4.7290 N   0  0  0  0  0
  -15.2130   -3.6000    5.3610 N   0  0  0  0  0
  -10.3870    2.9540    5.1980 N   0  0  0  0  0
   -9.8030    3.4390    3.9510 C   0  0  0  0  0
   -8.3240    3.0880    3.8170 C   0  0  0  0  0
   -7.5110    3.4420    4.6720 O   0  0  0  0  0
   -9.9850    4.9550    3.8380 C   0  0  0  0  0
   -9.3790    5.5670    2.5820 C   0  0  0  0  0
   -9.9790    4.9630    1.3210 C   0  0  0  0  0
   -9.6660    5.8110    0.0970 C   0  0  0  0  0
   -8.2010    5.9430   -0.1360 N   0  3  0  0  0
   -7.9920    2.3910    2.7320 N   0  0  0  0  0
   -6.6080    2.0880    2.3740 C   0  0  0  0  0
   -6.5480    1.4840    0.9750 C   0  0  0  0  0
   -7.4170    0.7000    0.5900 O   0  0  0  0  0
   -5.9680    1.1330    3.3840 C   0  0  0  0  0
   -4.6290    0.8380    3.0240 O   0  0  0  0  0
   -5.6290    1.7690    0.2050 O   0  0  0  0  0
  -23.1228   10.5665   17.3454 H   0  0  0  0  0
  -22.1985   11.5479   16.3659 H   0  0  0  0  0
  -23.8569   11.5334   16.2039 H   0  0  0  0  0
  -23.8526    9.3152   15.5129 H   0  0  0  0  0
  -22.4988    9.6301   13.3382 H   0  0  0  0  0
  -20.9650   11.1233   14.2810 H   0  0  0  0  0
  -24.4255   11.8258   14.1804 H   0  0  0  0  0
  -24.0069   11.3910   12.5050 H   0  0  0  0  0
  -24.8779   10.2287   13.5354 H   0  0  0  0  0
  -22.7949    7.4007   14.9604 H   0  0  0  0  0
  -20.0544    7.2935   15.9695 H   0  0  0  0  0
  -20.6389    4.7428   16.4342 H   0  0  0  0  0
  -22.3481    5.3340   16.3584 H   0  0  0  0  0
  -22.2133    6.3240   18.3544 H   0  0  0  0  0
  -20.5329    6.8795   18.0779 H   0  0  0  0  0
  -20.3323    5.3155   19.8241 H   0  0  0  0  0
  -19.8935    4.3899   18.3688 H   0  0  0  0  0
  -21.7319    3.1293   18.4302 H   0  0  0  0  0
  -22.7538    4.5098   19.1321 H   0  0  0  0  0
  -23.9104    2.8924   20.5832 H   0  0  0  0  0
  -22.9453    1.5584   19.9051 H   0  0  0  0  0
  -22.9427    1.8564   21.6608 H   0  0  0  0  0
  -20.9347    4.8790   21.5422 H   0  0  0  0  0
  -22.7153    4.8689   21.5530 H   0  0  0  0  0
  -21.8123    3.7321   22.5841 H   0  0  0  0  0
  -20.5405    1.7033   19.8245 H   0  0  0  0  0
  -19.7029    3.1107   20.5234 H   0  0  0  0  0
  -20.5277    1.9462   21.5885 H   0  0  0  0  0
  -18.5759    6.5655   14.5559 H   0  0  0  0  0
  -19.0431    4.1747   13.0568 H   0  0  0  0  0
  -18.4193    6.4494   11.2038 H   0  0  0  0  0
  -20.1433    6.1779   11.7207 H   0  0  0  0  0
  -20.0496    3.9402   10.8489 H   0  0  0  0  0
  -18.3295    4.2143   10.3300 H   0  0  0  0  0
  -20.8278    4.6726    7.4905 H   0  0  0  0  0
  -20.6256    3.4011    8.7002 H   0  0  0  0  0
  -17.2451    3.1960   12.2904 H   0  0  0  0  0
  -14.6972    4.7675   12.4202 H   0  0  0  0  0
  -13.4827    2.8245   12.9168 H   0  0  0  0  0
  -14.5368    0.7403   12.9209 H   0  0  0  0  0
  -14.7011    3.7415   14.8389 H   0  0  0  0  0
  -16.0893    2.6883   14.4722 H   0  0  0  0  0
  -14.5380    1.9736   14.9756 H   0  0  0  0  0
  -14.1144    5.3518   10.3941 H   0  0  0  0  0
  -15.2277    3.8155    8.1297 H   0  0  0  0  0
  -15.4511    6.2579    8.1068 H   0  0  0  0  0
  -13.6823    6.4345    8.2128 H   0  0  0  0  0
  -14.4200    5.7175    6.7593 H   0  0  0  0  0
  -14.1497    2.7402    6.6064 H   0  0  0  0  0
  -11.3130    2.1259    7.3094 H   0  0  0  0  0
  -12.4935    0.1437    7.5694 H   0  0  0  0  0
  -11.9532    0.0266    5.8393 H   0  0  0  0  0
  -14.0939    0.6613    5.0673 H   0  0  0  0  0
  -14.6482    1.0209    6.7538 H   0  0  0  0  0
  -15.4760   -1.1238    5.7481 H   0  0  0  0  0
  -14.6041   -1.2652    7.3261 H   0  0  0  0  0
  -12.6202   -1.7235    5.5582 H   0  0  0  0  0
  -13.3297   -4.9540    4.4025 H   0  0  0  0  0
  -12.0774   -3.7323    4.6486 H   0  0  0  0  0
  -15.9104   -2.9679    5.7541 H   0  0  0  0  0
   -9.8446    3.0104    6.0600 H   0  0  0  0  0
  -10.3306    2.9376    3.1396 H   0  0  0  0  0
   -9.4760    5.4036    4.6911 H   0  0  0  0  0
  -11.0573    5.1476    3.8034 H   0  0  0  0  0
   -8.3074    5.3678    2.5837 H   0  0  0  0  0
   -9.5871    6.6370    2.5847 H   0  0  0  0  0
  -11.0613    4.9144    1.4412 H   0  0  0  0  0
   -9.5508    3.9714    1.1742 H   0  0  0  0  0
  -10.0745    6.8081    0.2616 H   0  0  0  0  0
  -10.1055    5.3248   -0.7739 H   0  0  0  0  0
   -8.0399    6.5173   -0.9634 H   0  0  0  0  0
   -7.7673    6.3840    0.6751 H   0  0  0  0  0
   -7.7959    5.0178   -0.2787 H   0  0  0  0  0
   -8.7375    2.0533    2.1232 H   0  0  0  0  0
   -6.0457    3.0216    2.3882 H   0  0  0  0  0
   -6.5393    0.2048    3.3991 H   0  0  0  0  0
   -5.9704    1.6078    4.3652 H   0  0  0  0  0
   -4.2495    0.2387    3.6709 H   0  0  0  0  0
   -5.0315    2.3847    0.6357 H   0  0  0  0  0
  1  2  1  0  0  0
  2  3  1  0  0  0
  2  5  1  0  0  0
  3  4  2  0  0  0
  3  8  1  0  0  0
  5  6  1  0  0  0
  5  7  1  0  0  0
  8  9  1  0  0  0
  9 10  1  0  0  0
  9 15  1  0  0  0
 10 11  1  0  0  0
 11 12  1  0  0  0
 12 13  1  0  0  0
 13 14  1  0  0  0
 14 17  1  0  0  0
 14 18  1  0  0  0
 14 19  1  0  0  0
 15 16  2  0  0  0
 15 20  1  0  0  0
 20 21  1  0  0  0
 21 22  1  0  0  0
 21 24  1  0  0  0
 22 23  2  0  0  0
 22 29  1  0  0  0
 24 25  1  0  0  0
 25 26  1  0  0  0
 26 27  2  0  0  0
 26 28  1  0  0  0
 29 30  1  0  0  0
 30 31  1  0  0  0
 30 33  1  0  0  0
 31 32  2  0  0  0
 31 36  1  0  0  0
 33 34  1  0  0  0
 33 35  1  0  0  0
 36 37  1  0  0  0
 37 38  1  0  0  0
 37 40  1  0  0  0
 38 39  2  0  0  0
 38 41  1  0  0  0
 41 42  1  0  0  0
 42 43  1  0  0  0
 42 45  1  0  0  0
 43 44  2  0  0  0
 43 52  1  0  0  0
 45 46  1  0  0  0
 46 47  1  0  0  0
 47 48  1  0  0  0
 48 49  1  0  0  0
 49 50  1  0  0  0
 49 51  2  0  0  0
 52 53  1  0  0  0
 53 54  1  0  0  0
 53 56  1  0  0  0
 54 55  2  0  0  0
 54 61  1  0  0  0
 56 57  1  0  0  0
 57 58  1  0  0  0
 58 59  1  0  0  0
 59 60  1  0  0  0
 61 62  1  0  0  0
 62 63  1  0  0  0
 62 65  1  0  0  0
 63 64  2  0  0  0
 63 67  1  0  0  0
 65 66  1  0  0  0
  1 68  1  0  0  0
  1 69  1  0  0  0
  1 70  1  0  0  0
  2 71  1  0  0  0
  5 72  1  0  0  0
  6 73  1  0  0  0
  7 74  1  0  0  0
  7 75  1  0  0  0
  7 76  1  0  0  0
  8 77  1  0  0  0
  9 78  1  0  0  0
 10 79  1  0  0  0
 10 80  1  0  0  0
 11 81  1  0  0  0
 11 82  1  0  0  0
 12 83  1  0  0  0
 12 84  1  0  0  0
 13 85  1  0  0  0
 13 86  1  0  0  0
 17 87  1  0  0  0
 17 88  1  0  0  0
 17 89  1  0  0  0
 18 90  1  0  0  0
 18 91  1  0  0  0
 18 92  1  0  0  0
 19 93  1  0  0  0
 19 94  1  0  0  0
 19 95  1  0  0  0
 20 96  1  0  0  0
 21 97  1  0  0  0
 24 98  1  0  0  0
 24 99  1  0  0  0
 25100  1  0  0  0
 25101  1  0  0  0
 28102  1  0  0  0
 28103  1  0  0  0
 29104  1  0  0  0
 30105  1  0  0  0
 33106  1  0  0  0
 34107  1  0  0  0
 35108  1  0  0  0
 35109  1  0  0  0
 35110  1  0  0  0
 36111  1  0  0  0
 37112  1  0  0  0
 40113  1  0  0  0
 40114  1  0  0  0
 40115  1  0  0  0
 41116  1  0  0  0
 42117  1  0  0  0
 45118  1  0  0  0
 45119  1  0  0  0
 46120  1  0  0  0
 46121  1  0  0  0
 47122  1  0  0  0
 47123  1  0  0  0
 48124  1  0  0  0
 50125  1  0  0  0
 50126  1  0  0  0
 51127  1  0  0  0
 52128  1  0  0  0
 53129  1  0  0  0
 56130  1  0  0  0
 56131  1  0  0  0
 57132  1  0  0  0
 57133  1  0  0  0
 58134  1  0  0  0
 58135  1  0  0  0
 59136  1  0  0  0
 59137  1  0  0  0
 60138  1  0  0  0
 60139  1  0  0  0
 60140  1  0  0  0
 61141  1  0  0  0
 62142  1  0  0  0
 65143  1  0  0  0
 65144  1  0  0  0
 66145  1  0  0  0
 67146  1  0  0  0
M  END
$$$$
