### 
### Created by X-TOOL on Wed Jan  1 15:39:38 2020
### 

@<TRIPOS>MOLECULE
5znp_ligand
  146   145     1     0     0
SMALL
GAST_HUCK


@<TRIPOS>ATOM
      1 N         -23.0350   10.9660   16.4110 N.4       1 THR         0.2398
      2 CA        -22.9300    9.8900   15.4320 C.3       1 THR         0.0910
      3 C         -21.7500    8.9650   15.7200 C.2       1 THR         0.2293
      4 O         -20.7190    9.3980   16.2360 O.2       1 THR        -0.3906
      5 CB        -22.7950   10.4440   14.0000 C.3       1 THR         0.1120
      6 OG1       -21.8040   11.4790   13.9790 O.3       1 THR        -0.3840
      7 CG2       -24.1210   11.0130   13.5210 C.3       1 THR        -0.0314
      8 N         -21.9120    7.6890   15.3820 N.am      1 M3L        -0.2609
      9 CA        -20.8840    6.6970   15.5900 C.3       1 M3L         0.1311
     10 CB        -21.3100    5.5910   16.5690 C.3       1 M3L        -0.0122
     11 CG        -21.2200    6.0360   18.0100 C.3       1 M3L        -0.0440
     12 CD        -20.7030    4.9070   18.8840 C.3       1 M3L        -0.0123
     13 CE        -21.8340    3.9260   19.1670 C.3       1 M3L        -0.0309
     14 NZ        -21.8220    3.2470   20.5200 N.4       1 M3L         0.2369
     15 C         -20.5000    5.9390   14.3260 C.2       1 M3L         0.2039
     16 O         -21.3220    5.3250   13.6440 O.2       1 M3L        -0.3944
     17 CM1       -22.9840    2.3260   20.6780 C.3       1 M3L        -0.0418
     18 CM2       -21.8210    4.2500   21.6250 C.3       1 M3L        -0.0418
     19 CM3       -20.5620    2.4470   20.6210 C.3       1 M3L        -0.0418
     20 N         -19.2060    5.9760   14.0120 N.am      1 GLN        -0.2636
     21 CA        -18.6720    5.1880   12.9030 C.3       1 GLN         0.1330
     22 C         -17.1490    5.1310   12.8860 C.2       1 GLN         0.2041
     23 O         -16.4690    6.0830   13.2690 O.2       1 GLN        -0.3944
     24 CB        -19.1610    5.7340   11.5590 C.3       1 GLN         0.0045
     25 CG        -19.3110    4.6590   10.4940 C.3       1 GLN         0.0412
     26 CD        -19.7980    5.2050    9.1680 C.2       1 GLN         0.1737
     27 OE1       -19.5810    6.3730    8.8460 O.2       1 GLN        -0.3973
     28 NE2       -20.4690    4.3610    8.3930 N.am      1 GLN        -0.3009
     29 N         -16.6280    3.9950   12.4360 N.am      1 THR        -0.2613
     30 CA        -15.2110    3.8470   12.1430 C.3       1 THR         0.1565
     31 C         -15.0590    3.5700   10.6510 C.2       1 THR         0.2065
     32 O         -15.4630    2.5130   10.1650 O.2       1 THR        -0.3943
     33 CB        -14.5660    2.7120   12.9610 C.3       1 THR         0.0924
     34 OG1       -14.9410    1.4440   12.4080 O.3       1 THR        -0.3874
     35 CG2       -15.0050    2.7840   14.4160 C.3       1 THR        -0.0346
     36 N         -14.4910    4.5280    9.9250 N.am      1 ALA        -0.2639
     37 CA        -14.3940    4.4280    8.4730 C.3       1 ALA         0.1282
     38 C         -13.1080    3.7350    8.0330 C.2       1 ALA         0.2036
     39 O         -12.0280    4.0100    8.5550 O.2       1 ALA        -0.3944
     40 CB        -14.4940    5.8080    7.8430 C.3       1 ALA        -0.0244
     41 N         -13.2400    2.8440    7.0560 N.am      1 ARG        -0.2637
     42 CA        -12.1340    2.0090    6.6020 C.3       1 ARG         0.1311
     43 C         -11.6130    2.4400    5.2310 C.2       1 ARG         0.2039
     44 O         -12.3060    2.3030    4.2230 O.2       1 ARG        -0.3944
     45 CB        -12.5820    0.5480    6.5610 C.3       1 ARG        -0.0092
     46 CG        -14.0290    0.3860    6.1200 C.3       1 ARG        -0.0156
     47 CD        -14.5190   -1.0400    6.2630 C.3       1 ARG         0.0627
     48 NE        -13.5960   -2.0000    5.6670 N.pl3     1 ARG        -0.2723
     49 CZ        -13.9510   -3.2120    5.2580 C.cat     1 ARG         0.2882
     50 NH1       -13.0500   -4.0290    4.7290 N.pl3     1 ARG        -0.2849
     51 NH2       -15.2130   -3.6000    5.3610 N.pl3     1 ARG        -0.2849
     52 N         -10.3870    2.9540    5.1980 N.am      1 LYS        -0.2637
     53 CA         -9.8030    3.4390    3.9510 C.3       1 LYS         0.1309
     54 C          -8.3240    3.0880    3.8170 C.2       1 LYS         0.2034
     55 O          -7.5110    3.4420    4.6720 O.2       1 LYS        -0.3944
     56 CB         -9.9850    4.9550    3.8380 C.3       1 LYS        -0.0122
     57 CG         -9.3790    5.5670    2.5820 C.3       1 LYS        -0.0440
     58 CD         -9.9790    4.9630    1.3210 C.3       1 LYS        -0.0124
     59 CE         -9.6660    5.8110    0.0970 C.3       1 LYS        -0.0354
     60 NZ         -8.2010    5.9430   -0.1360 N.4       1 LYS         0.2185
     61 N          -7.9920    2.3910    2.7320 N.am      1 SER        -0.2672
     62 CA         -6.6080    2.0880    2.3740 C.3       1 SER         0.1173
     63 C          -6.5480    1.4840    0.9750 C.2       1 SER         0.0623
     64 O          -7.4170    0.7000    0.5900 O.co2     1 SER        -0.5665
     65 CB         -5.9680    1.1330    3.3840 C.3       1 SER         0.0789
     66 OG         -4.6290    0.8380    3.0240 O.3       1 SER        -0.3910
     67 OXT        -5.6290    1.7690    0.2050 O.co2     1 SER        -0.5665
     68 H1        -23.1218   10.5723   17.3349 H         1 THR         0.2016
     69 H2        -23.8470   11.5275   16.2074 H         1 THR         0.2016
     70 H3        -22.2088   11.5418   16.3674 H         1 THR         0.2016
     71 H4        -23.8539    9.2956   15.4873 H         1 THR         0.1125
     72 H5        -22.4871    9.6303   13.3269 H         1 THR         0.0674
     73 H6        -21.7219   11.8194   13.0959 H         1 THR         0.2102
     74 H7        -24.0049   11.4029   12.4990 H         1 THR         0.0258
     75 H8        -24.4339   11.8276   14.1908 H         1 THR         0.0258
     76 H9        -24.8836   10.2203   13.5266 H         1 THR         0.0258
     77 H10       -22.7776    7.4063   14.9686 H         1 M3L         0.1884
     78 H11       -19.9982    7.2154   15.9858 H         1 M3L         0.0800
     79 H12       -20.6538    4.7198   16.4261 H         1 M3L         0.0312
     80 H13       -22.3499    5.3065   16.3508 H         1 M3L         0.0312
     81 H14       -22.2190    6.3358   18.3594 H         1 M3L         0.0269
     82 H15       -20.5339    6.8928   18.0821 H         1 M3L         0.0269
     83 H16       -20.3292    5.3193   19.8328 H         1 M3L         0.0317
     84 H17       -19.8863    4.3850   18.3639 H         1 M3L         0.0317
     85 H18       -21.7932    3.1396   18.3990 H         1 M3L         0.0815
     86 H19       -22.7824    4.4761   19.0785 H         1 M3L         0.0815
     87 H20       -22.9435    1.8514   21.6695 H         1 M3L         0.0778
     88 H21       -22.9461    1.5507   19.8986 H         1 M3L         0.0778
     89 H22       -23.9197    2.8964   20.5826 H         1 M3L         0.0778
     90 H23       -20.9625    4.9272   21.5047 H         1 M3L         0.0778
     91 H24       -21.7456    3.7305   22.5917 H         1 M3L         0.0778
     92 H25       -22.7541    4.8317   21.5931 H         1 M3L         0.0778
     93 H26       -20.5376    1.6982   19.8156 H         1 M3L         0.0778
     94 H27       -20.5277    1.9383   21.5957 H         1 M3L         0.0778
     95 H28       -19.6942    3.1162   20.5259 H         1 M3L         0.0778
     96 H29       -18.5882    6.5539   14.5452 H         1 GLN         0.1883
     97 H30       -19.0475    4.1604   13.0166 H         1 GLN         0.0801
     98 H31       -18.4377    6.4817   11.2014 H         1 GLN         0.0337
     99 H32       -20.1391    6.2136   11.7116 H         1 GLN         0.0337
    100 H33       -20.0329    3.9098   10.8511 H         1 GLN         0.0504
    101 H34       -18.3328    4.1806   10.3383 H         1 GLN         0.0504
    102 H35       -20.8155    4.6648    7.5055 H         1 GLN         0.1814
    103 H36       -20.6279    3.4216    8.6969 H         1 GLN         0.1814
    104 H37       -17.2330    3.2117   12.2932 H         1 THR         0.1884
    105 H38       -14.6980    4.7881   12.3900 H         1 THR         0.0826
    106 H39       -13.4720    2.8160   12.9132 H         1 THR         0.0639
    107 H40       -14.6433    1.3921   11.5074 H         1 THR         0.2101
    108 H41       -14.5343    1.9665   14.9819 H         1 THR         0.0257
    109 H42       -16.0992    2.6875   14.4741 H         1 THR         0.0257
    110 H43       -14.6988    3.7499   14.8440 H         1 THR         0.0257
    111 H44       -14.1218    5.3356   10.3849 H         1 ALA         0.1883
    112 H45       -15.2422    3.8246    8.1175 H         1 ALA         0.0797
    113 H46       -14.4195    5.7180    6.7492 H         1 ALA         0.0277
    114 H47       -13.6753    6.4413    8.2154 H         1 ALA         0.0277
    115 H48       -15.4596    6.2632    8.1084 H         1 ALA         0.0277
    116 H49       -14.1318    2.7422    6.6153 H         1 ARG         0.1883
    117 H50       -11.3111    2.1039    7.3257 H         1 ARG         0.0800
    118 H51       -12.4714    0.1183    7.5675 H         1 ARG         0.0313
    119 H52       -11.9370    0.0025    5.8565 H         1 ARG         0.0313
    120 H53       -14.1123    0.6841    5.0645 H         1 ARG         0.0301
    121 H54       -14.6620    1.0407    6.7370 H         1 ARG         0.0301
    122 H55       -15.4957   -1.1310    5.7652 H         1 ARG         0.0689
    123 H56       -14.6296   -1.2715    7.3327 H         1 ARG         0.0689
    124 H57       -12.6107   -1.7208    5.5571 H         1 ARG         0.2642
    125 H58       -13.3295   -4.9686    4.4129 H         1 ARG         0.2615
    126 H59       -12.0708   -3.7239    4.6343 H         1 ARG         0.2615
    127 H60       -15.9145   -2.9673    5.7715 H         1 ARG         0.2615
    128 H61       -15.4931   -4.5345    5.0306 H         1 ARG         0.2615
    129 H62        -9.8552    3.0093    6.0431 H         1 LYS         0.1883
    130 H63       -10.3410    2.9612    3.1190 H         1 LYS         0.0800
    131 H64        -9.5120    5.4250    4.7129 H         1 LYS         0.0312
    132 H65       -11.0630    5.1739    3.8422 H         1 LYS         0.0312
    133 H66        -8.2941    5.3854    2.5838 H         1 LYS         0.0269
    134 H67        -9.5695    6.6504    2.5847 H         1 LYS         0.0269
    135 H68       -11.0704    4.8959    1.4404 H         1 LYS         0.0317
    136 H69        -9.5635    3.9552    1.1740 H         1 LYS         0.0317
    137 H70       -10.0934    6.8141    0.2422 H         1 LYS         0.0813
    138 H71       -10.1242    5.3415   -0.7859 H         1 LYS         0.0813
    139 H72        -8.0406    6.5104   -0.9535 H         1 LYS         0.1994
    140 H73        -7.7995    5.0293   -0.2772 H         1 LYS         0.1994
    141 H74        -7.7713    6.3787    0.6650 H         1 LYS         0.1994
    142 H75        -8.7229    2.0599    2.1352 H         1 SER         0.1876
    143 H76        -6.0364    3.0278    2.3754 H         1 SER         0.0749
    144 H77        -6.5473    0.1983    3.4128 H         1 SER         0.0599
    145 H78        -5.9783    1.6016    4.3791 H         1 SER         0.0599
    146 H79        -4.6155    0.4298    2.1663 H         1 SER         0.2096
@<TRIPOS>BOND
     1    1    2 1  
     2    2    3 1  
     3    2    5 1  
     4    3    4 2  
     5    3    8 am 
     6    5    6 1  
     7    5    7 1  
     8    8    9 1  
     9    9   10 1  
    10    9   15 1  
    11   10   11 1  
    12   11   12 1  
    13   12   13 1  
    14   13   14 1  
    15   14   17 1  
    16   14   18 1  
    17   14   19 1  
    18   15   16 2  
    19   15   20 am 
    20   20   21 1  
    21   21   22 1  
    22   21   24 1  
    23   22   23 2  
    24   22   29 am 
    25   24   25 1  
    26   25   26 1  
    27   26   27 2  
    28   26   28 am 
    29   29   30 1  
    30   30   31 1  
    31   30   33 1  
    32   31   32 2  
    33   31   36 am 
    34   33   34 1  
    35   33   35 1  
    36   36   37 1  
    37   37   38 1  
    38   37   40 1  
    39   38   39 2  
    40   38   41 am 
    41   41   42 1  
    42   42   43 1  
    43   42   45 1  
    44   43   44 2  
    45   43   52 am 
    46   45   46 1  
    47   46   47 1  
    48   47   48 1  
    49   48   49 ar 
    50   49   50 ar 
    51   49   51 ar 
    52   52   53 1  
    53   53   54 1  
    54   53   56 1  
    55   54   55 2  
    56   54   61 am 
    57   56   57 1  
    58   57   58 1  
    59   58   59 1  
    60   59   60 1  
    61   61   62 1  
    62   62   63 1  
    63   62   65 1  
    64   63   64 ar 
    65   63   67 ar 
    66   65   66 1  
    67    1   68 1  
    68    1   69 1  
    69    1   70 1  
    70    2   71 1  
    71    5   72 1  
    72    6   73 1  
    73    7   74 1  
    74    7   75 1  
    75    7   76 1  
    76    8   77 1  
    77    9   78 1  
    78   10   79 1  
    79   10   80 1  
    80   11   81 1  
    81   11   82 1  
    82   12   83 1  
    83   12   84 1  
    84   13   85 1  
    85   13   86 1  
    86   17   87 1  
    87   17   88 1  
    88   17   89 1  
    89   18   90 1  
    90   18   91 1  
    91   18   92 1  
    92   19   93 1  
    93   19   94 1  
    94   19   95 1  
    95   20   96 1  
    96   21   97 1  
    97   24   98 1  
    98   24   99 1  
    99   25  100 1  
   100   25  101 1  
   101   28  102 1  
   102   28  103 1  
   103   29  104 1  
   104   30  105 1  
   105   33  106 1  
   106   34  107 1  
   107   35  108 1  
   108   35  109 1  
   109   35  110 1  
   110   36  111 1  
   111   37  112 1  
   112   40  113 1  
   113   40  114 1  
   114   40  115 1  
   115   41  116 1  
   116   42  117 1  
   117   45  118 1  
   118   45  119 1  
   119   46  120 1  
   120   46  121 1  
   121   47  122 1  
   122   47  123 1  
   123   48  124 1  
   124   50  125 1  
   125   50  126 1  
   126   51  127 1  
   127   51  128 1  
   128   52  129 1  
   129   53  130 1  
   130   56  131 1  
   131   56  132 1  
   132   57  133 1  
   133   57  134 1  
   134   58  135 1  
   135   58  136 1  
   136   59  137 1  
   137   59  138 1  
   138   60  139 1  
   139   60  140 1  
   140   60  141 1  
   141   61  142 1  
   142   62  143 1  
   143   65  144 1  
   144   65  145 1  
   145   66  146 1  
@<TRIPOS>SUBSTRUCTURE
     1 THR         1

