5zku_ligand
  -I-interpret- 

 42 44  0  0  0  0  0  0  0  0999 V2000
   -4.9320   19.5580   39.8450 C   0  0  0  0  0
   -6.3300   20.2120   39.6780 C   0  0  0  0  0
   -4.4840   19.2260   38.4000 C   0  0  0  0  0
   -5.8930   16.3130   41.6680 C   0  0  0  0  0
   -7.3740   17.9680   40.3360 C   0  0  0  0  0
   -5.4510   19.9900   37.4920 C   0  0  0  0  0
   -7.4330   19.3870   40.0930 O   0  0  0  0  0
   -6.5510   21.4350   40.5660 C   0  0  0  0  0
   -5.4230   22.2770   40.5440 O   0  0  0  0  0
   -6.3870   20.7280   38.3450 O   0  0  0  0  0
   -6.2160   19.0040   36.6110 C   0  0  0  0  0
   -7.1880   19.7210   35.8640 O   0  0  0  0  0
   -3.1640   19.6460   38.1500 O   0  0  0  0  0
   -4.9420   18.4070   40.7700 O   0  0  0  0  0
   -5.9650   17.3820   40.5690 C   0  0  0  0  0
   -5.5530   16.6230   39.4290 O   0  0  0  0  0
   -6.0260   15.2780   39.5170 C   0  0  0  0  0
   -7.1890   15.2140   38.5350 C   0  0  0  0  0
   -6.7920   14.2020   37.6620 O   0  0  0  0  0
   -6.4270   15.0870   40.9770 C   0  0  0  0  0
   -5.7430   13.9730   41.5020 O   0  0  0  0  0
   -6.7030   16.5750   42.8370 O   0  0  0  0  0
   -4.2144   20.2228   40.3258 H   0  0  0  0  0
   -4.5019   18.1499   38.2275 H   0  0  0  0  0
   -4.8764   16.2462   42.0556 H   0  0  0  0  0
   -7.7622   17.4864   39.4385 H   0  0  0  0  0
   -7.9360   17.7899   41.2528 H   0  0  0  0  0
   -4.9049   20.6796   36.8483 H   0  0  0  0  0
   -6.7211   21.1009   41.5895 H   0  0  0  0  0
   -7.4119   21.9899   40.1932 H   0  0  0  0  0
   -5.5821   23.0380   41.1072 H   0  0  0  0  0
   -6.7055   18.2543   37.2327 H   0  0  0  0  0
   -5.5263   18.4998   35.9340 H   0  0  0  0  0
   -7.6754   19.1105   35.3060 H   0  0  0  0  0
   -2.5622   19.1639   38.7219 H   0  0  0  0  0
   -5.3182   14.4893   39.2619 H   0  0  0  0  0
   -7.3757   16.1628   38.0320 H   0  0  0  0  0
   -8.1448   15.0106   39.0179 H   0  0  0  0  0
   -7.4665   14.0775   36.9903 H   0  0  0  0  0
   -7.5005   14.9421   41.0986 H   0  0  0  0  0
   -5.9927   13.8494   42.4207 H   0  0  0  0  0
   -6.5956   15.8582   43.4665 H   0  0  0  0  0
  2  1  1  0  0  0
  1  3  1  0  0  0
  1 14  1  0  0  0
  7  2  1  0  0  0
  2  8  1  0  0  0
  2 10  1  0  0  0
  3  6  1  0  0  0
  3 13  1  0  0  0
 15  4  1  0  0  0
  4 20  1  0  0  0
  4 22  1  0  0  0
  5  7  1  0  0  0
  5 15  1  0  0  0
  6 10  1  0  0  0
  6 11  1  0  0  0
  8  9  1  0  0  0
 11 12  1  0  0  0
 14 15  1  0  0  0
 15 16  1  0  0  0
 16 17  1  0  0  0
 17 18  1  0  0  0
 17 20  1  0  0  0
 18 19  1  0  0  0
 20 21  1  0  0  0
  1 23  1  0  0  0
  3 24  1  0  0  0
  4 25  1  0  0  0
  5 26  1  0  0  0
  5 27  1  0  0  0
  6 28  1  0  0  0
  8 29  1  0  0  0
  8 30  1  0  0  0
  9 31  1  0  0  0
 11 32  1  0  0  0
 11 33  1  0  0  0
 12 34  1  0  0  0
 13 35  1  0  0  0
 17 36  1  0  0  0
 18 37  1  0  0  0
 18 38  1  0  0  0
 19 39  1  0  0  0
 20 40  1  0  0  0
 21 41  1  0  0  0
 22 42  1  0  0  0
M  END
$$$$
