4lxk_ligand
  -I-interpret- 

 76 78  0  0  0  0  0  0  0  0999 V2000
   31.7580    8.1790   20.6320 F   0  0  0  0  0
   30.5230    8.6360   20.9560 C   0  0  0  0  0
   29.9180    7.7100   21.7460 F   0  0  0  0  0
   30.6600    9.8010   21.6280 F   0  0  0  0  0
   29.7130    8.9060   19.6650 C   0  0  0  0  0
   30.3950    9.9360   18.9140 O   0  0  0  0  0
   30.7180    9.7200   17.5800 C   0  0  0  0  0
   30.3650   10.7000   16.6190 C   0  0  0  0  0
   30.6850   10.4850   15.2530 C   0  0  0  0  0
   31.3510    9.3020   14.8540 C   0  0  0  0  0
   31.6980    8.3200   15.8220 C   0  0  0  0  0
   31.3830    8.5400   17.1790 C   0  0  0  0  0
   32.3930    7.0070   15.4210 C   0  0  0  0  0
   31.4080    6.0450   14.6610 C   0  0  0  0  0
   32.0130    4.6650   14.2640 C   0  0  0  0  0
   31.0590    3.8290   13.3490 C   0  0  0  0  0
   29.6410    3.5810   13.9460 C   0  0  0  0  0
   28.8100    5.1100   14.3990 S   0  0  0  0  0
   30.0730    5.8260   15.4540 C   0  0  0  0  0
   28.7390    5.9950   13.1830 O   0  0  0  0  0
   31.6480    2.5000   13.0080 N   0  3  0  0  0
   31.0950    1.6420   11.9140 C   0  0  0  0  0
   30.9710    2.4560   10.6080 C   0  0  0  0  0
   32.1370    2.8960    9.9390 C   0  0  0  0  0
   32.0940    3.6550    8.7320 C   0  0  0  0  0
   30.7900    3.9490    8.2270 C   0  0  0  0  0
   29.6090    3.5190    8.8770 C   0  0  0  0  0
   29.6940    2.7670   10.0730 C   0  0  0  0  0
   33.4160    4.1250    8.0270 C   0  0  0  0  0
   34.3920    2.9200    7.9000 C   0  0  0  0  0
   33.2440    4.7170    6.5850 C   0  0  0  0  0
   34.1300    5.2460    8.8520 C   0  0  0  0  0
   33.2390    4.8120   13.5390 O   0  0  0  0  0
   30.3550   11.3960   14.3410 F   0  0  0  0  0
   29.7250   11.8310   17.0040 N   0  0  0  0  0
   28.2310    9.2670   19.9690 C   0  0  0  0  0
   27.5420    9.5200   18.7300 O   0  0  0  0  0
   26.1180    9.6780   18.8880 C   0  0  0  0  0
   29.6632    7.9982   19.0637 H   0  0  0  0  0
   31.5981    9.1435   13.8043 H   0  0  0  0  0
   31.6550    7.7931   17.9248 H   0  0  0  0  0
   32.7358    6.5064   16.3265 H   0  0  0  0  0
   33.2252    7.2443   14.7582 H   0  0  0  0  0
   31.2007    6.5702   13.7287 H   0  0  0  0  0
   32.1739    4.1510   15.2116 H   0  0  0  0  0
   30.9453    4.4482   12.4592 H   0  0  0  0  0
   29.7555    2.9797   14.8479 H   0  0  0  0  0
   29.0384    3.0820   13.1871 H   0  0  0  0  0
   29.7196    6.7908   15.8179 H   0  0  0  0  0
   30.2655    5.1439   16.2821 H   0  0  0  0  0
   28.2969    6.8159   13.4115 H   0  0  0  0  0
   31.4899    1.9456   13.8495 H   0  0  0  0  0
   32.5855    2.7314   12.6794 H   0  0  0  0  0
   30.1077    1.2841   12.2061 H   0  0  0  0  0
   31.7670    0.8002   11.7470 H   0  0  0  0  0
   33.1090    2.6446   10.3635 H   0  0  0  0  0
   30.7018    4.5261    7.3066 H   0  0  0  0  0
   28.6342    3.7668    8.4568 H   0  0  0  0  0
   28.7884    2.4304   10.5777 H   0  0  0  0  0
   34.6254    2.5369    8.8934 H   0  0  0  0  0
   33.9226    2.1348    7.3074 H   0  0  0  0  0
   35.3093    3.2471    7.4105 H   0  0  0  0  0
   32.8014    3.9627    5.9344 H   0  0  0  0  0
   32.5924    5.5898    6.6273 H   0  0  0  0  0
   34.2191    5.0085    6.1946 H   0  0  0  0  0
   33.4640    6.1033    8.9500 H   0  0  0  0  0
   34.3802    4.8636    9.8416 H   0  0  0  0  0
   35.0416    5.5495    8.3372 H   0  0  0  0  0
   33.5813    3.9443   13.3121 H   0  0  0  0  0
   29.4965   11.9782   17.9871 H   0  0  0  0  0
   29.4719   12.5350   16.3106 H   0  0  0  0  0
   28.1926   10.1568   20.5974 H   0  0  0  0  0
   27.7523    8.4387   20.4914 H   0  0  0  0  0
   25.6981    8.7680   19.3166 H   0  0  0  0  0
   25.9185   10.5194   19.5516 H   0  0  0  0  0
   25.6644    9.8657   17.9148 H   0  0  0  0  0
  1  2  1  0  0  0
  2  3  1  0  0  0
  2  4  1  0  0  0
  2  5  1  0  0  0
  5  6  1  0  0  0
  5 36  1  0  0  0
  6  7  1  0  0  0
  7  8  4  0  0  0
  7 12  4  0  0  0
  8  9  4  0  0  0
  8 35  1  0  0  0
  9 10  4  0  0  0
  9 34  1  0  0  0
 10 11  4  0  0  0
 11 12  4  0  0  0
 11 13  1  0  0  0
 13 14  1  0  0  0
 14 15  1  0  0  0
 14 19  1  0  0  0
 15 16  1  0  0  0
 15 33  1  0  0  0
 16 17  1  0  0  0
 16 21  1  0  0  0
 17 18  1  0  0  0
 18 19  1  0  0  0
 18 20  1  0  0  0
 21 22  1  0  0  0
 22 23  1  0  0  0
 23 24  4  0  0  0
 23 28  4  0  0  0
 24 25  4  0  0  0
 25 26  4  0  0  0
 25 29  1  0  0  0
 26 27  4  0  0  0
 27 28  4  0  0  0
 29 30  1  0  0  0
 29 31  1  0  0  0
 29 32  1  0  0  0
 36 37  1  0  0  0
 37 38  1  0  0  0
  5 39  1  0  0  0
 10 40  1  0  0  0
 12 41  1  0  0  0
 13 42  1  0  0  0
 13 43  1  0  0  0
 14 44  1  0  0  0
 15 45  1  0  0  0
 16 46  1  0  0  0
 17 47  1  0  0  0
 17 48  1  0  0  0
 19 49  1  0  0  0
 19 50  1  0  0  0
 20 51  1  0  0  0
 21 52  1  0  0  0
 21 53  1  0  0  0
 22 54  1  0  0  0
 22 55  1  0  0  0
 24 56  1  0  0  0
 26 57  1  0  0  0
 27 58  1  0  0  0
 28 59  1  0  0  0
 30 60  1  0  0  0
 30 61  1  0  0  0
 30 62  1  0  0  0
 31 63  1  0  0  0
 31 64  1  0  0  0
 31 65  1  0  0  0
 32 66  1  0  0  0
 32 67  1  0  0  0
 32 68  1  0  0  0
 33 69  1  0  0  0
 35 70  1  0  0  0
 35 71  1  0  0  0
 36 72  1  0  0  0
 36 73  1  0  0  0
 38 74  1  0  0  0
 38 75  1  0  0  0
 38 76  1  0  0  0
M  END
$$$$
