2z4z_ligand
  -I-interpret- 

 59 58  0  0  0  0  0  0  0  0999 V2000
   35.9680   51.0690    8.5200 C   0  0  0  0  0
   34.4970   51.4970    8.5530 C   0  0  0  0  0
   33.5630   50.2870    8.6430 C   0  0  0  0  0
   32.1030   50.7270    8.7900 C   0  0  0  0  0
   31.1410   49.5490    8.9690 C   0  0  0  0  0
   31.0420   48.7550    7.8290 C   0  0  0  0  0
   29.8070   48.2660    7.4240 C   0  0  0  0  0
   29.7230   47.4710    6.2840 C   0  0  0  0  0
   28.9290   46.1770    6.4910 C   0  0  0  0  0
   29.4610   44.9060    5.2370 P   0  0  0  0  0
   30.9570   44.4510    5.6090 O   0  0  0  0  0
   28.5270   43.6160    5.4830 O   0  0  0  0  0
   29.3500   45.4280    3.8560 O   0  0  0  0  0
   27.1150   46.4610    6.1730 P   0  0  0  0  0
   26.3360   45.1620    6.7120 O   0  0  0  0  0
   26.6880   47.7230    7.0740 O   0  0  0  0  0
   26.8660   46.7260    4.7390 O   0  0  0  0  0
   29.2440   45.5190    7.8390 C   0  0  0  0  0
   28.4900   45.9460    8.9230 C   0  0  0  0  0
   29.1240   46.0020   10.1610 C   0  0  0  0  0
   28.4540   46.3800   11.3170 C   0  0  0  0  0
   28.2730   45.1250   12.1770 C   0  0  0  0  0
   27.7290   45.4010   13.5810 C   0  0  0  0  0
   27.6410   44.0950   14.3730 C   0  0  0  0  0
   27.0790   44.3320   15.7770 C   0  0  0  0  0
   36.2047   50.5163    9.4291 H   0  0  0  0  0
   36.1408   50.4334    7.6515 H   0  0  0  0  0
   36.6012   51.9539    8.4560 H   0  0  0  0  0
   34.2739   52.0380    7.6334 H   0  0  0  0  0
   34.3386   52.1218    9.4320 H   0  0  0  0  0
   33.8393   49.6974    9.5171 H   0  0  0  0  0
   33.6606   49.7022    7.7283 H   0  0  0  0  0
   31.8201   51.2524    7.8778 H   0  0  0  0  0
   32.0318   51.3532    9.6794 H   0  0  0  0  0
   30.1517   49.9550    9.1800 H   0  0  0  0  0
   31.5231   48.9259    9.7776 H   0  0  0  0  0
   31.9363   48.5168    7.2532 H   0  0  0  0  0
   28.9092   48.5030    7.9948 H   0  0  0  0  0
   30.7391   47.1888    6.0084 H   0  0  0  0  0
   29.2059   48.0514    5.5199 H   0  0  0  0  0
   30.9753   44.1218    6.5106 H   0  0  0  0  0
   28.6320   43.3143    6.3883 H   0  0  0  0  0
   26.5317   45.0365    7.6434 H   0  0  0  0  0
   26.8587   47.5273    7.9982 H   0  0  0  0  0
   30.2780   45.7767    8.0682 H   0  0  0  0  0
   29.0262   44.4580    7.7170 H   0  0  0  0  0
   27.4428   46.2264    8.8095 H   0  0  0  0  0
   30.1803   45.7407   10.2250 H   0  0  0  0  0
   27.4857   46.8157   11.0707 H   0  0  0  0  0
   29.0251   47.1338   11.8589 H   0  0  0  0  0
   29.2571   44.6717   12.2963 H   0  0  0  0  0
   27.5475   44.4889   11.6698 H   0  0  0  0  0
   26.7345   45.8399   13.5008 H   0  0  0  0  0
   28.3988   46.0891   14.0967 H   0  0  0  0  0
   28.6437   43.6781   14.4667 H   0  0  0  0  0
   26.9757   43.4127   13.8438 H   0  0  0  0  0
   27.7291   45.0215   16.3156 H   0  0  0  0  0
   26.0791   44.7590   15.6994 H   0  0  0  0  0
   27.0300   43.3837   16.3122 H   0  0  0  0  0
  1  2  1  0  0  0
  2  3  1  0  0  0
  3  4  1  0  0  0
  4  5  1  0  0  0
  5  6  1  0  0  0
  6  7  2  0  0  0
  7  8  1  0  0  0
  8  9  1  0  0  0
  9 10  1  0  0  0
  9 14  1  0  0  0
  9 18  1  0  0  0
 10 11  1  0  0  0
 10 12  1  0  0  0
 10 13  2  0  0  0
 14 15  1  0  0  0
 14 16  1  0  0  0
 14 17  2  0  0  0
 18 19  1  0  0  0
 19 20  2  0  0  0
 20 21  1  0  0  0
 21 22  1  0  0  0
 22 23  1  0  0  0
 23 24  1  0  0  0
 24 25  1  0  0  0
  1 26  1  0  0  0
  1 27  1  0  0  0
  1 28  1  0  0  0
  2 29  1  0  0  0
  2 30  1  0  0  0
  3 31  1  0  0  0
  3 32  1  0  0  0
  4 33  1  0  0  0
  4 34  1  0  0  0
  5 35  1  0  0  0
  5 36  1  0  0  0
  6 37  1  0  0  0
  7 38  1  0  0  0
  8 39  1  0  0  0
  8 40  1  0  0  0
 11 41  1  0  0  0
 12 42  1  0  0  0
 15 43  1  0  0  0
 16 44  1  0  0  0
 18 45  1  0  0  0
 18 46  1  0  0  0
 19 47  1  0  0  0
 20 48  1  0  0  0
 21 49  1  0  0  0
 21 50  1  0  0  0
 22 51  1  0  0  0
 22 52  1  0  0  0
 23 53  1  0  0  0
 23 54  1  0  0  0
 24 55  1  0  0  0
 24 56  1  0  0  0
 25 57  1  0  0  0
 25 58  1  0  0  0
 25 59  1  0  0  0
M  END
$$$$
