### 
### Created by X-TOOL on Mon Sep 10 21:12:57 2018
### 

@<TRIPOS>MOLECULE
2z4z_ligand
   55    54     1     0     0
SMALL
GAST_HUCK


@<TRIPOS>ATOM
      1 CAA        35.9680   51.0690    8.5200 C.3       1 SC0        -0.0653
      2 CAM        34.4970   51.4970    8.5530 C.3       1 SC0        -0.0558
      3 CAS        33.5630   50.2870    8.6430 C.3       1 SC0        -0.0518
      4 CAU        32.1030   50.7270    8.7900 C.3       1 SC0        -0.0464
      5 CAO        31.1410   49.5490    8.9690 C.3       1 SC0        -0.0365
      6 CAI        31.0420   48.7550    7.8290 C.2       1 SC0        -0.0985
      7 CAK        29.8070   48.2660    7.4240 C.2       1 SC0        -0.0953
      8 CAQ        29.7230   47.4710    6.2840 C.3       1 SC0         0.0012
      9 CAW        28.9290   46.1770    6.4910 C.3       1 SC0         0.1232
     10 PAX        29.4610   44.9060    5.2370 P.3       1 SC0         0.0848
     11 OAE        30.9570   44.4510    5.6090 O.co2     1 SC0        -0.5607
     12 OAF        28.5270   43.6160    5.4830 O.co2     1 SC0        -0.5607
     13 OAC        29.3500   45.4280    3.8560 O.co2     1 SC0        -0.5607
     14 PAY        27.1150   46.4610    6.1730 P.3       1 SC0         0.0848
     15 OAG        26.3360   45.1620    6.7120 O.co2     1 SC0        -0.5607
     16 OAH        26.6880   47.7230    7.0740 O.co2     1 SC0        -0.5607
     17 OAD        26.8660   46.7260    4.7390 O.co2     1 SC0        -0.5607
     18 CAR        29.2440   45.5190    7.8390 C.3       1 SC0         0.0012
     19 CAL        28.4900   45.9460    8.9230 C.2       1 SC0        -0.0953
     20 CAJ        29.1240   46.0020   10.1610 C.2       1 SC0        -0.0985
     21 CAP        28.4540   46.3800   11.3170 C.3       1 SC0        -0.0365
     22 CAV        28.2730   45.1250   12.1770 C.3       1 SC0        -0.0464
     23 CAT        27.7290   45.4010   13.5810 C.3       1 SC0        -0.0518
     24 CAN        27.6410   44.0950   14.3730 C.3       1 SC0        -0.0558
     25 CAB        27.0790   44.3320   15.7770 C.3       1 SC0        -0.0653
     26 H1         36.6081   51.9613    8.4554 H         1 SC0         0.0230
     27 H2         36.1437   50.4275    7.6439 H         1 SC0         0.0230
     28 H3         36.2082   50.5111    9.4371 H         1 SC0         0.0230
     29 H4         34.2673   52.0584    7.6354 H         1 SC0         0.0263
     30 H5         34.3318   52.1420    9.4286 H         1 SC0         0.0263
     31 H6         33.8448   49.6798    9.5158 H         1 SC0         0.0267
     32 H7         33.6663   49.6846    7.7284 H         1 SC0         0.0267
     33 H8         31.8116   51.2841    7.8873 H         1 SC0         0.0285
     34 H9         32.0210   51.3837    9.6686 H         1 SC0         0.0285
     35 H10        30.1430   49.9437    9.2101 H         1 SC0         0.0388
     36 H11        31.4997   48.9257    9.8013 H         1 SC0         0.0388
     37 H12        31.9355   48.5170    7.2537 H         1 SC0         0.0450
     38 H13        28.9100   48.5028    7.9943 H         1 SC0         0.0451
     39 H14        30.7433   47.2056    5.9700 H         1 SC0         0.0423
     40 H15        29.2348   48.0543    5.4893 H         1 SC0         0.0423
     41 H16        30.3017   45.7151    8.0686 H         1 SC0         0.0423
     42 H17        29.0875   44.4359    7.7279 H         1 SC0         0.0423
     43 H18        27.4438   46.2262    8.8096 H         1 SC0         0.0451
     44 H19        30.1793   45.7410   10.2250 H         1 SC0         0.0450
     45 H20        27.4720   46.8038   11.0602 H         1 SC0         0.0388
     46 H21        29.0445   47.1288   11.8653 H         1 SC0         0.0388
     47 H22        29.2507   44.6308   12.2766 H         1 SC0         0.0285
     48 H23        27.5725   44.4514   11.6617 H         1 SC0         0.0285
     49 H24        26.7269   45.8477   13.5023 H         1 SC0         0.0267
     50 H25        28.4015   46.0984   14.1019 H         1 SC0         0.0267
     51 H26        28.6475   43.6596   14.4589 H         1 SC0         0.0263
     52 H27        26.9831   43.3949   13.8373 H         1 SC0         0.0263
     53 H28        27.0290   43.3756   16.3182 H         1 SC0         0.0230
     54 H29        26.0698   44.7629   15.7001 H         1 SC0         0.0230
     55 H30        27.7343   45.0277   16.3217 H         1 SC0         0.0230
@<TRIPOS>BOND
     1    1    2 1  
     2    2    3 1  
     3    3    4 1  
     4    4    5 1  
     5    5    6 1  
     6    6    7 2  
     7    7    8 1  
     8    8    9 1  
     9    9   10 1  
    10    9   14 1  
    11    9   18 1  
    12   10   11 ar 
    13   10   12 ar 
    14   10   13 ar 
    15   14   15 ar 
    16   14   16 ar 
    17   14   17 ar 
    18   18   19 1  
    19   19   20 2  
    20   20   21 1  
    21   21   22 1  
    22   22   23 1  
    23   23   24 1  
    24   24   25 1  
    25    1   26 1  
    26    1   27 1  
    27    1   28 1  
    28    2   29 1  
    29    2   30 1  
    30    3   31 1  
    31    3   32 1  
    32    4   33 1  
    33    4   34 1  
    34    5   35 1  
    35    5   36 1  
    36    6   37 1  
    37    7   38 1  
    38    8   39 1  
    39    8   40 1  
    40   18   41 1  
    41   18   42 1  
    42   19   43 1  
    43   20   44 1  
    44   21   45 1  
    45   21   46 1  
    46   22   47 1  
    47   22   48 1  
    48   23   49 1  
    49   23   50 1  
    50   24   51 1  
    51   24   52 1  
    52   25   53 1  
    53   25   54 1  
    54   25   55 1  
@<TRIPOS>SUBSTRUCTURE
     1 SC0         1

