6fvo_ligand
  -I-interpret- 

103104  0  0  0  0  0  0  0  0999 V2000
   -0.7690  -23.3460   22.6810 C   0  0  0  0  0
    0.0940  -23.5460   23.4810 O   0  0  0  0  0
   -1.4190  -24.4900   21.9430 C   0  0  0  0  0
   -1.2190  -22.1300   22.3750 N   0  0  0  0  0
   -0.7050  -20.9090   22.9890 C   0  0  0  0  0
   -0.9120  -20.9310   24.5020 C   0  0  0  0  0
   -1.9170  -21.4450   24.9940 O   0  0  0  0  0
   -1.3810  -19.6770   22.3770 C   0  0  0  0  0
   -0.7800  -18.3460   22.8100 C   0  0  0  0  0
    0.5770  -18.0850   22.1850 C   0  0  0  0  0
    0.7330  -18.1400   20.9650 O   0  0  0  0  0
    1.5700  -17.8010   23.0210 N   0  0  0  0  0
    0.0460  -20.3710   25.2330 N   0  0  0  0  0
    0.0210  -20.3960   26.7060 C   0  0  0  0  0
   -0.3220  -18.9620   27.1530 C   0  0  0  0  0
   -0.0470  -17.9910   26.4780 O   0  0  0  0  0
    1.3660  -20.7780   27.3270 C   0  0  0  0  0
    1.4880  -22.2470   27.7320 C   0  0  0  0  0
    0.5510  -23.1490   26.9350 C   0  0  0  0  0
    0.6810  -24.6130   27.3400 C   0  0  0  0  0
    2.1090  -25.0930   27.1890 C   0  0  0  0  0
    3.0580  -24.2190   27.9820 C   0  0  0  0  0
    2.9190  -22.7530   27.5850 C   0  0  0  0  0
   -0.9340  -18.8640   28.3300 N   0  0  0  0  0
   -1.4210  -17.5880   28.8480 C   0  0  0  0  0
   -0.6080  -17.0530   30.0210 C   0  0  0  0  0
   -0.0940  -17.8230   30.8290 O   0  0  0  0  0
   -2.8880  -17.7290   29.2710 C   0  0  0  0  0
   -3.8200  -17.9450   28.0910 C   0  0  0  0  0
   -3.3420  -18.3490   27.0150 O   0  0  0  0  0
   -5.0350  -17.7090   28.2440 O   0  0  0  0  0
   -0.5070  -15.7230   30.1040 N   0  0  0  0  0
    0.1600  -15.0970   31.2410 C   0  0  0  0  0
   -0.6560  -15.2560   32.5180 C   0  0  0  0  0
   -0.1000  -15.5250   33.5890 O   0  0  0  0  0
    0.4090  -13.6160   30.9590 C   0  0  0  0  0
    1.8180  -13.1720   30.5780 C   0  0  0  0  0
    2.1290  -13.5930   29.1580 C   0  0  0  0  0
    1.9370  -11.6660   30.7220 C   0  0  0  0  0
   -1.9710  -15.0830   32.4260 N   0  0  0  0  0
   -2.8410  -15.1740   33.5910 C   0  0  0  0  0
   -4.2160  -15.7230   33.2210 C   0  0  0  0  0
   -4.6540  -16.7750   33.6980 O   0  0  0  0  0
   -2.9790  -13.8000   34.2690 C   0  0  0  0  0
   -3.2000  -12.6470   33.3110 C   0  0  0  0  0
   -4.4760  -12.1730   33.0440 C   0  0  0  0  0
   -2.1240  -12.0150   32.7070 C   0  0  0  0  0
   -4.6710  -11.1040   32.1800 C   0  0  0  0  0
   -2.3140  -10.9560   31.8410 C   0  0  0  0  0
   -3.5870  -10.5010   31.5760 C   0  0  0  0  0
   -4.9180  -15.1210   32.4220 O   0  0  0  0  0
   -0.6624  -25.0301   21.3738 H   0  0  0  0  0
   -1.8863  -25.1647   22.6603 H   0  0  0  0  0
   -2.1763  -24.0989   21.2636 H   0  0  0  0  0
   -1.9588  -22.0479   21.6776 H   0  0  0  0  0
    0.3657  -20.8550   22.7920 H   0  0  0  0  0
   -2.4181  -19.6827   22.7123 H   0  0  0  0  0
   -1.2547  -19.7476   21.2966 H   0  0  0  0  0
   -0.6502  -18.3738   23.8919 H   0  0  0  0  0
   -1.4550  -17.5534   22.4871 H   0  0  0  0  0
    2.5056  -17.6182   22.6582 H   0  0  0  0  0
    1.3966  -17.7658   24.0255 H   0  0  0  0  0
    0.8228  -19.9095   24.7597 H   0  0  0  0  0
   -0.7013  -21.1446   27.0317 H   0  0  0  0  0
    1.4745  -20.1878   28.2370 H   0  0  0  0  0
    2.1288  -20.5929   26.5707 H   0  0  0  0  0
    1.1978  -22.2919   28.7817 H   0  0  0  0  0
    0.8129  -23.0637   25.8804 H   0  0  0  0  0
   -0.4734  -22.8321   27.1305 H   0  0  0  0  0
    0.0403  -25.2128   26.6937 H   0  0  0  0  0
    0.3866  -24.7143   28.3846 H   0  0  0  0  0
    2.3856  -25.0460   26.1357 H   0  0  0  0  0
    2.1773  -26.1146   27.5628 H   0  0  0  0  0
    4.0795  -24.5396   27.7776 H   0  0  0  0  0
    2.8189  -24.3170   29.0409 H   0  0  0  0  0
    3.5559  -22.1624   28.2435 H   0  0  0  0  0
    3.2056  -22.6576   26.5377 H   0  0  0  0  0
   -1.0675  -19.7069   28.8887 H   0  0  0  0  0
   -1.3154  -16.8670   28.0374 H   0  0  0  0  0
   -3.1839  -16.8043   29.7664 H   0  0  0  0  0
   -2.9663  -18.5990   29.9230 H   0  0  0  0  0
   -5.1910  -17.4095   29.1426 H   0  0  0  0  0
   -0.9000  -15.1397   29.3653 H   0  0  0  0  0
    1.1164  -15.5995   31.3858 H   0  0  0  0  0
    0.1955  -13.1079   31.8994 H   0  0  0  0  0
   -0.2066  -13.3849   30.0897 H   0  0  0  0  0
    2.5369  -13.6476   31.2452 H   0  0  0  0  0
    2.0612  -14.6780   29.0790 H   0  0  0  0  0
    1.4118  -13.1325   28.4785 H   0  0  0  0  0
    3.1371  -13.2707   28.8974 H   0  0  0  0  0
    1.2150  -11.1813   30.0649 H   0  0  0  0  0
    1.7360  -11.3841   31.7556 H   0  0  0  0  0
    2.9452  -11.3547   30.4486 H   0  0  0  0  0
   -2.3821  -14.8810   31.5146 H   0  0  0  0  0
   -2.3815  -15.8697   34.2932 H   0  0  0  0  0
   -4.0083  -17.1427   34.3058 H   0  0  0  0  0
   -2.0422  -13.6061   34.7913 H   0  0  0  0  0
   -3.8546  -13.8498   34.9162 H   0  0  0  0  0
   -5.3361  -12.6456   33.5184 H   0  0  0  0  0
   -1.1118  -12.3594   32.9190 H   0  0  0  0  0
   -5.6792  -10.7416   31.9791 H   0  0  0  0  0
   -1.4559  -10.4798   31.3668 H   0  0  0  0  0
   -3.7374   -9.6667   30.8909 H   0  0  0  0  0
  1  2  2  0  0  0
  1  3  1  0  0  0
  1  4  1  0  0  0
  4  5  1  0  0  0
  5  6  1  0  0  0
  5  8  1  0  0  0
  6  7  2  0  0  0
  6 13  1  0  0  0
  8  9  1  0  0  0
  9 10  1  0  0  0
 10 11  2  0  0  0
 10 12  1  0  0  0
 13 14  1  0  0  0
 14 15  1  0  0  0
 14 17  1  0  0  0
 15 16  2  0  0  0
 15 24  1  0  0  0
 17 18  1  0  0  0
 18 19  1  0  0  0
 18 23  1  0  0  0
 19 20  1  0  0  0
 20 21  1  0  0  0
 21 22  1  0  0  0
 22 23  1  0  0  0
 24 25  1  0  0  0
 25 26  1  0  0  0
 25 28  1  0  0  0
 26 27  2  0  0  0
 26 32  1  0  0  0
 28 29  1  0  0  0
 29 30  2  0  0  0
 29 31  1  0  0  0
 32 33  1  0  0  0
 33 34  1  0  0  0
 33 36  1  0  0  0
 34 35  2  0  0  0
 34 40  1  0  0  0
 36 37  1  0  0  0
 37 38  1  0  0  0
 37 39  1  0  0  0
 40 41  1  0  0  0
 41 42  1  0  0  0
 41 44  1  0  0  0
 42 43  1  0  0  0
 42 51  2  0  0  0
 44 45  1  0  0  0
 45 46  4  0  0  0
 45 47  4  0  0  0
 46 48  4  0  0  0
 47 49  4  0  0  0
 48 50  4  0  0  0
 49 50  4  0  0  0
  3 52  1  0  0  0
  3 53  1  0  0  0
  3 54  1  0  0  0
  4 55  1  0  0  0
  5 56  1  0  0  0
  8 57  1  0  0  0
  8 58  1  0  0  0
  9 59  1  0  0  0
  9 60  1  0  0  0
 12 61  1  0  0  0
 12 62  1  0  0  0
 13 63  1  0  0  0
 14 64  1  0  0  0
 17 65  1  0  0  0
 17 66  1  0  0  0
 18 67  1  0  0  0
 19 68  1  0  0  0
 19 69  1  0  0  0
 20 70  1  0  0  0
 20 71  1  0  0  0
 21 72  1  0  0  0
 21 73  1  0  0  0
 22 74  1  0  0  0
 22 75  1  0  0  0
 23 76  1  0  0  0
 23 77  1  0  0  0
 24 78  1  0  0  0
 25 79  1  0  0  0
 28 80  1  0  0  0
 28 81  1  0  0  0
 31 82  1  0  0  0
 32 83  1  0  0  0
 33 84  1  0  0  0
 36 85  1  0  0  0
 36 86  1  0  0  0
 37 87  1  0  0  0
 38 88  1  0  0  0
 38 89  1  0  0  0
 38 90  1  0  0  0
 39 91  1  0  0  0
 39 92  1  0  0  0
 39 93  1  0  0  0
 40 94  1  0  0  0
 41 95  1  0  0  0
 43 96  1  0  0  0
 44 97  1  0  0  0
 44 98  1  0  0  0
 46 99  1  0  0  0
 47100  1  0  0  0
 48101  1  0  0  0
 49102  1  0  0  0
 50103  1  0  0  0
M  END
$$$$
