### 
### Created by X-TOOL on Mon Aug  2 16:10:45 2021
### 

@<TRIPOS>MOLECULE
6fvo_ligand
  101   102     1     0     0
SMALL
GAST_HUCK


@<TRIPOS>ATOM
      1 C          -0.7690  -23.3460   22.6810 C.2       1 ACE         0.1751
      2 O           0.0940  -23.5460   23.4810 O.2       1 ACE        -0.3972
      3 CH3        -1.4190  -24.4900   21.9430 C.3       1 ACE         0.0258
      4 N          -1.2190  -22.1300   22.3750 N.am      1 ACE        -0.2657
      5 CA         -0.7050  -20.9090   22.9890 C.3       1 ACE         0.1329
      6 C          -0.9120  -20.9310   24.5020 C.2       1 ACE         0.2040
      7 O          -1.9170  -21.4450   24.9940 O.2       1 ACE        -0.3944
      8 CB         -1.3810  -19.6770   22.3770 C.3       1 ACE         0.0045
      9 CG         -0.7800  -18.3460   22.8100 C.3       1 ACE         0.0412
     10 CD          0.5770  -18.0850   22.1850 C.2       1 ACE         0.1737
     11 OE1         0.7330  -18.1400   20.9650 O.2       1 ACE        -0.3973
     12 NE2         1.5700  -17.8010   23.0210 N.am      1 ACE        -0.3009
     13 N           0.0460  -20.3710   25.2330 N.am      1 ACE        -0.2637
     14 CA          0.0210  -20.3960   26.7060 C.3       1 ACE         0.1312
     15 C          -0.3220  -18.9620   27.1530 C.2       1 ACE         0.2040
     16 O          -0.0470  -17.9910   26.4780 O.2       1 ACE        -0.3944
     17 CB          1.3660  -20.7780   27.3270 C.3       1 ACE        -0.0096
     18 CG          1.4880  -22.2470   27.7320 C.3       1 ACE        -0.0368
     19 CD2         0.5510  -23.1490   26.9350 C.3       1 ACE        -0.0500
     20 CE2         0.6810  -24.6130   27.3400 C.3       1 ACE        -0.0528
     21 CZ          2.1090  -25.0930   27.1890 C.3       1 ACE        -0.0530
     22 CE1         3.0580  -24.2190   27.9820 C.3       1 ACE        -0.0528
     23 CD1         2.9190  -22.7530   27.5850 C.3       1 ACE        -0.0500
     24 N          -0.9340  -18.8640   28.3300 N.am      1 ACE        -0.2622
     25 CA         -1.4210  -17.5880   28.8480 C.3       1 ACE         0.1423
     26 C          -0.6080  -17.0530   30.0210 C.2       1 ACE         0.2056
     27 O          -0.0940  -17.8230   30.8290 O.2       1 ACE        -0.3943
     28 CB         -2.8880  -17.7290   29.2710 C.3       1 ACE         0.0406
     29 CG         -3.8200  -17.9450   28.0910 C.2       1 ACE         0.0393
     30 OD1        -3.3420  -18.3490   27.0150 O.co2     1 ACE        -0.5688
     31 OD2        -5.0350  -17.7090   28.2440 O.co2     1 ACE        -0.5688
     32 N          -0.5070  -15.7230   30.1040 N.am      1 ACE        -0.2636
     33 CA          0.1600  -15.0970   31.2410 C.3       1 ACE         0.1312
     34 C          -0.6560  -15.2560   32.5180 C.2       1 ACE         0.2035
     35 O          -0.1000  -15.5250   33.5890 O.2       1 ACE        -0.3944
     36 CB          0.4090  -13.6160   30.9590 C.3       1 ACE        -0.0101
     37 CG          1.8180  -13.1720   30.5780 C.3       1 ACE        -0.0425
     38 CD1         2.1290  -13.5930   29.1580 C.3       1 ACE        -0.0625
     39 CD2         1.9370  -11.6660   30.7220 C.3       1 ACE        -0.0625
     40 N          -1.9710  -15.0830   32.4260 N.am      1 ACE        -0.2677
     41 CA         -2.8410  -15.1740   33.5910 C.3       1 ACE         0.1039
     42 C          -4.2160  -15.7230   33.2210 C.2       1 ACE         0.0621
     43 O          -4.6540  -16.7750   33.6980 O.co2     1 ACE        -0.5664
     44 CB         -2.9790  -13.8000   34.2690 C.3       1 ACE         0.0159
     45 CG         -3.2000  -12.6470   33.3110 C.ar      1 ACE        -0.0392
     46 CD1        -4.4760  -12.1730   33.0440 C.ar      1 ACE        -0.0602
     47 CD2        -2.1240  -12.0150   32.7070 C.ar      1 ACE        -0.0602
     48 CE1        -4.6710  -11.1040   32.1800 C.ar      1 ACE        -0.0686
     49 CE2        -2.3140  -10.9560   31.8410 C.ar      1 ACE        -0.0686
     50 CZ         -3.5870  -10.5010   31.5760 C.ar      1 ACE        -0.0687
     51 OXT        -4.9180  -15.1210   32.4220 O.co2     1 ACE        -0.5664
     52 H1         -2.1835  -24.0965   21.2569 H         1 ACE         0.0467
     53 H2         -1.8910  -25.1717   22.6658 H         1 ACE         0.0467
     54 H3         -0.6565  -25.0359   21.3681 H         1 ACE         0.0467
     55 H4         -1.9443  -22.0495   21.6913 H         1 ACE         0.1883
     56 H5          0.3748  -20.8490   22.7882 H         1 ACE         0.0801
     57 H6         -2.4414  -19.6863   22.6692 H         1 ACE         0.0337
     58 H7         -1.3016  -19.7498   21.2823 H         1 ACE         0.0337
     59 H8         -0.6684  -18.3497   23.9043 H         1 ACE         0.0504
     60 H9         -1.4649  -17.5378   22.5140 H         1 ACE         0.0504
     61 H10         2.4868  -17.6199   22.6652 H         1 ACE         0.1814
     62 H11         1.4005  -17.7684   24.0060 H         1 ACE         0.1814
     63 H12         0.8076  -19.9185   24.7690 H         1 ACE         0.1883
     64 H13        -0.7488  -21.1030   27.0490 H         1 ACE         0.0800
     65 H14         1.5162  -20.1613   28.2254 H         1 ACE         0.0315
     66 H15         2.1566  -20.5577   26.5946 H         1 ACE         0.0315
     67 H16         1.2074  -22.3210   28.7930 H         1 ACE         0.0303
     68 H17         0.7919  -23.0542   25.8659 H         1 ACE         0.0268
     69 H18        -0.4857  -22.8242   27.1075 H         1 ACE         0.0268
     70 H19         0.0269  -25.2229   26.6995 H         1 ACE         0.0265
     71 H20         0.3733  -24.7244   28.3902 H         1 ACE         0.0265
     72 H21         2.3904  -25.0586   26.1262 H         1 ACE         0.0265
     73 H22         2.1819  -26.1280   27.5543 H         1 ACE         0.0265
     74 H23         4.0909  -24.5459   27.7916 H         1 ACE         0.0265
     75 H24         2.8318  -24.3236   29.0534 H         1 ACE         0.0265
     76 H25         3.5758  -22.1486   28.2279 H         1 ACE         0.0268
     77 H26         3.2282  -22.6399   26.5354 H         1 ACE         0.0268
     78 H27        -1.0649  -19.6904   28.8777 H         1 ACE         0.1884
     79 H28        -1.3604  -16.8512   28.0335 H         1 ACE         0.0819
     80 H29        -3.1925  -16.8119   29.7966 H         1 ACE         0.0478
     81 H30        -2.9770  -18.5885   29.9517 H         1 ACE         0.0478
     82 H31        -0.8923  -15.1511   29.3798 H         1 ACE         0.1883
     83 H32         1.1309  -15.5929   31.3872 H         1 ACE         0.0800
     84 H33         0.1287  -13.0615   31.8667 H         1 ACE         0.0315
     85 H34        -0.2567  -13.3269   30.1324 H         1 ACE         0.0315
     86 H35         2.5391  -13.6521   31.2559 H         1 ACE         0.0298
     87 H36         3.1462  -13.2683   28.8938 H         1 ACE         0.0232
     88 H37         1.4059  -13.1288   28.4712 H         1 ACE         0.0232
     89 H38         2.0610  -14.6879   29.0769 H         1 ACE         0.0232
     90 H39         1.7080  -11.3776   31.7585 H         1 ACE         0.0232
     91 H40         1.2275  -11.1752   30.0396 H         1 ACE         0.0232
     92 H41         2.9617  -11.3536   30.4723 H         1 ACE         0.0232
     93 H42        -2.3740  -14.8850   31.5325 H         1 ACE         0.1877
     94 H43        -2.3783  -15.8677   34.3084 H         1 ACE         0.0749
     95 H44        -2.0580  -13.6030   34.8373 H         1 ACE         0.0467
     96 H45        -3.8341  -13.8418   34.9596 H         1 ACE         0.0467
     97 H46        -5.3313  -12.6430   33.5157 H         1 ACE         0.0557
     98 H47        -1.1174  -12.3575   32.9178 H         1 ACE         0.0557
     99 H48        -5.6736  -10.7436   31.9802 H         1 ACE         0.0599
    100 H49        -1.4606  -10.4824   31.3694 H         1 ACE         0.0599
    101 H50        -3.7366   -9.6713   30.8946 H         1 ACE         0.0559
@<TRIPOS>BOND
     1    1    2 2  
     2    1    3 1  
     3    1    4 am 
     4    4    5 1  
     5    5    6 1  
     6    5    8 1  
     7    6    7 2  
     8    6   13 am 
     9    8    9 1  
    10    9   10 1  
    11   10   11 2  
    12   10   12 am 
    13   13   14 1  
    14   14   15 1  
    15   14   17 1  
    16   15   16 2  
    17   15   24 am 
    18   17   18 1  
    19   18   19 1  
    20   18   23 1  
    21   19   20 1  
    22   20   21 1  
    23   21   22 1  
    24   22   23 1  
    25   24   25 1  
    26   25   26 1  
    27   25   28 1  
    28   26   27 2  
    29   26   32 am 
    30   28   29 1  
    31   29   30 ar 
    32   29   31 ar 
    33   32   33 1  
    34   33   34 1  
    35   33   36 1  
    36   34   35 2  
    37   34   40 am 
    38   36   37 1  
    39   37   38 1  
    40   37   39 1  
    41   40   41 1  
    42   41   42 1  
    43   41   44 1  
    44   42   43 ar 
    45   42   51 ar 
    46   44   45 1  
    47   45   46 ar 
    48   45   47 ar 
    49   46   48 ar 
    50   47   49 ar 
    51   48   50 ar 
    52   49   50 ar 
    53    3   52 1  
    54    3   53 1  
    55    3   54 1  
    56    4   55 1  
    57    5   56 1  
    58    8   57 1  
    59    8   58 1  
    60    9   59 1  
    61    9   60 1  
    62   12   61 1  
    63   12   62 1  
    64   13   63 1  
    65   14   64 1  
    66   17   65 1  
    67   17   66 1  
    68   18   67 1  
    69   19   68 1  
    70   19   69 1  
    71   20   70 1  
    72   20   71 1  
    73   21   72 1  
    74   21   73 1  
    75   22   74 1  
    76   22   75 1  
    77   23   76 1  
    78   23   77 1  
    79   24   78 1  
    80   25   79 1  
    81   28   80 1  
    82   28   81 1  
    83   32   82 1  
    84   33   83 1  
    85   36   84 1  
    86   36   85 1  
    87   37   86 1  
    88   38   87 1  
    89   38   88 1  
    90   38   89 1  
    91   39   90 1  
    92   39   91 1  
    93   39   92 1  
    94   40   93 1  
    95   41   94 1  
    96   44   95 1  
    97   44   96 1  
    98   46   97 1  
    99   47   98 1  
   100   48   99 1  
   101   49  100 1  
   102   50  101 1  
@<TRIPOS>SUBSTRUCTURE
     1 ACE         1

