5mwg_ligand
  -I-interpret- 

 64 68  0  0  0  0  0  0  0  0999 V2000
    1.3310    1.6540   28.2330 C   0  0  0  0  0
   -2.3450   -1.7540   25.5310 C   0  0  0  0  0
   -2.3400   -3.0950   33.3190 C   0  0  0  0  0
   -2.5540   -1.7530   33.0340 C   0  0  0  0  0
   -0.1720   -1.4030   33.0980 C   0  0  0  0  0
   -1.1590    0.8430   29.4560 C   0  0  0  0  0
   -2.8720   -0.8110   28.0750 C   0  0  0  0  0
   -7.0140   -1.9610   30.4400 C   0  0  0  0  0
    0.4370   -5.3010   34.3290 C   0  0  0  0  0
    1.4850   -4.6980   33.4170 C   0  0  0  0  0
   -5.7740   -2.5770   31.0360 C   0  0  0  0  0
   -6.8290   -0.4460   30.4410 C   0  0  0  0  0
   -0.9230   -4.9730   33.7650 C   0  0  0  0  0
    1.3670   -3.1950   33.5530 C   0  0  0  0  0
   -4.5730   -2.2840   30.1280 C   0  0  0  0  0
   -5.6440   -0.0390   29.5610 C   0  0  0  0  0
   -1.0570   -3.6050   33.5040 C   0  0  0  0  0
    0.0460   -2.7530   33.3820 C   0  0  0  0  0
   -2.3670    0.4390   30.0570 C   0  0  0  0  0
   -1.4610   -0.9090   32.9300 C   0  0  0  0  0
   -3.2400   -0.3930   29.3470 C   0  0  0  0  0
    0.6280    0.3280   26.3300 C   0  0  0  0  0
   -0.2610   -0.5030   25.6580 C   0  0  0  0  0
   -0.8040    0.4090   28.1660 C   0  0  0  0  0
   -1.6780   -0.4220   27.4810 C   0  0  0  0  0
   -2.7530    0.8470   31.2850 N   0  0  0  0  0
   -4.4370   -0.8570   29.7750 N   0  0  0  0  0
    0.3510    0.7710   27.5610 N   0  0  0  0  0
   -1.3960   -0.8680   26.2420 N   0  0  0  0  0
    1.6810    0.6720   25.7860 O   0  0  0  0  0
   -0.0100   -0.9150   24.5240 O   0  0  0  0  0
   -2.3350    1.4550   33.7760 O   0  0  0  0  0
   -0.3570    1.3940   32.2660 O   0  0  0  0  0
   -1.7040    0.7560   32.5740 S   0  0  0  0  0
    2.2815    1.1299   28.3332 H   0  0  0  0  0
    1.4731    2.5562   27.6380 H   0  0  0  0  0
    0.9575    1.9238   29.2208 H   0  0  0  0  0
   -2.6670   -1.2729   24.6075 H   0  0  0  0  0
   -1.8533   -2.6985   25.2979 H   0  0  0  0  0
   -3.2110   -1.9408   26.1660 H   0  0  0  0  0
   -3.1959   -3.7650   33.3999 H   0  0  0  0  0
   -3.5650   -1.3703   32.8945 H   0  0  0  0  0
    0.6790   -0.7281   33.0069 H   0  0  0  0  0
   -0.4861    1.5049   30.0012 H   0  0  0  0  0
   -3.5441   -1.4679   27.5228 H   0  0  0  0  0
   -7.8916   -2.2354   31.0253 H   0  0  0  0  0
   -7.1651   -2.3231   29.4231 H   0  0  0  0  0
    0.5346   -4.8915   35.3344 H   0  0  0  0  0
    0.5679   -6.3815   34.3875 H   0  0  0  0  0
    1.3261   -5.0082   32.3842 H   0  0  0  0  0
    2.4831   -5.0360   33.6955 H   0  0  0  0  0
   -5.9093   -3.6550   31.1242 H   0  0  0  0  0
   -5.5955   -2.1527   32.0240 H   0  0  0  0  0
   -6.6361   -0.1174   31.4622 H   0  0  0  0  0
   -7.7334    0.0176   30.0470 H   0  0  0  0  0
   -1.6775   -5.2590   34.4979 H   0  0  0  0  0
   -1.0469   -5.5158   32.8279 H   0  0  0  0  0
    1.9830   -2.7338   32.7811 H   0  0  0  0  0
    1.6920   -2.9172   34.5557 H   0  0  0  0  0
   -4.7197   -2.8385   29.2011 H   0  0  0  0  0
   -3.6733   -2.5749   30.6702 H   0  0  0  0  0
   -5.3889    0.9900   29.8143 H   0  0  0  0  0
   -5.9483   -0.1732   28.5230 H   0  0  0  0  0
   -3.6946    1.2138   31.4237 H   0  0  0  0  0
 28  1  1  0  0  0
 29  2  1  0  0  0
  4  3  4  0  0  0
  3 17  4  0  0  0
 20  4  4  0  0  0
  5 18  4  0  0  0
 20  5  4  0  0  0
 19  6  4  0  0  0
  6 24  4  0  0  0
 21  7  4  0  0  0
  7 25  4  0  0  0
 11  8  1  0  0  0
 12  8  1  0  0  0
 10  9  1  0  0  0
 13  9  1  0  0  0
 14 10  1  0  0  0
 15 11  1  0  0  0
 16 12  1  0  0  0
 17 13  1  0  0  0
 18 14  1  0  0  0
 27 15  1  0  0  0
 27 16  1  0  0  0
 18 17  4  0  0  0
 19 21  4  0  0  0
 26 19  1  0  0  0
 34 20  1  0  0  0
 21 27  1  0  0  0
 22 23  1  0  0  0
 28 22  1  0  0  0
 22 30  2  0  0  0
 29 23  1  0  0  0
 23 31  2  0  0  0
 24 25  4  0  0  0
 24 28  1  0  0  0
 25 29  1  0  0  0
 26 34  1  0  0  0
 34 32  2  0  0  0
 34 33  2  0  0  0
  1 35  1  0  0  0
  1 36  1  0  0  0
  1 37  1  0  0  0
  2 38  1  0  0  0
  2 39  1  0  0  0
  2 40  1  0  0  0
  3 41  1  0  0  0
  4 42  1  0  0  0
  5 43  1  0  0  0
  6 44  1  0  0  0
  7 45  1  0  0  0
  8 46  1  0  0  0
  8 47  1  0  0  0
  9 48  1  0  0  0
  9 49  1  0  0  0
 10 50  1  0  0  0
 10 51  1  0  0  0
 11 52  1  0  0  0
 11 53  1  0  0  0
 12 54  1  0  0  0
 12 55  1  0  0  0
 13 56  1  0  0  0
 13 57  1  0  0  0
 14 58  1  0  0  0
 14 59  1  0  0  0
 15 60  1  0  0  0
 15 61  1  0  0  0
 16 62  1  0  0  0
 16 63  1  0  0  0
 26 64  1  0  0  0
M  END
$$$$
