3uyt_ligand
  -I-interpret- 

 45 48  0  0  0  0  0  0  0  0999 V2000
   -6.0560   -6.8120   -9.9610 C   0  0  0  0  0
   -4.7910   -7.1240   -9.4640 N   0  0  0  0  0
   -5.0410   -7.9290   -8.3800 C   0  0  0  0  0
   -6.3360   -8.2120   -8.0910 N   0  0  0  0  0
   -7.0400   -7.5440   -9.0660 C   0  0  0  0  0
   -7.5410   -5.0780  -11.2610 C   0  0  0  0  0
   -7.7290   -4.2020  -12.3680 C   0  0  0  0  0
   -6.7500   -4.0970  -13.3500 N   0  0  0  0  0
   -5.5830   -4.8570  -13.2390 C   0  0  0  0  0
   -5.3460   -5.7240  -12.1900 N   0  0  0  0  0
   -6.3210   -5.8720  -11.1480 C   0  0  0  0  0
   -4.6280   -4.7400  -14.1980 N   0  0  0  0  0
   -2.3300   -6.5350   -8.9560 C   0  0  0  0  0
   -3.4480   -6.8300   -9.9550 C   0  0  0  0  0
   -2.9370   -7.7460  -11.0690 C   0  0  0  0  0
   -1.6330   -7.2740  -11.7200 C   0  0  0  0  0
   -0.5360   -6.9390  -10.6840 C   0  0  0  0  0
   -1.0580   -5.9990   -9.5960 C   0  0  0  0  0
  -10.5810   -8.1440  -10.6860 C   0  0  0  0  0
  -11.4370   -7.9640   -9.5210 C   0  0  0  0  0
  -10.8930   -7.6460   -8.1930 C   0  0  0  0  0
   -9.4400   -7.4950   -8.0200 C   0  0  0  0  0
   -8.5500   -7.6660   -9.1740 C   0  0  0  0  0
   -9.1400   -7.9900  -10.4910 C   0  0  0  0  0
  -12.7910   -8.0780   -9.6980 F   0  0  0  0  0
   -4.2276   -8.3267   -7.7731 H   0  0  0  0  0
   -8.3118   -5.1561  -10.4943 H   0  0  0  0  0
   -8.6425   -3.6124  -12.4457 H   0  0  0  0  0
   -4.7691   -4.1047  -14.9834 H   0  0  0  0  0
   -3.7698   -5.2874  -14.1326 H   0  0  0  0  0
   -2.0757   -7.4752   -8.4667 H   0  0  0  0  0
   -2.6981   -5.7683   -8.2742 H   0  0  0  0  0
   -3.6825   -5.8527  -10.3769 H   0  0  0  0  0
   -3.6989   -7.7611  -11.8483 H   0  0  0  0  0
   -2.7389   -8.7193  -10.6201 H   0  0  0  0  0
   -1.8497   -6.3663  -12.2833 H   0  0  0  0  0
   -1.2622   -8.0821  -12.3505 H   0  0  0  0  0
    0.2866   -6.4447  -11.2008 H   0  0  0  0  0
   -0.2130   -7.8668  -10.2119 H   0  0  0  0  0
   -0.2948   -5.9094   -8.8230 H   0  0  0  0  0
   -1.2819   -5.0347  -10.0523 H   0  0  0  0  0
  -10.9981   -8.3839  -11.6641 H   0  0  0  0  0
  -11.5622   -7.5228   -7.3415 H   0  0  0  0  0
   -9.0267   -7.2574   -7.0398 H   0  0  0  0  0
   -8.4771   -8.1186  -11.3466 H   0  0  0  0  0
  1  2  4  0  0  0
  5  1  4  0  0  0
  1 11  1  0  0  0
  3  2  4  0  0  0
  2 14  1  0  0  0
  4  3  4  0  0  0
  5  4  4  0  0  0
 23  5  1  0  0  0
  6  7  4  0  0  0
 11  6  4  0  0  0
  7  8  4  0  0  0
  9  8  4  0  0  0
 10  9  4  0  0  0
  9 12  1  0  0  0
 11 10  4  0  0  0
 14 13  1  0  0  0
 13 18  1  0  0  0
 14 15  1  0  0  0
 15 16  1  0  0  0
 16 17  1  0  0  0
 18 17  1  0  0  0
 20 19  4  0  0  0
 19 24  4  0  0  0
 21 20  4  0  0  0
 20 25  1  0  0  0
 22 21  4  0  0  0
 22 23  4  0  0  0
 23 24  4  0  0  0
  3 26  1  0  0  0
  6 27  1  0  0  0
  7 28  1  0  0  0
 12 29  1  0  0  0
 12 30  1  0  0  0
 13 31  1  0  0  0
 13 32  1  0  0  0
 14 33  1  0  0  0
 15 34  1  0  0  0
 15 35  1  0  0  0
 16 36  1  0  0  0
 16 37  1  0  0  0
 17 38  1  0  0  0
 17 39  1  0  0  0
 18 40  1  0  0  0
 18 41  1  0  0  0
 19 42  1  0  0  0
 21 43  1  0  0  0
 22 44  1  0  0  0
 24 45  1  0  0  0
M  END
$$$$
