4p45_ligand
  -I-interpret- 

 63 63  0  0  0  0  0  0  0  0999 V2000
   13.7540   48.7200   40.4140 O   0  0  0  0  0
   13.8190   47.4990   40.2340 C   0  0  0  0  0
   12.9850   46.9070   39.4930 O   0  0  0  0  0
   14.9700   46.7530   40.9200 C   0  0  0  0  0
   14.7130   45.2130   41.0650 C   0  0  0  0  0
   16.0040   44.4630   41.5410 C   0  0  0  0  0
   17.0630   44.6020   40.4290 C   0  0  0  0  0
   17.9760   45.4790   40.4690 O   0  0  0  0  0
   16.8730   43.8030   39.4370 O   0  0  0  0  0
   16.4880   44.9000   42.8990 N   0  0  0  0  0
   17.5640   44.0130   43.6520 P   0  0  0  0  0
   18.1920   42.9230   42.6830 O   0  0  0  0  0
   16.9420   43.4190   44.8690 O   0  0  0  0  0
   18.6520   44.9500   44.2250 O   0  0  0  0  0
   19.4130   45.7410   43.2970 C   0  0  0  0  0
   20.2100   46.8240   43.9660 C   0  0  0  0  0
   20.4750   46.5290   45.3930 C   0  0  0  0  0
   21.4280   45.7670   45.6650 O   0  0  0  0  0
   19.9090   47.2770   46.1410 O   0  0  0  0  0
   21.5330   46.9720   43.3100 N   0  0  0  0  0
   22.1570   48.2000   43.2110 C   0  0  0  0  0
   21.7740   49.2370   43.7840 O   0  0  0  0  0
   23.4960   48.2220   42.4510 C   0  0  0  0  0
   24.4520   47.2800   43.2100 C   0  0  0  0  0
   24.9620   47.9870   44.5130 C   0  0  0  0  0
   25.6260   46.8990   42.2600 C   0  0  0  0  0
   23.9870   49.6540   42.3700 N   0  0  0  0  0
   24.5780   50.2220   41.2660 C   0  0  0  0  0
   24.8960   49.5560   40.2660 O   0  0  0  0  0
   24.9430   51.6020   41.3700 C   0  0  0  0  0
   24.6530   52.3570   42.5250 C   0  0  0  0  0
   25.0440   53.7010   42.6540 C   0  0  0  0  0
   25.7360   54.3070   41.6030 C   0  0  0  0  0
   26.1930   55.7790   41.7500 F   0  0  0  0  0
   26.0470   53.5720   40.4570 C   0  0  0  0  0
   25.6150   52.2320   40.3280 C   0  0  0  0  0
   13.1880   45.9690   39.4704 H   0  0  0  0  0
   15.0773   47.1647   41.9235 H   0  0  0  0  0
   15.8595   46.8816   40.3032 H   0  0  0  0  0
   14.4201   44.8169   40.0927 H   0  0  0  0  0
   13.9293   45.0602   41.8070 H   0  0  0  0  0
   15.7775   43.4076   41.6928 H   0  0  0  0  0
   16.1283   43.2282   39.6286 H   0  0  0  0  0
   16.1288   45.7533   43.3271 H   0  0  0  0  0
   18.5769   43.3591   41.9193 H   0  0  0  0  0
   18.7109   46.2189   42.6138 H   0  0  0  0  0
   20.1138   45.0770   42.7909 H   0  0  0  0  0
   19.6128   47.7320   43.8819 H   0  0  0  0  0
   21.6839   45.2826   44.8767 H   0  0  0  0  0
   21.9922   46.1474   42.9232 H   0  0  0  0  0
   23.4140   47.8698   41.4227 H   0  0  0  0  0
   23.9392   46.3670   43.5128 H   0  0  0  0  0
   25.4907   48.9018   44.2453 H   0  0  0  0  0
   24.1113   48.2305   45.1495 H   0  0  0  0  0
   25.6374   47.3185   45.0470 H   0  0  0  0  0
   25.2294   46.3963   41.3779 H   0  0  0  0  0
   26.1550   47.8028   41.9577 H   0  0  0  0  0
   26.3123   46.2322   42.7820 H   0  0  0  0  0
   23.8702   50.2402   43.1965 H   0  0  0  0  0
   24.1091   51.8841   43.3427 H   0  0  0  0  0
   24.8109   54.2612   43.5595 H   0  0  0  0  0
   26.6261   54.0340   39.6574 H   0  0  0  0  0
   25.8103   51.6880   39.4039 H   0  0  0  0  0
  1  2  2  0  0  0
  2  3  1  0  0  0
  2  4  1  0  0  0
  4  5  1  0  0  0
  5  6  1  0  0  0
  6  7  1  0  0  0
  6 10  1  0  0  0
  7  8  2  0  0  0
  7  9  1  0  0  0
 10 11  1  0  0  0
 11 12  1  0  0  0
 11 13  2  0  0  0
 11 14  1  0  0  0
 14 15  1  0  0  0
 15 16  1  0  0  0
 16 17  1  0  0  0
 16 20  1  0  0  0
 17 18  1  0  0  0
 17 19  2  0  0  0
 20 21  1  0  0  0
 21 22  2  0  0  0
 21 23  1  0  0  0
 23 24  1  0  0  0
 23 27  1  0  0  0
 24 25  1  0  0  0
 24 26  1  0  0  0
 27 28  1  0  0  0
 28 29  2  0  0  0
 28 30  1  0  0  0
 30 31  4  0  0  0
 30 36  4  0  0  0
 31 32  4  0  0  0
 32 33  4  0  0  0
 33 34  1  0  0  0
 33 35  4  0  0  0
 35 36  4  0  0  0
  3 37  1  0  0  0
  4 38  1  0  0  0
  4 39  1  0  0  0
  5 40  1  0  0  0
  5 41  1  0  0  0
  6 42  1  0  0  0
  9 43  1  0  0  0
 10 44  1  0  0  0
 12 45  1  0  0  0
 15 46  1  0  0  0
 15 47  1  0  0  0
 16 48  1  0  0  0
 18 49  1  0  0  0
 20 50  1  0  0  0
 23 51  1  0  0  0
 24 52  1  0  0  0
 25 53  1  0  0  0
 25 54  1  0  0  0
 25 55  1  0  0  0
 26 56  1  0  0  0
 26 57  1  0  0  0
 26 58  1  0  0  0
 27 59  1  0  0  0
 31 60  1  0  0  0
 32 61  1  0  0  0
 35 62  1  0  0  0
 36 63  1  0  0  0
M  END
$$$$
