### 
### Created by X-TOOL on Mon Sep 10 21:13:21 2018
### 

@<TRIPOS>MOLECULE
4p45_ligand
   59    59     1     0     0
SMALL
GAST_HUCK


@<TRIPOS>ATOM
      1 OE1        13.7540   48.7200   40.4140 O.co2     1 2F9        -0.5690
      2 CD         13.8190   47.4990   40.2340 C.2       1 2F9         0.0350
      3 OE2        12.9850   46.9070   39.4930 O.co2     1 2F9        -0.5690
      4 CG         14.9700   46.7530   40.9200 C.3       1 2F9         0.0034
      5 CB         14.7130   45.2130   41.0650 C.3       1 2F9        -0.0099
      6 CA         16.0040   44.4630   41.5410 C.3       1 2F9         0.0893
      7 C          17.0630   44.6020   40.4290 C.2       1 2F9         0.0564
      8 OXT        17.9760   45.4790   40.4690 O.co2     1 2F9        -0.5670
      9 O          16.8730   43.8030   39.4370 O.co2     1 2F9        -0.5670
     10 N          16.4880   44.9000   42.8990 N.am      1 2F9        -0.2605
     11 PBJ        17.5640   44.0130   43.6520 P.3       1 2F9         0.2034
     12 OAL        18.1920   42.9230   42.6830 O.co2     1 2F9        -0.6076
     13 OAH        16.9420   43.4190   44.8690 O.co2     1 2F9        -0.6076
     14 OAX        18.6520   44.9500   44.2250 O.3       1 2F9        -0.2572
     15 CAT        19.4130   45.7410   43.2970 C.3       1 2F9         0.1185
     16 CBH        20.2100   46.8240   43.9660 C.3       1 2F9         0.1228
     17 CBA        20.4750   46.5290   45.3930 C.2       1 2F9         0.0628
     18 OAK        21.4280   45.7670   45.6650 O.co2     1 2F9        -0.5665
     19 OAE        19.9090   47.2770   46.1410 O.co2     1 2F9        -0.5665
     20 NAV        21.5330   46.9720   43.3100 N.am      1 2F9        -0.2668
     21 CBC        22.1570   48.2000   43.2110 C.2       1 2F9         0.2036
     22 OAG        21.7740   49.2370   43.7840 O.2       1 2F9        -0.3944
     23 CBI        23.4960   48.2220   42.4510 C.3       1 2F9         0.1327
     24 CBF        24.4520   47.2800   43.2100 C.3       1 2F9        -0.0063
     25 CAB        24.9620   47.9870   44.5130 C.3       1 2F9        -0.0584
     26 CAA        25.6260   46.8990   42.2600 C.3       1 2F9        -0.0584
     27 NAU        23.9870   49.6540   42.3700 N.am      1 2F9        -0.2653
     28 CBB        24.5780   50.2220   41.2660 C.2       1 2F9         0.2041
     29 OAF        24.8960   49.5560   40.2660 O.2       1 2F9        -0.3864
     30 CBE        24.9430   51.6020   41.3700 C.ar      1 2F9         0.0458
     31 CAP        24.6530   52.3570   42.5250 C.ar      1 2F9        -0.0437
     32 CAN        25.0440   53.7010   42.6540 C.ar      1 2F9        -0.0223
     33 CBD        25.7360   54.3070   41.6030 C.ar      1 2F9         0.1375
     34 FAM        26.1930   55.7790   41.7500 F         1 2F9        -0.1794
     35 CAO        26.0470   53.5720   40.4570 C.ar      1 2F9        -0.0223
     36 CAQ        25.6150   52.2320   40.3280 C.ar      1 2F9        -0.0437
     37 H1         15.1127   47.1790   41.9241 H         1 2F9         0.0432
     38 H2         15.8841   46.8998   40.3261 H         1 2F9         0.0432
     39 H3         14.4021   44.8082   40.0906 H         1 2F9         0.0319
     40 H4         13.9123   45.0511   41.8017 H         1 2F9         0.0319
     41 H5         15.7544   43.3953   41.6293 H         1 2F9         0.0681
     42 H6         16.1359   45.7366   43.3187 H         1 2F9         0.1677
     43 H7         18.7191   46.2071   42.5820 H         1 2F9         0.0666
     44 H8         20.1056   45.0786   42.7571 H         1 2F9         0.0666
     45 H9         19.6508   47.7681   43.8885 H         1 2F9         0.0753
     46 H10        21.9831   46.1636   42.9308 H         1 2F9         0.1876
     47 H11        23.3549   47.8412   41.4287 H         1 2F9         0.0802
     48 H12        23.9123   46.3646   43.4942 H         1 2F9         0.0343
     49 H13        25.6437   47.3133   45.0528 H         1 2F9         0.0234
     50 H14        24.1044   48.2332   45.1563 H         1 2F9         0.0234
     51 H15        25.4958   48.9104   44.2442 H         1 2F9         0.0234
     52 H16        25.2255   46.4071   41.3613 H         1 2F9         0.0234
     53 H17        26.3102   46.2122   42.7798 H         1 2F9         0.0234
     54 H18        26.1713   47.8086   41.9679 H         1 2F9         0.0234
     55 H19        23.8725   50.2287   43.1803 H         1 2F9         0.1875
     56 H20        24.1121   51.8867   43.3382 H         1 2F9         0.0659
     57 H21        24.8122   54.2581   43.5546 H         1 2F9         0.0616
     58 H22        26.6229   54.0315   39.6618 H         1 2F9         0.0616
     59 H23        25.8092   51.6909   39.4090 H         1 2F9         0.0659
@<TRIPOS>BOND
     1    1    2 ar 
     2    2    3 ar 
     3    2    4 1  
     4    4    5 1  
     5    5    6 1  
     6    6    7 1  
     7    6   10 1  
     8    7    8 ar 
     9    7    9 ar 
    10   10   11 am 
    11   11   12 ar 
    12   11   13 ar 
    13   11   14 1  
    14   14   15 1  
    15   15   16 1  
    16   16   17 1  
    17   16   20 1  
    18   17   18 ar 
    19   17   19 ar 
    20   20   21 am 
    21   21   22 2  
    22   21   23 1  
    23   23   24 1  
    24   23   27 1  
    25   24   25 1  
    26   24   26 1  
    27   27   28 am 
    28   28   29 2  
    29   28   30 1  
    30   30   31 ar 
    31   30   36 ar 
    32   31   32 ar 
    33   32   33 ar 
    34   33   34 1  
    35   33   35 ar 
    36   35   36 ar 
    37    4   37 1  
    38    4   38 1  
    39    5   39 1  
    40    5   40 1  
    41    6   41 1  
    42   10   42 1  
    43   15   43 1  
    44   15   44 1  
    45   16   45 1  
    46   20   46 1  
    47   23   47 1  
    48   24   48 1  
    49   25   49 1  
    50   25   50 1  
    51   25   51 1  
    52   26   52 1  
    53   26   53 1  
    54   26   54 1  
    55   27   55 1  
    56   31   56 1  
    57   32   57 1  
    58   35   58 1  
    59   36   59 1  
@<TRIPOS>SUBSTRUCTURE
     1 2F9         1

