3lzv_ligand
  -I-interpret- 

 75 78  0  0  0  0  0  0  0  0999 V2000
   14.3560   -5.8210   12.7960 N   0  0  0  0  0
   15.2880   -5.3030   13.6250 C   0  0  0  0  0
   16.3750   -6.0690   14.0710 C   0  0  0  0  0
   17.2900   -5.4760   14.9380 C   0  0  0  0  0
   17.1630   -4.1500   15.3640 C   0  0  0  0  0
   16.0880   -3.4050   14.8700 C   0  0  0  0  0
   15.1420   -3.9780   14.0300 C   0  0  0  0  0
   18.2630   -3.4380   16.3120 S   0  0  0  0  0
   18.8370   -4.4120   17.2170 O   0  0  0  0  0
   17.6670   -2.3190   17.0100 O   0  0  0  0  0
   19.4670   -2.8050   15.4090 N   0  0  0  0  0
   20.2120   -3.7770   14.5680 C   0  0  0  0  0
   21.7100   -3.4530   14.5170 C   0  0  0  0  0
   22.3870   -3.4120   15.8840 C   0  0  0  0  0
   22.4890   -4.3750   13.5840 C   0  0  0  0  0
   19.1120   -1.5630   14.6860 C   0  0  0  0  0
   19.9620   -0.4530   15.3120 C   0  0  0  0  0
   19.9200    0.7100   14.4780 O   0  0  0  0  0
   19.6230   -0.0510   16.7470 C   0  0  0  0  0
   20.7640    0.7460   17.1420 N   0  0  0  0  0
   21.6150    0.5050   18.1280 C   0  0  0  0  0
   21.6090   -0.4810   18.8310 O   0  0  0  0  0
   22.6180    1.5360   18.3430 O   0  0  0  0  0
   23.3360    1.4990   19.5770 C   0  0  0  0  0
   24.7050    2.0700   19.2640 C   0  0  0  0  0
   24.5400    3.4850   19.3230 O   0  0  0  0  0
   23.6010    3.7520   20.3580 C   0  0  0  0  0
   22.6690    4.7420   19.9460 O   0  0  0  0  0
   21.3920    4.1340   19.7290 C   0  0  0  0  0
   21.3630    2.8820   20.5790 C   0  0  0  0  0
   22.8360    2.4690   20.6270 C   0  0  0  0  0
   18.2850    0.7070   16.9130 C   0  0  0  0  0
   18.1700    2.5020   18.6800 C   0  0  0  0  0
   18.0120    2.9600   19.9850 C   0  0  0  0  0
   17.7160    2.0550   20.9900 C   0  0  0  0  0
   17.5820    0.7040   20.6610 C   0  0  0  0  0
   17.7320    0.2550   19.3490 C   0  0  0  0  0
   18.0470    1.1590   18.3410 C   0  0  0  0  0
   14.4343   -6.7881   12.4814 H   0  0  0  0  0
   13.5739   -5.2451   12.4845 H   0  0  0  0  0
   16.5006   -7.1022   13.7474 H   0  0  0  0  0
   18.1337   -6.0656   15.2966 H   0  0  0  0  0
   15.9906   -2.3558   15.1491 H   0  0  0  0  0
   14.2880   -3.3929   13.6887 H   0  0  0  0  0
   19.8156   -3.7278   13.5538 H   0  0  0  0  0
   20.0902   -4.7697   15.0014 H   0  0  0  0  0
   21.7390   -2.4422   14.1101 H   0  0  0  0  0
   21.9140   -2.6468   16.4995 H   0  0  0  0  0
   22.2851   -4.3834   16.3678 H   0  0  0  0  0
   23.4438   -3.1766   15.7578 H   0  0  0  0  0
   22.3843   -5.4056   13.9230 H   0  0  0  0  0
   22.0954   -4.2824   12.5718 H   0  0  0  0  0
   23.5420   -4.0934   13.5929 H   0  0  0  0  0
   18.0480   -1.3440   14.7759 H   0  0  0  0  0
   19.3097   -1.6573   13.6182 H   0  0  0  0  0
   20.9597   -0.8871   15.3766 H   0  0  0  0  0
   20.4532    1.4043   14.8720 H   0  0  0  0  0
   19.4594   -0.9264   17.3756 H   0  0  0  0  0
   20.9328    1.5920   16.5978 H   0  0  0  0  0
   23.2672    0.4760   19.9469 H   0  0  0  0  0
   25.0626    1.7465   18.2865 H   0  0  0  0  0
   25.4579    1.7223   19.9714 H   0  0  0  0  0
   24.1282    4.1064   21.2438 H   0  0  0  0  0
   21.2475    3.8943   18.6755 H   0  0  0  0  0
   20.5846    4.8122   20.0050 H   0  0  0  0  0
   20.7183    2.1053   20.1677 H   0  0  0  0  0
   20.9378    3.0512   21.5683 H   0  0  0  0  0
   22.9720    1.9654   21.5841 H   0  0  0  0  0
   17.4777    0.0291   16.6358 H   0  0  0  0  0
   18.3204    1.5943   16.2808 H   0  0  0  0  0
   18.3986    3.2227   17.8949 H   0  0  0  0  0
   18.1202    4.0203   20.2133 H   0  0  0  0  0
   17.5898    2.3906   22.0194 H   0  0  0  0  0
   17.3550   -0.0157   21.4475 H   0  0  0  0  0
   17.6026   -0.8016   19.1147 H   0  0  0  0  0
  2  1  1  0  0  0
  3  2  4  0  0  0
  7  2  4  0  0  0
  4  3  4  0  0  0
  5  4  4  0  0  0
  5  6  4  0  0  0
  8  5  1  0  0  0
  6  7  4  0  0  0
  8  9  2  0  0  0
  8 10  2  0  0  0
 11  8  1  0  0  0
 11 12  1  0  0  0
 16 11  1  0  0  0
 12 13  1  0  0  0
 13 14  1  0  0  0
 13 15  1  0  0  0
 17 16  1  0  0  0
 17 18  1  0  0  0
 19 17  1  0  0  0
 19 20  1  0  0  0
 32 19  1  0  0  0
 20 21  1  0  0  0
 21 22  2  0  0  0
 21 23  1  0  0  0
 23 24  1  0  0  0
 24 25  1  0  0  0
 24 31  1  0  0  0
 25 26  1  0  0  0
 27 26  1  0  0  0
 27 28  1  0  0  0
 31 27  1  0  0  0
 29 28  1  0  0  0
 30 29  1  0  0  0
 31 30  1  0  0  0
 38 32  1  0  0  0
 33 34  4  0  0  0
 33 38  4  0  0  0
 34 35  4  0  0  0
 35 36  4  0  0  0
 36 37  4  0  0  0
 37 38  4  0  0  0
  1 39  1  0  0  0
  1 40  1  0  0  0
  3 41  1  0  0  0
  4 42  1  0  0  0
  6 43  1  0  0  0
  7 44  1  0  0  0
 12 45  1  0  0  0
 12 46  1  0  0  0
 13 47  1  0  0  0
 14 48  1  0  0  0
 14 49  1  0  0  0
 14 50  1  0  0  0
 15 51  1  0  0  0
 15 52  1  0  0  0
 15 53  1  0  0  0
 16 54  1  0  0  0
 16 55  1  0  0  0
 17 56  1  0  0  0
 18 57  1  0  0  0
 19 58  1  0  0  0
 20 59  1  0  0  0
 24 60  1  0  0  0
 25 61  1  0  0  0
 25 62  1  0  0  0
 27 63  1  0  0  0
 29 64  1  0  0  0
 29 65  1  0  0  0
 30 66  1  0  0  0
 30 67  1  0  0  0
 31 68  1  0  0  0
 32 69  1  0  0  0
 32 70  1  0  0  0
 33 71  1  0  0  0
 34 72  1  0  0  0
 35 73  1  0  0  0
 36 74  1  0  0  0
 37 75  1  0  0  0
M  END
$$$$
