5oei_ligand
  -I-interpret- 

 19 18  0  0  0  0  0  0  0  0999 V2000
   11.3580  194.2010   86.3540 C   0  0  0  0  0
   10.0720  194.5930   85.6440 C   0  0  0  0  0
    9.1620  193.3750   85.4450 C   0  0  0  0  0
    7.0500  192.4510   84.2830 C   0  0  0  0  0
    7.4040  191.2670   84.5940 O   0  0  0  0  0
    5.9420  192.6960   83.7700 O   0  0  0  0  0
    7.9110  193.6220   84.6530 C   0  0  0  0  0
   12.4080  195.3290   86.3940 C   0  0  0  0  0
   13.2280  195.4030   85.4030 O   0  0  0  0  0
   12.4630  196.1390   87.4000 O   0  0  0  0  0
    7.5320  194.7870   84.4250 O   0  0  0  0  0
   11.7943  193.3671   85.8041 H   0  0  0  0  0
   11.1012  193.9562   87.3847 H   0  0  0  0  0
   10.3234  195.0055   84.6669 H   0  0  0  0  0
    9.5455  195.3274   86.2536 H   0  0  0  0  0
    8.8422  193.0621   86.4389 H   0  0  0  0  0
    9.7433  192.6427   84.8847 H   0  0  0  0  0
    8.2856  191.2871   84.9736 H   0  0  0  0  0
   11.7697  195.9175   88.0260 H   0  0  0  0  0
  2  1  1  0  0  0
  1  8  1  0  0  0
  3  2  1  0  0  0
  7  3  1  0  0  0
  4  5  1  0  0  0
  4  6  2  0  0  0
  4  7  1  0  0  0
  7 11  2  0  0  0
  8  9  2  0  0  0
  8 10  1  0  0  0
  1 12  1  0  0  0
  1 13  1  0  0  0
  2 14  1  0  0  0
  2 15  1  0  0  0
  3 16  1  0  0  0
  3 17  1  0  0  0
  5 18  1  0  0  0
 10 19  1  0  0  0
M  END
$$$$
