5amn_ligand
  -I-interpret- 

 37 39  0  0  0  0  0  0  0  0999 V2000
   71.3140  -10.3800   11.3580 N   0  0  0  0  0
   71.5650   -9.2510   12.0300 C   0  0  0  0  0
   72.7180   -8.6500   12.2310 N   0  0  0  0  0
   73.8180   -9.2790   11.6800 C   0  0  0  0  0
   73.7020  -10.4740   10.9600 C   0  0  0  0  0
   72.3650  -10.9930   10.8130 C   0  0  0  0  0
   75.0910   -8.6930   11.8520 C   0  0  0  0  0
   76.2110   -9.2810   11.3230 C   0  0  0  0  0
   76.1010  -10.4830   10.5970 C   0  0  0  0  0
   74.8660  -11.0650   10.4190 C   0  0  0  0  0
   72.1490  -12.1660   10.1630 N   0  0  0  0  0
   70.9200  -12.7360    9.7730 C   0  0  0  0  0
   70.7790  -14.1130    9.8440 C   0  0  0  0  0
   69.5740  -14.7040    9.4840 C   0  0  0  0  0
   68.5210  -13.9200    9.0400 C   0  0  0  0  0
   68.6780  -12.5500    8.9660 C   0  0  0  0  0
   69.8660  -11.9520    9.3370 C   0  0  0  0  0
   69.4610  -16.0540    9.5770 O   0  0  0  0  0
   77.4810   -8.7910   11.4380 O   0  0  0  0  0
   77.6530   -7.5710   12.1520 C   0  0  0  0  0
   77.2850  -10.9730   10.1190 O   0  0  0  0  0
   77.2480  -12.1880    9.3810 C   0  0  0  0  0
   70.6961   -8.7625   12.4711 H   0  0  0  0  0
   75.1845   -7.7624   12.4118 H   0  0  0  0  0
   74.7851  -11.9934    9.8536 H   0  0  0  0  0
   72.9831  -12.7034    9.9267 H   0  0  0  0  0
   71.6112  -14.7308   10.1814 H   0  0  0  0  0
   67.5764  -14.3811    8.7515 H   0  0  0  0  0
   67.8533  -11.9326    8.6100 H   0  0  0  0  0
   69.9732  -10.8684    9.2868 H   0  0  0  0  0
   68.5818  -16.3204    9.2982 H   0  0  0  0  0
   77.0821   -6.7817   11.6629 H   0  0  0  0  0
   77.2984   -7.6971   13.1750 H   0  0  0  0  0
   78.7096   -7.3036   12.1627 H   0  0  0  0  0
   76.8422  -12.9810   10.0092 H   0  0  0  0  0
   76.6156  -12.0590    8.5027 H   0  0  0  0  0
   78.2580  -12.4521    9.0675 H   0  0  0  0  0
  1  2  4  0  0  0
  1  6  4  0  0  0
  2  3  4  0  0  0
  3  4  4  0  0  0
  4  5  4  0  0  0
  4  7  4  0  0  0
  5  6  4  0  0  0
  5 10  4  0  0  0
  6 11  1  0  0  0
  7  8  4  0  0  0
  8  9  4  0  0  0
  8 19  1  0  0  0
  9 10  4  0  0  0
  9 21  1  0  0  0
 11 12  1  0  0  0
 12 13  4  0  0  0
 12 17  4  0  0  0
 13 14  4  0  0  0
 14 15  4  0  0  0
 14 18  1  0  0  0
 15 16  4  0  0  0
 16 17  4  0  0  0
 19 20  1  0  0  0
 21 22  1  0  0  0
  2 23  1  0  0  0
  7 24  1  0  0  0
 10 25  1  0  0  0
 11 26  1  0  0  0
 13 27  1  0  0  0
 15 28  1  0  0  0
 16 29  1  0  0  0
 17 30  1  0  0  0
 18 31  1  0  0  0
 20 32  1  0  0  0
 20 33  1  0  0  0
 20 34  1  0  0  0
 22 35  1  0  0  0
 22 36  1  0  0  0
 22 37  1  0  0  0
M  END
$$$$
