1y2d_ligand
  -I-interpret- 

 38 39  0  0  0  0  0  0  0  0999 V2000
   15.7720   46.2140    9.3150 O   0  0  0  0  0
   14.8480   45.6950    9.9320 C   0  0  0  0  0
   13.7570   45.1000    9.3400 O   0  0  0  0  0
   12.6740   45.8410    8.7610 C   0  0  0  0  0
   12.8870   46.0130    7.2710 C   0  0  0  0  0
   14.8350   45.5640   11.3920 C   0  0  0  0  0
   13.7490   45.5420   12.3180 C   0  0  0  0  0
   12.2810   45.6690   12.1220 C   0  0  0  0  0
   14.2130   45.3970   13.5570 N   0  0  0  0  0
   15.5660   45.3090   13.5200 N   0  0  0  0  0
   15.9800   45.4020   12.1910 C   0  0  0  0  0
   17.4000   45.3520   11.7480 C   0  0  0  0  0
   16.2870   45.1370   14.7540 C   0  0  0  0  0
   16.3530   43.8370   15.2940 C   0  0  0  0  0
   17.0310   43.5880   16.4900 C   0  0  0  0  0
   17.6570   44.6330   17.1770 C   0  0  0  0  0
   17.6000   45.9280   16.6520 C   0  0  0  0  0
   16.9210   46.1810   15.4480 C   0  0  0  0  0
   18.3460   44.4990   18.3740 O   0  0  0  0  0
   17.5750   44.6450   19.5740 C   0  0  0  0  0
   12.6276   46.8246    9.2284 H   0  0  0  0  0
   11.7441   45.2967    8.9257 H   0  0  0  0  0
   13.8185   46.5521    7.0983 H   0  0  0  0  0
   12.9398   45.0327    6.7973 H   0  0  0  0  0
   12.0554   46.5775    6.8492 H   0  0  0  0  0
   12.0590   46.6325   11.6633 H   0  0  0  0  0
   11.9318   44.8667   11.4721 H   0  0  0  0  0
   11.7796   45.6006   13.0874 H   0  0  0  0  0
   17.5353   44.5179   11.0594 H   0  0  0  0  0
   17.6555   46.2848   11.2454 H   0  0  0  0  0
   18.0455   45.2167   12.6159 H   0  0  0  0  0
   15.8677   43.0132   14.7706 H   0  0  0  0  0
   17.0722   42.5747   16.8894 H   0  0  0  0  0
   18.0862   46.7477   17.1810 H   0  0  0  0  0
   16.8860   47.1950   15.0495 H   0  0  0  0  0
   17.1256   45.6378   19.5970 H   0  0  0  0  0
   16.7902   43.8889   19.5943 H   0  0  0  0  0
   18.2252   44.5190   20.4397 H   0  0  0  0  0
  1  2  2  0  0  0
  2  3  1  0  0  0
  2  6  1  0  0  0
  3  4  1  0  0  0
  4  5  1  0  0  0
  6  7  4  0  0  0
  6 11  4  0  0  0
  7  8  1  0  0  0
  7  9  4  0  0  0
  9 10  4  0  0  0
 10 11  4  0  0  0
 10 13  1  0  0  0
 11 12  1  0  0  0
 13 14  4  0  0  0
 13 18  4  0  0  0
 14 15  4  0  0  0
 15 16  4  0  0  0
 16 17  4  0  0  0
 16 19  1  0  0  0
 17 18  4  0  0  0
 19 20  1  0  0  0
  4 21  1  0  0  0
  4 22  1  0  0  0
  5 23  1  0  0  0
  5 24  1  0  0  0
  5 25  1  0  0  0
  8 26  1  0  0  0
  8 27  1  0  0  0
  8 28  1  0  0  0
 12 29  1  0  0  0
 12 30  1  0  0  0
 12 31  1  0  0  0
 14 32  1  0  0  0
 15 33  1  0  0  0
 17 34  1  0  0  0
 18 35  1  0  0  0
 20 36  1  0  0  0
 20 37  1  0  0  0
 20 38  1  0  0  0
M  END
$$$$
