1jvu_ligand
  -I-interpret- 

 35 36  0  0  0  0  0  0  0  0999 V2000
   36.2160    2.1250   24.7180 N   0  0  0  0  0
   35.0120    2.3330   25.4030 C   0  0  0  0  0
   34.3660    3.5250   25.2700 N   0  0  0  0  0
   34.8690    4.4710   24.4650 C   0  0  0  0  0
   36.0820    4.2620   23.7200 C   0  0  0  0  0
   36.7150    3.0850   23.8760 C   0  0  0  0  0
   34.5620    1.4140   26.1150 O   0  0  0  0  0
   34.2180    5.6240   24.3810 N   0  0  0  0  0
   36.9380    0.8650   24.9360 C   0  0  0  0  0
   36.8240   -0.1360   23.7770 C   0  0  0  0  0
   36.7810   -1.3880   24.4620 O   0  0  0  0  0
   38.0610    0.2430   22.9700 C   0  0  0  0  0
   39.0810    0.4720   24.0680 C   0  0  0  0  0
   38.3160    1.1710   25.0910 O   0  0  0  0  0
   38.4990   -0.7380   22.0650 O   0  0  0  0  0
   40.2670    1.2940   23.6540 C   0  0  0  0  0
   39.8320    2.4050   22.8510 O   0  0  0  0  0
   36.5890   -2.7950   23.6530 P   0  0  0  0  0
   35.1020   -2.8510   23.4440 O   0  0  0  0  0
   37.2900   -3.8970   24.3790 O   0  0  0  0  0
   37.2640   -2.6330   22.2230 O   0  0  0  0  0
   33.5009    3.6972   25.7823 H   0  0  0  0  0
   36.4742    5.0298   23.0530 H   0  0  0  0  0
   37.6361    2.8923   23.3260 H   0  0  0  0  0
   34.5768    6.3700   23.7851 H   0  0  0  0  0
   36.4908    0.3988   25.8139 H   0  0  0  0  0
   35.9832   -0.1591   23.0838 H   0  0  0  0  0
   37.8752    1.0959   22.3171 H   0  0  0  0  0
   39.5208   -0.4724   24.3885 H   0  0  0  0  0
   39.2772   -0.4197   21.6017 H   0  0  0  0  0
   40.9502    0.6745   23.0730 H   0  0  0  0  0
   40.7746    1.6683   24.5430 H   0  0  0  0  0
   40.5940    2.9269   22.5892 H   0  0  0  0  0
   34.8179   -2.0698   22.9637 H   0  0  0  0  0
   36.8254   -1.9278   21.7414 H   0  0  0  0  0
  1  2  1  0  0  0
  1  6  1  0  0  0
  1  9  1  0  0  0
  2  3  1  0  0  0
  2  7  2  0  0  0
  3  4  1  0  0  0
  4  5  1  0  0  0
  4  8  2  0  0  0
  5  6  2  0  0  0
  9 10  1  0  0  0
  9 14  1  0  0  0
 10 11  1  0  0  0
 10 12  1  0  0  0
 11 18  1  0  0  0
 12 13  1  0  0  0
 12 15  1  0  0  0
 13 14  1  0  0  0
 13 16  1  0  0  0
 16 17  1  0  0  0
 18 19  1  0  0  0
 18 20  2  0  0  0
 18 21  1  0  0  0
  3 22  1  0  0  0
  5 23  1  0  0  0
  6 24  1  0  0  0
  8 25  1  0  0  0
  9 26  1  0  0  0
 10 27  1  0  0  0
 12 28  1  0  0  0
 13 29  1  0  0  0
 15 30  1  0  0  0
 16 31  1  0  0  0
 16 32  1  0  0  0
 17 33  1  0  0  0
 19 34  1  0  0  0
 21 35  1  0  0  0
M  END
$$$$
