1u33_ligand
  -I-interpret- 

 70 72  0  0  0  0  0  0  0  0999 V2000
   10.3360   16.8890   44.0860 C   0  0  0  0  0
    9.2880   16.8530   44.8950 N   0  0  0  0  0
    8.6360   15.7060   44.9990 O   0  0  0  0  0
   11.1090   18.2140   43.9450 C   0  0  0  0  0
   10.3900   19.2630   44.3750 O   0  0  0  0  0
   11.6250   18.3380   42.4680 C   0  0  0  0  0
   12.3060   19.4680   42.3240 O   0  0  0  0  0
   12.4680   17.0690   42.0790 C   0  0  0  0  0
   12.5150   16.9670   40.7580 O   0  0  0  0  0
   11.8660   15.7440   42.4260 C   0  0  0  0  0
   10.7440   15.7130   43.3830 N   0  0  0  0  0
   12.9780   14.8440   43.0540 C   0  0  0  0  0
   13.4420   15.3890   44.2240 O   0  0  0  0  0
   13.5910   17.6860   40.1720 C   0  0  0  0  0
   13.2430   17.9250   38.6260 C   0  0  0  0  0
   13.2910   16.6000   37.7800 C   0  0  0  0  0
   14.7350   16.0160   37.9190 C   0  0  0  0  0
   14.9820   15.6980   39.5370 C   0  0  0  0  0
   16.3540   15.1180   39.8180 C   0  0  0  0  0
   11.9500   18.5710   38.5590 O   0  0  0  0  0
   12.9890   16.9230   36.4000 O   0  0  0  0  0
   14.8150   14.8200   37.1620 O   0  0  0  0  0
   14.8860   16.9700   40.2910 O   0  0  0  0  0
   17.3490   15.9470   39.3210 O   0  0  0  0  0
   16.0640   14.7590   36.3950 C   0  0  0  0  0
   15.8740   14.7870   34.8250 C   0  0  0  0  0
   15.0460   13.4970   34.4010 C   0  0  0  0  0
   15.8670   12.2280   34.7950 C   0  0  0  0  0
   16.0960   12.2360   36.4160 C   0  0  0  0  0
   16.9370   11.0050   36.8650 C   0  0  0  0  0
   15.1700   16.0020   34.4990 O   0  0  0  0  0
   14.8680   13.4950   33.0070 O   0  0  0  0  0
   15.1380   11.0070   34.4260 O   0  0  0  0  0
   16.8100   13.5050   36.7820 O   0  0  0  0  0
   18.2470   11.0200   36.2860 O   0  0  0  0  0
   15.8470   10.1330   33.5070 C   0  0  0  0  0
    7.9033   15.8100   45.6105 H   0  0  0  0  0
   11.9823   18.2137   44.5973 H   0  0  0  0  0
   10.1136   19.1100   45.2815 H   0  0  0  0  0
   10.7795   18.3787   41.7813 H   0  0  0  0  0
   11.7496   20.2096   42.5732 H   0  0  0  0  0
   13.4035   17.2301   42.6147 H   0  0  0  0  0
   11.4550   15.4085   41.4738 H   0  0  0  0  0
   10.2498   14.8358   43.5463 H   0  0  0  0  0
   13.8063   14.7656   42.3498 H   0  0  0  0  0
   12.5568   13.8614   43.2665 H   0  0  0  0  0
   14.1230   14.8213   44.5922 H   0  0  0  0  0
   13.7061   18.6307   40.7033 H   0  0  0  0  0
   14.0026   18.5660   38.1786 H   0  0  0  0  0
   12.5640   15.8651   38.1257 H   0  0  0  0  0
   15.4909   16.7110   37.5535 H   0  0  0  0  0
   14.2274   14.9714   39.8381 H   0  0  0  0  0
   16.4311   14.1452   39.3323 H   0  0  0  0  0
   16.4816   15.0223   40.8963 H   0  0  0  0  0
   11.7180   18.7256   37.6404 H   0  0  0  0  0
   13.0150   16.1217   35.8719 H   0  0  0  0  0
   18.2081   15.5622   39.5091 H   0  0  0  0  0
   16.6223   15.6613   36.6446 H   0  0  0  0  0
   16.8240   14.7720   34.2908 H   0  0  0  0  0
   14.0768   13.4999   34.8996 H   0  0  0  0  0
   16.8212   12.2429   34.2684 H   0  0  0  0  0
   15.1313   12.1812   36.9205 H   0  0  0  0  0
   16.4257   10.1006   36.5353 H   0  0  0  0  0
   17.0401   11.0362   37.9497 H   0  0  0  0  0
   15.0384   16.0493   33.5492 H   0  0  0  0  0
   14.3682   12.7165   32.7505 H   0  0  0  0  0
   18.7360   10.2493   36.5835 H   0  0  0  0  0
   16.0524   10.6709   32.5815 H   0  0  0  0  0
   16.7861    9.8160   33.9605 H   0  0  0  0  0
   15.2326    9.2587   33.2920 H   0  0  0  0  0
  1  2  2  0  0  0
  1  4  1  0  0  0
  1 11  1  0  0  0
  2  3  1  0  0  0
  4  5  1  0  0  0
  4  6  1  0  0  0
  6  7  1  0  0  0
  6  8  1  0  0  0
  8  9  1  0  0  0
  8 10  1  0  0  0
  9 14  1  0  0  0
 10 11  1  0  0  0
 10 12  1  0  0  0
 12 13  1  0  0  0
 14 15  1  0  0  0
 14 23  1  0  0  0
 15 16  1  0  0  0
 15 20  1  0  0  0
 16 17  1  0  0  0
 16 21  1  0  0  0
 17 18  1  0  0  0
 17 22  1  0  0  0
 18 19  1  0  0  0
 18 23  1  0  0  0
 19 24  1  0  0  0
 22 25  1  0  0  0
 25 26  1  0  0  0
 25 34  1  0  0  0
 26 27  1  0  0  0
 26 31  1  0  0  0
 27 28  1  0  0  0
 27 32  1  0  0  0
 28 29  1  0  0  0
 28 33  1  0  0  0
 29 30  1  0  0  0
 29 34  1  0  0  0
 30 35  1  0  0  0
 33 36  1  0  0  0
  3 37  1  0  0  0
  4 38  1  0  0  0
  5 39  1  0  0  0
  6 40  1  0  0  0
  7 41  1  0  0  0
  8 42  1  0  0  0
 10 43  1  0  0  0
 11 44  1  0  0  0
 12 45  1  0  0  0
 12 46  1  0  0  0
 13 47  1  0  0  0
 14 48  1  0  0  0
 15 49  1  0  0  0
 16 50  1  0  0  0
 17 51  1  0  0  0
 18 52  1  0  0  0
 19 53  1  0  0  0
 19 54  1  0  0  0
 20 55  1  0  0  0
 21 56  1  0  0  0
 24 57  1  0  0  0
 25 58  1  0  0  0
 26 59  1  0  0  0
 27 60  1  0  0  0
 28 61  1  0  0  0
 29 62  1  0  0  0
 30 63  1  0  0  0
 30 64  1  0  0  0
 31 65  1  0  0  0
 32 66  1  0  0  0
 35 67  1  0  0  0
 36 68  1  0  0  0
 36 69  1  0  0  0
 36 70  1  0  0  0
M  END
$$$$
