### 
### Created by X-TOOL on Mon Sep 10 21:13:26 2018
### 

@<TRIPOS>MOLECULE
4ud7_ligand
  204   209     1     0     0
SMALL
GAST_HUCK


@<TRIPOS>ATOM
      1 C          -2.5950   13.2230  -11.4700 C.2       1 ACE         0.1752
      2 O          -1.7530   13.8970  -10.8610 O.2       1 ACE        -0.3972
      3 CH3        -2.1650   12.1350  -12.4500 C.3       1 ACE         0.0258
      4 N          -3.9090   13.3860  -11.3190 N.am      1 THR        -0.2635
      5 CA         -4.4690   14.3650  -10.3830 C.3       1 THR         0.1564
      6 C          -4.4220   13.8540   -8.9460 C.2       1 THR         0.2065
      7 O          -4.7040   12.6610   -8.6910 O.2       1 THR        -0.3943
      8 CB         -5.9090   14.7260  -10.7830 C.3       1 THR         0.0924
      9 OG1        -5.9110   15.1550  -12.1480 O.3       1 THR        -0.3874
     10 CG2        -6.4640   15.8500   -9.9210 C.3       1 THR        -0.0346
     11 N          -4.0560   14.7420   -8.0150 N.am      1 SER        -0.2615
     12 CA         -3.9880   14.3810   -6.5850 C.3       1 SER         0.1539
     13 C          -5.3880   14.1880   -5.9790 C.2       1 SER         0.2063
     14 O          -6.3810   14.7940   -6.4240 O.2       1 SER        -0.3943
     15 CB         -3.2390   15.4360   -5.7790 C.3       1 SER         0.0843
     16 OG         -3.9190   16.7000   -5.8280 O.3       1 SER        -0.3903
     17 N          -5.4690   13.3200   -4.9730 N.am      1 PHE        -0.2619
     18 CA         -6.7050   13.1940   -4.2190 C.3       1 PHE         0.1402
     19 C          -7.1190   14.5860   -3.6730 C.2       1 PHE         0.2030
     20 O          -8.2760   15.0160   -3.7400 O.2       1 PHE        -0.3945
     21 CB         -6.5400   12.2360   -3.0220 C.3       1 PHE         0.0214
     22 CG         -7.6660   12.3740   -2.0290 C.ar      1 PHE        -0.0386
     23 CD1        -8.9150   11.7900   -2.2900 C.ar      1 PHE        -0.0601
     24 CD2        -7.5020   13.1440   -0.8490 C.ar      1 PHE        -0.0601
     25 CE1        -9.9770   11.9770   -1.4230 C.ar      1 PHE        -0.0686
     26 CE2        -8.5710   13.3220    0.0180 C.ar      1 PHE        -0.0686
     27 CZ         -9.7980   12.7420   -0.2570 C.ar      1 PHE        -0.0687
     28 OAE        -8.0830   18.1740   -3.3390 O.2       1 2JN        -0.3419
     29 CAG        -7.0110   17.5990   -3.5470 C.2       1 2JN         0.2263
     30 CAQ        -6.2770   16.7520   -2.5390 C.3       1 2JN         0.1304
     31 CAA        -4.9060   17.3340   -2.2340 C.3       1 2JN        -0.0320
     32 NAC        -6.0220   15.4240   -3.1590 N.am      1 2JN        -0.2741
     33 CAO        -7.1720   16.6250   -1.3040 C.3       1 2JN        -0.0186
     34 CAM        -7.2410   17.8760   -0.4240 C.3       1 2JN        -0.0449
     35 CAK        -8.3940   17.6810    0.5650 C.3       1 2JN        -0.0365
     36 CAI        -8.3990   18.8510    1.5170 C.2       1 2JN        -0.0987
     37 N          -6.6220   17.5530   -5.0010 N.am      1 GLU        -0.2628
     38 CA         -7.2790   18.3850   -6.0030 C.3       1 GLU         0.1326
     39 C          -8.6890   17.8800   -6.3030 C.2       1 GLU         0.2043
     40 O          -9.5930   18.7010   -6.4780 O.2       1 GLU        -0.3944
     41 CB         -6.4330   18.4460   -7.2550 C.3       1 GLU        -0.0007
     42 CG         -6.9000   19.5660   -8.1400 C.3       1 GLU         0.0044
     43 CD         -6.0770   19.7140   -9.4000 C.2       1 GLU         0.0350
     44 OE1        -4.9070   19.2580   -9.4470 O.co2     1 GLU        -0.5690
     45 OE2        -6.6230   20.3110  -10.3420 O.co2     1 GLU        -0.5690
     46 N          -8.8880   16.5440   -6.3360 N.am      1 TYR        -0.2621
     47 CA        -10.2340   15.9970   -6.5360 C.3       1 TYR         0.1390
     48 C         -11.1940   16.4260   -5.4260 C.2       1 TYR         0.2058
     49 O         -12.3290   16.8110   -5.7050 O.2       1 TYR        -0.3942
     50 CB        -10.2340   14.4560   -6.6020 C.3       1 TYR         0.0163
     51 CG         -9.7770   13.8760   -7.9220 C.ar      1 TYR        -0.0493
     52 CD1       -10.4690   14.1470   -9.1140 C.ar      1 TYR        -0.0685
     53 CD2        -8.6700   13.0220   -7.9710 C.ar      1 TYR        -0.0685
     54 CE1       -10.0510   13.5920  -10.3250 C.ar      1 TYR        -0.0398
     55 CE2        -8.2460   12.4660   -9.1800 C.ar      1 TYR        -0.0398
     56 CZ         -8.9450   12.7600  -10.3430 C.ar      1 TYR         0.0805
     57 OH         -8.5200   12.1970  -11.5210 O.3       1 TYR        -0.3376
     58 N         -10.7480   16.3380   -4.1730 N.am      1 TRP        -0.2625
     59 CA        -11.6490   16.5930   -3.0370 C.3       1 TRP         0.1349
     60 C         -11.9650   18.0840   -2.9350 C.2       1 TRP         0.2022
     61 O         -13.0500   18.5010   -2.5250 O.2       1 TRP        -0.3946
     62 CB        -11.0310   16.0730   -1.7380 C.3       1 TRP         0.0042
     63 CG        -12.0040   15.9890   -0.5940 C.2       1 TRP        -0.0418
     64 CD1       -12.1720   16.9070    0.4260 C.2       1 TRP         0.0167
     65 CD2       -12.9230   14.9290   -0.3340 C.ar      1 TRP        -0.0214
     66 NE1       -13.1560   16.4670    1.2980 N.pl3     1 TRP        -0.2890
     67 CE2       -13.6240   15.2550    0.8570 C.ar      1 TRP         0.0603
     68 CE3       -13.2100   13.7140   -0.9770 C.ar      1 TRP        -0.0747
     69 CZ2       -14.6140   14.4090    1.4070 C.ar      1 TRP        -0.0443
     70 CZ3       -14.2030   12.8680   -0.4280 C.ar      1 TRP        -0.0792
     71 CH2       -14.8870   13.2280    0.7550 C.ar      1 TRP        -0.0768
     72 OAE       -12.9430   21.8320   -3.6090 O.2       1 2JN        -0.3419
     73 CAG       -12.1940   20.9030   -3.9320 C.2       1 2JN         0.2263
     74 CAQ       -10.9520   20.4860   -3.1900 C.3       1 2JN         0.1304
     75 CAA        -9.7470   21.0670   -3.9240 C.3       1 2JN        -0.0320
     76 NAC       -10.8270   19.0090   -3.2610 N.am      1 2JN        -0.2742
     77 CAO       -11.0620   20.9670   -1.7400 C.3       1 2JN        -0.0186
     78 CAM        -9.8250   20.6490   -0.9150 C.3       1 2JN        -0.0449
     79 CAK       -10.2950   20.1170    0.4190 C.3       1 2JN        -0.0365
     80 CAI        -9.1950   19.9100    1.4290 C.2       1 2JN        -0.0987
     81 N         -12.7170   20.0430   -5.3050 N.am      1 LEU        -0.2629
     82 CA        -13.9260   20.3520   -6.1180 C.3       1 LEU         0.1314
     83 C         -15.2550   20.1380   -5.3760 C.2       1 LEU         0.2041
     84 O         -16.2850   20.6240   -5.8250 O.2       1 LEU        -0.3944
     85 CB        -13.8850   19.5780   -7.4260 C.3       1 LEU        -0.0099
     86 CG        -12.5930   19.8100   -8.2070 C.3       1 LEU        -0.0425
     87 CD1       -12.5260   18.8740   -9.4040 C.3       1 LEU        -0.0625
     88 CD2       -12.4470   21.2680   -8.6300 C.3       1 LEU        -0.0625
     89 N         -15.2400   19.4350   -4.2470 N.am      1 LEU        -0.2637
     90 CA        -16.4680   19.3370   -3.4310 C.3       1 LEU         0.1314
     91 C         -16.8690   20.6910   -2.7850 C.2       1 LEU         0.2058
     92 O         -17.9230   21.2340   -3.1310 O.2       1 LEU        -0.3942
     93 CB        -16.3980   18.1940   -2.4100 C.3       1 LEU        -0.0101
     94 CG        -16.4200   16.7520   -2.9200 C.3       1 LEU        -0.0425
     95 CD1       -16.2540   15.8240   -1.7320 C.3       1 LEU        -0.0625
     96 CD2       -17.7150   16.4190   -3.6230 C.3       1 LEU        -0.0625
     97 N         -16.0480   21.2370   -1.8510 N.am      1 PRO        -0.2556
     98 CA        -16.3090   22.6340   -1.4940 C.3       1 PRO         0.0972
     99 C         -15.5010   23.5710   -2.3950 C.2       1 PRO         0.0603
    100 O         -16.0660   24.3130   -3.2050 O.co2     1 PRO        -0.5666
    101 CB        -15.7960   22.7170   -0.0540 C.3       1 PRO        -0.0159
    102 CG        -14.6390   21.7690   -0.0320 C.3       1 PRO        -0.0288
    103 CD        -15.0040   20.6490   -0.9810 C.3       1 PRO         0.0362
    104 OXT       -14.2680   23.6040   -2.3300 O.co2     1 PRO        -0.5666
    105 H1         -3.0568   11.6574  -12.8820 H         1 ACE         0.0467
    106 H2         -1.5653   11.3803  -11.9201 H         1 ACE         0.0467
    107 H3         -1.5630   12.5830  -13.2543 H         1 ACE         0.0467
    108 H4         -4.5324   12.8227  -11.8613 H         1 THR         0.1883
    109 H5         -3.8579   15.2779  -10.4390 H         1 THR         0.0826
    110 H6         -6.5476   13.8373  -10.6720 H         1 THR         0.0639
    111 H7         -6.7968   15.3810  -12.4065 H         1 THR         0.2101
    112 H8         -7.4927   16.0797  -10.2358 H         1 THR         0.0257
    113 H9         -5.8362   16.7457  -10.0376 H         1 THR         0.0257
    114 H10        -6.4645   15.5373   -8.8664 H         1 THR         0.0257
    115 H11        -3.8227   15.6734   -8.2945 H         1 SER         0.1884
    116 H12        -3.4418   13.4297   -6.5032 H         1 SER         0.0823
    117 H13        -2.2276   15.5554   -6.1948 H         1 SER         0.0606
    118 H14        -3.1685   15.1059   -4.7321 H         1 SER         0.0606
    119 H15        -3.9792   16.9911   -6.7302 H         1 SER         0.2097
    120 H16        -4.6791   12.7544   -4.7360 H         1 PHE         0.1885
    121 H17        -7.4921   12.8093   -4.8842 H         1 PHE         0.0823
    122 H18        -5.5900   12.4611   -2.5152 H         1 PHE         0.0474
    123 H19        -6.5204   11.2014   -3.3951 H         1 PHE         0.0474
    124 H20        -9.0492   11.1861   -3.1801 H         1 PHE         0.0557
    125 H21        -6.5415   13.5935   -0.6244 H         1 PHE         0.0557
    126 H22       -10.9426   11.5357   -1.6417 H         1 PHE         0.0599
    127 H23        -8.4449   13.9179    0.9147 H         1 PHE         0.0599
    128 H24       -10.6250   12.8785    0.4304 H         1 PHE         0.0559
    129 H25        -4.3933   16.6979   -1.4975 H         1 2JN         0.0242
    130 H26        -5.0211   18.3487   -1.8251 H         1 2JN         0.0242
    131 H27        -4.3117   17.3764   -3.1586 H         1 2JN         0.0242
    132 H28        -5.0814   15.0916   -3.2286 H         1 2JN         0.1839
    133 H29        -6.7903   15.7962   -0.6896 H         1 2JN         0.0279
    134 H30        -8.1915   16.3902   -1.6439 H         1 2JN         0.0279
    135 H31        -7.4267   18.7634   -1.0469 H         1 2JN         0.0284
    136 H32        -6.2950   18.0032    0.1227 H         1 2JN         0.0284
    137 H33        -8.2502   16.7454    1.1253 H         1 2JN         0.0388
    138 H34        -9.3489   17.6394    0.0206 H         1 2JN         0.0388
    139 H35        -7.6916   18.8250    2.3445 H         1 2JN         0.0450
    140 H36        -5.8914   16.9335   -5.2883 H         1 GLU         0.1889
    141 H37        -7.3653   19.4045   -5.5990 H         1 GLU         0.0803
    142 H38        -6.5182   17.4934   -7.7984 H         1 GLU         0.0330
    143 H39        -5.3826   18.6165   -6.9763 H         1 GLU         0.0330
    144 H40        -6.8426   20.5067   -7.5728 H         1 GLU         0.0433
    145 H41        -7.9446   19.3732   -8.4257 H         1 GLU         0.0433
    146 H42        -8.1118   15.9236   -6.2232 H         1 TYR         0.1885
    147 H43       -10.6128   16.3850   -7.4931 H         1 TYR         0.0821
    148 H44       -11.2591   14.1056   -6.4113 H         1 TYR         0.0453
    149 H45        -9.5653   14.0800   -5.8136 H         1 TYR         0.0453
    150 H46       -11.3379   14.7948   -9.0934 H         1 TYR         0.0530
    151 H47        -8.1340   12.7886   -7.0581 H         1 TYR         0.0530
    152 H48       -10.5870   13.8104  -11.2415 H         1 TYR         0.0525
    153 H49        -7.3815   11.8127   -9.2100 H         1 TYR         0.0525
    154 H50        -8.5542   11.2504  -11.4487 H         1 TYR         0.2458
    155 H51        -9.7926   16.0965   -4.0030 H         1 TRP         0.1884
    156 H52       -12.5904   16.0516   -3.2119 H         1 TRP         0.0815
    157 H53       -10.2127   16.7487   -1.4484 H         1 TRP         0.0397
    158 H54       -10.6272   15.0669   -1.9244 H         1 TRP         0.0397
    159 H55       -11.6147   17.8369    0.5291 H         1 TRP         0.0795
    160 H56       -13.4816   16.9670    2.1376 H         1 TRP         0.2216
    161 H57       -12.6800   13.4289   -1.8786 H         1 TRP         0.0540
    162 H58       -15.1416   14.6818    2.3138 H         1 TRP         0.0541
    163 H59       -14.4417   11.9326   -0.9210 H         1 TRP         0.0510
    164 H60       -15.6413   12.5611    1.1567 H         1 TRP         0.0530
    165 H61        -8.8240   20.7763   -3.4010 H         1 2JN         0.0242
    166 H62        -9.8255   22.1639   -3.9469 H         1 2JN         0.0242
    167 H63        -9.7227   20.6795   -4.9532 H         1 2JN         0.0242
    168 H64        -9.9507   18.6138   -3.5367 H         1 2JN         0.1839
    169 H65       -11.9301   20.4786   -1.2732 H         1 2JN         0.0279
    170 H66       -11.2116   22.0568   -1.7422 H         1 2JN         0.0279
    171 H67        -9.2276   21.5606   -0.7666 H         1 2JN         0.0284
    172 H68        -9.2156   19.8907   -1.4284 H         1 2JN         0.0284
    173 H69       -10.7918   19.1505    0.2484 H         1 2JN         0.0388
    174 H70       -11.0179   20.8317    0.8392 H         1 2JN         0.0388
    175 H71        -9.0383   20.7054    2.1561 H         1 2JN         0.0450
    176 H72       -12.1633   19.2609   -5.5910 H         1 LEU         0.1889
    177 H73       -13.8764   21.4219   -6.3685 H         1 LEU         0.0802
    178 H74       -14.7346   19.8943   -8.0490 H         1 LEU         0.0315
    179 H75       -13.9735   18.5045   -7.2028 H         1 LEU         0.0315
    180 H76       -11.7496   19.5700   -7.5429 H         1 LEU         0.0298
    181 H77       -11.5916   19.0518   -9.9566 H         1 LEU         0.0232
    182 H78       -13.3846   19.0624  -10.0653 H         1 LEU         0.0232
    183 H79       -12.5532   17.8309   -9.0558 H         1 LEU         0.0232
    184 H80       -12.5000   21.9146   -7.7417 H         1 LEU         0.0232
    185 H81       -13.2586   21.5315   -9.3242 H         1 LEU         0.0232
    186 H82       -11.4771   21.4096   -9.1292 H         1 LEU         0.0232
    187 H83       -14.4023   18.9753   -3.9520 H         1 LEU         0.1883
    188 H84       -17.2794   19.0781   -4.1271 H         1 LEU         0.0800
    189 H85       -17.2571   18.3112   -1.7331 H         1 LEU         0.0315
    190 H86       -15.4642   18.3228   -1.8431 H         1 LEU         0.0315
    191 H87       -15.5858   16.6072   -3.6222 H         1 LEU         0.0298
    192 H88       -16.2671   14.7798   -2.0778 H         1 LEU         0.0232
    193 H89       -17.0788   15.9856   -1.0224 H         1 LEU         0.0232
    194 H90       -15.2957   16.0334   -1.2342 H         1 LEU         0.0232
    195 H91       -17.8453   17.0870   -4.4872 H         1 LEU         0.0232
    196 H92       -18.5555   16.5528   -2.9261 H         1 LEU         0.0232
    197 H93       -17.6871   15.3748   -3.9677 H         1 LEU         0.0232
    198 H94       -17.3802   22.8758   -1.5582 H         1 PRO         0.0728
    199 H95       -16.5736   22.4027    0.6577 H         1 PRO         0.0306
    200 H96       -15.4695   23.7393    0.1874 H         1 PRO         0.0306
    201 H97       -14.4858   21.3754    0.9837 H         1 PRO         0.0286
    202 H98       -13.7231   22.2749   -0.3712 H         1 PRO         0.0286
    203 H99       -14.1306   20.3397   -1.5739 H         1 PRO         0.0524
    204 H100      -15.3981   19.7828   -0.4292 H         1 PRO         0.0524
@<TRIPOS>BOND
     1    1    2 2  
     2    1    3 1  
     3    4    1 am 
     4    5    4 1  
     5    6    5 1  
     6    5    8 1  
     7    6    7 2  
     8   11    6 am 
     9    8    9 1  
    10    8   10 1  
    11   12   11 1  
    12   13   12 1  
    13   12   15 1  
    14   13   14 2  
    15   17   13 am 
    16   15   16 1  
    17   18   17 1  
    18   19   18 1  
    19   18   21 1  
    20   19   20 2  
    21   32   19 am 
    22   21   22 1  
    23   22   23 ar 
    24   22   24 ar 
    25   23   25 ar 
    26   24   26 ar 
    27   25   27 ar 
    28   26   27 ar 
    29   29   28 2  
    30   29   30 1  
    31   37   29 am 
    32   30   31 1  
    33   30   32 1  
    34   30   33 1  
    35   33   34 1  
    36   34   35 1  
    37   35   36 1  
    38   36   80 2  
    39   38   37 1  
    40   39   38 1  
    41   38   41 1  
    42   39   40 2  
    43   46   39 am 
    44   41   42 1  
    45   42   43 1  
    46   43   44 ar 
    47   43   45 ar 
    48   47   46 1  
    49   48   47 1  
    50   47   50 1  
    51   48   49 2  
    52   58   48 am 
    53   50   51 1  
    54   51   52 ar 
    55   51   53 ar 
    56   52   54 ar 
    57   53   55 ar 
    58   54   56 ar 
    59   55   56 ar 
    60   56   57 1  
    61   59   58 1  
    62   60   59 1  
    63   59   62 1  
    64   60   61 2  
    65   76   60 am 
    66   62   63 1  
    67   63   64 2  
    68   63   65 1  
    69   64   66 1  
    70   65   67 ar 
    71   65   68 ar 
    72   67   66 1  
    73   67   69 ar 
    74   68   70 ar 
    75   69   71 ar 
    76   70   71 ar 
    77   73   72 2  
    78   74   73 1  
    79   73   81 am 
    80   74   75 1  
    81   74   76 1  
    82   74   77 1  
    83   77   78 1  
    84   78   79 1  
    85   79   80 1  
    86   81   82 1  
    87   82   83 1  
    88   82   85 1  
    89   83   84 2  
    90   83   89 am 
    91   85   86 1  
    92   86   87 1  
    93   86   88 1  
    94   89   90 1  
    95   90   91 1  
    96   90   93 1  
    97   91   92 2  
    98   91   97 am 
    99   93   94 1  
   100   94   95 1  
   101   94   96 1  
   102   97   98 1  
   103   97  103 1  
   104   98   99 1  
   105   98  101 1  
   106   99  100 ar 
   107   99  104 ar 
   108  101  102 1  
   109  102  103 1  
   110    3  105 1  
   111    3  106 1  
   112    3  107 1  
   113    4  108 1  
   114    5  109 1  
   115    8  110 1  
   116    9  111 1  
   117   10  112 1  
   118   10  113 1  
   119   10  114 1  
   120   11  115 1  
   121   12  116 1  
   122   15  117 1  
   123   15  118 1  
   124   16  119 1  
   125   17  120 1  
   126   18  121 1  
   127   21  122 1  
   128   21  123 1  
   129   23  124 1  
   130   24  125 1  
   131   25  126 1  
   132   26  127 1  
   133   27  128 1  
   134   31  129 1  
   135   31  130 1  
   136   31  131 1  
   137   32  132 1  
   138   33  133 1  
   139   33  134 1  
   140   34  135 1  
   141   34  136 1  
   142   35  137 1  
   143   35  138 1  
   144   36  139 1  
   145   37  140 1  
   146   38  141 1  
   147   41  142 1  
   148   41  143 1  
   149   42  144 1  
   150   42  145 1  
   151   46  146 1  
   152   47  147 1  
   153   50  148 1  
   154   50  149 1  
   155   52  150 1  
   156   53  151 1  
   157   54  152 1  
   158   55  153 1  
   159   57  154 1  
   160   58  155 1  
   161   59  156 1  
   162   62  157 1  
   163   62  158 1  
   164   64  159 1  
   165   66  160 1  
   166   68  161 1  
   167   69  162 1  
   168   70  163 1  
   169   71  164 1  
   170   75  165 1  
   171   75  166 1  
   172   75  167 1  
   173   76  168 1  
   174   77  169 1  
   175   77  170 1  
   176   78  171 1  
   177   78  172 1  
   178   79  173 1  
   179   79  174 1  
   180   80  175 1  
   181   81  176 1  
   182   82  177 1  
   183   85  178 1  
   184   85  179 1  
   185   86  180 1  
   186   87  181 1  
   187   87  182 1  
   188   87  183 1  
   189   88  184 1  
   190   88  185 1  
   191   88  186 1  
   192   89  187 1  
   193   90  188 1  
   194   93  189 1  
   195   93  190 1  
   196   94  191 1  
   197   95  192 1  
   198   95  193 1  
   199   95  194 1  
   200   96  195 1  
   201   96  196 1  
   202   96  197 1  
   203   98  198 1  
   204  101  199 1  
   205  101  200 1  
   206  102  201 1  
   207  102  202 1  
   208  103  203 1  
   209  103  204 1  
@<TRIPOS>SUBSTRUCTURE
     1 ACE         1

