4ud7_ligand
  -I-interpret- 

205210  0  0  0  0  0  0  0  0999 V2000
   -2.5950   13.2230  -11.4700 C   0  0  0  0  0
   -1.7530   13.8970  -10.8610 O   0  0  0  0  0
   -2.1650   12.1350  -12.4500 C   0  0  0  0  0
   -3.9090   13.3860  -11.3190 N   0  0  0  0  0
   -4.4690   14.3650  -10.3830 C   0  0  0  0  0
   -4.4220   13.8540   -8.9460 C   0  0  0  0  0
   -4.7040   12.6610   -8.6910 O   0  0  0  0  0
   -5.9090   14.7260  -10.7830 C   0  0  0  0  0
   -5.9110   15.1550  -12.1480 O   0  0  0  0  0
   -6.4640   15.8500   -9.9210 C   0  0  0  0  0
   -4.0560   14.7420   -8.0150 N   0  0  0  0  0
   -3.9880   14.3810   -6.5850 C   0  0  0  0  0
   -5.3880   14.1880   -5.9790 C   0  0  0  0  0
   -6.3810   14.7940   -6.4240 O   0  0  0  0  0
   -3.2390   15.4360   -5.7790 C   0  0  0  0  0
   -3.9190   16.7000   -5.8280 O   0  0  0  0  0
   -5.4690   13.3200   -4.9730 N   0  0  0  0  0
   -6.7050   13.1940   -4.2190 C   0  0  0  0  0
   -7.1190   14.5860   -3.6730 C   0  0  0  0  0
   -8.2760   15.0160   -3.7400 O   0  0  0  0  0
   -6.5400   12.2360   -3.0220 C   0  0  0  0  0
   -7.6660   12.3740   -2.0290 C   0  0  0  0  0
   -8.9150   11.7900   -2.2900 C   0  0  0  0  0
   -7.5020   13.1440   -0.8490 C   0  0  0  0  0
   -9.9770   11.9770   -1.4230 C   0  0  0  0  0
   -8.5710   13.3220    0.0180 C   0  0  0  0  0
   -9.7980   12.7420   -0.2570 C   0  0  0  0  0
   -8.0830   18.1740   -3.3390 O   0  0  0  0  0
   -7.0110   17.5990   -3.5470 C   0  0  0  0  0
   -6.2770   16.7520   -2.5390 C   0  0  0  0  0
   -4.9060   17.3340   -2.2340 C   0  0  0  0  0
   -6.0220   15.4240   -3.1590 N   0  0  0  0  0
   -7.1720   16.6250   -1.3040 C   0  0  0  0  0
   -7.2410   17.8760   -0.4240 C   0  0  0  0  0
   -8.3940   17.6810    0.5650 C   0  0  0  0  0
   -8.3990   18.8510    1.5170 C   0  0  0  0  0
   -6.6220   17.5530   -5.0010 N   0  0  0  0  0
   -7.2790   18.3850   -6.0030 C   0  0  0  0  0
   -8.6890   17.8800   -6.3030 C   0  0  0  0  0
   -9.5930   18.7010   -6.4780 O   0  0  0  0  0
   -6.4330   18.4460   -7.2550 C   0  0  0  0  0
   -6.9000   19.5660   -8.1400 C   0  0  0  0  0
   -6.0770   19.7140   -9.4000 C   0  0  0  0  0
   -4.9070   19.2580   -9.4470 O   0  0  0  0  0
   -6.6230   20.3110  -10.3420 O   0  0  0  0  0
   -8.8880   16.5440   -6.3360 N   0  0  0  0  0
  -10.2340   15.9970   -6.5360 C   0  0  0  0  0
  -11.1940   16.4260   -5.4260 C   0  0  0  0  0
  -12.3290   16.8110   -5.7050 O   0  0  0  0  0
  -10.2340   14.4560   -6.6020 C   0  0  0  0  0
   -9.7770   13.8760   -7.9220 C   0  0  0  0  0
  -10.4690   14.1470   -9.1140 C   0  0  0  0  0
   -8.6700   13.0220   -7.9710 C   0  0  0  0  0
  -10.0510   13.5920  -10.3250 C   0  0  0  0  0
   -8.2460   12.4660   -9.1800 C   0  0  0  0  0
   -8.9450   12.7600  -10.3430 C   0  0  0  0  0
   -8.5200   12.1970  -11.5210 O   0  0  0  0  0
  -10.7480   16.3380   -4.1730 N   0  0  0  0  0
  -11.6490   16.5930   -3.0370 C   0  0  0  0  0
  -11.9650   18.0840   -2.9350 C   0  0  0  0  0
  -13.0500   18.5010   -2.5250 O   0  0  0  0  0
  -11.0310   16.0730   -1.7380 C   0  0  0  0  0
  -12.0040   15.9890   -0.5940 C   0  0  0  0  0
  -12.1720   16.9070    0.4260 C   0  0  0  0  0
  -12.9230   14.9290   -0.3340 C   0  0  0  0  0
  -13.1560   16.4670    1.2980 N   0  0  0  0  0
  -13.6240   15.2550    0.8570 C   0  0  0  0  0
  -13.2100   13.7140   -0.9770 C   0  0  0  0  0
  -14.6140   14.4090    1.4070 C   0  0  0  0  0
  -14.2030   12.8680   -0.4280 C   0  0  0  0  0
  -14.8870   13.2280    0.7550 C   0  0  0  0  0
  -12.9430   21.8320   -3.6090 O   0  0  0  0  0
  -12.1940   20.9030   -3.9320 C   0  0  0  0  0
  -10.9520   20.4860   -3.1900 C   0  0  0  0  0
   -9.7470   21.0670   -3.9240 C   0  0  0  0  0
  -10.8270   19.0090   -3.2610 N   0  0  0  0  0
  -11.0620   20.9670   -1.7400 C   0  0  0  0  0
   -9.8250   20.6490   -0.9150 C   0  0  0  0  0
  -10.2950   20.1170    0.4190 C   0  0  0  0  0
   -9.1950   19.9100    1.4290 C   0  0  0  0  0
  -12.7170   20.0430   -5.3050 N   0  0  0  0  0
  -13.9260   20.3520   -6.1180 C   0  0  0  0  0
  -15.2550   20.1380   -5.3760 C   0  0  0  0  0
  -16.2850   20.6240   -5.8250 O   0  0  0  0  0
  -13.8850   19.5780   -7.4260 C   0  0  0  0  0
  -12.5930   19.8100   -8.2070 C   0  0  0  0  0
  -12.5260   18.8740   -9.4040 C   0  0  0  0  0
  -12.4470   21.2680   -8.6300 C   0  0  0  0  0
  -15.2400   19.4350   -4.2470 N   0  0  0  0  0
  -16.4680   19.3370   -3.4310 C   0  0  0  0  0
  -16.8690   20.6910   -2.7850 C   0  0  0  0  0
  -17.9230   21.2340   -3.1310 O   0  0  0  0  0
  -16.3980   18.1940   -2.4100 C   0  0  0  0  0
  -16.4200   16.7520   -2.9200 C   0  0  0  0  0
  -16.2540   15.8240   -1.7320 C   0  0  0  0  0
  -17.7150   16.4190   -3.6230 C   0  0  0  0  0
  -16.0480   21.2370   -1.8510 N   0  0  0  0  0
  -16.3090   22.6340   -1.4940 C   0  0  0  0  0
  -15.5010   23.5710   -2.3950 C   0  0  0  0  0
  -16.0660   24.3130   -3.2050 O   0  0  0  0  0
  -15.7960   22.7170   -0.0540 C   0  0  0  0  0
  -14.6390   21.7690   -0.0320 C   0  0  0  0  0
  -15.0040   20.6490   -0.9810 C   0  0  0  0  0
  -14.2680   23.6040   -2.3300 O   0  0  0  0  0
   -1.5686   12.5802  -13.2464 H   0  0  0  0  0
   -1.5709   11.3879  -11.9237 H   0  0  0  0  0
   -3.0494   11.6626  -12.8774 H   0  0  0  0  0
   -4.5449   12.8115  -11.8721 H   0  0  0  0  0
   -3.8556   15.2646  -10.4333 H   0  0  0  0  0
   -6.5346   13.8444  -10.6435 H   0  0  0  0  0
   -5.5625   14.4536  -12.7032 H   0  0  0  0  0
   -5.8382   16.7354  -10.0336 H   0  0  0  0  0
   -7.4815   16.0801  -10.2371 H   0  0  0  0  0
   -6.4685   15.5371   -8.8769 H   0  0  0  0  0
   -3.8180   15.6920   -8.3000 H   0  0  0  0  0
   -3.4464   13.4366   -6.5318 H   0  0  0  0  0
   -2.2426   15.5583   -6.2037 H   0  0  0  0  0
   -3.1837   15.1087   -4.7408 H   0  0  0  0  0
   -3.4288   17.3459   -5.3142 H   0  0  0  0  0
   -4.6633   12.7431   -4.7313 H   0  0  0  0  0
   -7.4655   12.7947   -4.8900 H   0  0  0  0  0
   -5.6066   12.4812   -2.5153 H   0  0  0  0  0
   -6.5427   11.2138   -3.4005 H   0  0  0  0  0
   -9.0500   11.1827   -3.1851 H   0  0  0  0  0
   -6.5362   13.5960   -0.6232 H   0  0  0  0  0
  -10.9480   11.5333   -1.6430 H   0  0  0  0  0
   -8.4442   13.9212    0.9197 H   0  0  0  0  0
  -10.6295   12.8793    0.4342 H   0  0  0  0  0
   -4.3182   17.3756   -3.1510 H   0  0  0  0  0
   -5.0214   18.3394   -1.8290 H   0  0  0  0  0
   -4.3990   16.7029   -1.5041 H   0  0  0  0  0
   -5.0626   15.0849   -3.2300 H   0  0  0  0  0
   -6.7492   15.8305   -0.6891 H   0  0  0  0  0
   -8.1831   16.4384   -1.6658 H   0  0  0  0  0
   -7.4092   18.7628   -1.0351 H   0  0  0  0  0
   -6.3014   18.0186    0.1097 H   0  0  0  0  0
   -8.2627   16.7496    1.1157 H   0  0  0  0  0
   -9.3423   17.6282    0.0302 H   0  0  0  0  0
   -7.6909   18.8249    2.3453 H   0  0  0  0  0
   -5.8768   16.9212   -5.2940 H   0  0  0  0  0
   -7.3808   19.3954   -5.6069 H   0  0  0  0  0
   -6.5235   17.5029   -7.7940 H   0  0  0  0  0
   -5.3938   18.6202   -6.9761 H   0  0  0  0  0
   -6.8076   20.4934   -7.5748 H   0  0  0  0  0
   -7.9245   19.3447   -8.4393 H   0  0  0  0  0
   -4.6945   18.8382   -8.6102 H   0  0  0  0  0
   -8.0963   15.9112   -6.2210 H   0  0  0  0  0
  -10.5718   16.3996   -7.4909 H   0  0  0  0  0
  -11.2648   14.1336   -6.4553 H   0  0  0  0  0
   -9.5325   14.1074   -5.8441 H   0  0  0  0  0
  -11.3427   14.7984   -9.0933 H   0  0  0  0  0
   -8.1310   12.7873   -7.0531 H   0  0  0  0  0
  -10.5900   13.8116  -11.2466 H   0  0  0  0  0
   -7.3767   11.8091   -9.2101 H   0  0  0  0  0
   -7.7470   11.6529  -11.3537 H   0  0  0  0  0
   -9.7735   16.0917   -3.9996 H   0  0  0  0  0
  -12.5840   16.0581   -3.2038 H   0  0  0  0  0
  -10.2476   16.7730   -1.4477 H   0  0  0  0  0
  -10.6690   15.0633   -1.9316 H   0  0  0  0  0
  -11.6141   17.8377    0.5292 H   0  0  0  0  0
  -12.6770   13.4273   -1.8836 H   0  0  0  0  0
  -15.1445   14.6833    2.3188 H   0  0  0  0  0
  -14.4431   11.9274   -0.9237 H   0  0  0  0  0
  -15.6455   12.5574    1.1590 H   0  0  0  0  0
   -9.7241   20.6823   -4.9436 H   0  0  0  0  0
   -9.8260   22.1539   -3.9460 H   0  0  0  0  0
   -8.8331   20.7783   -3.4048 H   0  0  0  0  0
   -9.9332   18.6059   -3.5422 H   0  0  0  0  0
  -11.9079   20.4539   -1.2825 H   0  0  0  0  0
  -11.1811   22.0503   -1.7570 H   0  0  0  0  0
   -9.2180   21.5437   -0.7767 H   0  0  0  0  0
   -9.2062   19.9101   -1.4241 H   0  0  0  0  0
  -10.7468   19.1425    0.2337 H   0  0  0  0  0
  -10.9775   20.8574    0.8363 H   0  0  0  0  0
   -9.0381   20.7061    2.1568 H   0  0  0  0  0
  -12.1522   19.2453   -5.5967 H   0  0  0  0  0
  -13.8937   21.4210   -6.3283 H   0  0  0  0  0
  -14.7157   19.9196   -8.0436 H   0  0  0  0  0
  -13.9469   18.5159   -7.1888 H   0  0  0  0  0
  -11.7533   19.5856   -7.5493 H   0  0  0  0  0
  -12.5531   17.8408   -9.0577 H   0  0  0  0  0
  -13.3773   19.0616  -10.0584 H   0  0  0  0  0
  -11.5998   19.0511   -9.9507 H   0  0  0  0  0
  -13.2882   21.5469   -9.2646 H   0  0  0  0  0
  -12.4328   21.9024   -7.7438 H   0  0  0  0  0
  -11.5160   21.3931   -9.1829 H   0  0  0  0  0
  -14.3856   18.9661   -3.9461 H   0  0  0  0  0
  -17.2737   19.0852   -4.1206 H   0  0  0  0  0
  -17.3011   18.2957   -1.8082 H   0  0  0  0  0
  -15.4295   18.3078   -1.9230 H   0  0  0  0  0
  -15.6101   16.6301   -3.6393 H   0  0  0  0  0
  -15.3041   16.0325   -1.2397 H   0  0  0  0  0
  -17.0718   15.9852   -1.0296 H   0  0  0  0  0
  -16.2672   14.7897   -2.0759 H   0  0  0  0  0
  -18.5466   16.5480   -2.9302 H   0  0  0  0  0
  -17.8450   17.0842   -4.4766 H   0  0  0  0  0
  -17.6845   15.3854   -3.9676 H   0  0  0  0  0
  -17.3546   22.9222   -1.6028 H   0  0  0  0  0
  -17.0155   24.1834   -3.1477 H   0  0  0  0  0
  -16.5621   22.4537    0.6752 H   0  0  0  0  0
  -15.5076   23.7302    0.2260 H   0  0  0  0  0
  -14.4553   21.3916    0.9740 H   0  0  0  0  0
  -13.7167   22.2627   -0.3381 H   0  0  0  0  0
  -14.1445   20.2956   -1.5506 H   0  0  0  0  0
  -15.3580   19.7625   -0.4548 H   0  0  0  0  0
  1  2  2  0  0  0
  1  3  1  0  0  0
  4  1  1  0  0  0
  5  4  1  0  0  0
  6  5  1  0  0  0
  5  8  1  0  0  0
  6  7  2  0  0  0
 11  6  1  0  0  0
  8  9  1  0  0  0
  8 10  1  0  0  0
 12 11  1  0  0  0
 13 12  1  0  0  0
 12 15  1  0  0  0
 13 14  2  0  0  0
 17 13  1  0  0  0
 15 16  1  0  0  0
 18 17  1  0  0  0
 19 18  1  0  0  0
 18 21  1  0  0  0
 19 20  2  0  0  0
 32 19  1  0  0  0
 21 22  1  0  0  0
 22 23  4  0  0  0
 22 24  4  0  0  0
 23 25  4  0  0  0
 24 26  4  0  0  0
 25 27  4  0  0  0
 26 27  4  0  0  0
 29 28  2  0  0  0
 29 30  1  0  0  0
 37 29  1  0  0  0
 30 31  1  0  0  0
 30 32  1  0  0  0
 30 33  1  0  0  0
 33 34  1  0  0  0
 34 35  1  0  0  0
 35 36  1  0  0  0
 36 80  2  0  0  0
 38 37  1  0  0  0
 39 38  1  0  0  0
 38 41  1  0  0  0
 39 40  2  0  0  0
 46 39  1  0  0  0
 41 42  1  0  0  0
 42 43  1  0  0  0
 43 44  1  0  0  0
 43 45  2  0  0  0
 47 46  1  0  0  0
 48 47  1  0  0  0
 47 50  1  0  0  0
 48 49  2  0  0  0
 58 48  1  0  0  0
 50 51  1  0  0  0
 51 52  4  0  0  0
 51 53  4  0  0  0
 52 54  4  0  0  0
 53 55  4  0  0  0
 54 56  4  0  0  0
 55 56  4  0  0  0
 56 57  1  0  0  0
 59 58  1  0  0  0
 60 59  1  0  0  0
 59 62  1  0  0  0
 60 61  2  0  0  0
 76 60  1  0  0  0
 62 63  1  0  0  0
 63 64  4  0  0  0
 63 65  4  0  0  0
 64 66  4  0  0  0
 65 67  4  0  0  0
 65 68  4  0  0  0
 67 66  4  0  0  0
 67 69  4  0  0  0
 68 70  4  0  0  0
 69 71  4  0  0  0
 70 71  4  0  0  0
 73 72  2  0  0  0
 74 73  1  0  0  0
 73 81  1  0  0  0
 74 75  1  0  0  0
 74 76  1  0  0  0
 74 77  1  0  0  0
 77 78  1  0  0  0
 78 79  1  0  0  0
 79 80  1  0  0  0
 81 82  1  0  0  0
 82 83  1  0  0  0
 82 85  1  0  0  0
 83 84  2  0  0  0
 83 89  1  0  0  0
 85 86  1  0  0  0
 86 87  1  0  0  0
 86 88  1  0  0  0
 89 90  1  0  0  0
 90 91  1  0  0  0
 90 93  1  0  0  0
 91 92  2  0  0  0
 91 97  1  0  0  0
 93 94  1  0  0  0
 94 95  1  0  0  0
 94 96  1  0  0  0
 97 98  1  0  0  0
 97103  1  0  0  0
 98 99  1  0  0  0
 98101  1  0  0  0
 99100  1  0  0  0
 99104  2  0  0  0
101102  1  0  0  0
102103  1  0  0  0
  3105  1  0  0  0
  3106  1  0  0  0
  3107  1  0  0  0
  4108  1  0  0  0
  5109  1  0  0  0
  8110  1  0  0  0
  9111  1  0  0  0
 10112  1  0  0  0
 10113  1  0  0  0
 10114  1  0  0  0
 11115  1  0  0  0
 12116  1  0  0  0
 15117  1  0  0  0
 15118  1  0  0  0
 16119  1  0  0  0
 17120  1  0  0  0
 18121  1  0  0  0
 21122  1  0  0  0
 21123  1  0  0  0
 23124  1  0  0  0
 24125  1  0  0  0
 25126  1  0  0  0
 26127  1  0  0  0
 27128  1  0  0  0
 31129  1  0  0  0
 31130  1  0  0  0
 31131  1  0  0  0
 32132  1  0  0  0
 33133  1  0  0  0
 33134  1  0  0  0
 34135  1  0  0  0
 34136  1  0  0  0
 35137  1  0  0  0
 35138  1  0  0  0
 36139  1  0  0  0
 37140  1  0  0  0
 38141  1  0  0  0
 41142  1  0  0  0
 41143  1  0  0  0
 42144  1  0  0  0
 42145  1  0  0  0
 44146  1  0  0  0
 46147  1  0  0  0
 47148  1  0  0  0
 50149  1  0  0  0
 50150  1  0  0  0
 52151  1  0  0  0
 53152  1  0  0  0
 54153  1  0  0  0
 55154  1  0  0  0
 57155  1  0  0  0
 58156  1  0  0  0
 59157  1  0  0  0
 62158  1  0  0  0
 62159  1  0  0  0
 64160  1  0  0  0
 68161  1  0  0  0
 69162  1  0  0  0
 70163  1  0  0  0
 71164  1  0  0  0
 75165  1  0  0  0
 75166  1  0  0  0
 75167  1  0  0  0
 76168  1  0  0  0
 77169  1  0  0  0
 77170  1  0  0  0
 78171  1  0  0  0
 78172  1  0  0  0
 79173  1  0  0  0
 79174  1  0  0  0
 80175  1  0  0  0
 81176  1  0  0  0
 82177  1  0  0  0
 85178  1  0  0  0
 85179  1  0  0  0
 86180  1  0  0  0
 87181  1  0  0  0
 87182  1  0  0  0
 87183  1  0  0  0
 88184  1  0  0  0
 88185  1  0  0  0
 88186  1  0  0  0
 89187  1  0  0  0
 90188  1  0  0  0
 93189  1  0  0  0
 93190  1  0  0  0
 94191  1  0  0  0
 95192  1  0  0  0
 95193  1  0  0  0
 95194  1  0  0  0
 96195  1  0  0  0
 96196  1  0  0  0
 96197  1  0  0  0
 98198  1  0  0  0
100199  1  0  0  0
101200  1  0  0  0
101201  1  0  0  0
102202  1  0  0  0
102203  1  0  0  0
103204  1  0  0  0
103205  1  0  0  0
M  END
$$$$
