2yel_ligand
  -I-interpret- 

 53 57  0  0  0  0  0  0  0  0999 V2000
   -8.2370   -4.7200    5.7940 C   0  0  0  0  0
   -9.0160  -11.4920    3.7670 C   0  0  0  0  0
   -7.9280   -4.4380    4.4830 C   0  0  0  0  0
   -9.3360   -5.4870    6.0820 C   0  0  0  0  0
   -8.2570   -7.1230   -0.0320 C   0  0  0  0  0
  -10.0570  -12.3890    3.7020 C   0  0  0  0  0
   -9.2780  -10.1570    3.9810 C   0  0  0  0  0
   -8.9100   -6.7120   -1.1740 C   0  0  0  0  0
   -8.7160   -4.9200    3.4640 C   0  0  0  0  0
  -10.1280   -5.9680    5.0620 C   0  0  0  0  0
   -8.8380   -6.9600    1.2010 C   0  0  0  0  0
  -11.3540  -11.9450    3.8480 C   0  0  0  0  0
  -10.5700   -9.7180    4.1320 C   0  0  0  0  0
  -10.1550   -6.1290   -1.0840 C   0  0  0  0  0
   -9.8250   -5.6880    3.7450 C   0  0  0  0  0
  -10.0870   -6.3740    1.2880 C   0  0  0  0  0
  -11.6140  -10.6120    4.0670 C   0  0  0  0  0
  -10.7510   -5.9560    0.1480 C   0  0  0  0  0
  -13.1070   -5.7760    0.9330 C   0  0  0  0  0
  -12.5660   -4.3120   -0.5840 C   0  0  0  0  0
  -10.6920   -6.1960    2.6380 C   0  0  0  0  0
  -14.2580   -8.2630    3.3540 C   0  0  0  0  0
  -12.8480   -6.8860    1.9300 C   0  0  0  0  0
  -11.7760   -3.5100   -1.5520 C   0  0  0  0  0
  -13.0080  -10.0990    4.2300 C   0  0  0  0  0
  -14.1890   -5.1000    0.6260 N   0  0  0  0  0
  -13.8480   -4.1790   -0.3390 N   0  0  0  0  0
  -11.9230   -6.3800    2.9510 N   0  0  0  0  0
  -12.0460   -5.3230    0.1950 N   0  0  0  0  0
  -14.0950   -7.1680    2.5910 N   0  0  0  0  0
  -15.2800   -8.5600    3.9600 O   0  0  0  0  0
  -13.1200   -8.9990    3.3430 O   0  0  0  0  0
   -7.6111   -4.3355    6.5993 H   0  0  0  0  0
   -7.9885  -11.8363    3.6497 H   0  0  0  0  0
   -7.0540   -3.8294    4.2509 H   0  0  0  0  0
   -9.5836   -5.7166    7.1184 H   0  0  0  0  0
   -7.2710   -7.5813   -0.1085 H   0  0  0  0  0
   -9.8570  -13.4475    3.5356 H   0  0  0  0  0
   -8.4545   -9.4446    4.0308 H   0  0  0  0  0
   -8.4413   -6.8482   -2.1486 H   0  0  0  0  0
   -8.4619   -4.6933    2.4286 H   0  0  0  0  0
  -11.0020   -6.5753    5.2976 H   0  0  0  0  0
   -8.3200   -7.2891    2.1018 H   0  0  0  0  0
  -12.1790  -12.6550    3.7895 H   0  0  0  0  0
  -10.7690   -8.6601    4.3036 H   0  0  0  0  0
  -10.6700   -5.8038   -1.9879 H   0  0  0  0  0
  -12.4411   -7.7671    1.4339 H   0  0  0  0  0
  -12.1891   -3.6401   -2.5523 H   0  0  0  0  0
  -11.8219   -2.4574   -1.2727 H   0  0  0  0  0
  -10.7391   -3.8458   -1.5393 H   0  0  0  0  0
  -13.2029   -9.7998    5.2599 H   0  0  0  0  0
  -13.7438  -10.8699    4.0011 H   0  0  0  0  0
  -14.8750   -6.5206    2.4777 H   0  0  0  0  0
  3  1  4  0  0  0
  4  1  4  0  0  0
  6  2  4  0  0  0
  7  2  4  0  0  0
  9  3  4  0  0  0
 10  4  4  0  0  0
  5  8  4  0  0  0
 11  5  4  0  0  0
 12  6  4  0  0  0
 13  7  4  0  0  0
 14  8  4  0  0  0
 15  9  4  0  0  0
 15 10  4  0  0  0
 16 11  4  0  0  0
 17 12  4  0  0  0
 17 13  4  0  0  0
 18 14  4  0  0  0
 21 15  1  0  0  0
 16 18  4  0  0  0
 21 16  1  0  0  0
 25 17  1  0  0  0
 29 18  1  0  0  0
 23 19  1  0  0  0
 19 26  4  0  0  0
 19 29  4  0  0  0
 20 24  1  0  0  0
 20 27  4  0  0  0
 29 20  4  0  0  0
 28 21  2  0  0  0
 22 30  1  0  0  0
 22 31  2  0  0  0
 32 22  1  0  0  0
 23 28  1  0  0  0
 30 23  1  0  0  0
 25 32  1  0  0  0
 26 27  4  0  0  0
  1 33  1  0  0  0
  2 34  1  0  0  0
  3 35  1  0  0  0
  4 36  1  0  0  0
  5 37  1  0  0  0
  6 38  1  0  0  0
  7 39  1  0  0  0
  8 40  1  0  0  0
  9 41  1  0  0  0
 10 42  1  0  0  0
 11 43  1  0  0  0
 12 44  1  0  0  0
 13 45  1  0  0  0
 14 46  1  0  0  0
 23 47  1  0  0  0
 24 48  1  0  0  0
 24 49  1  0  0  0
 24 50  1  0  0  0
 25 51  1  0  0  0
 25 52  1  0  0  0
 30 53  1  0  0  0
M  END
$$$$
