3ho9_ligand
  -I-interpret- 

 59 62  0  0  0  0  0  0  0  0999 V2000
   -0.2040   72.3120   68.1690 C   0  0  0  0  0
   -3.2700   68.6950   72.0700 O   0  0  0  0  0
   -5.7480   67.6470   68.7260 O   0  0  0  0  0
   -5.3830   69.0320   66.9890 N   0  0  0  0  0
   -5.2450   68.6100   68.2340 C   0  0  0  0  0
   -4.3050   69.5090   69.1730 C   0  0  0  0  0
   -2.9340   68.7460   69.2490 C   0  0  0  0  0
   -1.9240   69.4490   70.2530 C   0  0  0  0  0
   -2.4540   69.4790   71.7010 C   0  0  0  0  0
   -1.9090   70.5420   72.6470 C   0  0  0  0  0
   -1.1230   71.5710   72.1480 C   0  0  0  0  0
   -0.7200   71.8110   70.6690 C   0  0  0  0  0
   -1.6330   70.9090   69.7280 C   0  0  0  0  0
   -1.0070   70.9560   68.3000 C   0  0  0  0  0
   -1.1040   73.3250   70.3690 C   0  0  0  0  0
   -1.0280   73.3880   68.8660 C   0  0  0  0  0
   -1.7060   74.3230   68.2100 C   0  0  0  0  0
   -0.6870   68.5050   70.3050 C   0  0  0  0  0
    0.7890   71.5470   70.3840 C   0  0  0  0  0
    1.1410   72.0970   68.9750 C   0  0  0  0  0
   -7.6060   70.1770   65.8680 O   0  0  0  0  0
   -4.6410   66.4800   66.1570 O   0  0  0  0  0
   -5.1060   64.5580   64.5560 O   0  0  0  0  0
   -6.8420   64.4740   63.2690 O   0  0  0  0  0
   -6.1530   65.0600   64.1210 C   0  0  0  0  0
   -6.5670   66.3650   64.5610 C   0  0  0  0  0
   -5.7750   67.0590   65.5880 C   0  0  0  0  0
   -6.2040   68.3080   65.9740 C   0  0  0  0  0
   -7.3300   68.9340   65.4390 C   0  0  0  0  0
   -8.1450   68.2710   64.4510 C   0  0  0  0  0
   -7.7100   66.9970   64.0600 C   0  0  0  0  0
    1.5080   72.2240   71.4400 O   0  0  0  0  0
   -0.0082   72.5951   67.1348 H   0  0  0  0  0
   -4.9076   69.8901   66.7095 H   0  0  0  0  0
   -4.7418   69.6446   70.1624 H   0  0  0  0  0
   -4.1809   70.5137   68.7689 H   0  0  0  0  0
   -2.4858   68.7462   68.2554 H   0  0  0  0  0
   -3.1241   67.7339   69.6063 H   0  0  0  0  0
   -2.1358   70.4943   73.7121 H   0  0  0  0  0
   -0.7471   72.2903   72.8756 H   0  0  0  0  0
   -2.6398   71.3266   69.7173 H   0  0  0  0  0
   -0.3414   70.1059   68.1503 H   0  0  0  0  0
   -1.7887   70.9043   67.5421 H   0  0  0  0  0
   -0.4432   74.0390   70.8606 H   0  0  0  0  0
   -2.0830   73.6030   70.7594 H   0  0  0  0  0
   -2.3147   75.0412   68.7593 H   0  0  0  0  0
   -1.6537   74.3720   67.1224 H   0  0  0  0  0
   -0.9955   67.5234   70.6648 H   0  0  0  0  0
   -0.2618   68.4100   69.3059 H   0  0  0  0  0
    0.0593   68.9230   70.9806 H   0  0  0  0  0
    1.0499   70.4887   70.3776 H   0  0  0  0  0
    1.6744   73.0430   69.0676 H   0  0  0  0  0
    1.7810   71.3889   68.4485 H   0  0  0  0  0
   -8.3980   70.4970   65.4299 H   0  0  0  0  0
   -4.2644   67.0832   66.8019 H   0  0  0  0  0
   -7.6087   65.0106   63.0548 H   0  0  0  0  0
   -9.0415   68.7309   64.0351 H   0  0  0  0  0
   -8.3017   66.4634   63.3162 H   0  0  0  0  0
    2.4513   72.0958   71.3165 H   0  0  0  0  0
 14  1  1  0  0  0
  1 16  1  0  0  0
  1 20  1  0  0  0
  9  2  2  0  0  0
  5  3  2  0  0  0
  4  5  1  0  0  0
 28  4  1  0  0  0
  5  6  1  0  0  0
  6  7  1  0  0  0
  7  8  1  0  0  0
  8  9  1  0  0  0
  8 13  1  0  0  0
  8 18  1  0  0  0
  9 10  1  0  0  0
 10 11  2  0  0  0
 12 11  1  0  0  0
 13 12  1  0  0  0
 12 15  1  0  0  0
 12 19  1  0  0  0
 13 14  1  0  0  0
 15 16  1  0  0  0
 16 17  2  0  0  0
 19 20  1  0  0  0
 19 32  1  0  0  0
 29 21  1  0  0  0
 27 22  1  0  0  0
 25 23  2  0  0  0
 25 24  1  0  0  0
 26 25  1  0  0  0
 27 26  4  0  0  0
 26 31  4  0  0  0
 28 27  4  0  0  0
 28 29  4  0  0  0
 29 30  4  0  0  0
 30 31  4  0  0  0
  1 33  1  0  0  0
  4 34  1  0  0  0
  6 35  1  0  0  0
  6 36  1  0  0  0
  7 37  1  0  0  0
  7 38  1  0  0  0
 10 39  1  0  0  0
 11 40  1  0  0  0
 13 41  1  0  0  0
 14 42  1  0  0  0
 14 43  1  0  0  0
 15 44  1  0  0  0
 15 45  1  0  0  0
 17 46  1  0  0  0
 17 47  1  0  0  0
 18 48  1  0  0  0
 18 49  1  0  0  0
 18 50  1  0  0  0
 19 51  1  0  0  0
 20 52  1  0  0  0
 20 53  1  0  0  0
 21 54  1  0  0  0
 22 55  1  0  0  0
 24 56  1  0  0  0
 30 57  1  0  0  0
 31 58  1  0  0  0
 32 59  1  0  0  0
M  END
$$$$
