1lol_ligand
  -I-interpret- 

 37 39  0  0  0  0  0  0  0  0999 V2000
    3.2930   36.9480   44.6050 P   0  0  0  0  0
    4.1210   37.4900   43.5250 O   0  0  0  0  0
    2.0860   36.2280   44.0640 O   0  0  0  0  0
    2.7110   38.1380   45.5130 O   0  0  0  0  0
    4.1100   36.0550   45.5710 O   0  0  0  0  0
    2.5800   38.0430   46.9350 C   0  0  0  0  0
    1.9750   39.3120   47.4770 C   0  0  0  0  0
    2.9650   40.3480   47.1690 O   0  0  0  0  0
    2.2830   41.5810   46.8760 C   0  0  0  0  0
    2.8090   42.0620   45.5770 N   0  0  0  0  0
    3.5310   43.2280   45.4310 C   0  0  0  0  0
    3.8770   44.1200   46.4320 N   0  0  0  0  0
    4.9450   45.3310   44.6040 N   0  0  0  0  0
    4.5980   45.1710   45.9500 C   0  0  0  0  0
    5.0020   46.0670   46.6860 O   0  0  0  0  0
    4.5800   44.4020   43.5770 C   0  0  0  0  0
    4.9120   44.5960   42.4140 O   0  0  0  0  0
    3.8290   43.3050   44.0860 C   0  0  0  0  0
    3.3010   42.1990   43.3690 N   0  0  0  0  0
    2.7160   41.5120   44.3180 C   0  0  0  0  0
    0.7860   41.3190   46.9670 C   0  0  0  0  0
    0.2410   41.7550   48.2190 O   0  0  0  0  0
    0.6950   39.8280   46.8260 C   0  0  0  0  0
   -0.4780   39.3340   47.4510 O   0  0  0  0  0
    1.5652   35.8854   44.7941 H   0  0  0  0  0
    3.5328   35.7210   46.2616 H   0  0  0  0  0
    3.5645   37.8946   47.3788 H   0  0  0  0  0
    1.9334   37.2010   47.1822 H   0  0  0  0  0
    1.7265   39.1004   48.5170 H   0  0  0  0  0
    2.4608   42.3919   47.5823 H   0  0  0  0  0
    3.6226   44.0042   47.4129 H   0  0  0  0  0
    5.4872   46.1537   44.3400 H   0  0  0  0  0
    2.1942   40.5745   44.1257 H   0  0  0  0  0
    0.2171   41.8618   46.2121 H   0  0  0  0  0
   -0.7014   41.5730   48.2372 H   0  0  0  0  0
    0.6172   39.4971   45.7904 H   0  0  0  0  0
   -1.2505   39.6880   47.0043 H   0  0  0  0  0
  1  2  2  0  0  0
  1  3  1  0  0  0
  1  4  1  0  0  0
  1  5  1  0  0  0
  4  6  1  0  0  0
  6  7  1  0  0  0
  7  8  1  0  0  0
  7 23  1  0  0  0
  8  9  1  0  0  0
  9 10  1  0  0  0
  9 21  1  0  0  0
 10 11  4  0  0  0
 10 20  4  0  0  0
 11 12  1  0  0  0
 11 18  4  0  0  0
 12 14  1  0  0  0
 14 13  1  0  0  0
 13 16  1  0  0  0
 14 15  2  0  0  0
 16 17  2  0  0  0
 16 18  1  0  0  0
 18 19  4  0  0  0
 19 20  4  0  0  0
 21 22  1  0  0  0
 21 23  1  0  0  0
 23 24  1  0  0  0
  3 25  1  0  0  0
  5 26  1  0  0  0
  6 27  1  0  0  0
  6 28  1  0  0  0
  7 29  1  0  0  0
  9 30  1  0  0  0
 12 31  1  0  0  0
 13 32  1  0  0  0
 20 33  1  0  0  0
 21 34  1  0  0  0
 22 35  1  0  0  0
 23 36  1  0  0  0
 24 37  1  0  0  0
M  END
$$$$
