3r04_ligand
  -I-interpret- 

 47 50  0  0  0  0  0  0  0  0999 V2000
   23.3010  -37.3150   -0.5070 C   0  0  0  0  0
   22.7950  -35.0800   -1.0660 C   0  0  0  0  0
   22.8000  -36.0590   -0.1130 C   0  0  0  0  0
   23.2570  -35.3100   -2.3790 C   0  0  0  0  0
   23.7470  -37.5340   -1.8440 C   0  0  0  0  0
   23.6990  -36.5730   -2.8450 C   0  0  0  0  0
   23.1030  -34.1690   -3.1370 O   0  0  0  0  0
   22.3450  -33.6730   -0.9800 C   0  0  0  0  0
   22.5470  -33.2420   -2.2520 C   0  0  0  0  0
   22.3520  -31.8240   -2.7510 C   0  0  0  0  0
   21.8430  -30.9210   -2.0610 O   0  0  0  0  0
   23.0210  -31.6630   -3.8860 O   0  0  0  0  0
   23.4160  -38.3400    0.5610 C   0  0  0  0  0
   23.6140  -39.1170    2.8010 C   0  0  0  0  0
   23.4420  -38.0560    1.9100 N   0  0  0  0  0
   23.7700  -40.4450    2.3330 C   0  0  0  0  0
   23.6450  -39.6670    0.1400 C   0  0  0  0  0
   23.7900  -40.7110    1.0140 N   0  0  0  0  0
   23.6030  -38.8180    4.1710 N   0  0  0  0  0
   23.1970  -37.4220    4.5770 C   0  0  0  0  0
   22.7150  -37.4300    6.0660 C   0  0  0  0  0
   22.4650  -35.9830    6.5920 C   0  0  0  0  0
   23.6900  -35.0520    6.3890 C   0  0  0  0  0
   24.1110  -35.0680    4.9040 C   0  0  0  0  0
   24.4530  -36.4870    4.4470 C   0  0  0  0  0
   23.5430  -33.7360    6.9350 N   0  3  0  0  0
   22.4357  -35.8777    0.8982 H   0  0  0  0  0
   24.1499  -38.5152   -2.0951 H   0  0  0  0  0
   23.9729  -36.7697   -3.8815 H   0  0  0  0  0
   21.9543  -33.1264   -0.1217 H   0  0  0  0  0
   23.3058  -32.5197   -4.2126 H   0  0  0  0  0
   23.8750  -41.2601    3.0490 H   0  0  0  0  0
   23.7094  -39.8702   -0.9290 H   0  0  0  0  0
   23.8598  -39.5178    4.8672 H   0  0  0  0  0
   22.3881  -37.0658    3.9391 H   0  0  0  0  0
   23.4901  -37.8913    6.6779 H   0  0  0  0  0
   21.7789  -37.9854    6.1235 H   0  0  0  0  0
   22.2658  -36.0455    7.6618 H   0  0  0  0  0
   21.6292  -35.5632    6.0323 H   0  0  0  0  0
   24.5078  -35.4595    6.9834 H   0  0  0  0  0
   24.9934  -34.4395    4.7837 H   0  0  0  0  0
   23.2822  -34.6966    4.3014 H   0  0  0  0  0
   24.7674  -36.4579    3.4037 H   0  0  0  0  0
   25.2536  -36.8787    5.0744 H   0  0  0  0  0
   24.3909  -33.1981    6.7556 H   0  0  0  0  0
   22.7466  -33.2741    6.4960 H   0  0  0  0  0
   23.3872  -33.8020    7.9409 H   0  0  0  0  0
  1  3  4  0  0  0
  1  5  4  0  0  0
  1 13  1  0  0  0
  3  2  4  0  0  0
  2  4  4  0  0  0
  2  8  4  0  0  0
  4  6  4  0  0  0
  4  7  4  0  0  0
  5  6  4  0  0  0
  7  9  4  0  0  0
  8  9  4  0  0  0
  9 10  1  0  0  0
 10 11  2  0  0  0
 10 12  1  0  0  0
 13 15  4  0  0  0
 13 17  4  0  0  0
 15 14  4  0  0  0
 14 16  4  0  0  0
 14 19  1  0  0  0
 16 18  4  0  0  0
 17 18  4  0  0  0
 19 20  1  0  0  0
 20 21  1  0  0  0
 20 25  1  0  0  0
 21 22  1  0  0  0
 22 23  1  0  0  0
 23 24  1  0  0  0
 23 26  1  0  0  0
 24 25  1  0  0  0
  3 27  1  0  0  0
  5 28  1  0  0  0
  6 29  1  0  0  0
  8 30  1  0  0  0
 12 31  1  0  0  0
 16 32  1  0  0  0
 17 33  1  0  0  0
 19 34  1  0  0  0
 20 35  1  0  0  0
 21 36  1  0  0  0
 21 37  1  0  0  0
 22 38  1  0  0  0
 22 39  1  0  0  0
 23 40  1  0  0  0
 24 41  1  0  0  0
 24 42  1  0  0  0
 25 43  1  0  0  0
 25 44  1  0  0  0
 26 45  1  0  0  0
 26 46  1  0  0  0
 26 47  1  0  0  0
M  END
$$$$
