3m17_ligand
  -I-interpret- 

209214  0  0  0  0  0  0  0  0999 V2000
   14.4620   85.4180   50.5800 C   0  0  0  0  0
   15.5590   85.6350   50.0590 O   0  0  0  0  0
   13.1710   85.8830   49.9730 C   0  0  0  0  0
   14.3060   84.6470   51.6490 N   0  0  0  0  0
   15.3600   83.8410   52.2510 C   0  0  0  0  0
   15.6360   82.5920   51.4090 C   0  0  0  0  0
   14.7490   81.7560   51.2120 O   0  0  0  0  0
   14.9470   83.4400   53.6700 C   0  0  0  0  0
   16.0890   83.3150   54.6660 C   0  0  0  0  0
   16.1540   84.5220   55.5900 C   0  0  0  0  0
   17.2770   84.4200   56.5220 N   0  0  0  0  0
   17.6930   85.3980   57.3240 C   0  0  0  0  0
   17.0850   86.5810   57.3270 N   0  0  0  0  0
   18.7300   85.1910   58.1260 N   0  0  0  0  0
   16.8670   82.4750   50.9140 N   0  0  0  0  0
   17.2810   81.3300   50.0990 C   0  0  0  0  0
   18.5990   80.7180   50.5690 C   0  0  0  0  0
   19.5670   81.4310   50.8410 O   0  0  0  0  0
   17.3840   81.7230   48.6220 C   0  0  0  0  0
   16.0550   81.8770   47.9420 C   0  0  0  0  0
   15.4410   80.7850   47.3350 C   0  0  0  0  0
   15.4130   83.1130   47.9100 C   0  0  0  0  0
   14.2070   80.9200   46.7050 C   0  0  0  0  0
   14.1770   83.2590   47.2820 C   0  0  0  0  0
   13.5730   82.1600   46.6780 C   0  0  0  0  0
   19.3910   76.8970   49.4600 O   0  0  0  0  0
   20.3630   77.5510   49.7990 C   0  0  0  0  0
   20.1880   78.6340   50.8380 C   0  0  0  0  0
   19.0840   79.5020   50.3270 N   0  0  0  0  0
   19.8880   78.0880   52.2420 C   0  0  0  0  0
   20.0880   79.1350   53.3330 C   0  0  0  0  0
   20.7600   76.8890   52.6250 C   0  0  0  0  0
   18.1770   77.6170   52.3920 S   0  0  0  0  0
   21.5760   77.6150   49.2490 N   0  0  0  0  0
   22.2960   76.6350   48.4390 C   0  0  0  0  0
   22.1800   75.2450   49.0570 C   0  0  0  0  0
   22.4290   75.0610   50.2470 O   0  0  0  0  0
   23.7850   77.0210   48.2480 C   0  0  0  0  0
   23.8690   78.3230   47.6570 O   0  0  0  0  0
   24.5020   76.0270   47.3420 C   0  0  0  0  0
   21.7890   74.2750   48.2360 N   0  0  0  0  0
   21.6510   72.8920   48.6770 C   0  0  0  0  0
   22.9790   72.1720   48.8030 C   0  0  0  0  0
   24.0210   72.6960   48.3950 O   0  0  0  0  0
   22.9370   70.9670   49.3710 N   0  0  0  0  0
   24.1330   70.1390   49.5330 C   0  0  0  0  0
   24.6950   69.7130   48.1790 C   0  0  0  0  0
   25.8940   69.4520   48.0480 O   0  0  0  0  0
   23.8340   68.9130   50.4030 C   0  0  0  0  0
   25.0200   68.0240   50.6200 C   0  0  0  0  0
   26.0540   68.3540   51.4700 N   0  0  0  0  0
   25.3440   66.8240   50.0830 C   0  0  0  0  0
   26.9610   67.3930   51.4520 C   0  0  0  0  0
   26.5530   66.4520   50.6200 N   0  0  0  0  0
   23.8220   69.6510   47.1770 N   0  0  0  0  0
   24.2370   69.3170   45.8200 C   0  0  0  0  0
   23.9830   70.4650   44.8450 C   0  0  0  0  0
   23.7940   70.2450   43.6450 O   0  0  0  0  0
   23.5500   68.0340   45.3500 C   0  0  0  0  0
   23.8810   66.8300   46.1840 C   0  0  0  0  0
   25.1670   66.2860   46.1710 C   0  0  0  0  0
   22.9050   66.2310   46.9750 C   0  0  0  0  0
   25.4750   65.1700   46.9370 C   0  0  0  0  0
   23.2010   65.1120   47.7440 C   0  0  0  0  0
   24.4880   64.5790   47.7260 C   0  0  0  0  0
   23.9930   71.6880   45.3720 N   0  0  0  0  0
   23.7730   72.8800   44.5640 C   0  0  0  0  0
   22.3030   73.2160   44.3680 C   0  0  0  0  0
   21.4240   72.4750   44.8250 O   0  0  0  0  0
   22.0340   74.3360   43.6930 N   0  0  0  0  0
   20.6560   74.7890   43.5170 C   0  0  0  0  0
   20.2120   75.7020   44.6440 C   0  0  0  0  0
   20.8170   75.6820   45.7200 O   0  0  0  0  0
   23.0680   75.1710   43.1020 C   0  0  0  0  0
   19.1720   76.5060   44.4090 N   0  0  0  0  0
   18.5250   76.5620   43.1010 C   0  0  0  0  0
   18.6570   77.3700   45.4870 C   0  0  0  0  0
   18.6050   78.8570   45.1090 C   0  0  0  0  0
   19.9790   79.4760   44.8460 C   0  0  0  0  0
   19.8420   80.7460   44.0110 C   0  0  0  0  0
   20.7450   79.7570   46.1380 C   0  0  0  0  0
   17.3250   76.9300   46.0380 C   0  0  0  0  0
   16.3840   76.6870   45.2810 O   0  0  0  0  0
   17.2430   76.8260   47.3610 N   0  0  0  0  0
   16.0440   76.3280   48.0320 C   0  0  0  0  0
   15.5470   77.3470   49.0560 C   0  0  0  0  0
   16.3530   78.0690   49.6450 O   0  0  0  0  0
   16.3300   74.9820   48.7140 C   0  0  0  0  0
   16.8580   73.9060   47.7870 C   0  0  0  0  0
   16.0290   72.8840   47.3300 C   0  0  0  0  0
   18.1930   73.9060   47.3710 C   0  0  0  0  0
   16.5150   71.8920   46.4750 C   0  0  0  0  0
   18.6820   72.9250   46.5180 C   0  0  0  0  0
   17.8410   71.9200   46.0760 C   0  0  0  0  0
   18.3360   70.9450   45.2380 O   0  0  0  0  0
   14.2200   77.4130   49.2710 N   0  0  0  0  0
   13.6670   78.4120   50.1870 C   0  0  0  0  0
   13.8520   78.0450   51.6580 C   0  0  0  0  0
   13.6450   76.8900   52.0410 O   0  0  0  0  0
   12.1810   78.4360   49.8210 C   0  0  0  0  0
   11.9010   77.0680   49.3150 C   0  0  0  0  0
   13.1650   76.5790   48.6610 C   0  0  0  0  0
   14.2450   79.0290   52.4670 N   0  0  0  0  0
   14.4170   78.8370   53.9130 C   0  0  0  0  0
   14.1690   80.1200   54.6960 C   0  0  0  0  0
   13.1070   80.7320   54.5740 O   0  0  0  0  0
   15.8060   78.2770   54.2410 C   0  0  0  0  0
   17.1950   79.0880   53.4080 S   0  0  0  0  0
   14.9600   80.6990   55.5950 N   0  0  0  0  0
   13.1821   86.9695   49.8869 H   0  0  0  0  0
   13.0557   85.4400   48.9838 H   0  0  0  0  0
   12.3407   85.5761   50.6090 H   0  0  0  0  0
   13.3820   84.6165   52.0800 H   0  0  0  0  0
   16.2753   84.4314   52.2919 H   0  0  0  0  0
   14.4877   82.4543   53.5954 H   0  0  0  0  0
   14.2937   84.2299   54.0407 H   0  0  0  0  0
   17.0259   83.2519   54.1125 H   0  0  0  0  0
   15.9243   82.4238   55.2716 H   0  0  0  0  0
   15.2294   84.5680   56.1654 H   0  0  0  0  0
   16.2885   85.4167   54.9822 H   0  0  0  0  0
   17.7791   83.5329   56.5603 H   0  0  0  0  0
   17.4162   87.3231   57.9434 H   0  0  0  0  0
   16.2875   86.7461   56.7129 H   0  0  0  0  0
   19.2028   84.2872   58.1253 H   0  0  0  0  0
   17.5468   83.2099   51.1096 H   0  0  0  0  0
   16.5088   80.5701   50.2185 H   0  0  0  0  0
   17.9205   80.9243   48.1098 H   0  0  0  0  0
   17.8860   82.6895   48.5771 H   0  0  0  0  0
   15.9325   79.8123   47.3532 H   0  0  0  0  0
   15.8827   83.9762   48.3816 H   0  0  0  0  0
   13.7376   80.0566   46.2335 H   0  0  0  0  0
   13.6848   84.2314   47.2640 H   0  0  0  0  0
   12.6068   82.2694   46.1854 H   0  0  0  0  0
   21.1157   79.1911   50.9690 H   0  0  0  0  0
   18.5569   79.0339   49.5898 H   0  0  0  0  0
   21.1226   79.4780   53.3204 H   0  0  0  0  0
   19.4220   79.9786   53.1517 H   0  0  0  0  0
   19.8619   78.6940   54.3038 H   0  0  0  0  0
   20.5939   76.0790   51.9148 H   0  0  0  0  0
   21.8094   77.1830   52.6039 H   0  0  0  0  0
   20.4952   76.5545   53.6280 H   0  0  0  0  0
   22.0805   78.4847   49.4207 H   0  0  0  0  0
   21.8335   76.6248   47.4520 H   0  0  0  0  0
   24.2632   77.0123   49.2274 H   0  0  0  0  0
   24.7916   78.5608   47.5393 H   0  0  0  0  0
   24.4548   75.0328   47.7863 H   0  0  0  0  0
   24.0183   76.0132   46.3653 H   0  0  0  0  0
   25.5439   76.3266   47.2287 H   0  0  0  0  0
   21.5785   74.5061   47.2651 H   0  0  0  0  0
   21.0579   72.3641   47.9303 H   0  0  0  0  0
   21.1861   72.9038   49.6628 H   0  0  0  0  0
   22.0414   70.6099   49.7039 H   0  0  0  0  0
   24.8887   70.7411   50.0375 H   0  0  0  0  0
   23.0759   68.3243   49.8865 H   0  0  0  0  0
   23.5165   69.2768   51.3802 H   0  0  0  0  0
   24.7559   66.2588   49.3600 H   0  0  0  0  0
   27.8876   67.3794   52.0259 H   0  0  0  0  0
   22.8374   69.8420   47.3629 H   0  0  0  0  0
   25.3136   69.1474   45.8377 H   0  0  0  0  0
   23.8956   67.8325   44.3361 H   0  0  0  0  0
   22.4745   68.1951   45.4235 H   0  0  0  0  0
   25.9386   66.7433   45.5517 H   0  0  0  0  0
   21.8966   66.6445   46.9915 H   0  0  0  0  0
   26.4837   64.7573   46.9220 H   0  0  0  0  0
   22.4280   64.6524   48.3599 H   0  0  0  0  0
   24.7235   63.7012   48.3277 H   0  0  0  0  0
   24.1599   71.7934   46.3727 H   0  0  0  0  0
   24.2006   72.6921   43.5791 H   0  0  0  0  0
   24.2345   73.7190   45.0848 H   0  0  0  0  0
   20.0067   73.9135   43.5107 H   0  0  0  0  0
   20.5964   75.3464   42.5822 H   0  0  0  0  0
   23.7393   75.5244   43.8847 H   0  0  0  0  0
   23.6319   74.5880   42.3738 H   0  0  0  0  0
   22.6050   76.0241   42.6062 H   0  0  0  0  0
   19.2519   76.8728   42.3505 H   0  0  0  0  0
   18.1371   75.5757   42.8464 H   0  0  0  0  0
   17.7048   77.2792   43.1332 H   0  0  0  0  0
   19.3946   77.2523   46.2809 H   0  0  0  0  0
   18.1638   79.3909   45.9506 H   0  0  0  0  0
   18.0303   78.9378   44.1864 H   0  0  0  0  0
   20.5606   78.7453   44.2840 H   0  0  0  0  0
   19.3738   80.5034   43.0571 H   0  0  0  0  0
   19.2249   81.4670   44.5471 H   0  0  0  0  0
   20.8298   81.1716   43.8345 H   0  0  0  0  0
   20.1735   80.4512   46.7541 H   0  0  0  0  0
   20.8928   78.8238   46.6816 H   0  0  0  0  0
   21.7132   80.1957   45.8968 H   0  0  0  0  0
   18.0447   77.1034   47.9273 H   0  0  0  0  0
   15.2658   76.1780   47.2836 H   0  0  0  0  0
   15.3830   74.6205   49.1149 H   0  0  0  0  0
   17.1001   75.1622   49.4640 H   0  0  0  0  0
   14.9856   72.8580   47.6443 H   0  0  0  0  0
   18.8626   74.6908   47.7228 H   0  0  0  0  0
   15.8539   71.0998   46.1236 H   0  0  0  0  0
   19.7239   72.9471   46.1984 H   0  0  0  0  0
   19.2646   71.1154   45.0640 H   0  0  0  0  0
   14.1678   79.3745   50.0827 H   0  0  0  0  0
   11.9554   79.2008   49.0778 H   0  0  0  0  0
   11.5538   78.6923   50.6749 H   0  0  0  0  0
   11.0758   77.0796   48.6030 H   0  0  0  0  0
   11.6052   76.4066   50.1294 H   0  0  0  0  0
   13.3316   75.5140   48.8225 H   0  0  0  0  0
   13.1353   76.6742   47.5756 H   0  0  0  0  0
   14.4330   79.9484   52.0674 H   0  0  0  0  0
   13.6666   78.1087   54.2205 H   0  0  0  0  0
   15.8080   77.2396   53.9064 H   0  0  0  0  0
   15.9557   78.4282   55.3100 H   0  0  0  0  0
   14.6507   81.5421   56.0787 H   0  0  0  0  0
   15.8759   80.2999   55.8007 H   0  0  0  0  0
  1  2  2  0  0  0
  1  3  1  0  0  0
  4  1  1  0  0  0
  5  4  1  0  0  0
  6  5  1  0  0  0
  5  8  1  0  0  0
  6  7  2  0  0  0
 15  6  1  0  0  0
  8  9  1  0  0  0
  9 10  1  0  0  0
 10 11  1  0  0  0
 11 12  1  0  0  0
 12 13  1  0  0  0
 12 14  2  0  0  0
 16 15  1  0  0  0
 17 16  1  0  0  0
 16 19  1  0  0  0
 17 18  2  0  0  0
 29 17  1  0  0  0
 19 20  1  0  0  0
 20 21  4  0  0  0
 20 22  4  0  0  0
 21 23  4  0  0  0
 22 24  4  0  0  0
 23 25  4  0  0  0
 24 25  4  0  0  0
 27 26  2  0  0  0
 28 27  1  0  0  0
 27 34  1  0  0  0
 28 29  1  0  0  0
 28 30  1  0  0  0
 30 31  1  0  0  0
 30 32  1  0  0  0
 30 33  1  0  0  0
 33108  1  0  0  0
 34 35  1  0  0  0
 35 36  1  0  0  0
 35 38  1  0  0  0
 36 37  2  0  0  0
 36 41  1  0  0  0
 38 39  1  0  0  0
 38 40  1  0  0  0
 41 42  1  0  0  0
 42 43  1  0  0  0
 43 44  2  0  0  0
 43 45  1  0  0  0
 45 46  1  0  0  0
 46 47  1  0  0  0
 46 49  1  0  0  0
 47 48  2  0  0  0
 47 55  1  0  0  0
 49 50  1  0  0  0
 50 51  4  0  0  0
 50 52  4  0  0  0
 51 53  4  0  0  0
 52 54  4  0  0  0
 53 54  4  0  0  0
 55 56  1  0  0  0
 56 57  1  0  0  0
 56 59  1  0  0  0
 57 58  2  0  0  0
 57 66  1  0  0  0
 59 60  1  0  0  0
 60 61  4  0  0  0
 60 62  4  0  0  0
 61 63  4  0  0  0
 62 64  4  0  0  0
 63 65  4  0  0  0
 64 65  4  0  0  0
 66 67  1  0  0  0
 67 68  1  0  0  0
 68 69  2  0  0  0
 68 70  1  0  0  0
 70 71  1  0  0  0
 70 74  1  0  0  0
 71 72  1  0  0  0
 72 73  2  0  0  0
 72 75  1  0  0  0
 75 76  1  0  0  0
 75 77  1  0  0  0
 77 78  1  0  0  0
 77 82  1  0  0  0
 78 79  1  0  0  0
 79 80  1  0  0  0
 79 81  1  0  0  0
 82 83  2  0  0  0
 82 84  1  0  0  0
 84 85  1  0  0  0
 85 86  1  0  0  0
 85 88  1  0  0  0
 86 87  2  0  0  0
 86 96  1  0  0  0
 88 89  1  0  0  0
 89 90  4  0  0  0
 89 91  4  0  0  0
 90 92  4  0  0  0
 91 93  4  0  0  0
 92 94  4  0  0  0
 93 94  4  0  0  0
 94 95  1  0  0  0
 96 97  1  0  0  0
 96102  1  0  0  0
 97 98  1  0  0  0
 97100  1  0  0  0
 98 99  2  0  0  0
 98103  1  0  0  0
100101  1  0  0  0
101102  1  0  0  0
103104  1  0  0  0
104105  1  0  0  0
104107  1  0  0  0
105106  2  0  0  0
105109  1  0  0  0
107108  1  0  0  0
  3110  1  0  0  0
  3111  1  0  0  0
  3112  1  0  0  0
  4113  1  0  0  0
  5114  1  0  0  0
  8115  1  0  0  0
  8116  1  0  0  0
  9117  1  0  0  0
  9118  1  0  0  0
 10119  1  0  0  0
 10120  1  0  0  0
 11121  1  0  0  0
 13122  1  0  0  0
 13123  1  0  0  0
 14124  1  0  0  0
 15125  1  0  0  0
 16126  1  0  0  0
 19127  1  0  0  0
 19128  1  0  0  0
 21129  1  0  0  0
 22130  1  0  0  0
 23131  1  0  0  0
 24132  1  0  0  0
 25133  1  0  0  0
 28134  1  0  0  0
 29135  1  0  0  0
 31136  1  0  0  0
 31137  1  0  0  0
 31138  1  0  0  0
 32139  1  0  0  0
 32140  1  0  0  0
 32141  1  0  0  0
 34142  1  0  0  0
 35143  1  0  0  0
 38144  1  0  0  0
 39145  1  0  0  0
 40146  1  0  0  0
 40147  1  0  0  0
 40148  1  0  0  0
 41149  1  0  0  0
 42150  1  0  0  0
 42151  1  0  0  0
 45152  1  0  0  0
 46153  1  0  0  0
 49154  1  0  0  0
 49155  1  0  0  0
 52156  1  0  0  0
 53157  1  0  0  0
 55158  1  0  0  0
 56159  1  0  0  0
 59160  1  0  0  0
 59161  1  0  0  0
 61162  1  0  0  0
 62163  1  0  0  0
 63164  1  0  0  0
 64165  1  0  0  0
 65166  1  0  0  0
 66167  1  0  0  0
 67168  1  0  0  0
 67169  1  0  0  0
 71170  1  0  0  0
 71171  1  0  0  0
 74172  1  0  0  0
 74173  1  0  0  0
 74174  1  0  0  0
 76175  1  0  0  0
 76176  1  0  0  0
 76177  1  0  0  0
 77178  1  0  0  0
 78179  1  0  0  0
 78180  1  0  0  0
 79181  1  0  0  0
 80182  1  0  0  0
 80183  1  0  0  0
 80184  1  0  0  0
 81185  1  0  0  0
 81186  1  0  0  0
 81187  1  0  0  0
 84188  1  0  0  0
 85189  1  0  0  0
 88190  1  0  0  0
 88191  1  0  0  0
 90192  1  0  0  0
 91193  1  0  0  0
 92194  1  0  0  0
 93195  1  0  0  0
 95196  1  0  0  0
 97197  1  0  0  0
100198  1  0  0  0
100199  1  0  0  0
101200  1  0  0  0
101201  1  0  0  0
102202  1  0  0  0
102203  1  0  0  0
103204  1  0  0  0
104205  1  0  0  0
107206  1  0  0  0
107207  1  0  0  0
109208  1  0  0  0
109209  1  0  0  0
M  END
$$$$
