### 
### Created by X-TOOL on Mon Sep 10 21:13:04 2018
### 

@<TRIPOS>MOLECULE
3m17_ligand
  211   216     1     0     0
SMALL
GAST_HUCK


@<TRIPOS>ATOM
      1 C          14.4620   85.4180   50.5800 C.2       1 ACE         0.1751
      2 O          15.5590   85.6350   50.0590 O.2       1 ACE        -0.3972
      3 CH3        13.1710   85.8830   49.9730 C.3       1 ACE         0.0258
      4 N          14.3060   84.6470   51.6490 N.am      1 ARG        -0.2658
      5 CA         15.3600   83.8410   52.2510 C.3       1 ARG         0.1310
      6 C          15.6360   82.5920   51.4090 C.2       1 ARG         0.2040
      7 O          14.7490   81.7560   51.2120 O.2       1 ARG        -0.3944
      8 CB         14.9470   83.4400   53.6700 C.3       1 ARG        -0.0092
      9 CG         16.0890   83.3150   54.6660 C.3       1 ARG        -0.0156
     10 CD         16.1540   84.5220   55.5900 C.3       1 ARG         0.0627
     11 NE         17.2770   84.4200   56.5220 N.pl3     1 ARG        -0.2723
     12 CZ         17.6930   85.3980   57.3240 C.cat     1 ARG         0.2882
     13 NH1        17.0850   86.5810   57.3270 N.pl3     1 ARG        -0.2849
     14 NH2        18.7300   85.1910   58.1260 N.pl3     1 ARG        -0.2849
     15 N          16.8670   82.4750   50.9140 N.am      1 PHE        -0.2619
     16 CA         17.2810   81.3300   50.0990 C.3       1 PHE         0.1404
     17 C          18.5990   80.7180   50.5690 C.2       1 PHE         0.2060
     18 O          19.5670   81.4310   50.8410 O.2       1 PHE        -0.3942
     19 CB         17.3840   81.7230   48.6220 C.3       1 PHE         0.0214
     20 CG         16.0550   81.8770   47.9420 C.ar      1 PHE        -0.0386
     21 CD1        15.4410   80.7850   47.3350 C.ar      1 PHE        -0.0601
     22 CD2        15.4130   83.1130   47.9100 C.ar      1 PHE        -0.0601
     23 CE1        14.2070   80.9200   46.7050 C.ar      1 PHE        -0.0686
     24 CE2        14.1770   83.2590   47.2820 C.ar      1 PHE        -0.0686
     25 CZ         13.5730   82.1600   46.6780 C.ar      1 PHE        -0.0687
     26 O          19.3910   76.8970   49.4600 O.2       1 LE1        -0.3943
     27 C          20.3630   77.5510   49.7990 C.2       1 LE1         0.2054
     28 CA         20.1880   78.6340   50.8380 C.3       1 LE1         0.1457
     29 N          19.0840   79.5020   50.3270 N.am      1 LE1        -0.2622
     30 CB         19.8880   78.0880   52.2420 C.3       1 LE1         0.0612
     31 C9         20.0880   79.1350   53.3330 C.3       1 LE1        -0.0456
     32 C8         20.7600   76.8890   52.6250 C.3       1 LE1        -0.0456
     33 SG         18.1770   77.6170   52.3920 S.3       1 LE1        -0.0819
     34 N          21.5760   77.6150   49.2490 N.am      1 THR        -0.2613
     35 CA         22.2960   76.6350   48.4390 C.3       1 THR         0.1565
     36 C          22.1800   75.2450   49.0570 C.2       1 THR         0.2063
     37 O          22.4290   75.0610   50.2470 O.2       1 THR        -0.3943
     38 CB         23.7850   77.0210   48.2480 C.3       1 THR         0.0924
     39 OG1        23.8690   78.3230   47.6570 O.3       1 THR        -0.3874
     40 CG2        24.5020   76.0270   47.3420 C.3       1 THR        -0.0346
     41 N          21.7890   74.2750   48.2360 N.am      1 GLY        -0.2663
     42 CA         21.6510   72.8920   48.6770 C.3       1 GLY         0.1201
     43 C          22.9790   72.1720   48.8030 C.2       1 GLY         0.2008
     44 O          24.0210   72.6960   48.3950 O.2       1 GLY        -0.3947
     45 N          22.9370   70.9670   49.3710 N.am      1 HIS        -0.2627
     46 CA         24.1330   70.1390   49.5330 C.3       1 HIS         0.1369
     47 C          24.6950   69.7130   48.1790 C.2       1 HIS         0.2055
     48 O          25.8940   69.4520   48.0480 O.2       1 HIS        -0.3942
     49 CB         23.8340   68.9130   50.4030 C.3       1 HIS         0.0145
     50 CG         25.0200   68.0240   50.6200 C.2       1 HIS        -0.0027
     51 ND1        26.0540   68.3540   51.4700 N.2       1 HIS        -0.3252
     52 CD2        25.3440   66.8240   50.0830 C.2       1 HIS         0.0291
     53 CE1        26.9610   67.3930   51.4520 C.2       1 HIS         0.0907
     54 NE2        26.5530   66.4520   50.6200 N.pl3     1 HIS        -0.2752
     55 N          23.8220   69.6510   47.1770 N.am      1 PHE        -0.2618
     56 CA         24.2370   69.3170   45.8200 C.3       1 PHE         0.1404
     57 C          23.9830   70.4650   44.8450 C.2       1 PHE         0.2058
     58 O          23.7940   70.2450   43.6450 O.2       1 PHE        -0.3942
     59 CB         23.5500   68.0340   45.3500 C.3       1 PHE         0.0214
     60 CG         23.8810   66.8300   46.1840 C.ar      1 PHE        -0.0386
     61 CD1        25.1670   66.2860   46.1710 C.ar      1 PHE        -0.0601
     62 CD2        22.9050   66.2310   46.9750 C.ar      1 PHE        -0.0601
     63 CE1        25.4750   65.1700   46.9370 C.ar      1 PHE        -0.0686
     64 CE2        23.2010   65.1120   47.7440 C.ar      1 PHE        -0.0686
     65 CZ         24.4880   64.5790   47.7260 C.ar      1 PHE        -0.0687
     66 N          23.9930   71.6880   45.3720 N.am      1 GLY        -0.2663
     67 CA         23.7730   72.8800   44.5640 C.3       1 GLY         0.1203
     68 C          22.3030   73.2160   44.3680 C.2       1 GLY         0.2028
     69 O          21.4240   72.4750   44.8250 O.2       1 GLY        -0.3945
     70 N          22.0340   74.3360   43.6930 N.am      1 SAR        -0.2558
     71 CA         20.6560   74.7890   43.5170 C.3       1 SAR         0.1227
     72 C          20.2120   75.7020   44.6440 C.2       1 SAR         0.2032
     73 O          20.8170   75.6820   45.7200 O.2       1 SAR        -0.3945
     74 CN         23.0680   75.1710   43.1020 C.3       1 SAR         0.0252
     75 N          19.1720   76.5060   44.4090 N.am      1 MLE        -0.2531
     76 CN         18.5250   76.5620   43.1010 C.3       1 MLE         0.0254
     77 CA         18.6570   77.3700   45.4870 C.3       1 MLE         0.1336
     78 CB         18.6050   78.8570   45.1090 C.3       1 MLE        -0.0099
     79 CG         19.9790   79.4760   44.8460 C.3       1 MLE        -0.0425
     80 CD1        19.8420   80.7460   44.0110 C.3       1 MLE        -0.0625
     81 CD2        20.7450   79.7570   46.1380 C.3       1 MLE        -0.0625
     82 C          17.3250   76.9300   46.0380 C.2       1 MLE         0.2042
     83 O          16.3840   76.6870   45.2810 O.2       1 MLE        -0.3944
     84 N          17.2430   76.8260   47.3610 N.am      1 TYR        -0.2621
     85 CA         16.0440   76.3280   48.0320 C.3       1 TYR         0.1392
     86 C          15.5470   77.3470   49.0560 C.2       1 TYR         0.2082
     87 O          16.3530   78.0690   49.6450 O.2       1 TYR        -0.3940
     88 CB         16.3300   74.9820   48.7140 C.3       1 TYR         0.0164
     89 CG         16.8580   73.9060   47.7870 C.ar      1 TYR        -0.0493
     90 CD1        16.0290   72.8840   47.3300 C.ar      1 TYR        -0.0685
     91 CD2        18.1930   73.9060   47.3710 C.ar      1 TYR        -0.0685
     92 CE1        16.5150   71.8920   46.4750 C.ar      1 TYR        -0.0398
     93 CE2        18.6820   72.9250   46.5180 C.ar      1 TYR        -0.0398
     94 CZ         17.8410   71.9200   46.0760 C.ar      1 TYR         0.0805
     95 OH         18.3360   70.9450   45.2380 O.3       1 TYR        -0.3376
     96 N          14.2200   77.4130   49.2710 N.am      1 PRO        -0.2497
     97 CA         13.6670   78.4120   50.1870 C.3       1 PRO         0.1338
     98 C          13.8520   78.0450   51.6580 C.2       1 PRO         0.2041
     99 O          13.6450   76.8900   52.0410 O.2       1 PRO        -0.3944
    100 CB         12.1810   78.4360   49.8210 C.3       1 PRO        -0.0104
    101 CG         11.9010   77.0680   49.3150 C.3       1 PRO        -0.0281
    102 CD         13.1650   76.5790   48.6610 C.3       1 PRO         0.0369
    103 N          14.2450   79.0290   52.4670 N.am      1 CYS        -0.2629
    104 CA         14.4170   78.8370   53.9130 C.3       1 CYS         0.1403
    105 C          14.1690   80.1200   54.6960 C.2       1 CYS         0.2000
    106 O          13.1070   80.7320   54.5740 O.2       1 CYS        -0.3947
    107 CB         15.8060   78.2770   54.2410 C.3       1 CYS         0.0443
    108 SG         17.1950   79.0880   53.4080 S.3       1 CYS        -0.0876
    109 N          14.9600   80.6990   55.5950 N.am      1 NH2        -0.2989
    110 H          13.1821   86.9695   49.8869 H         1 ACE         0.0467
    111 H          13.0557   85.4400   48.9838 H         1 ACE         0.0467
    112 H          12.3407   85.5761   50.6090 H         1 ACE         0.0467
    113 H          13.3820   84.6165   52.0800 H         1 ARG         0.1882
    114 H          16.2753   84.4314   52.2919 H         1 ARG         0.0800
    115 H          14.4877   82.4543   53.5954 H         1 ARG         0.0313
    116 H          14.2937   84.2299   54.0407 H         1 ARG         0.0313
    117 H          17.0259   83.2519   54.1125 H         1 ARG         0.0301
    118 H          15.9243   82.4238   55.2716 H         1 ARG         0.0301
    119 H          15.2294   84.5680   56.1654 H         1 ARG         0.0689
    120 H          16.2885   85.4167   54.9822 H         1 ARG         0.0689
    121 H          17.7791   83.5329   56.5603 H         1 ARG         0.2642
    122 H          16.2900   86.7474   56.7100 H         1 ARG         0.2615
    123 H          17.4137   87.3218   57.9463 H         1 ARG         0.2615
    124 H          19.2028   84.2872   58.1253 H         1 ARG         0.2615
    125 H          19.0541   85.9357   58.7431 H         1 ARG         0.2615
    126 H          17.5468   83.2099   51.1096 H         1 PHE         0.1885
    127 H          16.5088   80.5701   50.2185 H         1 PHE         0.0823
    128 H          17.9205   80.9243   48.1098 H         1 PHE         0.0474
    129 H          17.8860   82.6895   48.5771 H         1 PHE         0.0474
    130 H          15.9325   79.8123   47.3532 H         1 PHE         0.0557
    131 H          15.8827   83.9762   48.3816 H         1 PHE         0.0557
    132 H          13.7376   80.0566   46.2335 H         1 PHE         0.0599
    133 H          13.6848   84.2314   47.2640 H         1 PHE         0.0599
    134 H          12.6068   82.2694   46.1854 H         1 PHE         0.0559
    135 H          21.1157   79.1911   50.9690 H         1 LE1         0.0814
    136 H          18.5569   79.0339   49.5898 H         1 LE1         0.1884
    137 H          21.1226   79.4780   53.3204 H         1 LE1         0.0245
    138 H          19.4220   79.9786   53.1517 H         1 LE1         0.0245
    139 H          19.8619   78.6940   54.3038 H         1 LE1         0.0245
    140 H          20.5939   76.0790   51.9148 H         1 LE1         0.0245
    141 H          21.8094   77.1830   52.6039 H         1 LE1         0.0245
    142 H          20.4952   76.5545   53.6280 H         1 LE1         0.0245
    143 H          22.0805   78.4847   49.4207 H         1 THR         0.1884
    144 H          21.8335   76.6248   47.4520 H         1 THR         0.0826
    145 H          24.2632   77.0123   49.2274 H         1 THR         0.0639
    146 H          24.7916   78.5608   47.5393 H         1 THR         0.2101
    147 H          24.4548   75.0328   47.7863 H         1 THR         0.0257
    148 H          24.0183   76.0132   46.3653 H         1 THR         0.0257
    149 H          25.5439   76.3266   47.2287 H         1 THR         0.0257
    150 H          21.5785   74.5061   47.2651 H         1 GLY         0.1881
    151 H          21.0579   72.3641   47.9303 H         1 GLY         0.0763
    152 H          21.1861   72.9038   49.6628 H         1 GLY         0.0763
    153 H          22.0414   70.6099   49.7039 H         1 HIS         0.1884
    154 H          24.8887   70.7411   50.0375 H         1 HIS         0.0817
    155 H          23.0759   68.3243   49.8865 H         1 HIS         0.0420
    156 H          23.5165   69.2768   51.3802 H         1 HIS         0.0420
    157 H          24.7559   66.2588   49.3600 H         1 HIS         0.0729
    158 H          27.8876   67.3794   52.0259 H         1 HIS         0.1199
    159 H          27.0542   65.5888   50.4100 H         1 HIS         0.2361
    160 H          22.8374   69.8420   47.3629 H         1 PHE         0.1885
    161 H          25.3136   69.1474   45.8377 H         1 PHE         0.0823
    162 H          23.8956   67.8325   44.3361 H         1 PHE         0.0474
    163 H          22.4745   68.1951   45.4235 H         1 PHE         0.0474
    164 H          25.9386   66.7433   45.5517 H         1 PHE         0.0557
    165 H          21.8966   66.6445   46.9915 H         1 PHE         0.0557
    166 H          26.4837   64.7573   46.9220 H         1 PHE         0.0599
    167 H          22.4280   64.6524   48.3599 H         1 PHE         0.0599
    168 H          24.7235   63.7012   48.3277 H         1 PHE         0.0559
    169 H          24.1599   71.7934   46.3727 H         1 GLY         0.1881
    170 H          24.2006   72.6921   43.5791 H         1 GLY         0.0763
    171 H          24.2345   73.7190   45.0848 H         1 GLY         0.0763
    172 H          20.0067   73.9135   43.5107 H         1 SAR         0.0765
    173 H          20.5964   75.3464   42.5822 H         1 SAR         0.0765
    174 H          23.7393   75.5244   43.8847 H         1 SAR         0.0488
    175 H          23.6319   74.5880   42.3738 H         1 SAR         0.0488
    176 H          22.6050   76.0241   42.6062 H         1 SAR         0.0488
    177 H          19.2519   76.8728   42.3505 H         1 MLE         0.0488
    178 H          18.1371   75.5757   42.8464 H         1 MLE         0.0488
    179 H          17.7048   77.2792   43.1332 H         1 MLE         0.0488
    180 H          19.3946   77.2523   46.2809 H         1 MLE         0.0802
    181 H          18.1638   79.3909   45.9506 H         1 MLE         0.0315
    182 H          18.0303   78.9378   44.1864 H         1 MLE         0.0315
    183 H          20.5606   78.7453   44.2840 H         1 MLE         0.0298
    184 H          19.3738   80.5034   43.0571 H         1 MLE         0.0232
    185 H          19.2249   81.4670   44.5471 H         1 MLE         0.0232
    186 H          20.8298   81.1716   43.8345 H         1 MLE         0.0232
    187 H          20.1735   80.4512   46.7541 H         1 MLE         0.0232
    188 H          20.8928   78.8238   46.6816 H         1 MLE         0.0232
    189 H          21.7132   80.1957   45.8968 H         1 MLE         0.0232
    190 H          18.0447   77.1034   47.9273 H         1 TYR         0.1885
    191 H          15.2658   76.1780   47.2836 H         1 TYR         0.0821
    192 H          15.3830   74.6205   49.1149 H         1 TYR         0.0453
    193 H          17.1001   75.1622   49.4640 H         1 TYR         0.0453
    194 H          14.9856   72.8580   47.6443 H         1 TYR         0.0530
    195 H          18.8626   74.6908   47.7228 H         1 TYR         0.0530
    196 H          15.8539   71.0998   46.1236 H         1 TYR         0.0525
    197 H          19.7239   72.9471   46.1984 H         1 TYR         0.0525
    198 H          17.6358   70.3248   45.0218 H         1 TYR         0.2458
    199 H          14.1678   79.3745   50.0827 H         1 PRO         0.0802
    200 H          11.9554   79.2008   49.0778 H         1 PRO         0.0313
    201 H          11.5538   78.6923   50.6749 H         1 PRO         0.0313
    202 H          11.0758   77.0796   48.6030 H         1 PRO         0.0287
    203 H          11.6052   76.4066   50.1294 H         1 PRO         0.0287
    204 H          13.3316   75.5140   48.8225 H         1 PRO         0.0524
    205 H          13.1353   76.6742   47.5756 H         1 PRO         0.0524
    206 H          14.4330   79.9484   52.0674 H         1 CYS         0.1884
    207 H          13.6666   78.1087   54.2205 H         1 CYS         0.0808
    208 H          15.8080   77.2396   53.9064 H         1 CYS         0.0432
    209 H          15.9557   78.4282   55.3100 H         1 CYS         0.0432
    210 H          14.6507   81.5421   56.0787 H         1 NH2         0.1815
    211 H          15.8759   80.2999   55.8007 H         1 NH2         0.1815
@<TRIPOS>BOND
     1    1    2 2  
     2    1    3 1  
     3    4    1 am 
     4    5    4 1  
     5    6    5 1  
     6    5    8 1  
     7    6    7 2  
     8   15    6 am 
     9    8    9 1  
    10    9   10 1  
    11   10   11 1  
    12   11   12 ar 
    13   12   13 ar 
    14   12   14 ar 
    15   16   15 1  
    16   17   16 1  
    17   16   19 1  
    18   17   18 2  
    19   29   17 am 
    20   19   20 1  
    21   20   21 ar 
    22   20   22 ar 
    23   21   23 ar 
    24   22   24 ar 
    25   23   25 ar 
    26   24   25 ar 
    27   27   26 2  
    28   28   27 1  
    29   27   34 am 
    30   28   29 1  
    31   28   30 1  
    32   30   31 1  
    33   30   32 1  
    34   30   33 1  
    35   33  108 1  
    36   34   35 1  
    37   35   36 1  
    38   35   38 1  
    39   36   37 2  
    40   36   41 am 
    41   38   39 1  
    42   38   40 1  
    43   41   42 1  
    44   42   43 1  
    45   43   44 2  
    46   43   45 am 
    47   45   46 1  
    48   46   47 1  
    49   46   49 1  
    50   47   48 2  
    51   47   55 am 
    52   49   50 1  
    53   50   51 1  
    54   50   52 2  
    55   51   53 2  
    56   52   54 1  
    57   53   54 1  
    58   55   56 1  
    59   56   57 1  
    60   56   59 1  
    61   57   58 2  
    62   57   66 am 
    63   59   60 1  
    64   60   61 ar 
    65   60   62 ar 
    66   61   63 ar 
    67   62   64 ar 
    68   63   65 ar 
    69   64   65 ar 
    70   66   67 1  
    71   67   68 1  
    72   68   69 2  
    73   68   70 am 
    74   70   71 1  
    75   70   74 1  
    76   71   72 1  
    77   72   73 2  
    78   72   75 am 
    79   75   76 1  
    80   75   77 1  
    81   77   78 1  
    82   77   82 1  
    83   78   79 1  
    84   79   80 1  
    85   79   81 1  
    86   82   83 2  
    87   82   84 am 
    88   84   85 1  
    89   85   86 1  
    90   85   88 1  
    91   86   87 2  
    92   86   96 am 
    93   88   89 1  
    94   89   90 ar 
    95   89   91 ar 
    96   90   92 ar 
    97   91   93 ar 
    98   92   94 ar 
    99   93   94 ar 
   100   94   95 1  
   101   96   97 1  
   102   96  102 1  
   103   97   98 1  
   104   97  100 1  
   105   98   99 2  
   106   98  103 am 
   107  100  101 1  
   108  101  102 1  
   109  103  104 1  
   110  104  105 1  
   111  104  107 1  
   112  105  106 2  
   113  105  109 am 
   114  107  108 1  
   115    3  110 1  
   116    3  111 1  
   117    3  112 1  
   118    4  113 1  
   119    5  114 1  
   120    8  115 1  
   121    8  116 1  
   122    9  117 1  
   123    9  118 1  
   124   10  119 1  
   125   10  120 1  
   126   11  121 1  
   127   13  122 1  
   128   13  123 1  
   129   14  124 1  
   130   14  125 1  
   131   15  126 1  
   132   16  127 1  
   133   19  128 1  
   134   19  129 1  
   135   21  130 1  
   136   22  131 1  
   137   23  132 1  
   138   24  133 1  
   139   25  134 1  
   140   28  135 1  
   141   29  136 1  
   142   31  137 1  
   143   31  138 1  
   144   31  139 1  
   145   32  140 1  
   146   32  141 1  
   147   32  142 1  
   148   34  143 1  
   149   35  144 1  
   150   38  145 1  
   151   39  146 1  
   152   40  147 1  
   153   40  148 1  
   154   40  149 1  
   155   41  150 1  
   156   42  151 1  
   157   42  152 1  
   158   45  153 1  
   159   46  154 1  
   160   49  155 1  
   161   49  156 1  
   162   52  157 1  
   163   53  158 1  
   164   54  159 1  
   165   55  160 1  
   166   56  161 1  
   167   59  162 1  
   168   59  163 1  
   169   61  164 1  
   170   62  165 1  
   171   63  166 1  
   172   64  167 1  
   173   65  168 1  
   174   66  169 1  
   175   67  170 1  
   176   67  171 1  
   177   71  172 1  
   178   71  173 1  
   179   74  174 1  
   180   74  175 1  
   181   74  176 1  
   182   76  177 1  
   183   76  178 1  
   184   76  179 1  
   185   77  180 1  
   186   78  181 1  
   187   78  182 1  
   188   79  183 1  
   189   80  184 1  
   190   80  185 1  
   191   80  186 1  
   192   81  187 1  
   193   81  188 1  
   194   81  189 1  
   195   84  190 1  
   196   85  191 1  
   197   88  192 1  
   198   88  193 1  
   199   90  194 1  
   200   91  195 1  
   201   92  196 1  
   202   93  197 1  
   203   95  198 1  
   204   97  199 1  
   205  100  200 1  
   206  100  201 1  
   207  101  202 1  
   208  101  203 1  
   209  102  204 1  
   210  102  205 1  
   211  103  206 1  
   212  104  207 1  
   213  107  208 1  
   214  107  209 1  
   215  109  210 1  
   216  109  211 1  
@<TRIPOS>SUBSTRUCTURE
     1 ACE         1

