5mmp_ligand
  -I-interpret- 

 49 52  0  0  0  0  0  0  0  0999 V2000
   46.3070  -16.2060   -9.8380 O   0  0  0  0  0
   47.3160  -15.7620  -10.3980 C   0  0  0  0  0
   48.0100  -14.7580   -9.8650 N   0  0  0  0  0
   47.6960  -14.0380   -8.6410 C   0  0  0  0  0
   48.3320  -12.6560   -8.7240 C   0  0  0  0  0
   47.7890  -16.2410  -11.5590 N   0  0  0  0  0
   47.0990  -17.0620  -12.3900 C   0  0  0  0  0
   46.1650  -18.0080  -11.9240 C   0  0  0  0  0
   45.5000  -18.8300  -12.8450 C   0  0  0  0  0
   44.5450  -19.7830  -12.4370 C   0  0  0  0  0
   44.1230  -19.9830  -11.0110 C   0  0  0  0  0
   43.8560  -21.2610  -10.4930 C   0  0  0  0  0
   43.4100  -21.3850   -9.1690 C   0  0  0  0  0
   43.2130  -20.2930   -8.4040 N   0  0  0  0  0
   43.4440  -19.0480   -8.8800 C   0  0  0  0  0
   43.8750  -18.8610  -10.1970 C   0  0  0  0  0
   43.9190  -20.5780  -13.4080 C   0  0  0  0  0
   44.2140  -20.4340  -14.7680 C   0  0  0  0  0
   45.1510  -19.4840  -15.1900 C   0  0  0  0  0
   45.8030  -18.7030  -14.2130 C   0  0  0  0  0
   46.7490  -17.7410  -14.6090 C   0  0  0  0  0
   47.3680  -16.9740  -13.7070 N   0  0  0  0  0
   45.4480  -19.3020  -16.5180 N   0  0  0  0  0
   45.1900  -20.1370  -17.5770 C   0  0  0  0  0
   45.4150  -21.5150  -17.4970 C   0  0  0  0  0
   45.1570  -22.3220  -18.6080 C   0  0  0  0  0
   44.6820  -21.7410  -19.7840 C   0  0  0  0  0
   44.4860  -20.4090  -19.8370 N   0  0  0  0  0
   44.7270  -19.6090  -18.7780 C   0  0  0  0  0
   48.8479  -14.4638  -10.3668 H   0  0  0  0  0
   48.0858  -14.5783   -7.7783 H   0  0  0  0  0
   46.6158  -13.9468   -8.5269 H   0  0  0  0  0
   49.4117  -12.7602   -8.8311 H   0  0  0  0  0
   47.9298  -12.1235   -9.5858 H   0  0  0  0  0
   48.1079  -12.0991   -7.8142 H   0  0  0  0  0
   48.7323  -15.9691  -11.8357 H   0  0  0  0  0
   45.9611  -18.1002  -10.8572 H   0  0  0  0  0
   43.9939  -22.1467  -11.1132 H   0  0  0  0  0
   43.2207  -22.3751   -8.7543 H   0  0  0  0  0
   43.2931  -18.1844   -8.2323 H   0  0  0  0  0
   44.0179  -17.8546  -10.5905 H   0  0  0  0  0
   43.1874  -21.3236  -13.0966 H   0  0  0  0  0
   43.7119  -21.0644  -15.5020 H   0  0  0  0  0
   46.9807  -17.6193  -15.6671 H   0  0  0  0  0
   45.9240  -18.4299  -16.7488 H   0  0  0  0  0
   45.7894  -21.9567  -16.5735 H   0  0  0  0  0
   45.3256  -23.3976  -18.5563 H   0  0  0  0  0
   44.4706  -22.3611  -20.6551 H   0  0  0  0  0
   44.5569  -18.5358  -18.8643 H   0  0  0  0  0
  1  2  2  0  0  0
  2  3  1  0  0  0
  2  6  1  0  0  0
  3  4  1  0  0  0
  4  5  1  0  0  0
  6  7  1  0  0  0
  7  8  4  0  0  0
  7 22  4  0  0  0
  8  9  4  0  0  0
  9 10  4  0  0  0
  9 20  4  0  0  0
 10 11  1  0  0  0
 10 17  4  0  0  0
 11 12  4  0  0  0
 11 16  4  0  0  0
 12 13  4  0  0  0
 13 14  4  0  0  0
 14 15  4  0  0  0
 15 16  4  0  0  0
 17 18  4  0  0  0
 18 19  4  0  0  0
 19 20  4  0  0  0
 19 23  1  0  0  0
 20 21  4  0  0  0
 21 22  4  0  0  0
 23 24  1  0  0  0
 24 25  4  0  0  0
 24 29  4  0  0  0
 25 26  4  0  0  0
 26 27  4  0  0  0
 27 28  4  0  0  0
 28 29  4  0  0  0
  3 30  1  0  0  0
  4 31  1  0  0  0
  4 32  1  0  0  0
  5 33  1  0  0  0
  5 34  1  0  0  0
  5 35  1  0  0  0
  6 36  1  0  0  0
  8 37  1  0  0  0
 12 38  1  0  0  0
 13 39  1  0  0  0
 15 40  1  0  0  0
 16 41  1  0  0  0
 17 42  1  0  0  0
 18 43  1  0  0  0
 21 44  1  0  0  0
 23 45  1  0  0  0
 25 46  1  0  0  0
 26 47  1  0  0  0
 27 48  1  0  0  0
 29 49  1  0  0  0
M  END
$$$$
