4qir_ligand
  -I-interpret- 

 49 50  0  0  0  0  0  0  0  0999 V2000
    9.2640   44.3260   15.0850 P   0  0  0  0  0
   11.6930   43.7780   16.2940 C   0  0  0  0  0
   11.0670   44.5300   15.1310 C   0  0  0  0  0
   13.2010   43.6870   16.2360 C   0  0  0  0  0
   13.7490   42.9350   17.4540 C   0  0  0  0  0
   11.3700   45.9640   15.1980 N   0  3  0  0  0
    8.7530   42.5920   14.8880 C   0  0  0  0  0
    8.7020   45.1070   13.9290 O   0  0  0  0  0
    8.3580   41.8690   16.1670 C   0  0  0  0  0
    8.7040   44.7280   16.3580 O   0  0  0  0  0
    9.4610   40.9640   16.6460 C   0  0  0  0  0
    7.2560   40.8920   15.8750 C   0  0  0  0  0
   15.0270   43.2060   17.9030 C   0  0  0  0  0
    5.8770   41.4400   16.1810 C   0  0  0  0  0
   15.5340   42.5460   18.9800 N   0  0  0  0  0
   14.7810   41.6030   19.6320 C   0  0  0  0  0
   13.4940   41.2890   19.1810 C   0  0  0  0  0
   12.9970   41.9680   18.1080 C   0  0  0  0  0
    9.7030   40.7780   17.8680 O   0  0  0  0  0
   10.1560   40.4030   15.7950 O   0  0  0  0  0
    5.0510   41.7850   15.1200 C   0  0  0  0  0
    3.7740   42.2660   15.3520 C   0  0  0  0  0
    3.3110   42.4070   16.6560 C   0  0  0  0  0
    4.1270   42.0620   17.7250 C   0  0  0  0  0
    5.4120   41.5750   17.4890 C   0  0  0  0  0
   11.3085   42.7586   16.2611 H   0  0  0  0  0
   11.4392   44.3237   17.2028 H   0  0  0  0  0
   11.4991   44.1034   14.2258 H   0  0  0  0  0
   13.6138   44.6958   16.2312 H   0  0  0  0  0
   13.4858   43.1474   15.3328 H   0  0  0  0  0
   10.9370   46.4391   14.4060 H   0  0  0  0  0
   11.0023   46.3477   16.0686 H   0  0  0  0  0
   12.3806   46.0986   15.1657 H   0  0  0  0  0
    9.6162   42.0602   14.4877 H   0  0  0  0  0
    7.8665   42.6024   14.2539 H   0  0  0  0  0
    9.1048   44.8025   13.1125 H   0  0  0  0  0
    8.0990   42.6471   16.8851 H   0  0  0  0  0
    7.4125   40.0184   16.5078 H   0  0  0  0  0
    7.2916   40.6621   14.8101 H   0  0  0  0  0
   15.6334   43.9534   17.3914 H   0  0  0  0  0
   15.1875   41.0952   20.5066 H   0  0  0  0  0
   12.9023   40.5191   19.6762 H   0  0  0  0  0
   11.9891   41.7473   17.7565 H   0  0  0  0  0
    9.0788   41.2804   18.3968 H   0  0  0  0  0
    5.4106   41.6763   14.0968 H   0  0  0  0  0
    3.1316   42.5341   14.5133 H   0  0  0  0  0
    2.3065   42.7887   16.8388 H   0  0  0  0  0
    3.7638   42.1717   18.7468 H   0  0  0  0  0
    6.0530   41.2998   18.3265 H   0  0  0  0  0
  1  3  1  0  0  0
  1  7  1  0  0  0
  1  8  1  0  0  0
  1 10  2  0  0  0
  3  2  1  0  0  0
  2  4  1  0  0  0
  3  6  1  0  0  0
  4  5  1  0  0  0
  5 13  4  0  0  0
  5 18  4  0  0  0
  7  9  1  0  0  0
  9 11  1  0  0  0
  9 12  1  0  0  0
 11 19  1  0  0  0
 11 20  2  0  0  0
 12 14  1  0  0  0
 13 15  4  0  0  0
 14 21  4  0  0  0
 14 25  4  0  0  0
 15 16  4  0  0  0
 16 17  4  0  0  0
 17 18  4  0  0  0
 21 22  4  0  0  0
 22 23  4  0  0  0
 23 24  4  0  0  0
 24 25  4  0  0  0
  2 26  1  0  0  0
  2 27  1  0  0  0
  3 28  1  0  0  0
  4 29  1  0  0  0
  4 30  1  0  0  0
  6 31  1  0  0  0
  6 32  1  0  0  0
  6 33  1  0  0  0
  7 34  1  0  0  0
  7 35  1  0  0  0
  8 36  1  0  0  0
  9 37  1  0  0  0
 12 38  1  0  0  0
 12 39  1  0  0  0
 13 40  1  0  0  0
 16 41  1  0  0  0
 17 42  1  0  0  0
 18 43  1  0  0  0
 19 44  1  0  0  0
 21 45  1  0  0  0
 22 46  1  0  0  0
 23 47  1  0  0  0
 24 48  1  0  0  0
 25 49  1  0  0  0
M  END
$$$$
