### 
### Created by X-TOOL on Mon Sep 10 21:13:16 2018
### 

@<TRIPOS>MOLECULE
4qir_ligand
   47    48     1     0     0
SMALL
GAST_HUCK


@<TRIPOS>ATOM
      1 P11         9.2640   44.3260   15.0850 P.3       1 379         0.0376
      2 C1         11.6930   43.7780   16.2940 C.3       1 379         0.0178
      3 C3         11.0670   44.5300   15.1310 C.3       1 379         0.0392
      4 C6         13.2010   43.6870   16.2360 C.3       1 379        -0.0062
      5 C8         13.7490   42.9350   17.4540 C.ar      1 379        -0.0148
      6 N10        11.3700   45.9640   15.1980 N.4       1 379         0.2337
      7 C11         8.7530   42.5920   14.8880 C.3       1 379         0.0347
      8 O12         8.7020   45.1070   13.9290 O.co2     1 379        -0.6154
      9 C13         8.3580   41.8690   16.1670 C.3       1 379         0.0374
     10 O13         8.7040   44.7280   16.3580 O.co2     1 379        -0.6154
     11 C15         9.4610   40.9640   16.6460 C.2       1 379         0.0413
     12 C16         7.2560   40.8920   15.8750 C.3       1 379        -0.0033
     13 C01        15.0270   43.2060   17.9030 C.ar      1 379         0.0125
     14 C17         5.8770   41.4400   16.1810 C.ar      1 379        -0.0411
     15 N18        15.5340   42.5460   18.9800 N.ar      1 379        -0.3044
     16 C19        14.7810   41.6030   19.6320 C.ar      1 379         0.0042
     17 C20        13.4940   41.2890   19.1810 C.ar      1 379        -0.0405
     18 C21        12.9970   41.9680   18.1080 C.ar      1 379        -0.0404
     19 O23         9.7030   40.7780   17.8680 O.co2     1 379        -0.5685
     20 O24        10.1560   40.4030   15.7950 O.co2     1 379        -0.5685
     21 C36         5.0510   41.7850   15.1200 C.ar      1 379        -0.0602
     22 C37         3.7740   42.2660   15.3520 C.ar      1 379        -0.0686
     23 C38         3.3110   42.4070   16.6560 C.ar      1 379        -0.0687
     24 C39         4.1270   42.0620   17.7250 C.ar      1 379        -0.0686
     25 C40         5.4120   41.5750   17.4890 C.ar      1 379        -0.0602
     26 H          11.2863   42.7560   16.3024 H         1 379         0.0361
     27 H          11.4144   44.2913   17.2262 H         1 379         0.0361
     28 H          11.4884   44.1249   14.1992 H         1 379         0.1066
     29 H          13.6231   44.7027   16.2196 H         1 379         0.0444
     30 H          13.4950   43.1529   15.3204 H         1 379         0.0444
     31 H          12.3691   46.0954   15.2243 H         1 379         0.2013
     32 H          10.9576   46.3561   16.0300 H         1 379         0.2013
     33 H          10.9916   46.4257   14.3858 H         1 379         0.2013
     34 H           9.5912   42.0425   14.4348 H         1 379         0.0489
     35 H           7.8892   42.5699   14.2073 H         1 379         0.0489
     36 H           8.0679   42.5972   16.9387 H         1 379         0.0504
     37 H           7.4172   39.9905   16.4844 H         1 379         0.0447
     38 H           7.2979   40.6260   14.8085 H         1 379         0.0447
     39 H          15.6301   43.9493   17.3942 H         1 379         0.0765
     40 H          15.1852   41.0980   20.5018 H         1 379         0.0767
     41 H          12.9055   40.5234   19.6735 H         1 379         0.0693
     42 H          11.9946   41.7485   17.7585 H         1 379         0.0678
     43 H           5.4087   41.6769   14.1024 H         1 379         0.0557
     44 H           3.1351   42.5327   14.5179 H         1 379         0.0599
     45 H           2.3121   42.7866   16.8378 H         1 379         0.0559
     46 H           3.7658   42.1711   18.7412 H         1 379         0.0599
     47 H           6.0495   41.3014   18.3219 H         1 379         0.0557
@<TRIPOS>BOND
     1    1    3 1  
     2    1    7 1  
     3    1    8 ar 
     4    1   10 ar 
     5    3    2 1  
     6    2    4 1  
     7    3    6 1  
     8    4    5 1  
     9    5   13 ar 
    10    5   18 ar 
    11    7    9 1  
    12    9   11 1  
    13    9   12 1  
    14   11   19 ar 
    15   11   20 ar 
    16   12   14 1  
    17   13   15 ar 
    18   14   21 ar 
    19   14   25 ar 
    20   15   16 ar 
    21   16   17 ar 
    22   17   18 ar 
    23   21   22 ar 
    24   22   23 ar 
    25   23   24 ar 
    26   24   25 ar 
    27    2   26 1  
    28    2   27 1  
    29    3   28 1  
    30    4   29 1  
    31    4   30 1  
    32    6   31 1  
    33    6   32 1  
    34    6   33 1  
    35    7   34 1  
    36    7   35 1  
    37    9   36 1  
    38   12   37 1  
    39   12   38 1  
    40   13   39 1  
    41   16   40 1  
    42   17   41 1  
    43   18   42 1  
    44   21   43 1  
    45   22   44 1  
    46   23   45 1  
    47   24   46 1  
    48   25   47 1  
@<TRIPOS>SUBSTRUCTURE
     1 379         1

