1k9r_ligand
  -I-interpret- 

 90 93  0  0  0  0  0  0  0  0999 V2000
    6.8370   15.2150    1.1390 C   0  0  0  0  0
    5.8480   15.7360    1.6160 O   0  0  0  0  0
    7.2950   15.5600   -0.2800 C   0  0  0  0  0
    7.5760   14.3400    1.7650 N   0  0  0  0  0
    7.7850   12.9940    1.1670 C   0  0  0  0  0
    6.4400   12.3470    0.8180 C   0  0  0  0  0
    5.3930   12.8900    1.0990 O   0  0  0  0  0
    8.4920   12.2090    2.2660 C   0  0  0  0  0
    8.0950   12.8820    3.5380 C   0  0  0  0  0
    7.8370   14.3310    3.2110 C   0  0  0  0  0
    6.4720   11.1870    0.2070 N   0  0  0  0  0
    5.2050   10.4810   -0.1720 C   0  0  0  0  0
    4.3850   11.3330   -1.1580 C   0  0  0  0  0
    4.2940   12.5350   -1.0080 O   0  0  0  0  0
    4.4390   10.2720    1.1390 C   0  0  0  0  0
    3.2530    9.3390    0.8930 C   0  0  0  0  0
    3.7580    7.9040    0.7320 C   0  0  0  0  0
    2.2910    9.4120    2.0800 C   0  0  0  0  0
    3.8140   10.6820   -2.1470 N   0  0  0  0  0
    3.0060   11.4060   -3.1600 C   0  0  0  0  0
    1.6470   11.8190   -2.5750 C   0  0  0  0  0
    0.8320   10.9730   -2.2690 O   0  0  0  0  0
    2.8120   10.3750   -4.2680 C   0  0  0  0  0
    2.9400    9.0490   -3.5890 C   0  0  0  0  0
    3.8660    9.2360   -2.4160 C   0  0  0  0  0
    1.4360   13.1070   -2.4440 N   0  0  0  0  0
    0.1490   13.6030   -1.8980 C   0  0  0  0  0
   -0.9590   13.4600   -2.9480 C   0  0  0  0  0
   -1.0280   14.2160   -3.8960 O   0  0  0  0  0
    0.4270   15.0730   -1.6010 C   0  0  0  0  0
    1.5450   15.4520   -2.5210 C   0  0  0  0  0
    2.3540   14.2050   -2.7790 C   0  0  0  0  0
   -1.8240   12.4940   -2.7890 N   0  0  0  0  0
   -2.9240   12.3060   -3.7840 C   0  0  0  0  0
   -3.6690   13.6250   -4.0100 C   0  0  0  0  0
   -3.5550   14.1670   -5.0960 O   0  0  0  0  0
   -3.8570   11.2660   -3.1560 C   0  0  0  0  0
   -4.4820   10.4080   -4.2390 C   0  0  0  0  0
   -4.8900   10.9830   -5.4520 C   0  0  0  0  0
   -4.6560    9.0360   -4.0260 C   0  0  0  0  0
   -5.4690   10.1850   -6.4460 C   0  0  0  0  0
   -5.2360    8.2380   -5.0200 C   0  0  0  0  0
   -5.6420    8.8120   -6.2300 C   0  0  0  0  0
   -6.2130    8.0270   -7.2100 O   0  0  0  0  0
   -4.3390   14.0690   -3.0910 O   0  0  0  0  0
    6.5049   15.3070   -0.9870 H   0  0  0  0  0
    7.5114   16.6265   -0.3413 H   0  0  0  0  0
    8.1937   14.9913   -0.5187 H   0  0  0  0  0
    8.3585   13.0274    0.2407 H   0  0  0  0  0
    9.5735   12.2081    2.1299 H   0  0  0  0  0
    8.2059   11.1572    2.2591 H   0  0  0  0  0
    8.8842   12.7906    4.2843 H   0  0  0  0  0
    7.2025   12.4173    3.9569 H   0  0  0  0  0
    7.0002   14.7359    3.7801 H   0  0  0  0  0
    8.6809   14.9670    3.4781 H   0  0  0  0  0
    7.3714   10.7593   -0.0134 H   0  0  0  0  0
    5.4049    9.5330   -0.6714 H   0  0  0  0  0
    4.0760   11.2325    1.5048 H   0  0  0  0  0
    5.1028    9.8281    1.8809 H   0  0  0  0  0
    2.7325    9.6447   -0.0146 H   0  0  0  0  0
    4.4423    7.8539   -0.1149 H   0  0  0  0  0
    4.2786    7.5994    1.6399 H   0  0  0  0  0
    2.9117    7.2399    0.5567 H   0  0  0  0  0
    2.8119    9.1066    2.9875 H   0  0  0  0  0
    1.9318   10.4349    2.1925 H   0  0  0  0  0
    1.4463    8.7463    1.9029 H   0  0  0  0  0
    3.4848   12.3223   -3.5053 H   0  0  0  0  0
    3.5471   10.4940   -5.0639 H   0  0  0  0  0
    1.8450   10.4861   -4.7585 H   0  0  0  0  0
    3.3379    8.3028   -4.2767 H   0  0  0  0  0
    1.9652    8.6933   -3.2553 H   0  0  0  0  0
    3.5627    8.6443   -1.5523 H   0  0  0  0  0
    4.8779    8.8921   -2.6300 H   0  0  0  0  0
   -0.1863   13.0535   -1.0184 H   0  0  0  0  0
    0.6944   15.2295   -0.5560 H   0  0  0  0  0
   -0.4560   15.6910   -1.7638 H   0  0  0  0  0
    2.1665   16.2260   -2.0707 H   0  0  0  0  0
    1.1532   15.8550   -3.4549 H   0  0  0  0  0
    2.7065   14.1480   -3.8089 H   0  0  0  0  0
    3.2668   14.1753   -2.1840 H   0  0  0  0  0
   -1.7490   11.8686   -1.9867 H   0  0  0  0  0
   -2.5476   11.9838   -4.7549 H   0  0  0  0  0
   -4.6456   11.7783   -2.6049 H   0  0  0  0  0
   -3.2830   10.6303   -2.4818 H   0  0  0  0  0
   -4.7561   12.0515   -5.6206 H   0  0  0  0  0
   -4.3394    8.5874   -3.0844 H   0  0  0  0  0
   -5.7853   10.6324   -7.3883 H   0  0  0  0  0
   -5.3712    7.1697   -4.8512 H   0  0  0  0  0
   -6.2580    7.1180   -6.9045 H   0  0  0  0  0
   -4.2802   13.4763   -2.3381 H   0  0  0  0  0
  1  2  2  0  0  0
  1  3  1  0  0  0
  1  4  1  0  0  0
  4  5  1  0  0  0
  4 10  1  0  0  0
  5  6  1  0  0  0
  5  8  1  0  0  0
  6  7  2  0  0  0
  6 11  1  0  0  0
  8  9  1  0  0  0
  9 10  1  0  0  0
 11 12  1  0  0  0
 12 13  1  0  0  0
 12 15  1  0  0  0
 13 14  2  0  0  0
 13 19  1  0  0  0
 15 16  1  0  0  0
 16 17  1  0  0  0
 16 18  1  0  0  0
 19 20  1  0  0  0
 19 25  1  0  0  0
 20 21  1  0  0  0
 20 23  1  0  0  0
 21 22  2  0  0  0
 21 26  1  0  0  0
 23 24  1  0  0  0
 24 25  1  0  0  0
 26 27  1  0  0  0
 26 32  1  0  0  0
 27 28  1  0  0  0
 27 30  1  0  0  0
 28 29  2  0  0  0
 28 33  1  0  0  0
 30 31  1  0  0  0
 31 32  1  0  0  0
 33 34  1  0  0  0
 34 35  1  0  0  0
 34 37  1  0  0  0
 35 36  2  0  0  0
 35 45  1  0  0  0
 37 38  1  0  0  0
 38 39  4  0  0  0
 38 40  4  0  0  0
 39 41  4  0  0  0
 40 42  4  0  0  0
 41 43  4  0  0  0
 42 43  4  0  0  0
 43 44  1  0  0  0
  3 46  1  0  0  0
  3 47  1  0  0  0
  3 48  1  0  0  0
  5 49  1  0  0  0
  8 50  1  0  0  0
  8 51  1  0  0  0
  9 52  1  0  0  0
  9 53  1  0  0  0
 10 54  1  0  0  0
 10 55  1  0  0  0
 11 56  1  0  0  0
 12 57  1  0  0  0
 15 58  1  0  0  0
 15 59  1  0  0  0
 16 60  1  0  0  0
 17 61  1  0  0  0
 17 62  1  0  0  0
 17 63  1  0  0  0
 18 64  1  0  0  0
 18 65  1  0  0  0
 18 66  1  0  0  0
 20 67  1  0  0  0
 23 68  1  0  0  0
 23 69  1  0  0  0
 24 70  1  0  0  0
 24 71  1  0  0  0
 25 72  1  0  0  0
 25 73  1  0  0  0
 27 74  1  0  0  0
 30 75  1  0  0  0
 30 76  1  0  0  0
 31 77  1  0  0  0
 31 78  1  0  0  0
 32 79  1  0  0  0
 32 80  1  0  0  0
 33 81  1  0  0  0
 34 82  1  0  0  0
 37 83  1  0  0  0
 37 84  1  0  0  0
 39 85  1  0  0  0
 40 86  1  0  0  0
 41 87  1  0  0  0
 42 88  1  0  0  0
 44 89  1  0  0  0
 45 90  1  0  0  0
M  END
$$$$
