5x72_ligand
  -I-interpret- 

 39 42  0  0  0  0  0  0  0  0999 V2000
  -19.2770   17.7260  131.5860 F   0  0  0  0  0
  -19.7520   16.7290  130.9550 C   0  0  0  0  0
  -20.3050   15.6620  131.6530 C   0  0  0  0  0
  -20.8050   14.5510  130.9970 C   0  0  0  0  0
  -20.7720   14.5400  129.6030 C   0  0  0  0  0
  -20.1880   15.6110  128.8910 C   0  0  0  0  0
  -19.6910   16.7450  129.5680 C   0  0  0  0  0
  -19.0970   17.8720  128.9530 C   0  0  0  0  0
  -20.0250   19.0360  128.9280 N   0  0  0  0  0
  -20.9450   19.1310  127.8990 C   0  0  0  0  0
  -22.0410   19.9510  128.0480 C   0  0  0  0  0
  -22.9850   20.0740  127.0240 C   0  0  0  0  0
  -22.7770   19.3690  125.8630 C   0  0  0  0  0
  -21.6590   18.5290  125.7050 C   0  0  0  0  0
  -20.7580   18.3790  126.7400 C   0  0  0  0  0
  -19.5790   17.6490  126.5670 C   0  0  0  0  0
  -19.1750   17.3440  125.4290 O   0  0  0  0  0
  -18.7130   17.4950  127.5780 N   0  0  0  0  0
  -17.4670   17.0590  127.3330 C   0  0  0  0  0
  -16.5140   18.0570  127.0550 C   0  0  0  0  0
  -15.1850   17.7610  126.8160 C   0  0  0  0  0
  -14.7850   16.4410  126.7950 C   0  0  0  0  0
  -15.7200   15.4250  127.0300 C   0  0  0  0  0
  -17.0730   15.7330  127.3050 C   0  0  0  0  0
  -20.3458   15.7012  132.7415 H   0  0  0  0  0
  -21.2133   13.7079  131.5544 H   0  0  0  0  0
  -21.2002   13.6984  129.0586 H   0  0  0  0  0
  -20.1203   15.5609  127.8043 H   0  0  0  0  0
  -18.2211   18.1742  129.5271 H   0  0  0  0  0
  -19.9833   19.7497  129.6555 H   0  0  0  0  0
  -22.1741   20.5102  128.9741 H   0  0  0  0  0
  -23.8613   20.7112  127.1433 H   0  0  0  0  0
  -23.4934   19.4624  125.0468 H   0  0  0  0  0
  -21.5046   17.9973  124.7661 H   0  0  0  0  0
  -16.8348   19.0984  127.0272 H   0  0  0  0  0
  -14.4630   18.5598  126.6464 H   0  0  0  0  0
  -13.7433   16.1891  126.5959 H   0  0  0  0  0
  -15.4009   14.3832  127.0006 H   0  0  0  0  0
  -17.7944   14.9376  127.4920 H   0  0  0  0  0
  1  2  1  0  0  0
  2  3  4  0  0  0
  2  7  4  0  0  0
  3  4  4  0  0  0
  4  5  4  0  0  0
  5  6  4  0  0  0
  6  7  4  0  0  0
  7  8  1  0  0  0
  8  9  1  0  0  0
  8 18  1  0  0  0
  9 10  1  0  0  0
 10 11  4  0  0  0
 10 15  4  0  0  0
 11 12  4  0  0  0
 12 13  4  0  0  0
 13 14  4  0  0  0
 14 15  4  0  0  0
 15 16  1  0  0  0
 16 17  2  0  0  0
 16 18  1  0  0  0
 18 19  1  0  0  0
 19 20  4  0  0  0
 19 24  4  0  0  0
 20 21  4  0  0  0
 21 22  4  0  0  0
 22 23  4  0  0  0
 23 24  4  0  0  0
  3 25  1  0  0  0
  4 26  1  0  0  0
  5 27  1  0  0  0
  6 28  1  0  0  0
  8 29  1  0  0  0
  9 30  1  0  0  0
 11 31  1  0  0  0
 12 32  1  0  0  0
 13 33  1  0  0  0
 14 34  1  0  0  0
 20 35  1  0  0  0
 21 36  1  0  0  0
 22 37  1  0  0  0
 23 38  1  0  0  0
 24 39  1  0  0  0
M  END
$$$$
