2qlj_ligand
  -I-interpret- 

 71 73  0  0  0  0  0  0  0  0999 V2000
  -34.0400   35.0190  -31.9180 N   0  3  0  0  0
  -35.2830   34.5350  -31.3940 C   0  0  0  0  0
  -36.4330   35.1350  -32.2950 C   0  0  0  0  0
  -36.6870   36.3260  -32.2650 O   0  0  0  0  0
  -35.5670   34.9220  -29.9180 C   0  0  0  0  0
  -34.8090   33.9980  -29.0010 C   0  0  0  0  0
  -35.1770   32.7220  -28.7100 C   0  0  0  0  0
  -33.6150   34.2700  -28.2320 C   0  0  0  0  0
  -34.3030   32.1870  -27.7890 N   0  0  0  0  0
  -33.3520   33.1060  -27.4800 C   0  0  0  0  0
  -32.7340   35.3540  -28.0420 C   0  0  0  0  0
  -32.2850   32.9990  -26.5820 C   0  0  0  0  0
  -31.6810   35.2420  -27.1620 C   0  0  0  0  0
  -31.4650   34.0850  -26.4320 C   0  0  0  0  0
  -37.1470   34.2960  -33.0930 N   0  0  0  0  0
  -38.2640   34.7480  -33.9650 C   0  0  0  0  0
  -39.5300   34.0790  -33.4500 C   0  0  0  0  0
  -39.5350   33.5940  -32.3270 O   0  0  0  0  0
  -38.0230   34.3030  -35.4120 C   0  0  0  0  0
  -36.5600   34.3200  -35.8300 C   0  0  0  0  0
  -36.3530   33.8190  -37.2480 C   0  0  0  0  0
  -35.1810   33.6540  -37.6590 O   0  0  0  0  0
  -37.3640   33.5930  -37.9500 O   0  0  0  0  0
  -40.5920   34.0320  -34.2500 N   0  0  0  0  0
  -41.8140   33.3760  -33.7950 C   0  0  0  0  0
  -42.5860   32.6540  -34.8990 C   0  0  0  0  0
  -42.4080   32.9350  -36.0860 O   0  0  0  0  0
  -42.7350   34.3780  -33.0780 C   0  0  0  0  0
  -43.1600   35.5360  -33.9280 C   0  0  0  0  0
  -42.3160   36.5790  -34.2440 N   0  0  0  0  0
  -44.3420   35.8130  -34.5280 C   0  0  0  0  0
  -42.9600   37.4500  -35.0010 C   0  0  0  0  0
  -44.1910   37.0090  -35.1890 N   0  0  0  0  0
  -43.4360   31.7130  -34.4880 N   0  0  0  0  0
  -44.2540   30.9250  -35.4090 C   0  0  0  0  0
  -45.7440   31.1880  -35.2250 C   0  0  0  0  0
  -46.2980   31.7960  -36.4070 O   0  0  0  0  0
  -44.0180   29.4240  -35.2040 C   0  0  0  0  0
  -42.5820   29.0090  -35.4630 C   0  0  0  0  0
  -42.0580   28.1770  -34.6960 O   0  0  0  0  0
  -41.9780   29.5070  -36.4340 O   0  0  0  0  0
  -33.9406   34.7175  -32.8873 H   0  0  0  0  0
  -34.0279   36.0380  -31.8747 H   0  0  0  0  0
  -33.2699   34.6448  -31.3636 H   0  0  0  0  0
  -35.2337   33.4462  -31.4107 H   0  0  0  0  0
  -36.6352   34.8351  -29.7190 H   0  0  0  0  0
  -35.2468   35.9493  -29.7440 H   0  0  0  0  0
  -36.0329   32.2016  -29.1397 H   0  0  0  0  0
  -32.8867   36.2822  -28.5926 H   0  0  0  0  0
  -32.1120   32.0812  -26.0201 H   0  0  0  0  0
  -31.0008   36.0845  -27.0368 H   0  0  0  0  0
  -30.6325   34.0385  -25.7299 H   0  0  0  0  0
  -36.9037   33.3054  -33.0934 H   0  0  0  0  0
  -38.3441   35.8349  -33.9448 H   0  0  0  0  0
  -38.5517   35.0040  -36.0579 H   0  0  0  0  0
  -38.3709   33.2734  -35.4956 H   0  0  0  0  0
  -36.0110   33.6608  -35.1575 H   0  0  0  0  0
  -36.2096   35.3511  -35.7837 H   0  0  0  0  0
  -34.5630   33.8856  -36.9618 H   0  0  0  0  0
  -40.5524   34.4530  -35.1782 H   0  0  0  0  0
  -41.4867   32.6046  -33.0979 H   0  0  0  0  0
  -42.1750   34.7848  -32.2360 H   0  0  0  0  0
  -43.6384   33.8386  -32.7934 H   0  0  0  0  0
  -45.2441   35.2022  -34.4934 H   0  0  0  0  0
  -42.5459   38.3751  -35.4021 H   0  0  0  0  0
  -43.5195   31.5348  -33.4872 H   0  0  0  0  0
  -43.9542   31.2285  -36.4121 H   0  0  0  0  0
  -46.3107   30.9494  -34.3250 H   0  0  0  0  0
  -44.6511   28.8886  -35.9115 H   0  0  0  0  0
  -44.2488   29.1905  -34.1646 H   0  0  0  0  0
  -42.5589   30.1200  -36.8905 H   0  0  0  0  0
  1  2  1  0  0  0
  2  3  1  0  0  0
  2  5  1  0  0  0
  3  4  2  0  0  0
  3 15  1  0  0  0
  5  6  1  0  0  0
  6  7  4  0  0  0
  6  8  4  0  0  0
  7  9  4  0  0  0
  8 10  4  0  0  0
  8 11  4  0  0  0
  9 10  4  0  0  0
 10 12  4  0  0  0
 11 13  4  0  0  0
 12 14  4  0  0  0
 13 14  4  0  0  0
 15 16  1  0  0  0
 16 17  1  0  0  0
 16 19  1  0  0  0
 17 18  2  0  0  0
 17 24  1  0  0  0
 19 20  1  0  0  0
 20 21  1  0  0  0
 21 22  1  0  0  0
 21 23  2  0  0  0
 24 25  1  0  0  0
 25 26  1  0  0  0
 25 28  1  0  0  0
 26 27  2  0  0  0
 26 34  1  0  0  0
 28 29  1  0  0  0
 29 30  4  0  0  0
 29 31  4  0  0  0
 30 32  4  0  0  0
 31 33  4  0  0  0
 32 33  4  0  0  0
 34 35  1  0  0  0
 35 36  1  0  0  0
 35 38  1  0  0  0
 36 37  2  0  0  0
 38 39  1  0  0  0
 39 40  2  0  0  0
 39 41  1  0  0  0
  1 42  1  0  0  0
  1 43  1  0  0  0
  1 44  1  0  0  0
  2 45  1  0  0  0
  5 46  1  0  0  0
  5 47  1  0  0  0
  7 48  1  0  0  0
 11 49  1  0  0  0
 12 50  1  0  0  0
 13 51  1  0  0  0
 14 52  1  0  0  0
 15 53  1  0  0  0
 16 54  1  0  0  0
 19 55  1  0  0  0
 19 56  1  0  0  0
 20 57  1  0  0  0
 20 58  1  0  0  0
 22 59  1  0  0  0
 24 60  1  0  0  0
 25 61  1  0  0  0
 28 62  1  0  0  0
 28 63  1  0  0  0
 31 64  1  0  0  0
 32 65  1  0  0  0
 34 66  1  0  0  0
 35 67  1  0  0  0
 36 68  1  0  0  0
 38 69  1  0  0  0
 38 70  1  0  0  0
 41 71  1  0  0  0
M  END
$$$$
