5ktu_ligand
  -I-interpret- 

 34 36  0  0  0  0  0  0  0  0999 V2000
   50.4150  121.5190    6.8480 C   0  0  0  0  0
   51.1710  120.4910    6.0470 C   0  0  0  0  0
   50.7390  120.6260    4.6440 N   0  0  0  0  0
   50.0120  119.6310    4.1270 C   0  0  0  0  0
   49.7040  118.6570    4.7990 O   0  0  0  0  0
   49.7360  119.6930    2.6120 C   0  0  0  0  0
   51.0380  121.8840    3.9760 C   0  0  0  0  0
   50.6610  122.9480    4.8520 C   0  0  0  0  0
   50.3720  122.7510    6.1820 C   0  0  0  0  0
   50.1000  123.9630    6.7130 N   0  0  0  0  0
   50.1080  124.8280    5.7600 N   0  0  0  0  0
   50.4580  124.2460    4.6150 C   0  0  0  0  0
   50.7670  124.8820    3.4680 N   0  0  0  0  0
   50.1340  125.9410    2.9530 C   0  0  0  0  0
   50.7180  126.5460    1.8440 C   0  0  0  0  0
   50.1260  127.6300    1.2280 C   0  0  0  0  0
   48.9000  128.0460    1.6980 C   0  0  0  0  0
   48.3190  127.4950    2.8270 C   0  0  0  0  0
   48.9240  126.4100    3.4530 C   0  0  0  0  0
   50.9227  121.6577    7.8025 H   0  0  0  0  0
   49.3938  121.1656    6.9911 H   0  0  0  0  0
   50.9627  119.4873    6.4174 H   0  0  0  0  0
   52.2456  120.6512    6.1344 H   0  0  0  0  0
   50.2590  118.8759    2.1150 H   0  0  0  0  0
   48.6644  119.6011    2.4352 H   0  0  0  0  0
   50.0901  120.6457    2.2182 H   0  0  0  0  0
   50.4861  121.9537    3.0387 H   0  0  0  0  0
   52.1015  121.9447    3.7448 H   0  0  0  0  0
   51.5617  124.5200    2.9410 H   0  0  0  0  0
   51.6591  126.1571    1.4552 H   0  0  0  0  0
   50.6128  128.1401    0.3968 H   0  0  0  0  0
   48.3702  128.8346    1.1636 H   0  0  0  0  0
   47.3920  127.9092    3.2236 H   0  0  0  0  0
   48.4591  125.9370    4.3180 H   0  0  0  0  0
  1  2  1  0  0  0
  1  9  1  0  0  0
  2  3  1  0  0  0
  3  4  1  0  0  0
  3  7  1  0  0  0
  4  5  2  0  0  0
  4  6  1  0  0  0
  7  8  1  0  0  0
  8  9  4  0  0  0
  8 12  4  0  0  0
  9 10  4  0  0  0
 10 11  4  0  0  0
 11 12  4  0  0  0
 12 13  1  0  0  0
 13 14  1  0  0  0
 14 15  4  0  0  0
 14 19  4  0  0  0
 15 16  4  0  0  0
 16 17  4  0  0  0
 17 18  4  0  0  0
 18 19  4  0  0  0
  1 20  1  0  0  0
  1 21  1  0  0  0
  2 22  1  0  0  0
  2 23  1  0  0  0
  6 24  1  0  0  0
  6 25  1  0  0  0
  6 26  1  0  0  0
  7 27  1  0  0  0
  7 28  1  0  0  0
 13 29  1  0  0  0
 15 30  1  0  0  0
 16 31  1  0  0  0
 17 32  1  0  0  0
 18 33  1  0  0  0
 19 34  1  0  0  0
M  END
$$$$
