5twx_ligand
  -I-interpret- 

107113  0  0  0  0  0  0  0  0999 V2000
  -56.7440   -4.7800   -7.9210 C   0  0  0  0  0
  -56.4430   -4.9740   -6.4960 C   0  0  0  0  0
  -58.7160   -3.9940   -6.9410 C   0  0  0  0  0
  -60.0640   -3.4120   -6.6930 C   0  0  0  0  0
  -61.6750   -1.7460   -7.6130 C   0  0  0  0  0
  -61.4010   -0.2480   -7.7320 C   0  0  0  0  0
  -57.7450   -4.4640   -5.5600 S   0  0  0  0  0
  -62.2170    0.1440  -10.5720 O   0  0  0  0  0
  -64.3890    0.7500   -9.9150 O   0  0  0  0  0
  -60.8540   -3.8630   -5.8230 N   0  0  0  0  0
  -62.6160    0.5910   -8.1110 C   0  0  0  0  0
  -63.5830   -1.5780   -9.3000 C   0  0  0  0  0
  -53.4210   -7.3770    2.1430 N   0  0  0  0  0
  -60.3790   -2.3700   -7.4560 N   0  0  0  0  0
  -55.6780   -5.1890   -8.8680 C   0  0  0  0  0
  -55.8590   -5.0560  -10.0970 O   0  0  0  0  0
  -58.0540   -4.2140   -8.1560 C   0  0  0  0  0
  -55.1330   -5.5460   -6.0800 C   0  0  0  0  0
  -54.7800   -5.7730   -4.6540 C   0  0  0  0  0
  -54.9960   -4.7720   -3.7200 C   0  0  0  0  0
  -54.6720   -4.9860   -2.3920 C   0  0  0  0  0
  -54.1680   -2.7770   -1.6920 C   0  0  0  0  0
  -54.0730   -6.2780   -1.9810 C   0  0  0  0  0
  -54.7760   -6.5610    0.3120 C   0  0  0  0  0
  -54.1960   -6.3940    1.6960 C   0  0  0  0  0
  -52.8760   -7.3360    3.4870 C   0  0  0  0  0
  -51.3950   -7.6930    3.5300 C   0  0  0  0  0
  -50.6300   -6.7530    4.4520 C   0  0  0  0  0
  -50.7290   -5.3220    3.9420 C   0  0  0  0  0
  -49.6550   -4.4420    4.5670 C   0  0  0  0  0
  -48.2830   -5.0680    4.3580 C   0  0  0  0  0
  -46.4710   -5.7590    5.8040 C   0  0  0  0  0
  -46.3150   -6.9760    5.1430 C   0  0  0  0  0
  -45.2180   -7.8120    5.3930 C   0  0  0  0  0
  -44.2140   -7.4970    6.3150 C   0  0  0  0  0
  -44.3130   -6.3010    7.0110 C   0  0  0  0  0
  -43.5000   -5.6030    8.0440 C   0  0  0  0  0
  -43.4660   -3.4530    9.4370 C   0  0  0  0  0
  -41.9970   -3.2470    9.1870 C   0  0  0  0  0
  -41.5330   -3.0710   11.5020 C   0  0  0  0  0
  -43.0070   -3.0160   11.8160 C   0  0  0  0  0
  -43.7110   -3.9550   10.8520 C   0  0  0  0  0
  -45.4360   -5.3840    6.7900 C   0  0  0  0  0
  -45.1310   -4.2690    7.7240 C   0  0  0  0  0
  -53.8680   -7.2520   -2.9500 C   0  0  0  0  0
  -54.2160   -6.9900   -4.2740 C   0  0  0  0  0
  -54.2170   -5.8880   -7.0720 C   0  0  0  0  0
  -53.4420   -6.1170   -9.3580 C   0  0  0  0  0
  -62.3130   -2.3070   -8.8810 C   0  0  0  0  0
  -44.0050   -4.4160    8.4400 N   0  0  0  0  0
  -41.1690   -3.0530   10.2180 N   0  0  0  0  0
  -54.4650   -5.7270   -8.3850 N   0  0  0  0  0
  -54.4450   -5.3980    2.3550 O   0  0  0  0  0
  -54.8900   -3.9860   -1.4910 O   0  0  0  0  0
  -53.7420   -6.4980   -0.6690 O   0  0  0  0  0
  -47.5430   -4.9420    5.5670 O   0  0  0  0  0
  -40.7200   -3.1320   12.4100 O   0  0  0  0  0
  -41.5910   -3.2560    8.0360 O   0  0  0  0  0
  -42.4080   -6.0970    8.5090 O   0  0  0  0  0
  -45.8910   -3.2400    7.8390 O   0  0  0  0  0
  -63.2120    0.0180   -9.5450 S   0  0  0  0  0
  -62.3563   -1.9346   -6.7833 H   0  0  0  0  0
  -60.6662   -0.1211   -8.5270 H   0  0  0  0  0
  -61.0715    0.0941   -6.7509 H   0  0  0  0  0
  -61.7662   -3.4271   -5.6875 H   0  0  0  0  0
  -62.3312    1.6380   -8.2148 H   0  0  0  0  0
  -63.3771    0.5212   -7.3339 H   0  0  0  0  0
  -64.3403   -1.6700   -8.5215 H   0  0  0  0  0
  -63.9786   -2.0144  -10.2172 H   0  0  0  0  0
  -53.2073   -8.1678    1.5353 H   0  0  0  0  0
  -59.6157   -1.9614   -7.9953 H   0  0  0  0  0
  -58.4677   -3.9902   -9.1393 H   0  0  0  0  0
  -55.4205   -3.8175   -4.0312 H   0  0  0  0  0
  -53.0984   -2.9834   -1.6535 H   0  0  0  0  0
  -54.4240   -2.3601   -2.6660 H   0  0  0  0  0
  -54.4302   -2.0644   -0.9100 H   0  0  0  0  0
  -55.4915   -5.7598    0.1269 H   0  0  0  0  0
  -55.2692   -7.5309    0.2475 H   0  0  0  0  0
  -53.4149   -8.0669    4.0899 H   0  0  0  0  0
  -52.9869   -6.3190    3.8630 H   0  0  0  0  0
  -50.9857   -7.6036    2.5237 H   0  0  0  0  0
  -51.2927   -8.7106    3.9071 H   0  0  0  0  0
  -49.5820   -7.0516    4.4767 H   0  0  0  0  0
  -51.0595   -6.8061    5.4524 H   0  0  0  0  0
  -51.7070   -4.9228    4.2106 H   0  0  0  0  0
  -50.5907   -5.3266    2.8608 H   0  0  0  0  0
  -49.8467   -4.3463    5.6357 H   0  0  0  0  0
  -49.6768   -3.4596    4.0953 H   0  0  0  0  0
  -47.7612   -4.5606    3.5466 H   0  0  0  0  0
  -48.3894   -6.1201    4.0937 H   0  0  0  0  0
  -47.0641   -7.2852    4.4141 H   0  0  0  0  0
  -45.1438   -8.7506    4.8438 H   0  0  0  0  0
  -43.3759   -8.1736    6.4821 H   0  0  0  0  0
  -43.9807   -2.4981    9.3307 H   0  0  0  0  0
  -43.3842   -1.9995   11.7038 H   0  0  0  0  0
  -43.1899   -3.3188   12.8470 H   0  0  0  0  0
  -43.3225   -4.9673   10.9634 H   0  0  0  0  0
  -44.7802   -3.9763   11.0626 H   0  0  0  0  0
  -53.4376   -8.2154   -2.6766 H   0  0  0  0  0
  -54.0430   -7.7552   -5.0307 H   0  0  0  0  0
  -53.2558   -6.3049   -6.7713 H   0  0  0  0  0
  -53.8453   -6.8833  -10.0199 H   0  0  0  0  0
  -53.1493   -5.2460   -9.9443 H   0  0  0  0  0
  -52.5728   -6.5109   -8.8313 H   0  0  0  0  0
  -62.5831   -3.3436   -8.6793 H   0  0  0  0  0
  -61.5896   -2.1928   -9.6884 H   0  0  0  0  0
  -40.1862   -2.8783   10.0081 H   0  0  0  0  0
  2  1  4  0  0  0
  1 15  1  0  0  0
  1 17  4  0  0  0
  2  7  4  0  0  0
 18  2  1  0  0  0
  3  4  1  0  0  0
  7  3  4  0  0  0
  3 17  4  0  0  0
  4 10  2  0  0  0
  4 14  1  0  0  0
  5  6  1  0  0  0
 14  5  1  0  0  0
  5 49  1  0  0  0
  6 11  1  0  0  0
 61  8  2  0  0  0
 61  9  2  0  0  0
 11 61  1  0  0  0
 49 12  1  0  0  0
 12 61  1  0  0  0
 13 25  1  0  0  0
 26 13  1  0  0  0
 15 16  2  0  0  0
 15 52  1  0  0  0
 19 18  1  0  0  0
 18 47  2  0  0  0
 20 19  4  0  0  0
 19 46  4  0  0  0
 21 20  4  0  0  0
 23 21  4  0  0  0
 21 54  1  0  0  0
 54 22  1  0  0  0
 23 45  4  0  0  0
 55 23  1  0  0  0
 25 24  1  0  0  0
 24 55  1  0  0  0
 25 53  2  0  0  0
 27 26  1  0  0  0
 28 27  1  0  0  0
 29 28  1  0  0  0
 30 29  1  0  0  0
 31 30  1  0  0  0
 56 31  1  0  0  0
 32 33  4  0  0  0
 43 32  4  0  0  0
 32 56  1  0  0  0
 34 33  4  0  0  0
 35 34  4  0  0  0
 36 35  4  0  0  0
 37 36  1  0  0  0
 36 43  4  0  0  0
 50 37  1  0  0  0
 37 59  2  0  0  0
 39 38  1  0  0  0
 38 42  1  0  0  0
 38 50  1  0  0  0
 51 39  1  0  0  0
 39 58  2  0  0  0
 40 41  1  0  0  0
 40 51  1  0  0  0
 40 57  2  0  0  0
 41 42  1  0  0  0
 43 44  1  0  0  0
 44 50  1  0  0  0
 44 60  2  0  0  0
 45 46  4  0  0  0
 47 52  1  0  0  0
 52 48  1  0  0  0
  5 62  1  0  0  0
  6 63  1  0  0  0
  6 64  1  0  0  0
 10 65  1  0  0  0
 11 66  1  0  0  0
 11 67  1  0  0  0
 12 68  1  0  0  0
 12 69  1  0  0  0
 13 70  1  0  0  0
 14 71  1  0  0  0
 17 72  1  0  0  0
 20 73  1  0  0  0
 22 74  1  0  0  0
 22 75  1  0  0  0
 22 76  1  0  0  0
 24 77  1  0  0  0
 24 78  1  0  0  0
 26 79  1  0  0  0
 26 80  1  0  0  0
 27 81  1  0  0  0
 27 82  1  0  0  0
 28 83  1  0  0  0
 28 84  1  0  0  0
 29 85  1  0  0  0
 29 86  1  0  0  0
 30 87  1  0  0  0
 30 88  1  0  0  0
 31 89  1  0  0  0
 31 90  1  0  0  0
 33 91  1  0  0  0
 34 92  1  0  0  0
 35 93  1  0  0  0
 38 94  1  0  0  0
 41 95  1  0  0  0
 41 96  1  0  0  0
 42 97  1  0  0  0
 42 98  1  0  0  0
 45 99  1  0  0  0
 46100  1  0  0  0
 47101  1  0  0  0
 48102  1  0  0  0
 48103  1  0  0  0
 48104  1  0  0  0
 49105  1  0  0  0
 49106  1  0  0  0
 51107  1  0  0  0
M  END
$$$$
