### 
### Created by X-TOOL on Mon Aug  2 16:10:44 2021
### 

@<TRIPOS>MOLECULE
6fvl_ligand
  101   102     1     0     0
SMALL
GAST_HUCK


@<TRIPOS>ATOM
      1 C          28.7380   59.3230  -18.8360 C.2       1 ACE         0.1751
      2 O          28.0120   59.6550  -19.7360 O.2       1 ACE        -0.3972
      3 CH3        29.5510   58.0760  -18.9430 C.3       1 ACE         0.0258
      4 N          28.8650   59.9750  -17.6830 N.am      1 ACE        -0.2657
      5 CA         28.1610   61.2160  -17.4140 C.3       1 ACE         0.1329
      6 C          28.6970   62.3510  -18.2820 C.2       1 ACE         0.2040
      7 O          29.8070   62.8240  -18.0710 O.2       1 ACE        -0.3944
      8 CB         28.2690   61.6170  -15.9360 C.3       1 ACE         0.0045
      9 CG         27.5280   62.9170  -15.6520 C.3       1 ACE         0.0412
     10 CD         26.0550   62.8660  -16.0470 C.2       1 ACE         0.1737
     11 OE1        25.3220   62.0030  -15.5950 O.2       1 ACE        -0.3973
     12 NE2        25.6280   63.7820  -16.9090 N.am      1 ACE        -0.3009
     13 N          27.8960   62.8060  -19.2360 N.am      1 ACE        -0.2637
     14 CA         28.3110   63.9040  -20.1310 C.3       1 ACE         0.1312
     15 C          28.3220   65.2180  -19.2710 C.2       1 ACE         0.2040
     16 O          27.7340   65.3070  -18.2080 O.2       1 ACE        -0.3944
     17 CB         27.3180   64.1530  -21.2650 C.3       1 ACE        -0.0096
     18 CG         27.4760   63.2550  -22.4920 C.3       1 ACE        -0.0368
     19 CD2        28.8430   62.5880  -22.5790 C.3       1 ACE        -0.0500
     20 CE2        28.9920   61.7650  -23.8560 C.3       1 ACE        -0.0528
     21 CZ         27.8930   60.7230  -23.9760 C.3       1 ACE        -0.0530
     22 CE1        26.5190   61.3610  -23.8620 C.3       1 ACE        -0.0528
     23 CD1        26.3970   62.1850  -22.5830 C.3       1 ACE        -0.0500
     24 N          29.0200   66.2280  -19.7850 N.am      1 ACE        -0.2622
     25 CA         29.1350   67.5330  -19.1420 C.3       1 ACE         0.1423
     26 C          28.3640   68.6250  -19.8790 C.2       1 ACE         0.2056
     27 O          28.2770   68.6130  -21.1120 O.2       1 ACE        -0.3943
     28 CB         30.6000   67.9600  -19.0360 C.3       1 ACE         0.0406
     29 CG         31.4190   67.0500  -18.1460 C.2       1 ACE         0.0393
     30 OD1        30.8990   66.5900  -17.1080 O.co2     1 ACE        -0.5688
     31 OD2        32.5920   66.7990  -18.4910 O.co2     1 ACE        -0.5688
     32 N          27.8050   69.5650  -19.1050 N.am      1 ACE        -0.2636
     33 CA         27.1030   70.7100  -19.6790 C.3       1 ACE         0.1312
     34 C          28.0610   71.7300  -20.2650 C.2       1 ACE         0.2035
     35 O          27.7260   72.3990  -21.2470 O.2       1 ACE        -0.3944
     36 CB         26.2700   71.4150  -18.6140 C.3       1 ACE        -0.0101
     37 CG         24.9330   70.8580  -18.1710 C.3       1 ACE        -0.0425
     38 CD1        24.5210   71.5360  -16.8730 C.3       1 ACE        -0.0625
     39 CD2        23.9290   71.1080  -19.2900 C.3       1 ACE        -0.0625
     40 N          29.2370   71.8720  -19.6730 N.am      1 ACE        -0.2677
     41 CA         30.2060   72.8530  -20.1180 C.3       1 ACE         0.1039
     42 C          31.5820   72.4250  -19.6370 C.2       1 ACE         0.0621
     43 O          32.6030   72.8990  -20.1320 O.co2     1 ACE        -0.5664
     44 CB         29.8410   74.2550  -19.5930 C.3       1 ACE         0.0159
     45 CG         29.5090   74.3000  -18.1140 C.ar      1 ACE        -0.0392
     46 CD1        30.5150   74.3290  -17.1560 C.ar      1 ACE        -0.0602
     47 CD2        28.1840   74.2960  -17.6860 C.ar      1 ACE        -0.0602
     48 CE1        30.2070   74.3660  -15.7990 C.ar      1 ACE        -0.0686
     49 CE2        27.8690   74.3350  -16.3310 C.ar      1 ACE        -0.0686
     50 CZ         28.8820   74.3680  -15.3870 C.ar      1 ACE        -0.0687
     51 OXT        31.6870   71.5690  -18.7580 O.co2     1 ACE        -0.5664
     52 H1         30.1450   57.9458  -18.0264 H         1 ACE         0.0467
     53 H2         30.2250   58.1508  -19.8091 H         1 ACE         0.0467
     54 H3         28.8823   57.2122  -19.0723 H         1 ACE         0.0467
     55 H4         29.4655   59.5976  -16.9781 H         1 ACE         0.1883
     56 H5         27.0987   61.0639  -17.6556 H         1 ACE         0.0801
     57 H6         29.3304   61.7475  -15.6782 H         1 ACE         0.0337
     58 H7         27.8368   60.8172  -15.3166 H         1 ACE         0.0337
     59 H8         28.0136   63.7270  -16.2160 H         1 ACE         0.0504
     60 H9         27.5942   63.1294  -14.5747 H         1 ACE         0.0504
     61 H10        24.6707   63.7889  -17.1979 H         1 ACE         0.1814
     62 H11        26.2639   64.4647  -17.2690 H         1 ACE         0.1814
     63 H12        26.9911   62.3963  -19.3516 H         1 ACE         0.1883
     64 H13        29.3079   63.6909  -20.5443 H         1 ACE         0.0800
     65 H14        27.4336   65.1967  -21.5927 H         1 ACE         0.0315
     66 H15        26.3040   64.0042  -20.8654 H         1 ACE         0.0315
     67 H16        27.3713   63.9051  -23.3731 H         1 ACE         0.0303
     68 H17        28.9714   61.9247  -21.7110 H         1 ACE         0.0268
     69 H18        29.6204   63.3661  -22.5642 H         1 ACE         0.0268
     70 H19        29.9672   61.2564  -23.8421 H         1 ACE         0.0265
     71 H20        28.9422   62.4390  -24.7239 H         1 ACE         0.0265
     72 H21        28.0122   59.9811  -23.1727 H         1 ACE         0.0265
     73 H22        27.9770   60.2232  -24.9523 H         1 ACE         0.0265
     74 H23        25.7555   60.5692  -23.8528 H         1 ACE         0.0265
     75 H24        26.3555   62.0180  -24.7289 H         1 ACE         0.0265
     76 H25        25.4109   62.6721  -22.5665 H         1 ACE         0.0268
     77 H26        26.4886   61.5130  -21.7170 H         1 ACE         0.0268
     78 H27        29.4896   66.0853  -20.6563 H         1 ACE         0.1884
     79 H28        28.7207   67.4448  -18.1268 H         1 ACE         0.0819
     80 H29        30.6390   68.9796  -18.6252 H         1 ACE         0.0478
     81 H30        31.0407   67.9536  -20.0438 H         1 ACE         0.0478
     82 H31        27.8700   69.4806  -18.1107 H         1 ACE         0.1883
     83 H32        26.4385   70.3453  -20.4762 H         1 ACE         0.0800
     84 H33        26.0760   72.4301  -18.9906 H         1 ACE         0.0315
     85 H34        26.8985   71.4720  -17.7130 H         1 ACE         0.0315
     86 H35        25.0190   69.7752  -17.9975 H         1 ACE         0.0298
     87 H36        23.5502   71.1375  -16.5433 H         1 ACE         0.0232
     88 H37        24.4356   72.6204  -17.0367 H         1 ACE         0.0232
     89 H38        25.2791   71.3404  -16.1004 H         1 ACE         0.0232
     90 H39        24.2668   70.6007  -20.2057 H         1 ACE         0.0232
     91 H40        23.8504   72.1891  -19.4774 H         1 ACE         0.0232
     92 H41        22.9452   70.7146  -18.9946 H         1 ACE         0.0232
     93 H42        29.4630   71.2848  -18.8958 H         1 ACE         0.1877
     94 H43        30.2067   72.8824  -21.2176 H         1 ACE         0.0749
     95 H44        28.9662   74.6160  -20.1536 H         1 ACE         0.0467
     96 H45        30.6948   74.9242  -19.7750 H         1 ACE         0.0467
     97 H46        31.5527   74.3227  -17.4693 H         1 ACE         0.0557
     98 H47        27.3861   74.2620  -18.4190 H         1 ACE         0.0557
     99 H48        31.0029   74.3933  -15.0635 H         1 ACE         0.0599
    100 H49        26.8322   74.3395  -16.0148 H         1 ACE         0.0599
    101 H50        28.6407   74.3953  -14.3306 H         1 ACE         0.0559
@<TRIPOS>BOND
     1    1    2 2  
     2    1    3 1  
     3    1    4 am 
     4    4    5 1  
     5    5    6 1  
     6    5    8 1  
     7    6    7 2  
     8    6   13 am 
     9    8    9 1  
    10    9   10 1  
    11   10   11 2  
    12   10   12 am 
    13   13   14 1  
    14   14   15 1  
    15   14   17 1  
    16   15   16 2  
    17   15   24 am 
    18   17   18 1  
    19   18   19 1  
    20   18   23 1  
    21   19   20 1  
    22   20   21 1  
    23   21   22 1  
    24   22   23 1  
    25   24   25 1  
    26   25   26 1  
    27   25   28 1  
    28   26   27 2  
    29   26   32 am 
    30   28   29 1  
    31   29   30 ar 
    32   29   31 ar 
    33   32   33 1  
    34   33   34 1  
    35   33   36 1  
    36   34   35 2  
    37   34   40 am 
    38   36   37 1  
    39   37   38 1  
    40   37   39 1  
    41   40   41 1  
    42   41   42 1  
    43   41   44 1  
    44   42   43 ar 
    45   42   51 ar 
    46   44   45 1  
    47   45   46 ar 
    48   45   47 ar 
    49   46   48 ar 
    50   47   49 ar 
    51   48   50 ar 
    52   49   50 ar 
    53    3   52 1  
    54    3   53 1  
    55    3   54 1  
    56    4   55 1  
    57    5   56 1  
    58    8   57 1  
    59    8   58 1  
    60    9   59 1  
    61    9   60 1  
    62   12   61 1  
    63   12   62 1  
    64   13   63 1  
    65   14   64 1  
    66   17   65 1  
    67   17   66 1  
    68   18   67 1  
    69   19   68 1  
    70   19   69 1  
    71   20   70 1  
    72   20   71 1  
    73   21   72 1  
    74   21   73 1  
    75   22   74 1  
    76   22   75 1  
    77   23   76 1  
    78   23   77 1  
    79   24   78 1  
    80   25   79 1  
    81   28   80 1  
    82   28   81 1  
    83   32   82 1  
    84   33   83 1  
    85   36   84 1  
    86   36   85 1  
    87   37   86 1  
    88   38   87 1  
    89   38   88 1  
    90   38   89 1  
    91   39   90 1  
    92   39   91 1  
    93   39   92 1  
    94   40   93 1  
    95   41   94 1  
    96   44   95 1  
    97   44   96 1  
    98   46   97 1  
    99   47   98 1  
   100   48   99 1  
   101   49  100 1  
   102   50  101 1  
@<TRIPOS>SUBSTRUCTURE
     1 ACE         1

