6fvl_ligand
  -I-interpret- 

103104  0  0  0  0  0  0  0  0999 V2000
   28.7380   59.3230  -18.8360 C   0  0  0  0  0
   28.0120   59.6550  -19.7360 O   0  0  0  0  0
   29.5510   58.0760  -18.9430 C   0  0  0  0  0
   28.8650   59.9750  -17.6830 N   0  0  0  0  0
   28.1610   61.2160  -17.4140 C   0  0  0  0  0
   28.6970   62.3510  -18.2820 C   0  0  0  0  0
   29.8070   62.8240  -18.0710 O   0  0  0  0  0
   28.2690   61.6170  -15.9360 C   0  0  0  0  0
   27.5280   62.9170  -15.6520 C   0  0  0  0  0
   26.0550   62.8660  -16.0470 C   0  0  0  0  0
   25.3220   62.0030  -15.5950 O   0  0  0  0  0
   25.6280   63.7820  -16.9090 N   0  0  0  0  0
   27.8960   62.8060  -19.2360 N   0  0  0  0  0
   28.3110   63.9040  -20.1310 C   0  0  0  0  0
   28.3220   65.2180  -19.2710 C   0  0  0  0  0
   27.7340   65.3070  -18.2080 O   0  0  0  0  0
   27.3180   64.1530  -21.2650 C   0  0  0  0  0
   27.4760   63.2550  -22.4920 C   0  0  0  0  0
   28.8430   62.5880  -22.5790 C   0  0  0  0  0
   28.9920   61.7650  -23.8560 C   0  0  0  0  0
   27.8930   60.7230  -23.9760 C   0  0  0  0  0
   26.5190   61.3610  -23.8620 C   0  0  0  0  0
   26.3970   62.1850  -22.5830 C   0  0  0  0  0
   29.0200   66.2280  -19.7850 N   0  0  0  0  0
   29.1350   67.5330  -19.1420 C   0  0  0  0  0
   28.3640   68.6250  -19.8790 C   0  0  0  0  0
   28.2770   68.6130  -21.1120 O   0  0  0  0  0
   30.6000   67.9600  -19.0360 C   0  0  0  0  0
   31.4190   67.0500  -18.1460 C   0  0  0  0  0
   30.8990   66.5900  -17.1080 O   0  0  0  0  0
   32.5920   66.7990  -18.4910 O   0  0  0  0  0
   27.8050   69.5650  -19.1050 N   0  0  0  0  0
   27.1030   70.7100  -19.6790 C   0  0  0  0  0
   28.0610   71.7300  -20.2650 C   0  0  0  0  0
   27.7260   72.3990  -21.2470 O   0  0  0  0  0
   26.2700   71.4150  -18.6140 C   0  0  0  0  0
   24.9330   70.8580  -18.1710 C   0  0  0  0  0
   24.5210   71.5360  -16.8730 C   0  0  0  0  0
   23.9290   71.1080  -19.2900 C   0  0  0  0  0
   29.2370   71.8720  -19.6730 N   0  0  0  0  0
   30.2060   72.8530  -20.1180 C   0  0  0  0  0
   31.5820   72.4250  -19.6370 C   0  0  0  0  0
   32.6030   72.8990  -20.1320 O   0  0  0  0  0
   29.8410   74.2550  -19.5930 C   0  0  0  0  0
   29.5090   74.3000  -18.1140 C   0  0  0  0  0
   30.5150   74.3290  -17.1560 C   0  0  0  0  0
   28.1840   74.2960  -17.6860 C   0  0  0  0  0
   30.2070   74.3660  -15.7990 C   0  0  0  0  0
   27.8690   74.3350  -16.3310 C   0  0  0  0  0
   28.8820   74.3680  -15.3870 C   0  0  0  0  0
   31.6870   71.5690  -18.7580 O   0  0  0  0  0
   28.8873   57.2209  -19.0711 H   0  0  0  0  0
   30.2183   58.1514  -19.8016 H   0  0  0  0  0
   30.1391   57.9481  -18.0342 H   0  0  0  0  0
   29.4775   59.5900  -16.9640 H   0  0  0  0  0
   27.1124   61.0422  -17.6554 H   0  0  0  0  0
   29.3221   61.7611  -15.6944 H   0  0  0  0  0
   27.8229   60.8273  -15.3315 H   0  0  0  0  0
   28.0013   63.7030  -16.2404 H   0  0  0  0  0
   27.5766   63.0978  -14.5782 H   0  0  0  0  0
   24.6552   63.7795  -17.2156 H   0  0  0  0  0
   26.2729   64.4879  -17.2643 H   0  0  0  0  0
   26.9730   62.3881  -19.3539 H   0  0  0  0  0
   29.2763   63.6368  -20.5610 H   0  0  0  0  0
   27.4876   65.1744  -21.6056 H   0  0  0  0  0
   26.3273   63.9495  -20.8586 H   0  0  0  0  0
   27.3712   63.9362  -23.3364 H   0  0  0  0  0
   28.9527   61.9190  -21.7255 H   0  0  0  0  0
   29.6049   63.3675  -22.5829 H   0  0  0  0  0
   29.9533   61.2521  -23.8268 H   0  0  0  0  0
   28.9256   62.4379  -24.7109 H   0  0  0  0  0
   28.0093   59.9992  -23.1694 H   0  0  0  0  0
   27.9740   60.2415  -24.9505 H   0  0  0  0  0
   25.7692   60.5702  -23.8391 H   0  0  0  0  0
   26.3701   62.0211  -24.7165 H   0  0  0  0  0
   25.4253   62.6789  -22.5860 H   0  0  0  0  0
   26.5090   61.5134  -21.7318 H   0  0  0  0  0
   29.4990   66.0825  -20.6737 H   0  0  0  0  0
   28.7004   67.4164  -18.1492 H   0  0  0  0  0
   30.6238   68.9590  -18.6007 H   0  0  0  0  0
   31.0304   67.9206  -20.0367 H   0  0  0  0  0
   29.9961   66.9080  -17.0358 H   0  0  0  0  0
   27.8713   69.4790  -18.0908 H   0  0  0  0  0
   26.4670   70.3158  -20.4716 H   0  0  0  0  0
   26.0188   72.3737  -19.0678 H   0  0  0  0  0
   26.8879   71.3611  -17.7177 H   0  0  0  0  0
   24.9844   69.7860  -17.9807 H   0  0  0  0  0
   25.2730   71.3414  -16.1083 H   0  0  0  0  0
   24.4368   72.6104  -17.0366 H   0  0  0  0  0
   23.5590   71.1403  -16.5473 H   0  0  0  0  0
   23.8505   72.1796  -19.4732 H   0  0  0  0  0
   24.2659   70.6067  -20.1974 H   0  0  0  0  0
   22.9551   70.7159  -18.9969 H   0  0  0  0  0
   29.4675   71.2730  -18.8802 H   0  0  0  0  0
   30.2059   72.9082  -21.2066 H   0  0  0  0  0
   28.9501   74.5776  -20.1319 H   0  0  0  0  0
   30.7123   74.8918  -19.7458 H   0  0  0  0  0
   31.5585   74.3227  -17.4710 H   0  0  0  0  0
   27.3817   74.2618  -18.4231 H   0  0  0  0  0
   31.0073   74.3934  -15.0595 H   0  0  0  0  0
   26.8264   74.3396  -16.0130 H   0  0  0  0  0
   28.6393   74.3954  -14.3247 H   0  0  0  0  0
   30.8120   71.2970  -18.4717 H   0  0  0  0  0
  1  2  2  0  0  0
  1  3  1  0  0  0
  1  4  1  0  0  0
  4  5  1  0  0  0
  5  6  1  0  0  0
  5  8  1  0  0  0
  6  7  2  0  0  0
  6 13  1  0  0  0
  8  9  1  0  0  0
  9 10  1  0  0  0
 10 11  2  0  0  0
 10 12  1  0  0  0
 13 14  1  0  0  0
 14 15  1  0  0  0
 14 17  1  0  0  0
 15 16  2  0  0  0
 15 24  1  0  0  0
 17 18  1  0  0  0
 18 19  1  0  0  0
 18 23  1  0  0  0
 19 20  1  0  0  0
 20 21  1  0  0  0
 21 22  1  0  0  0
 22 23  1  0  0  0
 24 25  1  0  0  0
 25 26  1  0  0  0
 25 28  1  0  0  0
 26 27  2  0  0  0
 26 32  1  0  0  0
 28 29  1  0  0  0
 29 30  1  0  0  0
 29 31  2  0  0  0
 32 33  1  0  0  0
 33 34  1  0  0  0
 33 36  1  0  0  0
 34 35  2  0  0  0
 34 40  1  0  0  0
 36 37  1  0  0  0
 37 38  1  0  0  0
 37 39  1  0  0  0
 40 41  1  0  0  0
 41 42  1  0  0  0
 41 44  1  0  0  0
 42 43  2  0  0  0
 42 51  1  0  0  0
 44 45  1  0  0  0
 45 46  4  0  0  0
 45 47  4  0  0  0
 46 48  4  0  0  0
 47 49  4  0  0  0
 48 50  4  0  0  0
 49 50  4  0  0  0
  3 52  1  0  0  0
  3 53  1  0  0  0
  3 54  1  0  0  0
  4 55  1  0  0  0
  5 56  1  0  0  0
  8 57  1  0  0  0
  8 58  1  0  0  0
  9 59  1  0  0  0
  9 60  1  0  0  0
 12 61  1  0  0  0
 12 62  1  0  0  0
 13 63  1  0  0  0
 14 64  1  0  0  0
 17 65  1  0  0  0
 17 66  1  0  0  0
 18 67  1  0  0  0
 19 68  1  0  0  0
 19 69  1  0  0  0
 20 70  1  0  0  0
 20 71  1  0  0  0
 21 72  1  0  0  0
 21 73  1  0  0  0
 22 74  1  0  0  0
 22 75  1  0  0  0
 23 76  1  0  0  0
 23 77  1  0  0  0
 24 78  1  0  0  0
 25 79  1  0  0  0
 28 80  1  0  0  0
 28 81  1  0  0  0
 30 82  1  0  0  0
 32 83  1  0  0  0
 33 84  1  0  0  0
 36 85  1  0  0  0
 36 86  1  0  0  0
 37 87  1  0  0  0
 38 88  1  0  0  0
 38 89  1  0  0  0
 38 90  1  0  0  0
 39 91  1  0  0  0
 39 92  1  0  0  0
 39 93  1  0  0  0
 40 94  1  0  0  0
 41 95  1  0  0  0
 44 96  1  0  0  0
 44 97  1  0  0  0
 46 98  1  0  0  0
 47 99  1  0  0  0
 48100  1  0  0  0
 49101  1  0  0  0
 50102  1  0  0  0
 51103  1  0  0  0
M  END
$$$$
