5d1t_ligand
  -I-interpret- 

 50 51  0  0  0  0  0  0  0  0999 V2000
   11.4710   18.8200   26.5280 C   0  0  0  0  0
   12.2300   19.0300   27.8390 C   0  0  0  0  0
    8.4850   16.5590   21.8970 C   0  0  0  0  0
   13.9000   20.3050   28.9490 O   0  0  0  0  0
    9.9800   18.8540   26.5370 N   0  0  0  0  0
    8.8960   20.7780   27.8540 C   0  0  0  0  0
    7.9220   20.3000   28.7340 C   0  0  0  0  0
    7.7960   20.8600   30.0020 C   0  0  0  0  0
    8.6400   21.8860   30.3850 C   0  0  0  0  0
    9.6130   22.3610   29.5100 C   0  0  0  0  0
    9.7450   21.8070   28.2450 C   0  0  0  0  0
    8.5080   17.0260   25.6620 C   0  0  0  0  0
    7.2210   16.6090   25.9940 C   0  0  0  0  0
    6.3420   16.1770   25.0030 C   0  0  0  0  0
    6.7560   16.1590   23.6750 C   0  0  0  0  0
    8.9190   17.0120   24.3320 C   0  0  0  0  0
    8.0450   16.5760   23.3420 C   0  0  0  0  0
    9.4400   17.5040   26.7540 C   0  0  0  0  0
   12.0050   17.5030   25.9760 C   0  0  0  0  0
   13.1100   20.0350   27.8300 N   0  0  0  0  0
   12.0990   18.3120   28.8360 O   0  0  0  0  0
    9.0790   20.1510   26.3890 S   0  0  0  0  0
    7.7850   19.9280   25.7960 O   0  0  0  0  0
    9.7000   21.1750   25.6010 O   0  0  0  0  0
    8.5220   22.4430   31.6060 F   0  0  0  0  0
    6.7400   20.3570   30.9580 C   0  0  0  0  0
    7.4680   17.3120   21.1170 N   0  3  0  0  0
   11.6613   19.6942   25.9054 H   0  0  0  0  0
    8.5658   15.5347   21.5331 H   0  0  0  0  0
    9.4675   17.0189   21.7902 H   0  0  0  0  0
   14.4692   21.0556   28.7639 H   0  0  0  0  0
    7.2612   19.4890   28.4278 H   0  0  0  0  0
   10.2734   23.1709   29.8199 H   0  0  0  0  0
   10.5098   22.1763   27.5618 H   0  0  0  0  0
    6.8996   16.6207   27.0355 H   0  0  0  0  0
    5.3348   15.8547   25.2670 H   0  0  0  0  0
    6.0740   15.8194   22.8955 H   0  0  0  0  0
    9.9235   17.3420   24.0672 H   0  0  0  0  0
    8.8638   17.5329   27.6788 H   0  0  0  0  0
   10.2872   16.8185   26.7767 H   0  0  0  0  0
   11.6474   16.6797   26.5944 H   0  0  0  0  0
   11.6532   17.3701   24.9529 H   0  0  0  0  0
   13.0948   17.5210   25.9874 H   0  0  0  0  0
   13.2060   20.6126   26.9948 H   0  0  0  0  0
    5.7543   20.4945   30.5136 H   0  0  0  0  0
    6.9060   19.2981   31.1564 H   0  0  0  0  0
    6.8004   20.9167   31.8914 H   0  0  0  0  0
    7.7344   17.3207   20.1324 H   0  0  0  0  0
    6.5592   16.8607   21.2206 H   0  0  0  0  0
    7.4151   18.2695   21.4646 H   0  0  0  0  0
  1  2  1  0  0  0
  5  1  1  0  0  0
  1 19  1  0  0  0
  2 20  1  0  0  0
  2 21  2  0  0  0
 17  3  1  0  0  0
  3 27  1  0  0  0
 20  4  1  0  0  0
 18  5  1  0  0  0
  5 22  1  0  0  0
  6  7  4  0  0  0
  6 11  4  0  0  0
 22  6  1  0  0  0
  7  8  4  0  0  0
  8  9  4  0  0  0
  8 26  1  0  0  0
 10  9  4  0  0  0
  9 25  1  0  0  0
 11 10  4  0  0  0
 13 12  4  0  0  0
 12 16  4  0  0  0
 12 18  1  0  0  0
 14 13  4  0  0  0
 15 14  4  0  0  0
 15 17  4  0  0  0
 16 17  4  0  0  0
 22 23  2  0  0  0
 22 24  2  0  0  0
  1 28  1  0  0  0
  3 29  1  0  0  0
  3 30  1  0  0  0
  4 31  1  0  0  0
  7 32  1  0  0  0
 10 33  1  0  0  0
 11 34  1  0  0  0
 13 35  1  0  0  0
 14 36  1  0  0  0
 15 37  1  0  0  0
 16 38  1  0  0  0
 18 39  1  0  0  0
 18 40  1  0  0  0
 19 41  1  0  0  0
 19 42  1  0  0  0
 19 43  1  0  0  0
 20 44  1  0  0  0
 26 45  1  0  0  0
 26 46  1  0  0  0
 26 47  1  0  0  0
 27 48  1  0  0  0
 27 49  1  0  0  0
 27 50  1  0  0  0
M  END
$$$$
