2zyn_ligand
  -I-interpret- 

147154  0  0  0  0  0  0  0  0999 V2000
  -20.8460    7.2990  -31.3000 C   0  0  0  0  0
  -22.3320    7.4520  -30.9930 C   0  0  0  0  0
  -22.6340    8.7610  -30.5260 O   0  0  0  0  0
  -22.7700    6.4590  -29.9360 C   0  0  0  0  0
  -24.1630    6.5750  -29.6640 O   0  0  0  0  0
  -22.4330    5.0050  -30.3390 C   0  0  0  0  0
  -22.8040    4.1600  -29.2790 O   0  0  0  0  0
  -20.9270    4.8530  -30.6460 C   0  0  0  0  0
  -20.3930    5.9170  -31.5110 O   0  0  0  0  0
  -20.6180    3.5210  -31.3160 C   0  0  0  0  0
  -19.5740    2.9510  -30.5670 O   0  0  0  0  0
  -23.9510    3.3390  -29.5810 C   0  0  0  0  0
  -24.8510    3.1700  -28.3750 C   0  0  0  0  0
  -25.3580    4.4170  -27.8660 O   0  0  0  0  0
  -24.1510    2.3980  -27.2400 C   0  0  0  0  0
  -25.0750    2.1870  -26.1700 O   0  0  0  0  0
  -23.5370    1.0440  -27.6830 C   0  0  0  0  0
  -22.5830    0.7240  -26.6770 O   0  0  0  0  0
  -22.7970    1.1670  -29.0970 C   0  0  0  0  0
  -23.4190    2.1050  -30.0560 O   0  0  0  0  0
  -22.6710   -0.1630  -29.8530 C   0  0  0  0  0
  -23.9600   -0.7380  -29.9930 O   0  0  0  0  0
  -22.3660   -0.7270  -26.4740 C   0  0  0  0  0
  -22.2440   -1.0100  -24.9710 C   0  0  0  0  0
  -23.4290   -0.6950  -24.2720 O   0  0  0  0  0
  -21.0650   -0.2320  -24.4260 C   0  0  0  0  0
  -20.8900   -0.4460  -23.0200 O   0  0  0  0  0
  -19.7340   -0.5670  -25.1770 C   0  0  0  0  0
  -18.7050    0.2700  -24.6790 O   0  0  0  0  0
  -19.9190   -0.3940  -26.7150 C   0  0  0  0  0
  -21.1480   -1.0470  -27.1420 O   0  0  0  0  0
  -18.7870   -0.9960  -27.5470 C   0  0  0  0  0
  -19.0540   -0.8190  -28.9190 O   0  0  0  0  0
  -17.4590   -0.3600  -24.4260 C   0  0  0  0  0
  -17.1020    0.0070  -22.9680 C   0  0  0  0  0
  -18.2460   -0.1160  -22.1040 O   0  0  0  0  0
  -16.4990    1.4630  -22.8270 C   0  0  0  0  0
  -15.7390    1.5650  -21.6340 O   0  0  0  0  0
  -15.5390    1.8560  -23.9720 C   0  0  0  0  0
  -15.2360    3.2480  -23.8950 O   0  0  0  0  0
  -16.1590    1.5530  -25.3550 C   0  0  0  0  0
  -16.5400    0.1670  -25.4570 O   0  0  0  0  0
  -15.2080    1.8930  -26.5120 C   0  0  0  0  0
  -15.9660    2.0310  -27.6870 O   0  0  0  0  0
  -13.9000    3.6020  -23.5390 C   0  0  0  0  0
  -13.9660    4.6380  -22.4280 C   0  0  0  0  0
  -14.6060    4.1320  -21.2690 O   0  0  0  0  0
  -14.6630    5.9110  -22.9190 C   0  0  0  0  0
  -14.7570    6.9230  -21.9590 O   0  0  0  0  0
  -14.0210    6.4630  -24.2380 C   0  0  0  0  0
  -14.8940    7.4340  -24.7500 O   0  0  0  0  0
  -13.8780    5.3450  -25.2910 C   0  0  0  0  0
  -13.2740    4.1560  -24.7100 O   0  0  0  0  0
  -13.0450    5.7430  -26.4890 C   0  0  0  0  0
  -13.2750    4.8420  -27.5500 O   0  0  0  0  0
  -14.3790    8.7850  -24.6410 C   0  0  0  0  0
  -15.5430    9.6930  -24.3310 C   0  0  0  0  0
  -16.1930    9.3500  -23.1040 O   0  0  0  0  0
  -16.5450    9.7040  -25.4820 C   0  0  0  0  0
  -17.6500   10.5330  -25.2730 O   0  0  0  0  0
  -15.8980   10.0180  -26.8790 C   0  0  0  0  0
  -16.8910    9.6070  -27.8200 O   0  0  0  0  0
  -14.6260    9.1420  -27.0800 C   0  0  0  0  0
  -13.7730    9.1320  -25.9050 O   0  0  0  0  0
  -13.7230    9.5370  -28.2590 C   0  0  0  0  0
  -13.3520   10.9250  -28.0870 O   0  0  0  0  0
  -17.0130   10.3500  -29.0770 C   0  0  0  0  0
  -18.4390   10.8920  -29.1160 C   0  0  0  0  0
  -18.6310   11.7890  -28.0510 O   0  0  0  0  0
  -19.4460    9.7160  -29.1000 C   0  0  0  0  0
  -20.7980   10.1550  -29.1400 O   0  0  0  0  0
  -19.1910    8.7540  -30.2690 C   0  0  0  0  0
  -20.1240    7.6950  -30.1320 O   0  0  0  0  0
  -17.7010    8.2790  -30.2100 C   0  0  0  0  0
  -16.7510    9.3970  -30.1370 O   0  0  0  0  0
  -17.3320    7.3250  -31.3880 C   0  0  0  0  0
  -17.2240    8.0680  -32.6250 O   0  0  0  0  0
  -20.6794    7.8818  -32.2059 H   0  0  0  0  0
  -22.8663    7.2661  -31.9247 H   0  0  0  0  0
  -22.3628    9.4049  -31.1843 H   0  0  0  0  0
  -22.2138    6.6994  -29.0300 H   0  0  0  0  0
  -24.3649    7.4798  -29.4146 H   0  0  0  0  0
  -22.9795    4.7381  -31.2435 H   0  0  0  0  0
  -20.4453    4.9157  -29.6702 H   0  0  0  0  0
  -20.3304    3.6579  -32.3584 H   0  0  0  0  0
  -21.4940    2.8726  -31.3340 H   0  0  0  0  0
  -19.3356    2.1022  -30.9468 H   0  0  0  0  0
  -24.5935    3.7959  -30.3337 H   0  0  0  0  0
  -25.7002    2.5882  -28.7334 H   0  0  0  0  0
  -25.9191    4.2466  -27.1059 H   0  0  0  0  0
  -23.3134    3.0151  -26.9149 H   0  0  0  0  0
  -24.6393    1.7060  -25.4626 H   0  0  0  0  0
  -24.3099    0.2840  -27.7975 H   0  0  0  0  0
  -21.8230    1.5427  -28.7836 H   0  0  0  0  0
  -22.0239   -0.8418  -29.2976 H   0  0  0  0  0
  -22.2381    0.0133  -30.8377 H   0  0  0  0  0
  -23.8881   -1.5707  -30.4653 H   0  0  0  0  0
  -23.1897   -1.3241  -26.8652 H   0  0  0  0  0
  -22.0813   -2.0781  -24.8268 H   0  0  0  0  0
  -23.3093   -0.8865  -23.3389 H   0  0  0  0  0
  -21.2977    0.8193  -24.5953 H   0  0  0  0  0
  -20.1358    0.0617  -22.7116 H   0  0  0  0  0
  -19.4580   -1.6067  -25.0008 H   0  0  0  0  0
  -19.9360    0.6828  -26.8833 H   0  0  0  0  0
  -18.7089   -2.0614  -27.3304 H   0  0  0  0  0
  -17.8512   -0.4968  -27.2955 H   0  0  0  0  0
  -18.3391   -1.1994  -29.4346 H   0  0  0  0  0
  -17.4324   -1.4474  -24.4970 H   0  0  0  0  0
  -16.3336   -0.7045  -22.6655 H   0  0  0  0  0
  -17.9950    0.1176  -21.2073 H   0  0  0  0  0
  -17.3646    2.1254  -22.8393 H   0  0  0  0  0
  -15.3790    2.4519  -21.5601 H   0  0  0  0  0
  -14.6293    1.2661  -23.8600 H   0  0  0  0  0
  -17.0410    2.1881  -25.4374 H   0  0  0  0  0
  -14.4728    1.0977  -26.6350 H   0  0  0  0  0
  -14.6802    2.8225  -26.2986 H   0  0  0  0  0
  -15.3830    2.2439  -28.4194 H   0  0  0  0  0
  -13.3281    2.7424  -23.1896 H   0  0  0  0  0
  -12.9410    4.8844  -22.1508 H   0  0  0  0  0
  -14.6276    4.8136  -20.5934 H   0  0  0  0  0
  -15.6849    5.5968  -23.1312 H   0  0  0  0  0
  -15.2030    7.6832  -22.3396 H   0  0  0  0  0
  -13.0325    6.8678  -24.0210 H   0  0  0  0  0
  -14.8951    5.1463  -25.6288 H   0  0  0  0  0
  -11.9894    5.7198  -26.2183 H   0  0  0  0  0
  -13.3226    6.7491  -26.8034 H   0  0  0  0  0
  -12.7441    5.0991  -28.3074 H   0  0  0  0  0
  -13.6314    8.8797  -23.8535 H   0  0  0  0  0
  -15.1350   10.6963  -24.2086 H   0  0  0  0  0
  -16.9238    9.9534  -22.9507 H   0  0  0  0  0
  -16.9078    8.6763  -25.5012 H   0  0  0  0  0
  -18.2316   10.4873  -26.0354 H   0  0  0  0  0
  -15.6088   11.0641  -26.9799 H   0  0  0  0  0
  -15.0579    8.1627  -27.2861 H   0  0  0  0  0
  -14.2517    9.4009  -29.2025 H   0  0  0  0  0
  -12.8333    8.9077  -28.2814 H   0  0  0  0  0
  -12.7860   11.1961  -28.8134 H   0  0  0  0  0
  -16.3209   11.1856  -29.1812 H   0  0  0  0  0
  -18.6105   11.4462  -30.0388 H   0  0  0  0  0
  -19.5286   12.1284  -28.0778 H   0  0  0  0  0
  -19.2875    9.1948  -28.1559 H   0  0  0  0  0
  -21.3813    9.3926  -29.1283 H   0  0  0  0  0
  -19.3307    9.2163  -31.2462 H   0  0  0  0  0
  -17.6151    7.7133  -29.2823 H   0  0  0  0  0
  -18.1136    6.5726  -31.4932 H   0  0  0  0  0
  -16.3740    6.8512  -31.1740 H   0  0  0  0  0
  -16.9968    7.4676  -33.3388 H   0  0  0  0  0
  1  2  1  0  0  0
  1  9  1  0  0  0
  1 73  1  0  0  0
  2  3  1  0  0  0
  2  4  1  0  0  0
  4  5  1  0  0  0
  4  6  1  0  0  0
  6  7  1  0  0  0
  6  8  1  0  0  0
  7 12  1  0  0  0
  8  9  1  0  0  0
  8 10  1  0  0  0
 10 11  1  0  0  0
 12 13  1  0  0  0
 12 20  1  0  0  0
 13 14  1  0  0  0
 13 15  1  0  0  0
 15 16  1  0  0  0
 15 17  1  0  0  0
 17 18  1  0  0  0
 17 19  1  0  0  0
 18 23  1  0  0  0
 19 20  1  0  0  0
 19 21  1  0  0  0
 21 22  1  0  0  0
 23 24  1  0  0  0
 23 31  1  0  0  0
 24 25  1  0  0  0
 24 26  1  0  0  0
 26 27  1  0  0  0
 26 28  1  0  0  0
 28 29  1  0  0  0
 28 30  1  0  0  0
 29 34  1  0  0  0
 30 31  1  0  0  0
 30 32  1  0  0  0
 32 33  1  0  0  0
 34 35  1  0  0  0
 34 42  1  0  0  0
 35 36  1  0  0  0
 35 37  1  0  0  0
 37 38  1  0  0  0
 37 39  1  0  0  0
 39 40  1  0  0  0
 39 41  1  0  0  0
 40 45  1  0  0  0
 41 42  1  0  0  0
 41 43  1  0  0  0
 43 44  1  0  0  0
 45 46  1  0  0  0
 45 53  1  0  0  0
 46 47  1  0  0  0
 46 48  1  0  0  0
 48 49  1  0  0  0
 48 50  1  0  0  0
 50 51  1  0  0  0
 50 52  1  0  0  0
 51 56  1  0  0  0
 52 53  1  0  0  0
 52 54  1  0  0  0
 54 55  1  0  0  0
 56 57  1  0  0  0
 56 64  1  0  0  0
 57 58  1  0  0  0
 57 59  1  0  0  0
 59 60  1  0  0  0
 59 61  1  0  0  0
 61 62  1  0  0  0
 61 63  1  0  0  0
 62 67  1  0  0  0
 63 64  1  0  0  0
 63 65  1  0  0  0
 65 66  1  0  0  0
 67 68  1  0  0  0
 67 75  1  0  0  0
 68 69  1  0  0  0
 68 70  1  0  0  0
 70 71  1  0  0  0
 70 72  1  0  0  0
 72 73  1  0  0  0
 72 74  1  0  0  0
 74 75  1  0  0  0
 74 76  1  0  0  0
 76 77  1  0  0  0
  1 78  1  0  0  0
  2 79  1  0  0  0
  3 80  1  0  0  0
  4 81  1  0  0  0
  5 82  1  0  0  0
  6 83  1  0  0  0
  8 84  1  0  0  0
 10 85  1  0  0  0
 10 86  1  0  0  0
 11 87  1  0  0  0
 12 88  1  0  0  0
 13 89  1  0  0  0
 14 90  1  0  0  0
 15 91  1  0  0  0
 16 92  1  0  0  0
 17 93  1  0  0  0
 19 94  1  0  0  0
 21 95  1  0  0  0
 21 96  1  0  0  0
 22 97  1  0  0  0
 23 98  1  0  0  0
 24 99  1  0  0  0
 25100  1  0  0  0
 26101  1  0  0  0
 27102  1  0  0  0
 28103  1  0  0  0
 30104  1  0  0  0
 32105  1  0  0  0
 32106  1  0  0  0
 33107  1  0  0  0
 34108  1  0  0  0
 35109  1  0  0  0
 36110  1  0  0  0
 37111  1  0  0  0
 38112  1  0  0  0
 39113  1  0  0  0
 41114  1  0  0  0
 43115  1  0  0  0
 43116  1  0  0  0
 44117  1  0  0  0
 45118  1  0  0  0
 46119  1  0  0  0
 47120  1  0  0  0
 48121  1  0  0  0
 49122  1  0  0  0
 50123  1  0  0  0
 52124  1  0  0  0
 54125  1  0  0  0
 54126  1  0  0  0
 55127  1  0  0  0
 56128  1  0  0  0
 57129  1  0  0  0
 58130  1  0  0  0
 59131  1  0  0  0
 60132  1  0  0  0
 61133  1  0  0  0
 63134  1  0  0  0
 65135  1  0  0  0
 65136  1  0  0  0
 66137  1  0  0  0
 67138  1  0  0  0
 68139  1  0  0  0
 69140  1  0  0  0
 70141  1  0  0  0
 71142  1  0  0  0
 72143  1  0  0  0
 74144  1  0  0  0
 76145  1  0  0  0
 76146  1  0  0  0
 77147  1  0  0  0
M  END
$$$$
