### 
### Created by X-TOOL on Mon Sep 10 21:13:01 2018
### 

@<TRIPOS>MOLECULE
2zyn_ligand
  147   154     1     0     0
SMALL
GAST_HUCK


@<TRIPOS>ATOM
      1 C11       -20.8460    7.2990  -31.3000 C.3       1 BCD         0.1884
      2 C21       -22.3320    7.4520  -30.9930 C.3       1 BCD         0.1341
      3 O21       -22.6340    8.7610  -30.5260 O.3       1 BCD        -0.3841
      4 C31       -22.7700    6.4590  -29.9360 C.3       1 BCD         0.1144
      5 O31       -24.1630    6.5750  -29.6640 O.3       1 BCD        -0.3864
      6 C41       -22.4330    5.0050  -30.3390 C.3       1 BCD         0.1184
      7 O41       -22.8040    4.1600  -29.2790 O.3       1 BCD        -0.3401
      8 C51       -20.9270    4.8530  -30.6460 C.3       1 BCD         0.1134
      9 O51       -20.3930    5.9170  -31.5110 O.3       1 BCD        -0.3405
     10 C61       -20.6180    3.5210  -31.3160 C.3       1 BCD         0.0730
     11 O61       -19.5740    2.9510  -30.5670 O.3       1 BCD        -0.3924
     12 C12       -23.9510    3.3390  -29.5810 C.3       1 BCD         0.1884
     13 C22       -24.8510    3.1700  -28.3750 C.3       1 BCD         0.1341
     14 O22       -25.3580    4.4170  -27.8660 O.3       1 BCD        -0.3841
     15 C32       -24.1510    2.3980  -27.2400 C.3       1 BCD         0.1144
     16 O32       -25.0750    2.1870  -26.1700 O.3       1 BCD        -0.3864
     17 C42       -23.5370    1.0440  -27.6830 C.3       1 BCD         0.1184
     18 O42       -22.5830    0.7240  -26.6770 O.3       1 BCD        -0.3401
     19 C52       -22.7970    1.1670  -29.0970 C.3       1 BCD         0.1134
     20 O52       -23.4190    2.1050  -30.0560 O.3       1 BCD        -0.3405
     21 C62       -22.6710   -0.1630  -29.8530 C.3       1 BCD         0.0730
     22 O62       -23.9600   -0.7380  -29.9930 O.3       1 BCD        -0.3924
     23 C13       -22.3660   -0.7270  -26.4740 C.3       1 BCD         0.1884
     24 C23       -22.2440   -1.0100  -24.9710 C.3       1 BCD         0.1341
     25 O23       -23.4290   -0.6950  -24.2720 O.3       1 BCD        -0.3841
     26 C33       -21.0650   -0.2320  -24.4260 C.3       1 BCD         0.1144
     27 O33       -20.8900   -0.4460  -23.0200 O.3       1 BCD        -0.3864
     28 C43       -19.7340   -0.5670  -25.1770 C.3       1 BCD         0.1184
     29 O43       -18.7050    0.2700  -24.6790 O.3       1 BCD        -0.3401
     30 C53       -19.9190   -0.3940  -26.7150 C.3       1 BCD         0.1134
     31 O53       -21.1480   -1.0470  -27.1420 O.3       1 BCD        -0.3405
     32 C63       -18.7870   -0.9960  -27.5470 C.3       1 BCD         0.0730
     33 O63       -19.0540   -0.8190  -28.9190 O.3       1 BCD        -0.3924
     34 C14       -17.4590   -0.3600  -24.4260 C.3       1 BCD         0.1884
     35 C24       -17.1020    0.0070  -22.9680 C.3       1 BCD         0.1341
     36 O24       -18.2460   -0.1160  -22.1040 O.3       1 BCD        -0.3841
     37 C34       -16.4990    1.4630  -22.8270 C.3       1 BCD         0.1144
     38 O34       -15.7390    1.5650  -21.6340 O.3       1 BCD        -0.3864
     39 C44       -15.5390    1.8560  -23.9720 C.3       1 BCD         0.1184
     40 O44       -15.2360    3.2480  -23.8950 O.3       1 BCD        -0.3401
     41 C54       -16.1590    1.5530  -25.3550 C.3       1 BCD         0.1134
     42 O54       -16.5400    0.1670  -25.4570 O.3       1 BCD        -0.3405
     43 C64       -15.2080    1.8930  -26.5120 C.3       1 BCD         0.0730
     44 O64       -15.9660    2.0310  -27.6870 O.3       1 BCD        -0.3924
     45 C15       -13.9000    3.6020  -23.5390 C.3       1 BCD         0.1884
     46 C25       -13.9660    4.6380  -22.4280 C.3       1 BCD         0.1341
     47 O25       -14.6060    4.1320  -21.2690 O.3       1 BCD        -0.3841
     48 C35       -14.6630    5.9110  -22.9190 C.3       1 BCD         0.1144
     49 O35       -14.7570    6.9230  -21.9590 O.3       1 BCD        -0.3864
     50 C45       -14.0210    6.4630  -24.2380 C.3       1 BCD         0.1184
     51 O45       -14.8940    7.4340  -24.7500 O.3       1 BCD        -0.3401
     52 C55       -13.8780    5.3450  -25.2910 C.3       1 BCD         0.1134
     53 O55       -13.2740    4.1560  -24.7100 O.3       1 BCD        -0.3405
     54 C65       -13.0450    5.7430  -26.4890 C.3       1 BCD         0.0730
     55 O65       -13.2750    4.8420  -27.5500 O.3       1 BCD        -0.3924
     56 C16       -14.3790    8.7850  -24.6410 C.3       1 BCD         0.1884
     57 C26       -15.5430    9.6930  -24.3310 C.3       1 BCD         0.1341
     58 O26       -16.1930    9.3500  -23.1040 O.3       1 BCD        -0.3841
     59 C36       -16.5450    9.7040  -25.4820 C.3       1 BCD         0.1144
     60 O36       -17.6500   10.5330  -25.2730 O.3       1 BCD        -0.3864
     61 C46       -15.8980   10.0180  -26.8790 C.3       1 BCD         0.1184
     62 O46       -16.8910    9.6070  -27.8200 O.3       1 BCD        -0.3401
     63 C56       -14.6260    9.1420  -27.0800 C.3       1 BCD         0.1134
     64 O56       -13.7730    9.1320  -25.9050 O.3       1 BCD        -0.3405
     65 C66       -13.7230    9.5370  -28.2590 C.3       1 BCD         0.0730
     66 O66       -13.3520   10.9250  -28.0870 O.3       1 BCD        -0.3924
     67 C17       -17.0130   10.3500  -29.0770 C.3       1 BCD         0.1884
     68 C27       -18.4390   10.8920  -29.1160 C.3       1 BCD         0.1341
     69 O27       -18.6310   11.7890  -28.0510 O.3       1 BCD        -0.3841
     70 C37       -19.4460    9.7160  -29.1000 C.3       1 BCD         0.1144
     71 O37       -20.7980   10.1550  -29.1400 O.3       1 BCD        -0.3864
     72 C47       -19.1910    8.7540  -30.2690 C.3       1 BCD         0.1184
     73 O47       -20.1240    7.6950  -30.1320 O.3       1 BCD        -0.3401
     74 C57       -17.7010    8.2790  -30.2100 C.3       1 BCD         0.1134
     75 O57       -16.7510    9.3970  -30.1370 O.3       1 BCD        -0.3405
     76 C67       -17.3320    7.3250  -31.3880 C.3       1 BCD         0.0730
     77 O67       -17.2240    8.0680  -32.6250 O.3       1 BCD        -0.3924
     78 H1        -20.5881    7.9205  -32.1702 H         1 BCD         0.0938
     79 H2        -22.8981    7.2642  -31.9173 H         1 BCD         0.0671
     80 H3        -22.1424    8.9339  -29.7317 H         1 BCD         0.2101
     81 H4        -22.2211    6.6908  -29.0114 H         1 BCD         0.0648
     82 H5        -24.4085    5.9420  -28.9995 H         1 BCD         0.2100
     83 H6        -23.0069    4.7356  -31.2379 H         1 BCD         0.0651
     84 H7        -20.3922    4.8923  -29.6856 H         1 BCD         0.0647
     85 H8        -20.3005    3.6800  -32.3571 H         1 BCD         0.0584
     86 H9        -21.5033    2.8683  -31.2982 H         1 BCD         0.0584
     87 H10       -19.3381    2.1110  -30.9429 H         1 BCD         0.2095
     88 H11       -24.5399    3.8112  -30.3811 H         1 BCD         0.0938
     89 H12       -25.7150    2.5726  -28.7014 H         1 BCD         0.0671
     90 H13       -25.8632    4.8520  -28.5428 H         1 BCD         0.2101
     91 H14       -23.3286    3.0272  -26.8688 H         1 BCD         0.0648
     92 H15       -25.3775    3.0265  -25.8441 H         1 BCD         0.2100
     93 H16       -24.3172    0.2708  -27.7425 H         1 BCD         0.0651
     94 H17       -21.7825    1.5326  -28.8798 H         1 BCD         0.0647
     95 H18       -22.0209   -0.8479  -29.2888 H         1 BCD         0.0584
     96 H19       -22.2377    0.0177  -30.8478 H         1 BCD         0.0584
     97 H20       -23.8889   -1.5620  -30.4604 H         1 BCD         0.2095
     98 H21       -23.1991   -1.3074  -26.8970 H         1 BCD         0.0938
     99 H22       -22.0476   -2.0838  -24.8355 H         1 BCD         0.0671
    100 H23       -24.1454   -1.2168  -24.6142 H         1 BCD         0.2101
    101 H24       -21.2777    0.8361  -24.5807 H         1 BCD         0.0648
    102 H25       -20.1437    0.0564  -22.7148 H         1 BCD         0.2100
    103 H26       -19.4648   -1.6144  -24.9758 H         1 BCD         0.0651
    104 H27       -19.9810    0.6826  -26.9321 H         1 BCD         0.0647
    105 H28       -18.7044   -2.0706  -27.3272 H         1 BCD         0.0584
    106 H29       -17.8411   -0.4958  -27.2920 H         1 BCD         0.0584
    107 H30       -19.8704   -1.2517  -29.1400 H         1 BCD         0.2095
    108 H31       -17.5312   -1.4534  -24.5222 H         1 BCD         0.0938
    109 H32       -16.3378   -0.7072  -22.6275 H         1 BCD         0.0671
    110 H33       -18.9325    0.4681  -22.4042 H         1 BCD         0.2101
    111 H34       -17.3340    2.1784  -22.7983 H         1 BCD         0.0648
    112 H35       -15.3827    2.4426  -21.5609 H         1 BCD         0.2100
    113 H36       -14.6091    1.2782  -23.8654 H         1 BCD         0.0651
    114 H37       -17.0625    2.1715  -25.4605 H         1 BCD         0.0647
    115 H38       -14.4728    1.0845  -26.6377 H         1 BCD         0.0584
    116 H39       -14.6834    2.8354  -26.2962 H         1 BCD         0.0584
    117 H40       -16.4189    1.2157  -27.8680 H         1 BCD         0.2095
    118 H41       -13.3436    2.7175  -23.1955 H         1 BCD         0.0938
    119 H42       -12.9338    4.9005  -22.1528 H         1 BCD         0.0671
    120 H43       -14.6273    4.8065  -20.6004 H         1 BCD         0.2101
    121 H44       -15.6946    5.6188  -23.1645 H         1 BCD         0.0648
    122 H45       -13.8847    7.1739  -21.6785 H         1 BCD         0.2100
    123 H46       -13.0358    6.9024  -24.0228 H         1 BCD         0.0651
    124 H47       -14.8883    5.0912  -25.6443 H         1 BCD         0.0647
    125 H48       -11.9795    5.7222  -26.2164 H         1 BCD         0.0584
    126 H49       -13.3227    6.7591  -26.8059 H         1 BCD         0.0584
    127 H50       -14.1950    4.8605  -27.7858 H         1 BCD         0.2095
    128 H51       -13.6300    8.8489  -23.8379 H         1 BCD         0.0938
    129 H52       -15.1454   10.7127  -24.2209 H         1 BCD         0.0671
    130 H53       -16.5217    8.4603  -23.1590 H         1 BCD         0.2101
    131 H54       -16.9357    8.6776  -25.5436 H         1 BCD         0.0648
    132 H55       -17.3548   11.4278  -25.1517 H         1 BCD         0.2100
    133 H56       -15.6542   11.0857  -26.9817 H         1 BCD         0.0651
    134 H57       -14.9794    8.1160  -27.2600 H         1 BCD         0.0647
    135 H58       -14.2676    9.4100  -29.2063 H         1 BCD         0.0584
    136 H59       -12.8213    8.9070  -28.2671 H         1 BCD         0.0584
    137 H60       -12.8859   11.0276  -27.2656 H         1 BCD         0.2095
    138 H61       -16.2914   11.1788  -29.1259 H         1 BCD         0.0938
    139 H62       -18.5788   11.4456  -30.0562 H         1 BCD         0.0671
    140 H63       -18.4866   11.3372  -27.2279 H         1 BCD         0.2101
    141 H64       -19.2967    9.1634  -28.1607 H         1 BCD         0.0648
    142 H65       -21.3752    9.4006  -29.1284 H         1 BCD         0.2100
    143 H66       -19.3626    9.2666  -31.2270 H         1 BCD         0.0651
    144 H67       -17.5911    7.7016  -29.2802 H         1 BCD         0.0647
    145 H68       -18.1145    6.5590  -31.4926 H         1 BCD         0.0584
    146 H69       -16.3692    6.8386  -31.1724 H         1 BCD         0.0584
    147 H70       -16.5471    8.7289  -32.5381 H         1 BCD         0.2095
@<TRIPOS>BOND
     1    1    2 1  
     2    1    9 1  
     3    1   73 1  
     4    2    3 1  
     5    2    4 1  
     6    4    5 1  
     7    4    6 1  
     8    6    7 1  
     9    6    8 1  
    10    7   12 1  
    11    8    9 1  
    12    8   10 1  
    13   10   11 1  
    14   12   13 1  
    15   12   20 1  
    16   13   14 1  
    17   13   15 1  
    18   15   16 1  
    19   15   17 1  
    20   17   18 1  
    21   17   19 1  
    22   18   23 1  
    23   19   20 1  
    24   19   21 1  
    25   21   22 1  
    26   23   24 1  
    27   23   31 1  
    28   24   25 1  
    29   24   26 1  
    30   26   27 1  
    31   26   28 1  
    32   28   29 1  
    33   28   30 1  
    34   29   34 1  
    35   30   31 1  
    36   30   32 1  
    37   32   33 1  
    38   34   35 1  
    39   34   42 1  
    40   35   36 1  
    41   35   37 1  
    42   37   38 1  
    43   37   39 1  
    44   39   40 1  
    45   39   41 1  
    46   40   45 1  
    47   41   42 1  
    48   41   43 1  
    49   43   44 1  
    50   45   46 1  
    51   45   53 1  
    52   46   47 1  
    53   46   48 1  
    54   48   49 1  
    55   48   50 1  
    56   50   51 1  
    57   50   52 1  
    58   51   56 1  
    59   52   53 1  
    60   52   54 1  
    61   54   55 1  
    62   56   57 1  
    63   56   64 1  
    64   57   58 1  
    65   57   59 1  
    66   59   60 1  
    67   59   61 1  
    68   61   62 1  
    69   61   63 1  
    70   62   67 1  
    71   63   64 1  
    72   63   65 1  
    73   65   66 1  
    74   67   68 1  
    75   67   75 1  
    76   68   69 1  
    77   68   70 1  
    78   70   71 1  
    79   70   72 1  
    80   72   73 1  
    81   72   74 1  
    82   74   75 1  
    83   74   76 1  
    84   76   77 1  
    85    1   78 1  
    86    2   79 1  
    87    3   80 1  
    88    4   81 1  
    89    5   82 1  
    90    6   83 1  
    91    8   84 1  
    92   10   85 1  
    93   10   86 1  
    94   11   87 1  
    95   12   88 1  
    96   13   89 1  
    97   14   90 1  
    98   15   91 1  
    99   16   92 1  
   100   17   93 1  
   101   19   94 1  
   102   21   95 1  
   103   21   96 1  
   104   22   97 1  
   105   23   98 1  
   106   24   99 1  
   107   25  100 1  
   108   26  101 1  
   109   27  102 1  
   110   28  103 1  
   111   30  104 1  
   112   32  105 1  
   113   32  106 1  
   114   33  107 1  
   115   34  108 1  
   116   35  109 1  
   117   36  110 1  
   118   37  111 1  
   119   38  112 1  
   120   39  113 1  
   121   41  114 1  
   122   43  115 1  
   123   43  116 1  
   124   44  117 1  
   125   45  118 1  
   126   46  119 1  
   127   47  120 1  
   128   48  121 1  
   129   49  122 1  
   130   50  123 1  
   131   52  124 1  
   132   54  125 1  
   133   54  126 1  
   134   55  127 1  
   135   56  128 1  
   136   57  129 1  
   137   58  130 1  
   138   59  131 1  
   139   60  132 1  
   140   61  133 1  
   141   63  134 1  
   142   65  135 1  
   143   65  136 1  
   144   66  137 1  
   145   67  138 1  
   146   68  139 1  
   147   69  140 1  
   148   70  141 1  
   149   71  142 1  
   150   72  143 1  
   151   74  144 1  
   152   76  145 1  
   153   76  146 1  
   154   77  147 1  
@<TRIPOS>SUBSTRUCTURE
     1 BCD         1

