1zz1_ligand
  -I-interpret- 

 39 39  0  0  0  0  0  0  0  0999 V2000
   -4.3600  -14.5190   43.9310 O   0  0  0  0  0
   -2.3410  -14.5180   42.2580 O   0  0  0  0  0
   -4.4660  -14.5820   42.5380 N   0  0  0  0  0
   -3.4500  -14.1660   41.8800 C   0  0  0  0  0
   -3.7520  -13.3200   40.6460 C   0  0  0  0  0
   -4.0330  -11.8480   40.9210 C   0  0  0  0  0
   -4.1800  -10.9850   39.6570 C   0  0  0  0  0
   -5.1840  -11.4680   38.6000 C   0  0  0  0  0
   -5.6240  -10.3570   37.6390 C   0  0  0  0  0
   -6.6640  -10.8180   36.6160 C   0  0  0  0  0
   -7.2510   -9.5920   35.9400 C   0  0  0  0  0
   -6.5290   -8.8030   35.3400 O   0  0  0  0  0
   -8.5720   -9.4340   36.0480 N   0  0  0  0  0
   -9.2500   -8.3670   35.5510 C   0  0  0  0  0
  -10.4390   -8.5970   34.8640 C   0  0  0  0  0
  -11.1670   -7.5280   34.3460 C   0  0  0  0  0
  -10.7050   -6.2200   34.5160 C   0  0  0  0  0
   -9.5140   -5.9780   35.2050 C   0  0  0  0  0
   -8.7880   -7.0560   35.7220 C   0  0  0  0  0
   -5.1684  -14.8517   44.3277 H   0  0  0  0  0
   -5.3021  -14.9378   42.0745 H   0  0  0  0  0
   -4.6558  -13.7325   40.1975 H   0  0  0  0  0
   -2.8629  -13.3564   40.0165 H   0  0  0  0  0
   -3.1816  -11.4577   41.4786 H   0  0  0  0  0
   -4.9812  -11.7970   41.4562 H   0  0  0  0  0
   -3.2045  -10.9987   39.1708 H   0  0  0  0  0
   -4.5471  -10.0167   39.9973 H   0  0  0  0  0
   -6.0711  -11.8247   39.1234 H   0  0  0  0  0
   -4.6967  -12.2439   38.0095 H   0  0  0  0  0
   -4.7423  -10.0301   37.0878 H   0  0  0  0  0
   -6.0775   -9.5657   38.2359 H   0  0  0  0  0
   -7.4526  -11.3812   37.1150 H   0  0  0  0  0
   -6.1949  -11.4635   35.8735 H   0  0  0  0  0
   -9.1038  -10.1572   36.5323 H   0  0  0  0  0
  -10.8013   -9.6164   34.7310 H   0  0  0  0  0
  -12.0970   -7.7118   33.8081 H   0  0  0  0  0
  -11.2762   -5.3854   34.1094 H   0  0  0  0  0
   -9.1537   -4.9580   35.3385 H   0  0  0  0  0
   -7.8579   -6.8748   36.2607 H   0  0  0  0  0
  3  1  1  0  0  0
  4  2  2  0  0  0
  3  4  1  0  0  0
  4  5  1  0  0  0
  5  6  1  0  0  0
  6  7  1  0  0  0
  7  8  1  0  0  0
  8  9  1  0  0  0
  9 10  1  0  0  0
 10 11  1  0  0  0
 11 12  2  0  0  0
 11 13  1  0  0  0
 13 14  1  0  0  0
 14 15  4  0  0  0
 14 19  4  0  0  0
 15 16  4  0  0  0
 16 17  4  0  0  0
 17 18  4  0  0  0
 18 19  4  0  0  0
  1 20  1  0  0  0
  3 21  1  0  0  0
  5 22  1  0  0  0
  5 23  1  0  0  0
  6 24  1  0  0  0
  6 25  1  0  0  0
  7 26  1  0  0  0
  7 27  1  0  0  0
  8 28  1  0  0  0
  8 29  1  0  0  0
  9 30  1  0  0  0
  9 31  1  0  0  0
 10 32  1  0  0  0
 10 33  1  0  0  0
 13 34  1  0  0  0
 15 35  1  0  0  0
 16 36  1  0  0  0
 17 37  1  0  0  0
 18 38  1  0  0  0
 19 39  1  0  0  0
M  END
$$$$
