5sz2_ligand
  -I-interpret- 

 29 30  0  0  0  0  0  0  0  0999 V2000
   18.4330   -5.3590   77.8740 O   0  0  0  0  0
   18.7750   -4.4980   77.1430 C   0  0  0  0  0
   18.6930   -3.0410   77.6080 C   0  0  0  0  0
   17.9270   -2.6810   78.7140 C   0  0  0  0  0
   19.3950   -2.0750   76.9070 C   0  0  0  0  0
   19.3420   -0.7530   77.3040 C   0  0  0  0  0
   18.5820   -0.3890   78.4010 C   0  0  0  0  0
   17.8820   -1.3520   79.1100 C   0  0  0  0  0
   17.0430   -0.9170   80.2960 C   0  0  0  0  0
   16.8160   -1.7220   81.3090 C   0  0  0  0  0
   15.9500   -1.2450   82.4660 C   0  0  0  0  0
   15.4360   -0.0300   82.4330 C   0  0  0  0  0
   14.4000    0.5490   83.7920 S   0  0  0  0  0
   13.4840   -0.5370   84.1740 O   0  0  0  0  0
   15.2510    0.7780   84.9760 O   0  0  0  0  0
   13.5950    1.9570   83.3520 N   0  0  0  0  0
   15.6970    0.9030   81.2600 C   0  0  0  0  0
   16.4440    0.4820   80.2640 C   0  0  0  0  0
   19.1457   -4.7374   76.1463 H   0  0  0  0  0
   17.3672   -3.4374   79.2642 H   0  0  0  0  0
   19.9910   -2.3585   76.0396 H   0  0  0  0  0
   19.8995    0.0040   76.7524 H   0  0  0  0  0
   18.5338    0.6558   78.7078 H   0  0  0  0  0
   17.2447   -2.7241   81.3208 H   0  0  0  0  0
   15.7560   -1.9012   83.3145 H   0  0  0  0  0
   12.5756    1.9885   83.3699 H   0  0  0  0  0
   14.1258    2.7801   83.0670 H   0  0  0  0  0
   15.2707    1.9061   81.2458 H   0  0  0  0  0
   16.6350    1.1360   79.4132 H   0  0  0  0  0
  1  2  2  0  0  0
  2  3  1  0  0  0
  3  4  4  0  0  0
  3  5  4  0  0  0
  4  8  4  0  0  0
  5  6  4  0  0  0
  6  7  4  0  0  0
  7  8  4  0  0  0
  8  9  1  0  0  0
  9 10  4  0  0  0
  9 18  4  0  0  0
 10 11  4  0  0  0
 11 12  4  0  0  0
 12 13  1  0  0  0
 12 17  4  0  0  0
 13 14  2  0  0  0
 13 15  2  0  0  0
 13 16  1  0  0  0
 17 18  4  0  0  0
  2 19  1  0  0  0
  4 20  1  0  0  0
  5 21  1  0  0  0
  6 22  1  0  0  0
  7 23  1  0  0  0
 10 24  1  0  0  0
 11 25  1  0  0  0
 16 26  1  0  0  0
 16 27  1  0  0  0
 17 28  1  0  0  0
 18 29  1  0  0  0
M  END
$$$$
