5yjm_ligand
  -I-interpret- 

 74 77  0  0  0  0  0  0  0  0999 V2000
   -9.5190  -16.7380   -6.0850 C   0  0  0  0  0
   -8.5670  -17.2150   -5.4810 O   0  0  0  0  0
  -14.0620  -15.1080   -0.4390 Cl  0  0  0  0  0
  -13.0530  -14.4950   -1.5850 C   0  0  0  0  0
  -12.1690  -15.3190   -2.2700 C   0  0  0  0  0
  -13.1250  -13.1220   -1.7910 C   0  0  0  0  0
  -12.2810  -12.5790   -2.7430 C   0  0  0  0  0
  -11.3480  -13.3640   -3.4580 C   0  0  0  0  0
  -10.4990  -12.9840   -4.4580 O   0  0  0  0  0
  -10.3870  -11.6340   -4.8920 C   0  0  0  0  0
  -11.2990  -14.7250   -3.1850 C   0  0  0  0  0
  -10.3050  -15.5350   -3.9220 C   0  0  0  0  0
  -10.6310  -16.0430   -5.3110 C   0  0  0  0  0
  -12.0540  -16.5900   -5.4820 C   0  0  0  0  0
  -12.6080  -16.8510   -6.7640 N   0  0  0  0  0
  -12.0880  -16.6140   -7.9950 C   0  0  0  0  0
  -12.7030  -16.8990   -9.0550 N   0  0  0  0  0
  -14.0150  -17.3690   -8.7790 O   0  0  0  0  0
  -14.7490  -17.8590   -9.8090 C   0  0  0  0  0
  -14.3150  -17.9490  -11.1410 C   0  0  0  0  0
  -15.1720  -18.5280  -12.1090 C   0  0  0  0  0
  -16.3980  -19.0910  -11.7520 C   0  0  0  0  0
  -16.8140  -19.0120  -10.4190 C   0  0  0  0  0
  -15.9740  -18.4430   -9.4570 C   0  0  0  0  0
  -10.7090  -16.0340   -8.1670 C   0  0  0  0  0
   -9.6840  -16.8250   -7.4700 N   0  0  0  0  0
   -8.8430  -17.5560   -8.3230 C   0  0  0  0  0
   -9.0200  -17.5890   -9.4980 O   0  0  0  0  0
   -7.8980  -18.3130   -7.8050 N   0  0  0  0  0
   -6.9490  -19.0970   -8.5830 C   0  0  0  0  0
   -7.5160  -20.5220   -8.6790 C   0  0  0  0  0
   -6.5380  -21.5710   -8.4190 C   0  0  0  0  0
   -5.7180  -18.6270   -7.8580 C   0  0  0  0  0
   -5.2130  -19.2200   -6.6610 C   0  0  0  0  0
   -4.1040  -18.6970   -5.9890 C   0  0  0  0  0
   -3.6310  -19.3830   -4.8860 N   0  0  0  0  0
   -5.1300  -17.4280   -8.3030 C   0  0  0  0  0
   -4.0350  -16.8730   -7.6310 C   0  0  0  0  0
   -3.4920  -17.4920   -6.4720 C   0  0  0  0  0
   -2.3010  -16.8220   -5.8110 C   0  0  0  0  0
   -1.8130  -15.7440   -6.2960 O   0  0  0  0  0
   -1.8000  -17.3640   -4.7770 O   0  0  0  0  0
  -12.1554  -16.3953   -2.0982 H   0  0  0  0  0
  -13.8180  -12.4990   -1.2256 H   0  0  0  0  0
  -12.3373  -11.5101   -2.9487 H   0  0  0  0  0
  -11.3550  -11.2891   -5.2555 H   0  0  0  0  0
  -10.0678  -11.0105   -4.0568 H   0  0  0  0  0
   -9.6526  -11.5716   -5.6951 H   0  0  0  0  0
  -10.1853  -16.4364   -3.3210 H   0  0  0  0  0
   -9.4575  -14.8650   -4.0665 H   0  0  0  0  0
  -10.6657  -15.1182   -5.8869 H   0  0  0  0  0
  -12.6849  -15.7942   -5.0862 H   0  0  0  0  0
  -12.0091  -17.5742   -5.0158 H   0  0  0  0  0
  -13.5334  -17.2799   -6.7584 H   0  0  0  0  0
  -13.3308  -17.5780  -11.4269 H   0  0  0  0  0
  -14.8672  -18.5339  -13.1555 H   0  0  0  0  0
  -17.0205  -19.5837  -12.4989 H   0  0  0  0  0
  -17.7931  -19.3940  -10.1301 H   0  0  0  0  0
  -16.2782  -18.4537   -8.4104 H   0  0  0  0  0
  -10.7081  -15.0293   -7.7444 H   0  0  0  0  0
  -10.4715  -16.0325   -9.2308 H   0  0  0  0  0
   -7.8258  -18.3529   -6.7883 H   0  0  0  0  0
   -6.7237  -19.0118   -9.6461 H   0  0  0  0  0
   -7.8719  -20.6591   -9.7001 H   0  0  0  0  0
   -8.2936  -20.6112   -7.9204 H   0  0  0  0  0
   -5.7276  -21.4982   -9.1443 H   0  0  0  0  0
   -6.1380  -21.4516   -7.4121 H   0  0  0  0  0
   -7.0196  -22.5449   -8.5069 H   0  0  0  0  0
   -5.7061  -20.1055   -6.2599 H   0  0  0  0  0
   -4.0893  -20.2432   -4.5853 H   0  0  0  0  0
   -2.8237  -19.0290   -4.3728 H   0  0  0  0  0
   -5.5327  -16.9253   -9.1823 H   0  0  0  0  0
   -3.5906  -15.9498   -8.0028 H   0  0  0  0  0
   -2.3179  -15.4856   -7.0706 H   0  0  0  0  0
  1  2  2  0  0  0
 13  1  1  0  0  0
  1 26  1  0  0  0
  4  3  1  0  0  0
  5  4  4  0  0  0
  4  6  4  0  0  0
 11  5  4  0  0  0
  7  6  4  0  0  0
  8  7  4  0  0  0
  8  9  1  0  0  0
 11  8  4  0  0  0
  9 10  1  0  0  0
 12 11  1  0  0  0
 12 13  1  0  0  0
 13 14  1  0  0  0
 14 15  1  0  0  0
 15 16  1  0  0  0
 16 17  2  0  0  0
 16 25  1  0  0  0
 17 18  1  0  0  0
 18 19  1  0  0  0
 19 20  4  0  0  0
 19 24  4  0  0  0
 20 21  4  0  0  0
 21 22  4  0  0  0
 22 23  4  0  0  0
 23 24  4  0  0  0
 25 26  1  0  0  0
 26 27  1  0  0  0
 27 28  2  0  0  0
 27 29  1  0  0  0
 29 30  1  0  0  0
 30 31  1  0  0  0
 30 33  1  0  0  0
 31 32  1  0  0  0
 33 34  4  0  0  0
 33 37  4  0  0  0
 34 35  4  0  0  0
 35 36  1  0  0  0
 35 39  4  0  0  0
 37 38  4  0  0  0
 38 39  4  0  0  0
 39 40  1  0  0  0
 40 41  1  0  0  0
 40 42  2  0  0  0
  5 43  1  0  0  0
  6 44  1  0  0  0
  7 45  1  0  0  0
 10 46  1  0  0  0
 10 47  1  0  0  0
 10 48  1  0  0  0
 12 49  1  0  0  0
 12 50  1  0  0  0
 13 51  1  0  0  0
 14 52  1  0  0  0
 14 53  1  0  0  0
 15 54  1  0  0  0
 20 55  1  0  0  0
 21 56  1  0  0  0
 22 57  1  0  0  0
 23 58  1  0  0  0
 24 59  1  0  0  0
 25 60  1  0  0  0
 25 61  1  0  0  0
 29 62  1  0  0  0
 30 63  1  0  0  0
 31 64  1  0  0  0
 31 65  1  0  0  0
 32 66  1  0  0  0
 32 67  1  0  0  0
 32 68  1  0  0  0
 34 69  1  0  0  0
 36 70  1  0  0  0
 36 71  1  0  0  0
 37 72  1  0  0  0
 38 73  1  0  0  0
 41 74  1  0  0  0
M  END
$$$$
