### 
### Created by X-TOOL on Wed Jan  1 15:39:36 2020
### 

@<TRIPOS>MOLECULE
6b4h_ligand
   42    42     1     0     0
SMALL
GAST_HUCK


@<TRIPOS>ATOM
      1 C1        120.6060  -13.0600  110.6060 C.3       1 IHP         0.1556
      2 C2        121.3290  -11.8870  111.2440 C.3       1 IHP         0.1556
      3 C3        120.3630  -10.7300  111.4170 C.3       1 IHP         0.1556
      4 C4        119.2060  -11.1470  112.3060 C.3       1 IHP         0.1556
      5 C5        118.4790  -12.3470  111.7260 C.3       1 IHP         0.1556
      6 C6        119.4420  -13.4920  111.4790 C.3       1 IHP         0.1556
      7 O11       121.5110  -14.1810  110.5010 O.3       1 IHP        -0.2668
      8 P1        122.6250  -14.3740  109.3930 P.3       1 IHP         0.2013
      9 O21       123.3430  -15.6430  109.6690 O.co2     1 IHP        -0.5537
     10 O31       121.9140  -14.3680  108.0480 O.co2     1 IHP        -0.5537
     11 O41       123.5270  -13.1420  109.4870 O.co2     1 IHP        -0.5537
     12 O12       121.8190  -12.2780  112.5460 O.3       1 IHP        -0.2668
     13 P2        123.3320  -12.4640  113.0170 P.3       1 IHP         0.2013
     14 O22       124.1980  -12.6510  111.8160 O.co2     1 IHP        -0.5537
     15 O32       123.7190  -11.2230  113.8370 O.co2     1 IHP        -0.5537
     16 O42       123.3440  -13.6670  113.9630 O.co2     1 IHP        -0.5537
     17 O13       121.0430   -9.6260  112.0540 O.3       1 IHP        -0.2668
     18 P3        121.6630   -8.3690  111.3070 P.3       1 IHP         0.2013
     19 O23       122.6280   -8.8090  110.2710 O.co2     1 IHP        -0.5537
     20 O33       122.3080   -7.5340  112.4140 O.co2     1 IHP        -0.5537
     21 O43       120.5060   -7.5820  110.7120 O.co2     1 IHP        -0.5537
     22 O14       118.2760  -10.0450  112.3650 O.3       1 IHP        -0.2668
     23 P4        118.0960   -8.9880  113.5170 P.3       1 IHP         0.2013
     24 O24       118.7970   -9.3910  114.7580 O.co2     1 IHP        -0.5537
     25 O34       118.6030   -7.6620  112.9410 O.co2     1 IHP        -0.5537
     26 O44       116.5770   -8.8890  113.7160 O.co2     1 IHP        -0.5537
     27 O15       117.5200  -12.7890  112.7100 O.3       1 IHP        -0.2668
     28 P5        115.9560  -12.8590  112.5540 P.3       1 IHP         0.2013
     29 O25       115.4430  -11.5840  111.9780 O.co2     1 IHP        -0.5537
     30 O35       115.3890  -13.1480  113.9470 O.co2     1 IHP        -0.5537
     31 O45       115.7120  -14.0730  111.6540 O.co2     1 IHP        -0.5537
     32 O16       118.7320  -14.5540  110.8050 O.3       1 IHP        -0.2668
     33 P6        118.6670  -16.0460  111.3590 P.3       1 IHP         0.2013
     34 O26       119.6390  -16.2330  112.4490 O.co2     1 IHP        -0.5537
     35 O36       117.2300  -16.2480  111.8210 O.co2     1 IHP        -0.5537
     36 O46       118.9590  -16.9520  110.1620 O.co2     1 IHP        -0.5537
     37 H1        120.2420  -12.7721  109.6087 H         1 IHP         0.0710
     38 H2        122.1700  -11.5785  110.6056 H         1 IHP         0.0710
     39 H3        119.9830  -10.4182  110.4329 H         1 IHP         0.0710
     40 H4        119.5779  -11.3888  113.3126 H         1 IHP         0.0710
     41 H5        117.9756  -12.0677  110.7887 H         1 IHP         0.0710
     42 H6        119.8276  -13.8550  112.4431 H         1 IHP         0.0710
@<TRIPOS>BOND
     1    1    2 1  
     2    1    6 1  
     3    1    7 1  
     4    2    3 1  
     5    2   12 1  
     6    3    4 1  
     7    3   17 1  
     8    4    5 1  
     9    4   22 1  
    10    5    6 1  
    11    5   27 1  
    12    6   32 1  
    13    7    8 1  
    14    8    9 ar 
    15    8   10 ar 
    16    8   11 ar 
    17   12   13 1  
    18   13   14 ar 
    19   13   15 ar 
    20   13   16 ar 
    21   17   18 1  
    22   18   19 ar 
    23   18   20 ar 
    24   18   21 ar 
    25   22   23 1  
    26   23   24 ar 
    27   23   25 ar 
    28   23   26 ar 
    29   27   28 1  
    30   28   29 ar 
    31   28   30 ar 
    32   28   31 ar 
    33   32   33 1  
    34   33   34 ar 
    35   33   35 ar 
    36   33   36 ar 
    37    1   37 1  
    38    2   38 1  
    39    3   39 1  
    40    4   40 1  
    41    5   41 1  
    42    6   42 1  
@<TRIPOS>SUBSTRUCTURE
     1 IHP         1

