6b4h_ligand
  -I-interpret- 

 54 54  0  0  0  0  0  0  0  0999 V2000
  120.6060  -13.0600  110.6060 C   0  0  0  0  0
  121.3290  -11.8870  111.2440 C   0  0  0  0  0
  120.3630  -10.7300  111.4170 C   0  0  0  0  0
  119.2060  -11.1470  112.3060 C   0  0  0  0  0
  118.4790  -12.3470  111.7260 C   0  0  0  0  0
  119.4420  -13.4920  111.4790 C   0  0  0  0  0
  121.5110  -14.1810  110.5010 O   0  0  0  0  0
  122.6250  -14.3740  109.3930 P   0  0  0  0  0
  123.3430  -15.6430  109.6690 O   0  0  0  0  0
  121.9140  -14.3680  108.0480 O   0  0  0  0  0
  123.5270  -13.1420  109.4870 O   0  0  0  0  0
  121.8190  -12.2780  112.5460 O   0  0  0  0  0
  123.3320  -12.4640  113.0170 P   0  0  0  0  0
  124.1980  -12.6510  111.8160 O   0  0  0  0  0
  123.7190  -11.2230  113.8370 O   0  0  0  0  0
  123.3440  -13.6670  113.9630 O   0  0  0  0  0
  121.0430   -9.6260  112.0540 O   0  0  0  0  0
  121.6630   -8.3690  111.3070 P   0  0  0  0  0
  122.6280   -8.8090  110.2710 O   0  0  0  0  0
  122.3080   -7.5340  112.4140 O   0  0  0  0  0
  120.5060   -7.5820  110.7120 O   0  0  0  0  0
  118.2760  -10.0450  112.3650 O   0  0  0  0  0
  118.0960   -8.9880  113.5170 P   0  0  0  0  0
  118.7970   -9.3910  114.7580 O   0  0  0  0  0
  118.6030   -7.6620  112.9410 O   0  0  0  0  0
  116.5770   -8.8890  113.7160 O   0  0  0  0  0
  117.5200  -12.7890  112.7100 O   0  0  0  0  0
  115.9560  -12.8590  112.5540 P   0  0  0  0  0
  115.4430  -11.5840  111.9780 O   0  0  0  0  0
  115.3890  -13.1480  113.9470 O   0  0  0  0  0
  115.7120  -14.0730  111.6540 O   0  0  0  0  0
  118.7320  -14.5540  110.8050 O   0  0  0  0  0
  118.6670  -16.0460  111.3590 P   0  0  0  0  0
  119.6390  -16.2330  112.4490 O   0  0  0  0  0
  117.2300  -16.2480  111.8210 O   0  0  0  0  0
  118.9590  -16.9520  110.1620 O   0  0  0  0  0
  120.2484  -12.7530  109.6232 H   0  0  0  0  0
  122.1595  -11.5860  110.6055 H   0  0  0  0  0
  119.9919  -10.4361  110.4352 H   0  0  0  0  0
  119.5897  -11.4107  113.2916 H   0  0  0  0  0
  118.0091  -12.0638  110.7842 H   0  0  0  0  0
  119.8352  -13.8247  112.4396 H   0  0  0  0  0
  121.4697  -13.5258  107.9259 H   0  0  0  0  0
  123.0113  -12.3542  109.2998 H   0  0  0  0  0
  123.1352  -11.1471  114.5953 H   0  0  0  0  0
  122.7717  -13.4887  114.7128 H   0  0  0  0  0
  121.6381   -7.2791  113.0526 H   0  0  0  0  0
  119.9066   -7.3169  111.4134 H   0  0  0  0  0
  118.1139   -7.4538  112.1416 H   0  0  0  0  0
  116.1637   -8.6262  112.8903 H   0  0  0  0  0
  115.7489  -13.9765  114.2722 H   0  0  0  0  0
  116.0630  -14.8597  112.0776 H   0  0  0  0  0
  116.6351  -16.1163  111.0792 H   0  0  0  0  0
  118.3035  -16.7976  109.4778 H   0  0  0  0  0
  1  2  1  0  0  0
  1  6  1  0  0  0
  1  7  1  0  0  0
  2  3  1  0  0  0
  2 12  1  0  0  0
  3  4  1  0  0  0
  3 17  1  0  0  0
  4  5  1  0  0  0
  4 22  1  0  0  0
  5  6  1  0  0  0
  5 27  1  0  0  0
  6 32  1  0  0  0
  7  8  1  0  0  0
  8  9  2  0  0  0
  8 10  1  0  0  0
  8 11  1  0  0  0
 12 13  1  0  0  0
 13 14  2  0  0  0
 13 15  1  0  0  0
 13 16  1  0  0  0
 17 18  1  0  0  0
 18 19  2  0  0  0
 18 20  1  0  0  0
 18 21  1  0  0  0
 22 23  1  0  0  0
 23 24  2  0  0  0
 23 25  1  0  0  0
 23 26  1  0  0  0
 27 28  1  0  0  0
 28 29  2  0  0  0
 28 30  1  0  0  0
 28 31  1  0  0  0
 32 33  1  0  0  0
 33 34  2  0  0  0
 33 35  1  0  0  0
 33 36  1  0  0  0
  1 37  1  0  0  0
  2 38  1  0  0  0
  3 39  1  0  0  0
  4 40  1  0  0  0
  5 41  1  0  0  0
  6 42  1  0  0  0
 10 43  1  0  0  0
 11 44  1  0  0  0
 15 45  1  0  0  0
 16 46  1  0  0  0
 20 47  1  0  0  0
 21 48  1  0  0  0
 25 49  1  0  0  0
 26 50  1  0  0  0
 30 51  1  0  0  0
 31 52  1  0  0  0
 35 53  1  0  0  0
 36 54  1  0  0  0
M  END
$$$$
