5hvt_ligand
  -I-interpret- 

 33 35  0  0  0  0  0  0  0  0999 V2000
   32.3750  -27.5590  -24.5340 N   0  0  0  0  0
   31.4480  -27.4010  -23.5560 C   0  0  0  0  0
   31.4610  -28.3080  -22.5240 O   0  0  0  0  0
   32.5730  -29.0690  -22.2710 C   0  0  0  0  0
   33.5070  -29.2890  -23.2450 C   0  0  0  0  0
   33.3080  -28.6800  -24.6260 C   0  0  0  0  0
   30.5800  -26.5360  -23.5710 O   0  0  0  0  0
   32.7250  -29.6280  -21.0000 C   0  0  0  0  0
   33.8310  -30.4180  -20.7060 C   0  0  0  0  0
   34.7760  -30.6630  -21.6960 C   0  0  0  0  0
   34.6090  -30.0950  -22.9560 C   0  0  0  0  0
   33.9610  -30.9260  -19.4420 O   0  0  0  0  0
   32.3950  -26.6010  -25.5570 C   0  0  0  0  0
   31.2870  -26.4460  -26.3860 C   0  0  0  0  0
   31.2940  -25.5020  -27.4070 C   0  0  0  0  0
   32.4130  -24.7060  -27.6130 C   0  0  0  0  0
   33.5110  -24.8480  -26.7740 C   0  0  0  0  0
   33.5010  -25.8000  -25.7490 C   0  0  0  0  0
   32.3800  -23.7750  -28.6210 O   0  0  0  0  0
   33.6070  -23.2700  -29.1240 C   0  0  0  0  0
   34.2653  -28.3256  -25.0083 H   0  0  0  0  0
   32.9041  -29.4345  -25.3011 H   0  0  0  0  0
   31.9719  -29.4438  -20.2338 H   0  0  0  0  0
   35.6399  -31.2941  -21.4875 H   0  0  0  0  0
   35.3523  -30.2832  -23.7307 H   0  0  0  0  0
   34.7658  -31.4466  -19.3888 H   0  0  0  0  0
   30.4065  -27.0701  -26.2333 H   0  0  0  0  0
   30.4192  -25.3866  -28.0470 H   0  0  0  0  0
   34.3860  -24.2136  -26.9152 H   0  0  0  0  0
   34.3700  -25.9090  -25.1002 H   0  0  0  0  0
   34.1567  -22.7850  -28.3174 H   0  0  0  0  0
   34.1992  -24.0920  -29.5260 H   0  0  0  0  0
   33.4042  -22.5465  -29.9136 H   0  0  0  0  0
  1  2  1  0  0  0
  1  6  1  0  0  0
  1 13  1  0  0  0
  2  3  1  0  0  0
  2  7  2  0  0  0
  3  4  1  0  0  0
  4  5  4  0  0  0
  4  8  4  0  0  0
  5  6  1  0  0  0
  5 11  4  0  0  0
  8  9  4  0  0  0
  9 10  4  0  0  0
  9 12  1  0  0  0
 10 11  4  0  0  0
 13 14  4  0  0  0
 13 18  4  0  0  0
 14 15  4  0  0  0
 15 16  4  0  0  0
 16 17  4  0  0  0
 16 19  1  0  0  0
 17 18  4  0  0  0
 19 20  1  0  0  0
  6 21  1  0  0  0
  6 22  1  0  0  0
  8 23  1  0  0  0
 10 24  1  0  0  0
 11 25  1  0  0  0
 12 26  1  0  0  0
 14 27  1  0  0  0
 15 28  1  0  0  0
 17 29  1  0  0  0
 18 30  1  0  0  0
 20 31  1  0  0  0
 20 32  1  0  0  0
 20 33  1  0  0  0
M  END
$$$$
