3h21_ligand
  -I-interpret- 

 29 30  0  0  0  0  0  0  0  0999 V2000
  -76.9280   84.3450   92.9620 C   0  0  0  0  0
  -77.4740   83.1930   90.9850 C   0  0  0  0  0
  -78.8020   85.0770   91.4940 C   0  0  0  0  0
  -78.0110   85.3210   92.7190 C   0  0  0  0  0
  -79.5400   86.6940   96.8720 O   0  0  0  0  0
  -78.8750   87.7490   96.5790 C   0  0  0  0  0
  -79.3650   88.9260   96.7820 O   0  0  0  0  0
  -77.4420   87.5820   96.0070 C   0  0  0  0  0
  -76.8600   88.9210   95.5770 C   0  0  0  0  0
  -77.3370   86.5400   94.9020 C   0  0  0  0  0
  -78.2370   86.4350   93.6950 C   0  0  0  0  0
  -79.1570   87.2540   93.5150 O   0  0  0  0  0
  -76.3690   85.5900   95.0040 N   0  0  0  0  0
  -76.1330   84.5260   94.0940 N   0  0  0  0  0
  -75.0610   83.5710   94.3530 C   0  0  0  0  0
  -79.7250   85.8360   91.1930 O   0  0  0  0  0
  -76.7130   83.3270   92.0940 N   0  0  0  0  0
  -77.2250   82.1530   90.1590 N   0  0  0  0  0
  -78.4900   84.0320   90.7060 N   0  0  0  0  0
  -78.5480   86.2583   92.8646 H   0  0  0  0  0
  -78.7285   89.5887   96.5039 H   0  0  0  0  0
  -76.8373   87.1939   96.8266 H   0  0  0  0  0
  -75.8074   88.7938   95.3241 H   0  0  0  0  0
  -77.4024   89.2886   94.7059 H   0  0  0  0  0
  -76.9548   89.6362   96.3941 H   0  0  0  0  0
  -74.1084   84.0989   94.3960 H   0  0  0  0  0
  -75.2438   83.0706   95.3039 H   0  0  0  0  0
  -75.0327   82.8324   93.5519 H   0  0  0  0  0
  -76.4785   81.4939   90.3796 H   0  0  0  0  0
  4  1  1  0  0  0
  1 14  1  0  0  0
  1 17  2  0  0  0
 17  2  4  0  0  0
  2 18  2  0  0  0
 19  2  4  0  0  0
  4  3  1  0  0  0
  3 16  2  0  0  0
  3 19  1  0  0  0
 11  4  1  0  0  0
  6  5  2  0  0  0
  6  7  1  0  0  0
  8  6  1  0  0  0
  8  9  1  0  0  0
 10  8  1  0  0  0
 10 11  1  0  0  0
 10 13  2  0  0  0
 11 12  2  0  0  0
 13 14  1  0  0  0
 14 15  1  0  0  0
  4 20  1  0  0  0
  7 21  1  0  0  0
  8 22  1  0  0  0
  9 23  1  0  0  0
  9 24  1  0  0  0
  9 25  1  0  0  0
 15 26  1  0  0  0
 15 27  1  0  0  0
 15 28  1  0  0  0
 18 29  1  0  0  0
M  END
$$$$
