2v54_ligand
  -I-interpret- 

 41 42  0  0  0  0  0  0  0  0999 V2000
   11.3860   20.2800    2.1180 P   0  0  0  0  0
   12.3330   19.7820    1.0960 O   0  0  0  0  0
   10.4090   19.3290    2.6920 O   0  0  0  0  0
   12.2660   20.9180    3.3050 O   0  0  0  0  0
   11.6600   21.1970    4.7690 P   0  0  0  0  0
   12.3100   20.3710    5.8120 O   0  0  0  0  0
   11.8430   22.7770    5.0190 O   0  0  0  0  0
   10.0720   20.9550    4.6820 O   0  0  0  0  0
   10.6080   21.5710    1.5520 O   0  0  0  0  0
   11.3400   22.7740    1.3050 C   0  0  0  0  0
   10.4120   23.9680    1.0730 C   0  0  0  0  0
    9.6410   23.7320   -0.1190 O   0  0  0  0  0
    9.4100   24.1100    2.2240 C   0  0  0  0  0
    9.1850   25.4960    2.4980 O   0  0  0  0  0
    8.1580   23.4730    1.6240 C   0  0  0  0  0
    8.2710   24.0230    0.2020 C   0  0  0  0  0
    7.3970   23.3190   -0.7650 N   0  0  0  0  0
    6.4700   24.0160   -1.5490 C   0  0  0  0  0
    6.3500   25.2340   -1.4380 O   0  0  0  0  0
    5.7050   23.3260   -2.5000 N   0  0  0  0  0
    5.8750   21.9500   -2.6710 C   0  0  0  0  0
    5.2340   21.3530   -3.5390 O   0  0  0  0  0
    6.7960   21.2580   -1.8900 C   0  0  0  0  0
    6.9790   19.7480   -2.0650 C   0  0  0  0  0
    7.5500   21.9360   -0.9440 C   0  0  0  0  0
   12.9041   20.5001    0.8136 H   0  0  0  0  0
   11.4046   23.2638    4.3172 H   0  0  0  0  0
    9.7018   21.5122    3.9935 H   0  0  0  0  0
   11.9426   22.6298    0.4082 H   0  0  0  0  0
   11.9567   22.9847    2.1787 H   0  0  0  0  0
   11.0260   24.8652    0.9947 H   0  0  0  0  0
    9.7286   23.6573    3.1630 H   0  0  0  0  0
    8.5571   25.5806    3.2192 H   0  0  0  0  0
    7.2274   23.7131    2.1382 H   0  0  0  0  0
    8.1147   22.3862    1.6955 H   0  0  0  0  0
    7.9783   25.0716    0.1475 H   0  0  0  0  0
    5.0234   23.8294   -3.0678 H   0  0  0  0  0
    8.0112   19.5385   -2.3457 H   0  0  0  0  0
    6.7468   19.2440   -1.1268 H   0  0  0  0  0
    6.3088   19.3903   -2.8467 H   0  0  0  0  0
    8.2685   21.3890   -0.3336 H   0  0  0  0  0
  1  2  1  0  0  0
  1  3  2  0  0  0
  1  4  1  0  0  0
  1  9  1  0  0  0
  4  5  1  0  0  0
  5  6  2  0  0  0
  5  7  1  0  0  0
  5  8  1  0  0  0
  9 10  1  0  0  0
 10 11  1  0  0  0
 11 12  1  0  0  0
 11 13  1  0  0  0
 12 16  1  0  0  0
 13 14  1  0  0  0
 13 15  1  0  0  0
 15 16  1  0  0  0
 16 17  1  0  0  0
 17 18  1  0  0  0
 17 25  1  0  0  0
 18 19  2  0  0  0
 18 20  1  0  0  0
 20 21  1  0  0  0
 21 22  2  0  0  0
 21 23  1  0  0  0
 23 24  1  0  0  0
 23 25  2  0  0  0
  2 26  1  0  0  0
  7 27  1  0  0  0
  8 28  1  0  0  0
 10 29  1  0  0  0
 10 30  1  0  0  0
 11 31  1  0  0  0
 13 32  1  0  0  0
 14 33  1  0  0  0
 15 34  1  0  0  0
 15 35  1  0  0  0
 16 36  1  0  0  0
 20 37  1  0  0  0
 24 38  1  0  0  0
 24 39  1  0  0  0
 24 40  1  0  0  0
 25 41  1  0  0  0
M  END
$$$$
