4li5_ligand
  -I-interpret- 

 49 52  0  0  0  0  0  0  0  0999 V2000
   53.1820   -0.2120  -19.2310 C   0  0  0  0  0
   52.5230    0.8140  -21.2840 C   0  0  0  0  0
   53.4280   -0.0080  -21.9440 C   0  0  0  0  0
   54.1940   -0.9250  -21.2540 C   0  0  0  0  0
   52.2530    0.4500  -17.0070 C   0  0  0  0  0
   50.8200    2.3410  -16.5080 C   0  0  0  0  0
   50.9830    0.4840  -14.9700 C   0  0  0  0  0
   52.4320   -1.3750  -15.5260 O   0  0  0  0  0
   51.9170   -2.3220  -14.5970 C   0  0  0  0  0
   50.6250    4.6110  -17.6770 C   0  0  0  0  0
   49.8520    5.8760  -17.7220 C   0  0  0  0  0
   51.8320    2.4400  -23.1570 C   0  0  0  0  0
   50.4530    2.2880  -21.4350 C   0  0  0  0  0
   49.7600    2.0180  -20.2620 C   0  0  0  0  0
   48.0480    3.5930  -20.9510 C   0  0  0  0  0
   53.6460    0.0600  -23.6260 Cl  0  0  0  0  0
   51.6540    1.8140  -21.9310 C   0  0  0  0  0
   48.5520    2.6780  -20.0210 C   0  0  0  0  0
   48.7570    3.8550  -22.1250 C   0  0  0  0  0
   49.9530    3.1920  -22.3420 C   0  0  0  0  0
   50.7950    3.2740  -23.3780 N   0  0  0  0  0
   52.4170    0.6820  -19.9270 N   0  0  0  0  0
   54.0700   -1.0330  -19.8920 N   0  0  0  0  0
   53.0990   -0.3220  -17.8420 N   0  0  0  0  0
   51.8760   -0.1600  -15.8150 C   0  0  0  0  0
   50.4590    1.7160  -15.3190 C   0  0  0  0  0
   51.7230    1.7000  -17.3580 C   0  0  0  0  0
   50.2460    3.6200  -16.7720 N   0  0  0  0  0
   51.5540    4.4310  -18.4350 O   0  0  0  0  0
   50.7370    7.1310  -17.6870 C   0  0  0  0  0
   54.8967   -1.5627  -21.7903 H   0  0  0  0  0
   50.6935    0.0176  -14.0283 H   0  0  0  0  0
   51.8769   -1.8714  -13.6053 H   0  0  0  0  0
   50.9142   -2.6205  -14.9026 H   0  0  0  0  0
   52.5668   -3.1969  -14.5740 H   0  0  0  0  0
   49.2101    5.9011  -16.8414 H   0  0  0  0  0
   49.2978    5.8900  -18.6605 H   0  0  0  0  0
   52.6734    2.2831  -23.8319 H   0  0  0  0  0
   50.1526    1.3019  -19.5401 H   0  0  0  0  0
   47.1028    4.1010  -20.7595 H   0  0  0  0  0
   47.9994    2.4785  -19.1029 H   0  0  0  0  0
   48.3763    4.5677  -22.8565 H   0  0  0  0  0
   53.6963   -1.0149  -17.3908 H   0  0  0  0  0
   49.7508    2.2054  -14.6504 H   0  0  0  0  0
   52.0165    2.1717  -18.2958 H   0  0  0  0  0
   49.4266    3.8460  -16.2082 H   0  0  0  0  0
   51.3222    7.1359  -16.7674 H   0  0  0  0  0
   51.4079    7.1250  -18.5460 H   0  0  0  0  0
   50.1067    8.0196  -17.7228 H   0  0  0  0  0
 22  1  4  0  0  0
  1 23  4  0  0  0
  1 24  1  0  0  0
  2  3  4  0  0  0
 17  2  1  0  0  0
  2 22  4  0  0  0
  3  4  4  0  0  0
  3 16  1  0  0  0
  4 23  4  0  0  0
 24  5  1  0  0  0
  5 25  4  0  0  0
  5 27  4  0  0  0
  6 26  4  0  0  0
 27  6  4  0  0  0
  6 28  1  0  0  0
 25  7  4  0  0  0
  7 26  4  0  0  0
  8  9  1  0  0  0
 25  8  1  0  0  0
 10 11  1  0  0  0
 28 10  1  0  0  0
 10 29  2  0  0  0
 11 30  1  0  0  0
 17 12  4  0  0  0
 12 21  4  0  0  0
 13 14  4  0  0  0
 13 17  4  0  0  0
 13 20  4  0  0  0
 14 18  4  0  0  0
 18 15  4  0  0  0
 15 19  4  0  0  0
 19 20  4  0  0  0
 20 21  4  0  0  0
  4 31  1  0  0  0
  7 32  1  0  0  0
  9 33  1  0  0  0
  9 34  1  0  0  0
  9 35  1  0  0  0
 11 36  1  0  0  0
 11 37  1  0  0  0
 12 38  1  0  0  0
 14 39  1  0  0  0
 15 40  1  0  0  0
 18 41  1  0  0  0
 19 42  1  0  0  0
 24 43  1  0  0  0
 26 44  1  0  0  0
 27 45  1  0  0  0
 28 46  1  0  0  0
 30 47  1  0  0  0
 30 48  1  0  0  0
 30 49  1  0  0  0
M  END
$$$$
