5lyh_ligand
  -I-interpret- 

 66 68  0  0  0  0  0  0  0  0999 V2000
   52.6090   70.8710   15.1500 O   0  0  0  0  0
   53.6180   71.5670   15.3320 C   0  0  0  0  0
   53.8180   72.1920   16.4070 O   0  0  0  0  0
   54.5430   71.5940   14.3280 C   0  0  0  0  0
   54.1800   71.4550   12.9800 C   0  0  0  0  0
   55.8610   71.7610   14.6940 C   0  0  0  0  0
   56.8150   71.7850   13.7180 C   0  0  0  0  0
   56.5060   71.6450   12.3890 C   0  0  0  0  0
   55.1810   71.4930   12.0130 C   0  0  0  0  0
   54.8870   71.3400   10.3940 S   0  0  0  0  0
   54.9180   69.8280   10.1490 O   0  0  0  0  0
   53.5120   71.9140   10.0240 O   0  0  0  0  0
   56.2530   72.2460    9.5710 N   0  0  0  0  0
   55.9650   73.6520    9.2060 C   0  0  0  0  0
   56.8810   74.6070    9.9860 C   0  0  0  0  0
   56.1160   75.6650   10.7170 N   0  0  0  0  0
   56.1970   75.9730   12.0190 C   0  0  0  0  0
   55.2850   76.4290   10.1810 N   0  0  0  0  0
   54.7920   77.2250   11.0160 N   0  0  0  0  0
   55.3490   76.9760   12.1930 C   0  0  0  0  0
   55.0240   77.7190   13.5050 C   0  0  0  0  0
   56.1280   78.7120   13.9220 C   0  0  0  0  0
   55.5940   80.1010   13.9620 N   0  0  0  0  0
   55.6950   81.0330   14.9650 C   0  0  0  0  0
   55.1970   82.1530   14.8580 O   0  0  0  0  0
   56.4090   80.6670   16.2850 C   0  0  0  0  0
   56.8450   81.9430   17.1140 C   0  0  0  0  0
   57.8620   81.5730   18.2310 C   0  0  0  0  0
   58.7320   82.3650   18.6050 O   0  0  0  0  0
   57.5770   80.3710   18.7530 N   0  0  0  0  0
   58.2450   79.6460   19.6490 C   0  0  0  0  0
   57.5260   78.5040   20.0220 C   0  0  0  0  0
   59.5480   79.8050   20.1500 C   0  0  0  0  0
   60.0470   78.8220   21.0380 C   0  0  0  0  0
   59.2770   77.7130   21.4040 C   0  0  0  0  0
   57.9900   77.5420   20.9180 C   0  0  0  0  0
   57.1860   76.4170   21.2350 C   0  0  0  0  0
   57.2860   75.7540   22.2780 O   0  0  0  0  0
   56.2500   76.0840   20.3790 N   0  0  0  0  0
   54.6496   72.6681   16.3491 H   0  0  0  0  0
   53.1364   71.3201   12.6957 H   0  0  0  0  0
   56.1365   71.8718   15.7428 H   0  0  0  0  0
   57.8580   71.9200   14.0046 H   0  0  0  0  0
   57.2945   71.6532   11.6365 H   0  0  0  0  0
   57.1540   71.8091    9.3770 H   0  0  0  0  0
   54.9270   73.8767    9.4513 H   0  0  0  0  0
   56.1410   73.7845    8.1385 H   0  0  0  0  0
   57.5389   75.1010    9.2710 H   0  0  0  0  0
   57.4304   74.0200   10.7220 H   0  0  0  0  0
   56.8258   75.4997   12.7731 H   0  0  0  0  0
   54.9307   76.9739   14.2951 H   0  0  0  0  0
   54.1074   78.2874   13.3474 H   0  0  0  0  0
   56.9385   78.6656   13.1946 H   0  0  0  0  0
   56.4888   78.4432   14.9148 H   0  0  0  0  0
   55.0837   80.4011   13.1313 H   0  0  0  0  0
   57.3090   80.1051   16.0353 H   0  0  0  0  0
   55.7126   80.0920   16.8952 H   0  0  0  0  0
   55.9585   82.3722   17.5810 H   0  0  0  0  0
   57.3190   82.6518   16.4350 H   0  0  0  0  0
   56.7152   79.9460   18.4110 H   0  0  0  0  0
   56.5390   78.3575   19.5832 H   0  0  0  0  0
   60.1578   80.6616   19.8628 H   0  0  0  0  0
   61.0522   78.9315   21.4451 H   0  0  0  0  0
   59.6962   76.9705   22.0830 H   0  0  0  0  0
   55.6302   75.2994   20.5806 H   0  0  0  0  0
   56.1417   76.6096   19.5116 H   0  0  0  0  0
  1  2  2  0  0  0
  2  3  1  0  0  0
  2  4  1  0  0  0
  4  5  4  0  0  0
  4  6  4  0  0  0
  5  9  4  0  0  0
  6  7  4  0  0  0
  7  8  4  0  0  0
  8  9  4  0  0  0
  9 10  1  0  0  0
 10 11  2  0  0  0
 10 12  2  0  0  0
 10 13  1  0  0  0
 13 14  1  0  0  0
 14 15  1  0  0  0
 15 16  1  0  0  0
 16 17  4  0  0  0
 16 18  4  0  0  0
 17 20  4  0  0  0
 18 19  4  0  0  0
 19 20  4  0  0  0
 20 21  1  0  0  0
 21 22  1  0  0  0
 22 23  1  0  0  0
 23 24  1  0  0  0
 24 25  2  0  0  0
 24 26  1  0  0  0
 26 27  1  0  0  0
 27 28  1  0  0  0
 28 29  2  0  0  0
 28 30  1  0  0  0
 30 31  1  0  0  0
 31 32  4  0  0  0
 31 33  4  0  0  0
 32 36  4  0  0  0
 33 34  4  0  0  0
 34 35  4  0  0  0
 35 36  4  0  0  0
 36 37  1  0  0  0
 37 38  2  0  0  0
 37 39  1  0  0  0
  3 40  1  0  0  0
  5 41  1  0  0  0
  6 42  1  0  0  0
  7 43  1  0  0  0
  8 44  1  0  0  0
 13 45  1  0  0  0
 14 46  1  0  0  0
 14 47  1  0  0  0
 15 48  1  0  0  0
 15 49  1  0  0  0
 17 50  1  0  0  0
 21 51  1  0  0  0
 21 52  1  0  0  0
 22 53  1  0  0  0
 22 54  1  0  0  0
 23 55  1  0  0  0
 26 56  1  0  0  0
 26 57  1  0  0  0
 27 58  1  0  0  0
 27 59  1  0  0  0
 30 60  1  0  0  0
 32 61  1  0  0  0
 33 62  1  0  0  0
 34 63  1  0  0  0
 35 64  1  0  0  0
 39 65  1  0  0  0
 39 66  1  0  0  0
M  END
$$$$
