2gtk_ligand
  -I-interpret- 

 54 57  0  0  0  0  0  0  0  0999 V2000
    0.2960   28.7680   15.4750 C   0  0  0  0  0
   -0.1200   27.8040   16.5870 C   0  0  0  0  0
    0.3980   28.2430   17.8380 O   0  0  0  0  0
   -0.0240   27.4050   18.9110 C   0  0  0  0  0
   -1.3820   27.8110   19.4020 C   0  0  0  0  0
   -2.1170   26.9220   19.9260 O   0  0  0  0  0
   -1.7210   29.0300   19.3250 O   0  0  0  0  0
    0.9770   27.4680   20.0680 C   0  0  0  0  0
    2.2210   26.6840   19.7700 C   0  0  0  0  0
    3.2640   27.2670   19.0130 C   0  0  0  0  0
    2.3360   25.3940   20.2620 C   0  0  0  0  0
    3.5190   24.6780   20.0120 C   0  0  0  0  0
    3.9450   23.3650   20.3950 C   0  0  0  0  0
    5.2050   23.1970   19.9190 C   0  0  0  0  0
    4.5360   25.2810   19.2860 C   0  0  0  0  0
    4.4370   26.5740   18.7580 C   0  0  0  0  0
    5.6220   24.3690   19.2270 N   0  0  0  0  0
    6.9290   24.5960   18.5960 C   0  0  0  0  0
    6.8700   24.2440   17.1430 C   0  0  0  0  0
    7.1540   24.9540   16.0390 C   0  0  0  0  0
    7.6300   26.3670   15.8900 C   0  0  0  0  0
    6.9430   24.1820   14.9140 O   0  0  0  0  0
    6.4580   22.9710   16.6950 N   0  0  0  0  0
    6.5170   22.9690   15.3210 C   0  0  0  0  0
    6.1750   21.8420   14.4770 C   0  0  0  0  0
    6.3860   21.8500   13.0830 C   0  0  0  0  0
    7.0720   23.2420   12.2750 Cl  0  0  0  0  0
    6.0550   20.7330   12.3140 C   0  0  0  0  0
    5.5110   19.6080   12.9190 C   0  0  0  0  0
    5.2930   19.5900   14.2990 C   0  0  0  0  0
    5.6210   20.6950   15.0690 C   0  0  0  0  0
   -0.0931   29.7624   15.6936 H   0  0  0  0  0
    1.3838   28.8066   15.4175 H   0  0  0  0  0
   -0.1073   28.4196   14.5242 H   0  0  0  0  0
    0.2749   26.8125   16.3656 H   0  0  0  0  0
   -1.2081   27.7723   16.6429 H   0  0  0  0  0
   -0.0745   26.3828   18.5359 H   0  0  0  0  0
   -1.0225   29.5287   18.8948 H   0  0  0  0  0
    0.5058   27.0405   20.9530 H   0  0  0  0  0
    1.2570   28.5099   20.2231 H   0  0  0  0  0
    3.1433   28.2779   18.6238 H   0  0  0  0  0
    1.5240   24.9429   20.8323 H   0  0  0  0  0
    3.3656   22.6369   20.9626 H   0  0  0  0  0
    5.8080   22.2981   20.0475 H   0  0  0  0  0
    5.2446   27.0150   18.1737 H   0  0  0  0  0
    7.6747   23.9690   19.0848 H   0  0  0  0  0
    7.1961   25.6479   18.6975 H   0  0  0  0  0
    6.8969   27.0441   16.3283 H   0  0  0  0  0
    8.5853   26.4831   16.4018 H   0  0  0  0  0
    7.7528   26.5980   14.8319 H   0  0  0  0  0
    6.2238   20.7440   11.2372 H   0  0  0  0  0
    5.2535   18.7371   12.3162 H   0  0  0  0  0
    4.8644   18.7058   14.7708 H   0  0  0  0  0
    5.4472   20.6736   16.1448 H   0  0  0  0  0
  1  2  1  0  0  0
  2  3  1  0  0  0
  3  4  1  0  0  0
  4  5  1  0  0  0
  4  8  1  0  0  0
  5  6  2  0  0  0
  5  7  1  0  0  0
  8  9  1  0  0  0
  9 10  4  0  0  0
  9 11  4  0  0  0
 10 16  4  0  0  0
 11 12  4  0  0  0
 12 13  4  0  0  0
 12 15  4  0  0  0
 13 14  4  0  0  0
 14 17  4  0  0  0
 15 16  4  0  0  0
 15 17  4  0  0  0
 17 18  1  0  0  0
 18 19  1  0  0  0
 19 20  4  0  0  0
 19 23  4  0  0  0
 20 21  1  0  0  0
 20 22  4  0  0  0
 22 24  4  0  0  0
 23 24  4  0  0  0
 24 25  1  0  0  0
 25 26  4  0  0  0
 25 31  4  0  0  0
 26 27  1  0  0  0
 26 28  4  0  0  0
 28 29  4  0  0  0
 29 30  4  0  0  0
 30 31  4  0  0  0
  1 32  1  0  0  0
  1 33  1  0  0  0
  1 34  1  0  0  0
  2 35  1  0  0  0
  2 36  1  0  0  0
  4 37  1  0  0  0
  7 38  1  0  0  0
  8 39  1  0  0  0
  8 40  1  0  0  0
 10 41  1  0  0  0
 11 42  1  0  0  0
 13 43  1  0  0  0
 14 44  1  0  0  0
 16 45  1  0  0  0
 18 46  1  0  0  0
 18 47  1  0  0  0
 21 48  1  0  0  0
 21 49  1  0  0  0
 21 50  1  0  0  0
 28 51  1  0  0  0
 29 52  1  0  0  0
 30 53  1  0  0  0
 31 54  1  0  0  0
M  END
$$$$
