5fck_ligand
  -I-interpret- 

 56 60  0  0  0  0  0  0  0  0999 V2000
   -2.0840  -10.3960   10.8650 C   0  0  0  0  0
   -0.6990  -10.1930   11.5590 C   0  0  0  0  0
   -2.0260   -9.6610    9.5200 C   0  0  0  0  0
    4.6810  -10.9560   10.4480 C   0  0  0  0  0
   -0.2660   -8.3170    8.5340 C   0  0  0  0  0
   -1.3070   -7.9980    7.5220 C   0  0  0  0  0
   -0.1140   -7.2790    5.4410 C   0  0  0  0  0
    0.1790   -6.1300    4.7180 C   0  0  0  0  0
   -0.4580   -5.0960    5.5800 C   0  0  0  0  0
    0.3390   -8.5750    5.0040 C   0  0  0  0  0
    1.3680   -7.4550    3.1170 C   0  0  0  0  0
    0.9350   -6.1480    3.5080 C   0  0  0  0  0
   -0.4810   -3.6740    5.2610 C   0  0  0  0  0
    5.3110   -9.8070   10.9090 C   0  0  0  0  0
    6.4800   -9.3650   10.3550 C   0  0  0  0  0
    7.1070  -10.0780    9.3340 C   0  0  0  0  0
    6.4800  -11.2250    8.8500 C   0  0  0  0  0
   -0.6580   -9.1370    9.5160 N   0  0  0  0  0
    0.2550   -9.3890   10.6160 C   0  0  0  0  0
    1.3890  -10.3340   10.2700 C   0  0  0  0  0
    2.3100  -10.4810   11.2290 N   0  0  0  0  0
    1.3600  -10.9490    9.2250 O   0  0  0  0  0
    3.3990  -11.4470   11.1140 C   0  0  0  0  0
    3.6320  -11.9490   12.5840 C   0  0  0  0  0
   -0.7990   -6.9840    6.5890 N   0  0  0  0  0
    0.8550   -7.7990    8.4610 O   0  0  0  0  0
   -1.0600   -5.6620    6.5890 N   0  0  0  0  0
    1.0600   -8.5930    3.8440 N   0  0  0  0  0
   -1.4390   -2.8520    5.8350 N   0  0  0  0  0
    0.3240   -3.2930    4.4410 O   0  0  0  0  0
    5.2650  -11.6940    9.4160 C   0  0  0  0  0
    4.7850   -9.1140   11.9090 F   0  0  0  0  0
    7.1790   -7.9020   11.0620 Cl  0  0  0  0  0
   -2.9240   -9.1280   10.6380 C   0  0  0  0  0
   -2.3428  -11.3775   11.2623 H   0  0  0  0  0
   -0.2574  -11.1664   11.7726 H   0  0  0  0  0
   -0.8392   -9.6384   12.4868 H   0  0  0  0  0
   -2.2301   -9.8109    8.4598 H   0  0  0  0  0
   -2.1934   -7.6126    8.0258 H   0  0  0  0  0
   -1.5609   -8.9021    6.9686 H   0  0  0  0  0
    0.1201   -9.4842    5.5640 H   0  0  0  0  0
    1.9642   -7.5590    2.2105 H   0  0  0  0  0
    1.1618   -5.2493    2.9344 H   0  0  0  0  0
    8.0618   -9.7474    8.9253 H   0  0  0  0  0
    6.9306  -11.7720    8.0218 H   0  0  0  0  0
    0.7214   -8.4735   10.9798 H   0  0  0  0  0
    2.2497   -9.9008   12.0658 H   0  0  0  0  0
    3.1092  -12.2393   10.4238 H   0  0  0  0  0
    3.9017  -11.1035   13.2169 H   0  0  0  0  0
    2.7173  -12.4080   12.9591 H   0  0  0  0  0
    4.4381  -12.6826   12.5926 H   0  0  0  0  0
   -1.4915   -1.8682    5.5707 H   0  0  0  0  0
   -2.0912   -3.2311    6.5215 H   0  0  0  0  0
    4.7984  -12.6098    9.0530 H   0  0  0  0  0
   -3.1300   -8.1830   11.1407 H   0  0  0  0  0
   -3.9532   -8.7945   10.7710 H   0  0  0  0  0
  2  1  1  0  0  0
  3  1  1  0  0  0
  1 34  1  0  0  0
 19  2  1  0  0  0
 18  3  1  0  0  0
  3 34  1  0  0  0
  4 14  4  0  0  0
 23  4  1  0  0  0
  4 31  4  0  0  0
  5  6  1  0  0  0
 18  5  1  0  0  0
  5 26  2  0  0  0
  6 25  1  0  0  0
  7  8  4  0  0  0
  7 10  4  0  0  0
 25  7  4  0  0  0
  8  9  4  0  0  0
  8 12  4  0  0  0
  9 13  1  0  0  0
  9 27  4  0  0  0
 10 28  4  0  0  0
 12 11  4  0  0  0
 28 11  4  0  0  0
 13 29  1  0  0  0
 13 30  2  0  0  0
 14 15  4  0  0  0
 14 32  1  0  0  0
 15 16  4  0  0  0
 15 33  1  0  0  0
 17 16  4  0  0  0
 31 17  4  0  0  0
 19 18  1  0  0  0
 20 19  1  0  0  0
 21 20  1  0  0  0
 20 22  2  0  0  0
 21 23  1  0  0  0
 23 24  1  0  0  0
 25 27  4  0  0  0
  1 35  1  0  0  0
  2 36  1  0  0  0
  2 37  1  0  0  0
  3 38  1  0  0  0
  6 39  1  0  0  0
  6 40  1  0  0  0
 10 41  1  0  0  0
 11 42  1  0  0  0
 12 43  1  0  0  0
 16 44  1  0  0  0
 17 45  1  0  0  0
 19 46  1  0  0  0
 21 47  1  0  0  0
 23 48  1  0  0  0
 24 49  1  0  0  0
 24 50  1  0  0  0
 24 51  1  0  0  0
 29 52  1  0  0  0
 29 53  1  0  0  0
 31 54  1  0  0  0
 34 55  1  0  0  0
 34 56  1  0  0  0
M  END
$$$$
