4gs9_ligand
  -I-interpret- 

 27 29  0  0  0  0  0  0  0  0999 V2000
   16.5630  -43.5160   10.8670 C   0  0  0  0  0
   15.2770  -43.1510   11.2620 C   0  0  0  0  0
   17.3750  -42.6420   10.1560 C   0  0  0  0  0
   16.8640  -41.3780    9.8650 C   0  0  0  0  0
   17.6050  -40.5150    9.1890 F   0  0  0  0  0
   15.5890  -40.9980   10.2670 C   0  0  0  0  0
   14.7920  -41.8970   10.9580 C   0  0  0  0  0
   13.5230  -41.5070   11.3700 N   0  0  0  0  0
   12.4620  -41.3320   10.5160 C   0  0  0  0  0
   11.2050  -40.9320   10.9230 C   0  0  0  0  0
   10.9060  -40.6540   12.3570 N   0  0  0  0  0
    9.7950  -40.3090   12.6800 O   0  0  0  0  0
   11.7950  -40.7810   13.1520 O   0  0  0  0  0
   12.7000  -41.5690    9.1140 C   0  0  0  0  0
   11.7370  -41.4510    8.1610 C   0  0  0  0  0
   10.4210  -41.0370    8.5550 C   0  0  0  0  0
   10.1480  -40.7740    9.9580 C   0  0  0  0  0
    9.2670  -40.8000    7.8710 N   0  0  0  0  0
    8.3660  -40.4320    8.7800 O   0  0  0  0  0
    8.8440  -40.3890   10.0250 N   0  0  0  0  0
   16.9388  -44.5071   11.1212 H   0  0  0  0  0
   14.6547  -43.8574   11.8114 H   0  0  0  0  0
   18.3756  -42.9338    9.8370 H   0  0  0  0  0
   15.2179  -39.9985   10.0401 H   0  0  0  0  0
   13.3710  -41.3411   12.3649 H   0  0  0  0  0
   13.7036  -41.8577    8.8017 H   0  0  0  0  0
   11.9610  -41.6671    7.1164 H   0  0  0  0  0
  1  2  4  0  0  0
  1  3  4  0  0  0
  2  7  4  0  0  0
  3  4  4  0  0  0
  4  5  1  0  0  0
  4  6  4  0  0  0
  6  7  4  0  0  0
  7  8  1  0  0  0
  8  9  1  0  0  0
  9 10  4  0  0  0
  9 14  4  0  0  0
 10 11  1  0  0  0
 10 17  4  0  0  0
 11 12  2  0  0  0
 11 13  2  0  0  0
 14 15  4  0  0  0
 15 16  4  0  0  0
 16 17  4  0  0  0
 16 18  4  0  0  0
 17 20  4  0  0  0
 18 19  4  0  0  0
 19 20  4  0  0  0
  1 21  1  0  0  0
  2 22  1  0  0  0
  3 23  1  0  0  0
  6 24  1  0  0  0
  8 25  1  0  0  0
 14 26  1  0  0  0
 15 27  1  0  0  0
M  END
$$$$
