3zbf_ligand
  -I-interpret- 

 53 56  0  0  0  0  0  0  0  0999 V2000
   41.4600   21.4450    3.2060 Cl  0  0  0  0  0
   40.3420   20.1510    3.4690 C   0  0  0  0  0
   40.0390   19.3390    2.3330 C   0  0  0  0  0
   39.1350   18.2580    2.4320 C   0  0  0  0  0
   38.5080   17.9570    3.6690 C   0  0  0  0  0
   37.6510   16.9220    3.7270 F   0  0  0  0  0
   39.7230   19.8750    4.7590 C   0  0  0  0  0
   38.7880   18.7480    4.8360 C   0  0  0  0  0
   37.9600   18.2860    6.3050 Cl  0  0  0  0  0
   40.0620   20.7830    6.0110 C   0  0  0  0  0
   38.7710   21.3840    6.6080 C   0  0  0  0  0
   40.7530   20.0750    7.1250 O   0  0  0  0  0
   42.0160   19.4720    7.0310 C   0  0  0  0  0
   42.9670   19.7760    6.0040 C   0  0  0  0  0
   42.4430   18.5050    8.0060 C   0  0  0  0  0
   41.5780   18.1490    9.0610 N   0  0  0  0  0
   43.6680   17.8940    7.9860 N   0  0  0  0  0
   44.5480   18.2140    6.9790 C   0  0  0  0  0
   44.2460   19.1580    5.9510 C   0  0  0  0  0
   45.1930   19.5290    4.8290 C   0  0  0  0  0
   46.6310   19.2940    4.6930 C   0  0  0  0  0
   44.8370   20.1960    3.6750 C   0  0  0  0  0
   46.0030   20.3180    2.9540 N   0  0  0  0  0
   47.0190   19.7900    3.5610 N   0  0  0  0  0
   46.0420   20.9830    1.6340 C   0  0  0  0  0
   45.7700   19.9380    0.5180 C   0  0  0  0  0
   45.8050   20.6330   -0.8630 C   0  0  0  0  0
   47.0630   21.4040   -1.0880 N   0  3  0  0  0
   47.3610   22.3760    0.0080 C   0  0  0  0  0
   47.3910   21.6990    1.3990 C   0  0  0  0  0
   40.5125   19.5569    1.3757 H   0  0  0  0  0
   38.9177   17.6514    1.5529 H   0  0  0  0  0
   40.7369   21.5420    5.6155 H   0  0  0  0  0
   38.1490   20.5824    7.0063 H   0  0  0  0  0
   39.0306   22.0763    7.4089 H   0  0  0  0  0
   38.2253   21.9160    5.8287 H   0  0  0  0  0
   42.7014   20.5048    5.2383 H   0  0  0  0  0
   40.6546   18.5768    9.1298 H   0  0  0  0  0
   41.8756   17.4637    9.7554 H   0  0  0  0  0
   45.5216   17.7242    6.9648 H   0  0  0  0  0
   47.2667   18.7882    5.4198 H   0  0  0  0  0
   43.8451   20.5503    3.3945 H   0  0  0  0  0
   45.2645   21.7465    1.6085 H   0  0  0  0  0
   44.7887   19.4896    0.6731 H   0  0  0  0  0
   46.5357   19.1630    0.5530 H   0  0  0  0  0
   44.9709   21.3333   -0.9065 H   0  0  0  0  0
   45.7450   19.8595   -1.6286 H   0  0  0  0  0
   46.9497   21.9359   -1.9509 H   0  0  0  0  0
   47.8327   20.7358   -1.1267 H   0  0  0  0  0
   46.5740   23.1301    0.0152 H   0  0  0  0  0
   48.3441   22.8075   -0.1800 H   0  0  0  0  0
   48.2051   20.9754    1.4400 H   0  0  0  0  0
   47.5496   22.4508    2.1722 H   0  0  0  0  0
  1  2  1  0  0  0
  2  3  4  0  0  0
  2  7  4  0  0  0
  3  4  4  0  0  0
  4  5  4  0  0  0
  5  6  1  0  0  0
  5  8  4  0  0  0
  7  8  4  0  0  0
  7 10  1  0  0  0
  8  9  1  0  0  0
 10 11  1  0  0  0
 10 12  1  0  0  0
 12 13  1  0  0  0
 13 14  4  0  0  0
 13 15  4  0  0  0
 14 19  4  0  0  0
 15 16  1  0  0  0
 15 17  4  0  0  0
 17 18  4  0  0  0
 18 19  4  0  0  0
 19 20  1  0  0  0
 20 21  4  0  0  0
 20 22  4  0  0  0
 21 24  4  0  0  0
 22 23  4  0  0  0
 23 24  4  0  0  0
 23 25  1  0  0  0
 25 26  1  0  0  0
 25 30  1  0  0  0
 26 27  1  0  0  0
 27 28  1  0  0  0
 28 29  1  0  0  0
 29 30  1  0  0  0
  3 31  1  0  0  0
  4 32  1  0  0  0
 10 33  1  0  0  0
 11 34  1  0  0  0
 11 35  1  0  0  0
 11 36  1  0  0  0
 14 37  1  0  0  0
 16 38  1  0  0  0
 16 39  1  0  0  0
 18 40  1  0  0  0
 21 41  1  0  0  0
 22 42  1  0  0  0
 25 43  1  0  0  0
 26 44  1  0  0  0
 26 45  1  0  0  0
 27 46  1  0  0  0
 27 47  1  0  0  0
 28 48  1  0  0  0
 28 49  1  0  0  0
 29 50  1  0  0  0
 29 51  1  0  0  0
 30 52  1  0  0  0
 30 53  1  0  0  0
M  END
$$$$
