5dyy_ligand
  -I-interpret- 

 55 58  0  0  0  0  0  0  0  0999 V2000
    1.3770  -11.3970  -19.6520 C   0  0  0  0  0
    1.3120  -10.3470  -18.7350 C   0  0  0  0  0
    7.5600   -5.5250  -13.4800 C   0  0  0  0  0
    5.5080   -4.9170  -14.6240 C   0  0  0  0  0
    1.6990  -12.6870  -19.2450 C   0  0  0  0  0
    1.5560  -10.5950  -17.3850 C   0  0  0  0  0
    4.9440   -6.1330  -14.2490 C   0  0  0  0  0
    2.4730  -14.4420  -16.1280 C   0  0  0  0  0
    2.0960  -12.1160  -15.5890 C   0  0  0  0  0
    1.8650  -11.8790  -16.9460 C   0  0  0  0  0
    2.4130  -13.4150  -15.1880 C   0  0  0  0  0
    6.1690  -12.1150  -14.1300 C   0  0  0  0  0
    6.8460   -9.6730  -14.4960 C   0  0  0  0  0
    5.8200  -10.4900  -12.3670 C   0  0  0  0  0
    5.1330  -11.5440  -13.1830 C   0  0  0  0  0
    1.9360  -12.9230  -17.8850 C   0  0  0  0  0
    2.2430  -14.2150  -17.4740 C   0  0  0  0  0
    2.7210  -13.8580  -13.5060 S   0  0  0  0  0
    1.5300  -14.6150  -12.9500 O   0  0  0  0  0
    3.8930  -14.8360  -13.4070 O   0  0  0  0  0
    3.0510  -12.6220  -12.6220 N   0  0  0  0  0
    4.4960  -12.5780  -12.2640 C   0  0  0  0  0
    6.3950  -10.9890  -15.1700 C   0  0  0  0  0
    6.1520   -9.3340  -13.2070 N   0  3  0  0  0
    5.1190   -8.2730  -13.1390 C   0  0  0  0  0
    5.6800   -7.0430  -13.4860 C   0  0  0  0  0
    6.9880   -6.7330  -13.0980 C   0  0  0  0  0
    6.8180   -4.6190  -14.2370 C   0  0  0  0  0
    1.1719  -11.2026  -20.7047 H   0  0  0  0  0
    1.0718   -9.3387  -19.0724 H   0  0  0  0  0
    8.5833   -5.2872  -13.1893 H   0  0  0  0  0
    4.9333   -4.2033  -15.2143 H   0  0  0  0  0
    1.7656  -13.4983  -19.9699 H   0  0  0  0  0
    1.5043   -9.7763  -16.6672 H   0  0  0  0  0
    3.9254   -6.3760  -14.5514 H   0  0  0  0  0
    2.7077  -15.4527  -15.7939 H   0  0  0  0  0
    2.0304  -11.3070  -14.8615 H   0  0  0  0  0
    5.8347  -13.0427  -14.5944 H   0  0  0  0  0
    7.0895  -12.3902  -13.6152 H   0  0  0  0  0
    6.6109   -8.8704  -15.1950 H   0  0  0  0  0
    7.9026   -9.7936  -14.2567 H   0  0  0  0  0
    6.7385  -10.9038  -11.9508 H   0  0  0  0  0
    5.1541  -10.1690  -11.5659 H   0  0  0  0  0
    4.3113  -11.1432  -13.7765 H   0  0  0  0  0
    2.3013  -15.0305  -18.1949 H   0  0  0  0  0
    2.3644  -11.9288  -12.3248 H   0  0  0  0  0
    4.6323  -12.3084  -11.2167 H   0  0  0  0  0
    4.9613  -13.5554  -12.3916 H   0  0  0  0  0
    5.4538  -10.8053  -15.6882 H   0  0  0  0  0
    7.1771  -11.3085  -15.8587 H   0  0  0  0  0
    6.9376   -8.8268  -12.7995 H   0  0  0  0  0
    4.7272   -8.2164  -12.1234 H   0  0  0  0  0
    4.3131   -8.5100  -13.8336 H   0  0  0  0  0
    7.5591   -7.4394  -12.4956 H   0  0  0  0  0
    7.2640   -3.6686  -14.5301 H   0  0  0  0  0
  2  1  4  0  0  0
  5  1  4  0  0  0
  6  2  4  0  0  0
  3 27  4  0  0  0
 28  3  4  0  0  0
  7  4  4  0  0  0
  4 28  4  0  0  0
 16  5  4  0  0  0
 10  6  4  0  0  0
 26  7  4  0  0  0
 11  8  4  0  0  0
  8 17  4  0  0  0
  9 10  4  0  0  0
 11  9  4  0  0  0
 10 16  4  0  0  0
 18 11  1  0  0  0
 15 12  1  0  0  0
 23 12  1  0  0  0
 13 23  1  0  0  0
 24 13  1  0  0  0
 14 15  1  0  0  0
 24 14  1  0  0  0
 15 22  1  0  0  0
 17 16  4  0  0  0
 18 19  2  0  0  0
 18 20  2  0  0  0
 21 18  1  0  0  0
 22 21  1  0  0  0
 25 24  1  0  0  0
 25 26  1  0  0  0
 26 27  4  0  0  0
  1 29  1  0  0  0
  2 30  1  0  0  0
  3 31  1  0  0  0
  4 32  1  0  0  0
  5 33  1  0  0  0
  6 34  1  0  0  0
  7 35  1  0  0  0
  8 36  1  0  0  0
  9 37  1  0  0  0
 12 38  1  0  0  0
 12 39  1  0  0  0
 13 40  1  0  0  0
 13 41  1  0  0  0
 14 42  1  0  0  0
 14 43  1  0  0  0
 15 44  1  0  0  0
 17 45  1  0  0  0
 21 46  1  0  0  0
 22 47  1  0  0  0
 22 48  1  0  0  0
 23 49  1  0  0  0
 23 50  1  0  0  0
 24 51  1  0  0  0
 25 52  1  0  0  0
 25 53  1  0  0  0
 27 54  1  0  0  0
 28 55  1  0  0  0
M  END
$$$$
