2q11_ligand
  -I-interpret- 

 61 64  0  0  0  0  0  0  0  0999 V2000
  197.9170    8.7920   21.0780 C   0  0  0  0  0
  198.3070    7.4450   20.6090 N   0  0  0  0  0
  199.0590    6.6020   21.4310 C   0  0  0  0  0
  199.3820    5.5000   21.0540 O   0  0  0  0  0
  199.4830    7.0330   22.8000 C   0  0  0  0  0
  198.5970    6.3740   23.8740 C   0  0  0  0  0
  197.3700    5.7670   23.2910 N   0  0  0  0  0
  196.1360    6.6190   23.1140 C   0  0  0  0  0
  195.0370    5.8770   22.3720 C   0  0  0  0  0
  193.9290    6.5660   21.8920 C   0  0  0  0  0
  192.8930    5.8520   21.1880 C   0  0  0  0  0
  191.6870    6.5780   20.6750 C   0  0  0  0  0
  190.5910    6.2720   21.1100 O   0  0  0  0  0
  191.8020    7.6840   19.6530 C   0  0  0  0  0
  193.0710    8.0510   19.0970 C   0  0  0  0  0
  193.1490    9.0940   18.1460 C   0  0  0  0  0
  191.9800    9.7780   17.7390 C   0  0  0  0  0
  190.7250    9.4270   18.2790 C   0  0  0  0  0
  190.6280    8.3840   19.2260 C   0  0  0  0  0
  193.0160    4.4320   20.9880 C   0  0  0  0  0
  194.1280    3.7460   21.4740 C   0  0  0  0  0
  195.1520    4.4480   22.1700 C   0  0  0  0  0
  196.2320    3.7750   22.6490 N   0  0  0  0  0
  197.3650    4.3940   22.9370 C   0  0  0  0  0
  198.5550    3.6860   22.9020 N   0  0  0  0  0
  197.8690    7.0100   19.2450 C   0  0  0  0  0
  199.0500    6.3720   18.4500 C   0  0  0  0  0
  198.5660    5.8260   17.0960 C   0  0  0  0  0
  197.4500    4.7890   17.3270 C   0  0  0  0  0
  196.2520    5.4820   17.9990 C   0  0  0  0  0
  196.6790    6.0130   19.3790 C   0  0  0  0  0
  198.3241    9.5430   20.4010 H   0  0  0  0  0
  196.8298    8.8684   21.0960 H   0  0  0  0  0
  198.3106    8.9540   22.0815 H   0  0  0  0  0
  199.3841    8.1158   22.8760 H   0  0  0  0  0
  200.5177    6.7304   22.9611 H   0  0  0  0  0
  198.2920    7.1439   24.5828 H   0  0  0  0  0
  199.1739    5.5825   24.3523 H   0  0  0  0  0
  196.4086    7.4985   22.5307 H   0  0  0  0  0
  195.7609    6.8868   24.1018 H   0  0  0  0  0
  193.8439    7.6415   22.0473 H   0  0  0  0  0
  193.9748    7.5265   19.4071 H   0  0  0  0  0
  194.1148    9.3724   17.7244 H   0  0  0  0  0
  192.0491   10.5803   17.0044 H   0  0  0  0  0
  189.8287    9.9617   17.9648 H   0  0  0  0  0
  189.6549    8.1104   19.6339 H   0  0  0  0  0
  192.2356    3.8901   20.4537 H   0  0  0  0  0
  194.2134    2.6702   21.3207 H   0  0  0  0  0
  198.5525    2.6962   22.6557 H   0  0  0  0  0
  199.4338    4.1545   23.1225 H   0  0  0  0  0
  197.5395    7.8840   18.6831 H   0  0  0  0  0
  199.4621    5.5488   19.0336 H   0  0  0  0  0
  199.8060    7.1364   18.2705 H   0  0  0  0  0
  199.3994    5.3522   16.5774 H   0  0  0  0  0
  198.1790    6.6465   16.4917 H   0  0  0  0  0
  197.8191    3.9893   17.9691 H   0  0  0  0  0
  197.1402    4.3642   16.3722 H   0  0  0  0  0
  195.4378    4.7673   18.1193 H   0  0  0  0  0
  195.9150    6.3116   17.3774 H   0  0  0  0  0
  195.8347    6.5327   19.8320 H   0  0  0  0  0
  196.9933    5.1720   19.9971 H   0  0  0  0  0
  1  2  1  0  0  0
  2  3  1  0  0  0
  2 26  1  0  0  0
  3  4  2  0  0  0
  3  5  1  0  0  0
  5  6  1  0  0  0
  6  7  1  0  0  0
  7  8  1  0  0  0
  7 24  1  0  0  0
  8  9  1  0  0  0
  9 10  4  0  0  0
  9 22  4  0  0  0
 10 11  4  0  0  0
 11 12  1  0  0  0
 11 20  4  0  0  0
 12 13  2  0  0  0
 12 14  1  0  0  0
 14 15  4  0  0  0
 14 19  4  0  0  0
 15 16  4  0  0  0
 16 17  4  0  0  0
 17 18  4  0  0  0
 18 19  4  0  0  0
 20 21  4  0  0  0
 21 22  4  0  0  0
 22 23  1  0  0  0
 23 24  2  0  0  0
 24 25  1  0  0  0
 26 27  1  0  0  0
 26 31  1  0  0  0
 27 28  1  0  0  0
 28 29  1  0  0  0
 29 30  1  0  0  0
 30 31  1  0  0  0
  1 32  1  0  0  0
  1 33  1  0  0  0
  1 34  1  0  0  0
  5 35  1  0  0  0
  5 36  1  0  0  0
  6 37  1  0  0  0
  6 38  1  0  0  0
  8 39  1  0  0  0
  8 40  1  0  0  0
 10 41  1  0  0  0
 15 42  1  0  0  0
 16 43  1  0  0  0
 17 44  1  0  0  0
 18 45  1  0  0  0
 19 46  1  0  0  0
 20 47  1  0  0  0
 21 48  1  0  0  0
 25 49  1  0  0  0
 25 50  1  0  0  0
 26 51  1  0  0  0
 27 52  1  0  0  0
 27 53  1  0  0  0
 28 54  1  0  0  0
 28 55  1  0  0  0
 29 56  1  0  0  0
 29 57  1  0  0  0
 30 58  1  0  0  0
 30 59  1  0  0  0
 31 60  1  0  0  0
 31 61  1  0  0  0
M  END
$$$$
