4b83_ligand
  -I-interpret- 

 42 42  0  0  0  0  0  0  0  0999 V2000
   29.9260   20.2600   13.3330 N   0  0  0  0  0
   28.2500   19.1570   11.8060 O   0  0  0  0  0
   29.6190   19.5030   11.8910 S   0  0  0  0  0
   33.6530   20.9430    8.8260 C   0  0  0  0  0
   27.2190   20.0150   14.6500 N   0  3  0  0  0
   30.5870   18.4620   11.8340 O   0  0  0  0  0
   30.5390   22.6130    8.7230 C   0  0  0  0  0
   31.5370   21.8740    9.3010 C   0  0  0  0  0
   31.3070   20.8980   10.2910 C   0  0  0  0  0
   28.1600   21.1690   14.9350 C   0  0  0  0  0
   29.9670   20.6500   10.7080 C   0  0  0  0  0
   28.9740   21.4190   10.1060 C   0  0  0  0  0
   29.2290   22.3750    9.1380 C   0  0  0  0  0
   29.0630   21.4260   13.7010 C   0  0  0  0  0
   27.6120   17.9420   16.0480 C   0  0  0  0  0
   26.8590   19.2640   15.9290 C   0  0  0  0  0
   32.8630   22.0930    8.9160 O   0  0  0  0  0
   25.9780   20.5330   14.0530 C   0  0  0  0  0
   25.0190   19.3840   13.8790 C   0  0  0  0  0
   30.6759   19.9427   13.9474 H   0  0  0  0  0
   33.6880   20.4508    9.7979 H   0  0  0  0  0
   33.2226   20.2648    8.0892 H   0  0  0  0  0
   34.6621   21.2199    8.5210 H   0  0  0  0  0
   27.6913   19.3752   14.0112 H   0  0  0  0  0
   30.7614   23.3626    7.9635 H   0  0  0  0  0
   32.1372   20.3439   10.7290 H   0  0  0  0  0
   28.7843   20.9219   15.7937 H   0  0  0  0  0
   27.5775   22.0652   15.1487 H   0  0  0  0  0
   27.9406   21.2594   10.4137 H   0  0  0  0  0
   28.4068   22.9412    8.7005 H   0  0  0  0  0
   28.4073   21.6262   12.8536 H   0  0  0  0  0
   29.7250   22.2557   13.9489 H   0  0  0  0  0
   27.3637   17.3061   15.1982 H   0  0  0  0  0
   28.6846   18.1358   16.0572 H   0  0  0  0  0
   27.3237   17.4431   16.9733 H   0  0  0  0  0
   25.7911   19.0468   15.9072 H   0  0  0  0  0
   27.1320   19.8891   16.7792 H   0  0  0  0  0
   26.1913   20.9907   13.0870 H   0  0  0  0  0
   25.5391   21.2903   14.7026 H   0  0  0  0  0
   25.4652   18.6361   13.2236 H   0  0  0  0  0
   24.8083   18.9379   14.8510 H   0  0  0  0  0
   24.0922   19.7497   13.4371 H   0  0  0  0  0
  1  3  1  0  0  0
 14  1  1  0  0  0
  3  2  2  0  0  0
  3  6  2  0  0  0
  3 11  1  0  0  0
 17  4  1  0  0  0
 10  5  1  0  0  0
  5 16  1  0  0  0
  5 18  1  0  0  0
  8  7  4  0  0  0
  7 13  4  0  0  0
  9  8  4  0  0  0
  8 17  1  0  0  0
 11  9  4  0  0  0
 10 14  1  0  0  0
 11 12  4  0  0  0
 12 13  4  0  0  0
 16 15  1  0  0  0
 18 19  1  0  0  0
  1 20  1  0  0  0
  4 21  1  0  0  0
  4 22  1  0  0  0
  4 23  1  0  0  0
  5 24  1  0  0  0
  7 25  1  0  0  0
  9 26  1  0  0  0
 10 27  1  0  0  0
 10 28  1  0  0  0
 12 29  1  0  0  0
 13 30  1  0  0  0
 14 31  1  0  0  0
 14 32  1  0  0  0
 15 33  1  0  0  0
 15 34  1  0  0  0
 15 35  1  0  0  0
 16 36  1  0  0  0
 16 37  1  0  0  0
 18 38  1  0  0  0
 18 39  1  0  0  0
 19 40  1  0  0  0
 19 41  1  0  0  0
 19 42  1  0  0  0
M  END
$$$$
