6q9l_ligand
  -I-interpret- 

 87 92  0  0  0  0  0  0  0  0999 V2000
   13.6610   11.9710    5.7320 C   0  0  0  0  0
   12.9020   14.0350    5.6860 C   0  0  0  0  0
   13.1140   12.1380    4.4620 C   0  0  0  0  0
   13.6830    9.9120    3.9220 C   0  0  0  0  0
   11.8130   14.0070    3.3020 C   0  0  0  0  0
   10.0050   14.6290    2.2340 C   0  0  0  0  0
   12.1380   14.2120    2.0090 C   0  0  0  0  0
   13.4420   14.1470    1.3300 C   0  0  0  0  0
   13.4610   14.0490   -0.0700 C   0  0  0  0  0
   14.6990   14.0030   -0.7250 C   0  0  0  0  0
   15.8950   14.1150   -0.0260 C   0  0  0  0  0
   15.8530   14.2370    1.3710 C   0  0  0  0  0
   14.9130    8.1840    5.6250 Cl  0  0  0  0  0
   14.2330    9.7360    5.1920 C   0  0  0  0  0
   14.2460   10.7540    6.1490 C   0  0  0  0  0
   13.4940   13.1100    6.4270 N   0  0  0  0  0
   12.5990   13.5350    4.4470 C   0  0  0  0  0
   13.1060   11.1190    3.5180 C   0  0  0  0  0
   10.4770   14.2550    3.4200 N   0  0  0  0  0
   10.9340   14.6300    1.3700 N   0  0  0  0  0
   14.6300   14.2290    2.0190 C   0  0  0  0  0
    9.6480   14.1740    4.6190 C   0  0  0  0  0
    9.5660   12.7800    5.2330 C   0  0  0  0  0
    9.3870   12.5750    6.6060 C   0  0  0  0  0
    9.3030   11.2720    7.0760 C   0  0  0  0  0
    9.3670   10.1970    6.2180 C   0  0  0  0  0
    9.5910   10.3650    4.8700 C   0  0  0  0  0
    9.6640   11.6780    4.3840 C   0  0  0  0  0
    9.2340    8.6050    6.8890 Cl  0  0  0  0  0
    9.2800   13.7680    7.5610 C   0  0  0  0  0
    8.1770   14.6060    7.1810 O   0  0  0  0  0
   12.5690   15.3190    6.3110 C   0  0  0  0  0
   12.4660   15.3070    7.5710 O   0  0  0  0  0
   12.2830   16.4280    5.6230 N   0  0  0  0  0
   12.5110   16.7120    4.2270 C   0  0  0  0  0
   12.9060   18.2190    4.2590 C   0  0  0  0  0
   11.8380   18.7070    5.2370 C   0  0  0  0  0
   11.8990   17.6490    6.3530 C   0  0  0  0  0
   12.8000   18.7980    2.9050 N   0  3  0  0  0
   13.8140   18.2100    2.0230 C   0  0  0  0  0
   13.5100   18.5040    0.5390 C   0  0  0  0  0
   14.5040   17.7040   -0.3220 C   0  0  0  0  0
   14.3590   17.9100   -1.7800 N   0  3  0  0  0
   13.0790   17.3570   -2.3070 C   0  0  0  0  0
   15.5010   17.3800   -2.5700 C   0  0  0  0  0
   12.9550   20.2630    2.9890 C   0  0  0  0  0
   13.7041    9.0785    3.2199 H   0  0  0  0  0
    8.9676   14.8966    2.0330 H   0  0  0  0  0
   12.5308   14.0094   -0.6368 H   0  0  0  0  0
   14.7245   13.8765   -1.8073 H   0  0  0  0  0
   16.8487   14.1082   -0.5538 H   0  0  0  0  0
   16.7763   14.3373    1.9416 H   0  0  0  0  0
   14.6749   10.6197    7.1420 H   0  0  0  0  0
   12.6768   11.2524    2.5250 H   0  0  0  0  0
   14.6074   14.2894    3.1071 H   0  0  0  0  0
    8.6360   14.4565    4.3287 H   0  0  0  0  0
   10.0996   14.8271    5.3657 H   0  0  0  0  0
    9.1840   11.0961    8.1451 H   0  0  0  0  0
    9.7073    9.5090    4.2053 H   0  0  0  0  0
    9.8009   11.8417    3.3151 H   0  0  0  0  0
   10.2022   14.3473    7.5150 H   0  0  0  0  0
    9.1187   13.4017    8.5748 H   0  0  0  0  0
    8.1187   15.3498    7.7851 H   0  0  0  0  0
   11.6437   16.5078    3.5992 H   0  0  0  0  0
   13.2743   16.0766    3.7778 H   0  0  0  0  0
   13.9239   18.4730    4.5548 H   0  0  0  0  0
   10.8506   18.7922    4.7832 H   0  0  0  0  0
   12.0204   19.7192    5.5980 H   0  0  0  0  0
   12.6006   17.9081    7.1460 H   0  0  0  0  0
   10.9566   17.5438    6.8905 H   0  0  0  0  0
   11.8830   18.5869    2.5113 H   0  0  0  0  0
   13.8142   17.1297    2.1684 H   0  0  0  0  0
   14.7820   18.6457    2.2705 H   0  0  0  0  0
   13.6140   19.5704    0.3389 H   0  0  0  0  0
   12.4873   18.2118    0.3005 H   0  0  0  0  0
   14.3145   16.6481   -0.1291 H   0  0  0  0  0
   15.5042   18.0417   -0.0505 H   0  0  0  0  0
   14.3501   18.9232   -1.8973 H   0  0  0  0  0
   13.0402   16.2853   -2.1122 H   0  0  0  0  0
   12.2413   17.8482   -1.8119 H   0  0  0  0  0
   13.0228   17.5346   -3.3810 H   0  0  0  0  0
   16.4189   17.8788   -2.2589 H   0  0  0  0  0
   15.5929   16.3075   -2.3988 H   0  0  0  0  0
   15.3258   17.5664   -3.6295 H   0  0  0  0  0
   12.1712   20.6741    3.6252 H   0  0  0  0  0
   13.9307   20.5001    3.4131 H   0  0  0  0  0
   12.8771   20.6932    1.9905 H   0  0  0  0  0
  3  1  4  0  0  0
  1 15  4  0  0  0
  1 16  4  0  0  0
  2 16  4  0  0  0
 17  2  4  0  0  0
  2 32  1  0  0  0
 17  3  4  0  0  0
  3 18  4  0  0  0
  4 14  4  0  0  0
 18  4  4  0  0  0
  5  7  4  0  0  0
  5 17  1  0  0  0
  5 19  4  0  0  0
 19  6  4  0  0  0
  6 20  4  0  0  0
  7  8  1  0  0  0
  7 20  4  0  0  0
  8  9  4  0  0  0
  8 21  4  0  0  0
  9 10  4  0  0  0
 10 11  4  0  0  0
 11 12  4  0  0  0
 12 21  4  0  0  0
 14 13  1  0  0  0
 14 15  4  0  0  0
 19 22  1  0  0  0
 22 23  1  0  0  0
 23 24  4  0  0  0
 23 28  4  0  0  0
 24 25  4  0  0  0
 24 30  1  0  0  0
 25 26  4  0  0  0
 26 27  4  0  0  0
 26 29  1  0  0  0
 27 28  4  0  0  0
 30 31  1  0  0  0
 32 33  2  0  0  0
 32 34  1  0  0  0
 34 35  1  0  0  0
 34 38  1  0  0  0
 35 36  1  0  0  0
 36 37  1  0  0  0
 36 39  1  0  0  0
 37 38  1  0  0  0
 39 40  1  0  0  0
 39 46  1  0  0  0
 40 41  1  0  0  0
 41 42  1  0  0  0
 42 43  1  0  0  0
 43 44  1  0  0  0
 43 45  1  0  0  0
  4 47  1  0  0  0
  6 48  1  0  0  0
  9 49  1  0  0  0
 10 50  1  0  0  0
 11 51  1  0  0  0
 12 52  1  0  0  0
 15 53  1  0  0  0
 18 54  1  0  0  0
 21 55  1  0  0  0
 22 56  1  0  0  0
 22 57  1  0  0  0
 25 58  1  0  0  0
 27 59  1  0  0  0
 28 60  1  0  0  0
 30 61  1  0  0  0
 30 62  1  0  0  0
 31 63  1  0  0  0
 35 64  1  0  0  0
 35 65  1  0  0  0
 36 66  1  0  0  0
 37 67  1  0  0  0
 37 68  1  0  0  0
 38 69  1  0  0  0
 38 70  1  0  0  0
 39 71  1  0  0  0
 40 72  1  0  0  0
 40 73  1  0  0  0
 41 74  1  0  0  0
 41 75  1  0  0  0
 42 76  1  0  0  0
 42 77  1  0  0  0
 43 78  1  0  0  0
 44 79  1  0  0  0
 44 80  1  0  0  0
 44 81  1  0  0  0
 45 82  1  0  0  0
 45 83  1  0  0  0
 45 84  1  0  0  0
 46 85  1  0  0  0
 46 86  1  0  0  0
 46 87  1  0  0  0
M  END
$$$$
