3rg2_ligand
  -I-interpret- 

 94 97  0  0  0  0  0  0  0  0999 V2000
  -97.7960 -105.1220   96.6440 S   0  0  0  0  0
  -99.2040  -97.3810  102.9890 N   0  0  0  0  0
  -98.0370  -97.9080  103.3580 C   0  0  0  0  0
  -97.5850  -99.0390  102.8020 N   0  0  0  0  0
  -98.2670  -99.6960  101.8390 C   0  0  0  0  0
  -99.4830  -99.1730  101.4440 C   0  0  0  0  0
  -99.9500  -97.9970  102.0380 C   0  0  0  0  0
 -101.1450  -97.4590  101.6640 N   0  0  0  0  0
  -99.9770 -100.0020  100.4960 N   0  0  0  0  0
  -99.0970 -101.0170  100.3190 C   0  0  0  0  0
  -98.0480 -100.8300  101.1370 N   0  0  0  0  0
  -96.8790 -101.7600  101.1920 C   0  0  0  0  0
 -102.3300 -103.6550   95.9500 C   0  0  0  0  0
 -102.3520 -104.9550   95.5480 O   0  0  0  0  0
 -103.5780 -103.0640   96.1990 C   0  0  0  0  0
 -103.6560 -101.7360   96.5960 C   0  0  0  0  0
 -102.4730 -101.0170   96.7800 C   0  0  0  0  0
 -101.2230 -101.6000   96.5400 C   0  0  0  0  0
 -101.1360 -102.9300   96.1210 C   0  0  0  0  0
  -97.8520 -106.5360   96.9100 O   0  0  0  0  0
  -96.9050 -102.8050  102.2920 C   0  0  0  0  0
  -95.5400 -103.0710  102.5700 O   0  0  0  0  0
  -99.7320 -103.4610   95.8140 C   0  0  0  0  0
  -99.4180 -104.7430   96.5710 C   0  0  0  0  0
  -97.0340 -104.7970   95.4630 O   0  0  0  0  0
  -97.4690 -104.0360  101.6170 C   0  0  0  0  0
  -97.0460 -105.2750  102.1930 O   0  0  0  0  0
  -96.8600 -103.8980  100.2490 C   0  0  0  0  0
  -96.9180 -102.5020   99.9790 O   0  0  0  0  0
  -97.5680 -104.6930   99.1650 C   0  0  0  0  0
  -97.0690 -104.3610   97.8370 N   0  0  0  0  0
  -89.7720  -95.4610   87.7650 O   0  0  0  0  0
  -90.2210  -94.1990   87.0670 P   0  0  0  0  0
  -90.4490  -94.2970   85.5830 O   0  0  0  0  0
  -91.5740  -93.7710   87.8240 O   0  0  0  0  0
  -91.5400  -93.7980   89.2500 C   0  0  0  0  0
  -92.8820  -94.2670   89.7740 C   0  0  0  0  0
  -93.9190  -93.3200   89.2040 C   0  0  0  0  0
  -92.8800  -94.2420   91.2910 C   0  0  0  0  0
  -93.1230  -95.6870   89.2750 C   0  0  0  0  0
  -92.1710  -96.6470   89.7640 O   0  0  0  0  0
  -94.5070  -96.1660   89.5630 C   0  0  0  0  0
  -95.3630  -96.0120   88.7270 O   0  0  0  0  0
  -94.7740  -96.7830   90.6950 N   0  0  0  0  0
  -96.0980  -97.3020   91.0170 C   0  0  0  0  0
  -95.8570  -98.5270   91.8980 C   0  0  0  0  0
  -97.0980  -99.3840   91.9170 C   0  0  0  0  0
  -97.7760  -99.3910   90.9140 O   0  0  0  0  0
  -97.3930 -100.1110   93.0090 N   0  0  0  0  0
  -98.5440 -100.9820   93.2240 C   0  0  0  0  0
  -98.0280 -102.3120   93.7910 C   0  0  0  0  0
  -99.3800 -103.5360   93.9740 S   0  0  0  0  0
  -97.4416  -97.4109  104.1238 H   0  0  0  0  0
 -101.4746  -96.5971  102.0986 H   0  0  0  0  0
 -101.7097  -97.9182  100.9494 H   0  0  0  0  0
  -99.2202 -101.8493   99.6260 H   0  0  0  0  0
  -96.0023 -101.1362  101.3666 H   0  0  0  0  0
 -101.4529 -105.2601   95.4060 H   0  0  0  0  0
 -104.4896 -103.6497   96.0803 H   0  0  0  0  0
 -104.6239 -101.2627   96.7612 H   0  0  0  0  0
 -102.5239  -99.9817   97.1171 H   0  0  0  0  0
 -100.3145 -101.0143   96.6805 H   0  0  0  0  0
  -97.4608 -102.5188  103.1849 H   0  0  0  0  0
  -95.4787 -103.7309  103.2645 H   0  0  0  0  0
  -99.0206 -102.7310   96.2002 H   0  0  0  0  0
  -99.7590 -104.6001   97.5964 H   0  0  0  0  0
  -99.9125 -105.5565   96.0402 H   0  0  0  0  0
  -98.5565 -104.0757  101.6787 H   0  0  0  0  0
  -97.4448 -106.0033  101.7111 H   0  0  0  0  0
  -95.8485 -104.3040  100.2418 H   0  0  0  0  0
  -98.6304 -104.4519   99.2019 H   0  0  0  0  0
  -97.3869 -105.7529   99.3439 H   0  0  0  0  0
  -96.3132 -103.6933   97.6842 H   0  0  0  0  0
  -89.6582  -95.2841   88.7017 H   0  0  0  0  0
  -91.3296  -92.7979   89.6290 H   0  0  0  0  0
  -90.7590  -94.4813   89.5835 H   0  0  0  0  0
  -93.7031  -92.3044   89.5358 H   0  0  0  0  0
  -93.8882  -93.3621   88.1153 H   0  0  0  0  0
  -94.9089  -93.6148   89.5524 H   0  0  0  0  0
  -92.0968  -94.9026   91.6630 H   0  0  0  0  0
  -92.6936  -93.2250   91.6361 H   0  0  0  0  0
  -93.8482  -94.5805   91.6600 H   0  0  0  0  0
  -92.9888  -95.6154   88.1957 H   0  0  0  0  0
  -92.3829  -97.5143   89.4113 H   0  0  0  0  0
  -94.0234  -96.9029   91.3751 H   0  0  0  0  0
  -96.6534  -97.5626   90.1161 H   0  0  0  0  0
  -96.7043  -96.5556   91.5302 H   0  0  0  0  0
  -95.6223  -98.2047   92.9124 H   0  0  0  0  0
  -95.0230  -99.1038   91.4983 H   0  0  0  0  0
  -96.7309 -100.0457   93.7821 H   0  0  0  0  0
  -99.0712 -101.1505   92.2850 H   0  0  0  0  0
  -99.2429 -100.5197   93.9210 H   0  0  0  0  0
  -97.5980 -102.1237   94.7747 H   0  0  0  0  0
  -97.2876 -102.7168   93.1010 H   0  0  0  0  0
  1 20  2  0  0  0
 24  1  1  0  0  0
  1 25  2  0  0  0
  1 31  1  0  0  0
  3  2  4  0  0  0
  7  2  4  0  0  0
  4  3  4  0  0  0
  5  4  4  0  0  0
  5  6  4  0  0  0
 11  5  4  0  0  0
  6  7  4  0  0  0
  9  6  4  0  0  0
  7  8  1  0  0  0
 10  9  4  0  0  0
 11 10  4  0  0  0
 12 11  1  0  0  0
 12 21  1  0  0  0
 29 12  1  0  0  0
 13 14  1  0  0  0
 13 15  4  0  0  0
 19 13  4  0  0  0
 15 16  4  0  0  0
 17 16  4  0  0  0
 18 17  4  0  0  0
 19 18  4  0  0  0
 23 19  1  0  0  0
 21 22  1  0  0  0
 26 21  1  0  0  0
 23 24  1  0  0  0
 52 23  1  0  0  0
 26 27  1  0  0  0
 28 26  1  0  0  0
 28 29  1  0  0  0
 30 28  1  0  0  0
 31 30  1  0  0  0
 33 32  1  0  0  0
 33 34  2  0  0  0
 35 33  1  0  0  0
 36 35  1  0  0  0
 37 36  1  0  0  0
 37 38  1  0  0  0
 37 39  1  0  0  0
 40 37  1  0  0  0
 40 41  1  0  0  0
 42 40  1  0  0  0
 42 43  2  0  0  0
 44 42  1  0  0  0
 45 44  1  0  0  0
 46 45  1  0  0  0
 47 46  1  0  0  0
 47 48  2  0  0  0
 49 47  1  0  0  0
 50 49  1  0  0  0
 51 50  1  0  0  0
 51 52  1  0  0  0
  3 53  1  0  0  0
  8 54  1  0  0  0
  8 55  1  0  0  0
 10 56  1  0  0  0
 12 57  1  0  0  0
 14 58  1  0  0  0
 15 59  1  0  0  0
 16 60  1  0  0  0
 17 61  1  0  0  0
 18 62  1  0  0  0
 21 63  1  0  0  0
 22 64  1  0  0  0
 23 65  1  0  0  0
 24 66  1  0  0  0
 24 67  1  0  0  0
 26 68  1  0  0  0
 27 69  1  0  0  0
 28 70  1  0  0  0
 30 71  1  0  0  0
 30 72  1  0  0  0
 31 73  1  0  0  0
 32 74  1  0  0  0
 36 75  1  0  0  0
 36 76  1  0  0  0
 38 77  1  0  0  0
 38 78  1  0  0  0
 38 79  1  0  0  0
 39 80  1  0  0  0
 39 81  1  0  0  0
 39 82  1  0  0  0
 40 83  1  0  0  0
 41 84  1  0  0  0
 44 85  1  0  0  0
 45 86  1  0  0  0
 45 87  1  0  0  0
 46 88  1  0  0  0
 46 89  1  0  0  0
 49 90  1  0  0  0
 50 91  1  0  0  0
 50 92  1  0  0  0
 51 93  1  0  0  0
 51 94  1  0  0  0
M  END
$$$$
