### 
### Created by X-TOOL on Mon Sep 10 21:13:11 2018
### 

@<TRIPOS>MOLECULE
3rg2_ligand
   93    96     1     0     0
SMALL
GAST_HUCK


@<TRIPOS>ATOM
      1 S         -97.7960 -105.1220   96.6440 S.o2      1 SVS         0.0417
      2 N1        -99.2040  -97.3810  102.9890 N.ar      1 SVS        -0.2698
      3 C2        -98.0370  -97.9080  103.3580 C.ar      1 SVS         0.0533
      4 N3        -97.5850  -99.0390  102.8020 N.ar      1 SVS        -0.2714
      5 C4        -98.2670  -99.6960  101.8390 C.ar      1 SVS         0.1613
      6 C5        -99.4830  -99.1730  101.4440 C.ar      1 SVS         0.1045
      7 C6        -99.9500  -97.9970  102.0380 C.ar      1 SVS         0.1298
      8 N6       -101.1450  -97.4590  101.6640 N.pl3     1 SVS        -0.3152
      9 N7        -99.9770 -100.0020  100.4960 N.2       1 SVS        -0.2958
     10 C8        -99.0970 -101.0170  100.3190 C.2       1 SVS         0.1123
     11 N9        -98.0480 -100.8300  101.1370 N.pl3     1 SVS        -0.1919
     12 C1'       -96.8790 -101.7600  101.1920 C.3       1 SVS         0.2009
     13 C14      -102.3300 -103.6550   95.9500 C.ar      1 SVS         0.0904
     14 O14      -102.3520 -104.9550   95.5480 O.3       1 SVS        -0.3368
     15 C15      -103.5780 -103.0640   96.1990 C.ar      1 SVS        -0.0398
     16 C16      -103.6560 -101.7360   96.5960 C.ar      1 SVS        -0.0776
     17 C17      -102.4730 -101.0170   96.7800 C.ar      1 SVS        -0.0797
     18 C18      -101.2230 -101.6000   96.5400 C.ar      1 SVS        -0.0677
     19 C19      -101.1360 -102.9300   96.1210 C.ar      1 SVS         0.0006
     20 O1P       -97.8520 -106.5360   96.9100 O.2       1 SVS        -0.1553
     21 C2'       -96.9050 -102.8050  102.2920 C.3       1 SVS         0.1385
     22 O2'       -95.5400 -103.0710  102.5700 O.3       1 SVS        -0.3836
     23 C21       -99.7320 -103.4610   95.8140 C.3       1 SVS         0.0581
     24 C22       -99.4180 -104.7430   96.5710 C.3       1 SVS         0.1042
     25 O2P       -97.0340 -104.7970   95.4630 O.2       1 SVS        -0.1553
     26 C3'       -97.4690 -104.0360  101.6170 C.3       1 SVS         0.1139
     27 O3'       -97.0460 -105.2750  102.1930 O.3       1 SVS        -0.3864
     28 C4'       -96.8600 -103.8980  100.2490 C.3       1 SVS         0.1073
     29 O4'       -96.9180 -102.5020   99.9790 O.3       1 SVS        -0.3375
     30 C5'       -97.5680 -104.6930   99.1650 C.3       1 SVS         0.0551
     31 N5'       -97.0690 -104.3610   97.8370 N.am      1 SVS        -0.2491
     32 O23       -89.7720  -95.4610   87.7650 O.co2     1 PNS        -0.8167
     33 P24       -90.2210  -94.1990   87.0670 P.3       1 PNS        -0.1355
     34 O26       -90.4490  -94.2970   85.5830 O.co2     1 PNS        -0.8167
     35 O27       -91.5740  -93.7710   87.8240 O.3       1 PNS        -0.4186
     36 C28       -91.5400  -93.7980   89.2500 C.3       1 PNS         0.0522
     37 C29       -92.8820  -94.2670   89.7740 C.3       1 PNS         0.0324
     38 C30       -93.9190  -93.3200   89.2040 C.3       1 PNS        -0.0531
     39 C31       -92.8800  -94.2420   91.2910 C.3       1 PNS        -0.0531
     40 C32       -93.1230  -95.6870   89.2750 C.3       1 PNS         0.1508
     41 O33       -92.1710  -96.6470   89.7640 O.3       1 PNS        -0.3708
     42 C34       -94.5070  -96.1660   89.5630 C.2       1 PNS         0.2057
     43 O35       -95.3630  -96.0120   88.7270 O.2       1 PNS        -0.3942
     44 N36       -94.7740  -96.7830   90.6950 N.am      1 PNS        -0.2826
     45 C37       -96.0980  -97.3020   91.0170 C.3       1 PNS         0.0477
     46 C38       -95.8570  -98.5270   91.8980 C.3       1 PNS         0.0574
     47 C39       -97.0980  -99.3840   91.9170 C.2       1 PNS         0.1779
     48 O40       -97.7760  -99.3910   90.9140 O.2       1 PNS        -0.3970
     49 N41       -97.3930 -100.1110   93.0090 N.am      1 PNS        -0.2861
     50 C42       -98.5440 -100.9820   93.2240 C.3       1 PNS         0.0400
     51 C43       -98.0280 -102.3120   93.7910 C.3       1 PNS         0.0160
     52 S44       -99.3800 -103.5360   93.9740 S.3       1 PNS        -0.1420
     53 H         -97.4416  -97.4109  104.1238 H         1 SVS         0.0996
     54 H        -101.7068  -97.9148  100.9450 H         1 SVS         0.1820
     55 H        -101.4776  -96.6005  102.1031 H         1 SVS         0.1820
     56 H         -99.2202 -101.8493   99.6260 H         1 SVS         0.1349
     57 H         -96.0023 -101.1362  101.3666 H         1 SVS         0.0996
     58 H        -101.4529 -105.2601   95.4060 H         1 SVS         0.2456
     59 H        -104.4896 -103.6497   96.0803 H         1 SVS         0.0521
     60 H        -104.6239 -101.2627   96.7612 H         1 SVS         0.0531
     61 H        -102.5239  -99.9817   97.1171 H         1 SVS         0.0505
     62 H        -100.3145 -101.0143   96.6805 H         1 SVS         0.0526
     63 H         -97.4608 -102.5188  103.1849 H         1 SVS         0.0676
     64 H         -95.4787 -103.7309  103.2645 H         1 SVS         0.2101
     65 H         -99.0206 -102.7310   96.2002 H         1 SVS         0.0567
     66 H         -99.7590 -104.6001   97.5964 H         1 SVS         0.0549
     67 H         -99.9125 -105.5565   96.0402 H         1 SVS         0.0549
     68 H         -98.5565 -104.0757  101.6787 H         1 SVS         0.0648
     69 H         -97.3206 -105.3095  103.1123 H         1 SVS         0.2100
     70 H         -95.8485 -104.3040  100.2418 H         1 SVS         0.0640
     71 H         -98.6304 -104.4519   99.2019 H         1 SVS         0.0502
     72 H         -97.3869 -105.7529   99.3439 H         1 SVS         0.0502
     73 H         -96.3132 -103.6933   97.6842 H         1 SVS         0.1669
     74 H         -91.3296  -92.7979   89.6290 H         1 PNS         0.0579
     75 H         -90.7590  -94.4813   89.5835 H         1 PNS         0.0579
     76 H         -93.7031  -92.3044   89.5358 H         1 PNS         0.0238
     77 H         -93.8882  -93.3621   88.1153 H         1 PNS         0.0238
     78 H         -94.9089  -93.6148   89.5524 H         1 PNS         0.0238
     79 H         -92.0968  -94.9026   91.6630 H         1 PNS         0.0238
     80 H         -92.6936  -93.2250   91.6361 H         1 PNS         0.0238
     81 H         -93.8482  -94.5805   91.6600 H         1 PNS         0.0238
     82 H         -92.9888  -95.6154   88.1957 H         1 SVS         0.0843
     83 H         -91.2889  -96.3929   89.4832 H         1 SVS         0.2133
     84 H         -94.0234  -96.9029   91.3751 H         1 SVS         0.1853
     85 H         -96.6534  -97.5626   90.1161 H         1 SVS         0.0545
     86 H         -96.7043  -96.5556   91.5302 H         1 SVS         0.0545
     87 H         -95.6223  -98.2047   92.9124 H         1 SVS         0.0522
     88 H         -95.0230  -99.1038   91.4983 H         1 SVS         0.0522
     89 H         -96.7309 -100.0457   93.7821 H         1 SVS         0.1851
     90 H         -99.0712 -101.1505   92.2850 H         1 SVS         0.0528
     91 H         -99.2429 -100.5197   93.9210 H         1 SVS         0.0528
     92 H         -97.5980 -102.1237   94.7747 H         1 SVS         0.0398
     93 H         -97.2876 -102.7168   93.1010 H         1 SVS         0.0398
@<TRIPOS>BOND
     1    1   20 2  
     2   24    1 1  
     3    1   25 2  
     4    1   31 am 
     5    3    2 ar 
     6    7    2 ar 
     7    4    3 ar 
     8    5    4 ar 
     9    5    6 ar 
    10   11    5 1  
    11    6    7 ar 
    12    9    6 1  
    13    7    8 1  
    14   10    9 2  
    15   11   10 1  
    16   12   11 1  
    17   12   21 1  
    18   29   12 1  
    19   13   14 1  
    20   13   15 ar 
    21   19   13 ar 
    22   15   16 ar 
    23   17   16 ar 
    24   18   17 ar 
    25   19   18 ar 
    26   23   19 1  
    27   21   22 1  
    28   26   21 1  
    29   23   24 1  
    30   52   23 1  
    31   26   27 1  
    32   28   26 1  
    33   28   29 1  
    34   30   28 1  
    35   31   30 1  
    36   33   32 ar 
    37   33   34 ar 
    38   35   33 1  
    39   36   35 1  
    40   37   36 1  
    41   37   38 1  
    42   37   39 1  
    43   40   37 1  
    44   40   41 1  
    45   42   40 1  
    46   42   43 2  
    47   44   42 am 
    48   45   44 1  
    49   46   45 1  
    50   47   46 1  
    51   47   48 2  
    52   49   47 am 
    53   50   49 1  
    54   51   50 1  
    55   51   52 1  
    56    3   53 1  
    57    8   54 1  
    58    8   55 1  
    59   10   56 1  
    60   12   57 1  
    61   14   58 1  
    62   15   59 1  
    63   16   60 1  
    64   17   61 1  
    65   18   62 1  
    66   21   63 1  
    67   22   64 1  
    68   23   65 1  
    69   24   66 1  
    70   24   67 1  
    71   26   68 1  
    72   27   69 1  
    73   28   70 1  
    74   30   71 1  
    75   30   72 1  
    76   31   73 1  
    77   36   74 1  
    78   36   75 1  
    79   38   76 1  
    80   38   77 1  
    81   38   78 1  
    82   39   79 1  
    83   39   80 1  
    84   39   81 1  
    85   40   82 1  
    86   41   83 1  
    87   44   84 1  
    88   45   85 1  
    89   45   86 1  
    90   46   87 1  
    91   46   88 1  
    92   49   89 1  
    93   50   90 1  
    94   50   91 1  
    95   51   92 1  
    96   51   93 1  
@<TRIPOS>SUBSTRUCTURE
     1 SVS         1

