6mq3_ligand
  -I-interpret- 

 70 74  0  0  0  0  0  0  0  0999 V2000
  109.8470  -52.0180   14.0860 C   0  0  0  0  0
  111.5980  -51.1420   12.9790 C   0  0  0  0  0
  112.0570  -52.2770   13.6980 C   0  0  0  0  0
  110.9510  -53.9690   15.2440 C   0  0  0  0  0
  106.9330  -49.9460   14.1470 C   0  0  0  0  0
  105.9440  -49.5980   15.3000 C   0  0  0  0  0
  105.8750  -52.0210   13.1820 C   0  0  0  0  0
  104.6110  -52.1860   14.1140 C   0  0  0  0  0
  103.4780  -51.0970   13.9380 C   0  0  0  0  0
  104.0430  -49.6620   13.6250 C   0  0  0  0  0
  105.0040  -47.6470   15.3290 C   0  0  0  0  0
  105.3570  -46.6260   14.2180 C   0  0  0  0  0
  106.2490  -48.2710   16.0360 C   0  0  0  0  0
  106.1460  -48.2550   17.5800 C   0  0  0  0  0
  107.2230  -47.7770   18.3610 C   0  0  0  0  0
  107.1270  -47.7380   19.7760 C   0  0  0  0  0
  105.9590  -48.1780   20.4610 C   0  0  0  0  0
  105.8630  -48.1020   21.9060 C   0  0  0  0  0
  104.9030  -47.2430   22.5380 C   0  0  0  0  0
  103.9460  -46.4250   21.6520 C   0  0  0  0  0
  104.8220  -47.1590   23.9510 C   0  0  0  0  0
  103.7860  -46.2480   24.6110 C   0  0  0  0  0
  105.7150  -47.9240   24.7460 C   0  0  0  0  0
  106.6880  -48.7770   24.1450 C   0  0  0  0  0
  106.7600  -48.8570   22.7300 C   0  0  0  0  0
  104.8710  -48.6370   19.6510 C   0  0  0  0  0
  104.9650  -48.6740   18.2350 C   0  0  0  0  0
  110.2190  -51.0120   13.2470 N   0  0  0  0  0
  110.9520  -52.7730   14.3590 N   0  0  0  0  0
  107.0650  -51.3990   13.8950 N   0  0  0  0  0
  104.5920  -49.0150   14.8670 N   0  3  0  0  0
  108.1290  -51.9930   16.1670 O   0  0  0  0  0
  106.5650  -45.9180   14.6740 O   0  0  0  0  0
  107.8760  -53.7170   14.6870 O   0  0  0  0  0
  108.1610  -52.3040   14.7400 S   0  0  0  0  0
  112.1978  -50.4935   12.3405 H   0  0  0  0  0
  113.0718  -52.6742   13.7227 H   0  0  0  0  0
  110.6285  -53.6791   16.2440 H   0  0  0  0  0
  110.2664  -54.7160   14.8424 H   0  0  0  0  0
  111.9574  -54.3850   15.2917 H   0  0  0  0  0
  107.9159  -49.5748   14.4373 H   0  0  0  0  0
  106.5447  -49.4910   13.2358 H   0  0  0  0  0
  105.9906  -50.5566   15.8167 H   0  0  0  0  0
  105.5974  -51.3590   12.3618 H   0  0  0  0  0
  106.1719  -53.0151   12.8477 H   0  0  0  0  0
  104.9704  -52.0929   15.1388 H   0  0  0  0  0
  104.1601  -53.1436   13.8538 H   0  0  0  0  0
  102.9269  -51.0382   14.8766 H   0  0  0  0  0
  102.8567  -51.3991   13.0949 H   0  0  0  0  0
  103.2325  -49.0442   13.2383 H   0  0  0  0  0
  104.8470  -49.7547   12.8949 H   0  0  0  0  0
  104.2906  -47.0276   15.8726 H   0  0  0  0  0
  104.5351  -45.9300   14.0504 H   0  0  0  0  0
  105.5331  -47.1279   13.2666 H   0  0  0  0  0
  107.2515  -47.8481   15.9703 H   0  0  0  0  0
  108.1352  -47.4354   17.8718 H   0  0  0  0  0
  107.9704  -47.3609   20.3544 H   0  0  0  0  0
  104.5254  -45.7650   21.0064 H   0  0  0  0  0
  103.3506  -47.1028   21.0403 H   0  0  0  0  0
  103.2868  -45.8301   22.2842 H   0  0  0  0  0
  103.9572  -45.2183   24.2973 H   0  0  0  0  0
  102.7858  -46.5595   24.3098 H   0  0  0  0  0
  103.8792  -46.3193   25.6947 H   0  0  0  0  0
  105.6565  -47.8588   25.8325 H   0  0  0  0  0
  107.3682  -49.3605   24.7655 H   0  0  0  0  0
  107.5065  -49.5004   22.2643 H   0  0  0  0  0
  103.9499  -48.9654   20.1325 H   0  0  0  0  0
  104.1186  -49.0288   17.6470 H   0  0  0  0  0
  103.6219  -49.1390   15.1565 H   0  0  0  0  0
  106.8235  -45.2707   14.0139 H   0  0  0  0  0
  1 28  4  0  0  0
  1 29  4  0  0  0
 35  1  1  0  0  0
  3  2  4  0  0  0
 28  2  4  0  0  0
 29  3  4  0  0  0
 29  4  1  0  0  0
  5  6  1  0  0  0
 30  5  1  0  0  0
  6 13  1  0  0  0
  6 31  1  0  0  0
  7  8  1  0  0  0
 30  7  1  0  0  0
  8  9  1  0  0  0
  9 10  1  0  0  0
 31 10  1  0  0  0
 11 12  1  0  0  0
 13 11  1  0  0  0
 31 11  1  0  0  0
 12 33  1  0  0  0
 13 14  1  0  0  0
 14 15  4  0  0  0
 14 27  4  0  0  0
 15 16  4  0  0  0
 16 17  4  0  0  0
 17 18  1  0  0  0
 26 17  4  0  0  0
 18 19  4  0  0  0
 18 25  4  0  0  0
 19 20  1  0  0  0
 19 21  4  0  0  0
 21 22  1  0  0  0
 21 23  4  0  0  0
 24 23  4  0  0  0
 25 24  4  0  0  0
 27 26  4  0  0  0
 30 35  1  0  0  0
 35 32  2  0  0  0
 35 34  2  0  0  0
  2 36  1  0  0  0
  3 37  1  0  0  0
  4 38  1  0  0  0
  4 39  1  0  0  0
  4 40  1  0  0  0
  5 41  1  0  0  0
  5 42  1  0  0  0
  6 43  1  0  0  0
  7 44  1  0  0  0
  7 45  1  0  0  0
  8 46  1  0  0  0
  8 47  1  0  0  0
  9 48  1  0  0  0
  9 49  1  0  0  0
 10 50  1  0  0  0
 10 51  1  0  0  0
 11 52  1  0  0  0
 12 53  1  0  0  0
 12 54  1  0  0  0
 13 55  1  0  0  0
 15 56  1  0  0  0
 16 57  1  0  0  0
 20 58  1  0  0  0
 20 59  1  0  0  0
 20 60  1  0  0  0
 22 61  1  0  0  0
 22 62  1  0  0  0
 22 63  1  0  0  0
 23 64  1  0  0  0
 24 65  1  0  0  0
 25 66  1  0  0  0
 26 67  1  0  0  0
 27 68  1  0  0  0
 31 69  1  0  0  0
 33 70  1  0  0  0
M  END
$$$$
