4r0a_ligand
  -I-interpret- 

 29 30  0  0  0  0  0  0  0  0999 V2000
  -17.8700   58.9700  -34.4890 N   0  0  0  0  0
  -16.9670   57.9530  -34.7590 C   0  0  0  0  0
  -15.6510   58.3290  -34.7010 N   0  0  0  0  0
  -15.1470   59.5520  -34.3160 C   0  0  0  0  0
  -16.1370   60.5150  -33.9520 C   0  0  0  0  0
  -17.4350   60.2010  -34.0600 C   0  0  0  0  0
  -17.3030   56.8250  -35.0900 O   0  0  0  0  0
  -13.9260   59.7180  -34.2780 O   0  0  0  0  0
  -19.3120   58.6730  -34.4990 C   0  0  0  0  0
  -19.8160   58.0510  -35.8000 C   0  0  0  0  0
  -21.0110   57.2270  -35.3290 C   0  0  0  0  0
  -20.7000   56.9120  -33.8660 C   0  0  0  0  0
  -20.2040   59.0680  -36.6940 O   0  0  0  0  0
  -22.2310   57.9720  -35.4640 O   0  0  0  0  0
  -19.5890   57.7400  -33.4700 O   0  0  0  0  0
  -20.4120   55.4640  -33.5330 C   0  0  0  0  0
  -19.3250   54.9800  -34.3010 O   0  0  0  0  0
  -14.9667   57.6235  -34.9738 H   0  0  0  0  0
  -15.8386   61.4985  -33.5889 H   0  0  0  0  0
  -18.1777   60.9540  -33.7964 H   0  0  0  0  0
  -19.8152   59.6310  -34.3678 H   0  0  0  0  0
  -19.0768   57.4532  -36.3333 H   0  0  0  0  0
  -21.1564   56.3214  -35.9179 H   0  0  0  0  0
  -21.6127   57.1241  -33.3091 H   0  0  0  0  0
  -20.5198   58.6722  -37.5096 H   0  0  0  0  0
  -22.9675   57.4351  -35.1624 H   0  0  0  0  0
  -21.2961   54.8680  -33.7592 H   0  0  0  0  0
  -20.1571   55.3897  -32.4758 H   0  0  0  0  0
  -19.1589   54.0618  -34.0752 H   0  0  0  0  0
  1  2  1  0  0  0
  1  6  1  0  0  0
  1  9  1  0  0  0
  2  3  1  0  0  0
  2  7  2  0  0  0
  3  4  1  0  0  0
  4  5  1  0  0  0
  4  8  2  0  0  0
  5  6  2  0  0  0
  9 10  1  0  0  0
  9 15  1  0  0  0
 10 11  1  0  0  0
 10 13  1  0  0  0
 11 12  1  0  0  0
 11 14  1  0  0  0
 12 15  1  0  0  0
 12 16  1  0  0  0
 16 17  1  0  0  0
  3 18  1  0  0  0
  5 19  1  0  0  0
  6 20  1  0  0  0
  9 21  1  0  0  0
 10 22  1  0  0  0
 11 23  1  0  0  0
 12 24  1  0  0  0
 13 25  1  0  0  0
 14 26  1  0  0  0
 16 27  1  0  0  0
 16 28  1  0  0  0
 17 29  1  0  0  0
M  END
$$$$
