4zh3_ligand
  -I-interpret- 

 31 32  0  0  0  0  0  0  0  0999 V2000
   32.4140   95.9060    8.5190 F   0  0  0  0  0
   31.8970   97.0860    8.7070 C   0  0  0  0  0
   31.2490   97.4530    7.6290 F   0  0  0  0  0
   31.0380   96.9890    9.7000 F   0  0  0  0  0
   32.9320   97.9510    9.0340 C   0  0  0  0  0
   33.4900   98.8080    8.0920 C   0  0  0  0  0
   33.4350   97.9460   10.3190 C   0  0  0  0  0
   32.9740   97.2270   11.1280 F   0  0  0  0  0
   34.4520   98.7870   10.6920 C   0  0  0  0  0
   34.9940   99.6360    9.7560 C   0  0  0  0  0
   34.5340   99.6400    8.4580 C   0  0  0  0  0
   35.1340  100.5520    7.6120 C   0  0  0  0  0
   35.3160  101.7650    8.0800 N   0  0  0  0  0
   36.5590  102.3550    7.6630 O   0  0  0  0  0
   35.5960  100.2970    6.3980 N   0  0  0  0  0
   35.5910   99.1380    5.7870 C   0  0  0  0  0
   36.4700   98.1760    6.2200 C   0  0  0  0  0
   36.5230   96.9780    5.5550 C   0  0  0  0  0
   37.6360   95.7570    6.1730 Br  0  0  0  0  0
   35.7390   96.7340    4.4480 C   0  0  0  0  0
   34.8790   97.7160    3.9930 C   0  0  0  0  0
   34.8160   98.9260    4.6580 C   0  0  0  0  0
   33.1076   98.8246    7.0714 H   0  0  0  0  0
   34.8254   98.7825   11.7160 H   0  0  0  0  0
   35.7972  100.3139   10.0448 H   0  0  0  0  0
   36.6341  103.2368    8.0351 H   0  0  0  0  0
   35.9967  101.0829    5.8860 H   0  0  0  0  0
   37.1153   98.3617    7.0786 H   0  0  0  0  0
   35.7967   95.7739    3.9351 H   0  0  0  0  0
   34.2556   97.5375    3.1169 H   0  0  0  0  0
   34.1564   99.7138    4.2942 H   0  0  0  0  0
  1  2  1  0  0  0
  2  3  1  0  0  0
  2  4  1  0  0  0
  2  5  1  0  0  0
  5  6  4  0  0  0
  5  7  4  0  0  0
  6 11  4  0  0  0
  7  8  1  0  0  0
  7  9  4  0  0  0
  9 10  4  0  0  0
 10 11  4  0  0  0
 11 12  1  0  0  0
 12 13  2  0  0  0
 12 15  1  0  0  0
 13 14  1  0  0  0
 15 16  1  0  0  0
 16 17  4  0  0  0
 16 22  4  0  0  0
 17 18  4  0  0  0
 18 19  1  0  0  0
 18 20  4  0  0  0
 20 21  4  0  0  0
 21 22  4  0  0  0
  6 23  1  0  0  0
  9 24  1  0  0  0
 10 25  1  0  0  0
 14 26  1  0  0  0
 15 27  1  0  0  0
 17 28  1  0  0  0
 20 29  1  0  0  0
 21 30  1  0  0  0
 22 31  1  0  0  0
M  END
$$$$
