5teh_ligand
  -I-interpret- 

 67 70  0  0  0  0  0  0  0  0999 V2000
   -5.4250  -42.8800    4.9030 O   0  0  0  0  0
   -5.1540  -41.7450    4.5020 C   0  0  0  0  0
   -4.9840  -41.4540    3.2040 N   0  0  0  0  0
   -4.0850  -42.1980    2.3190 C   0  0  0  0  0
   -2.6620  -42.1110    2.8410 C   0  0  0  0  0
   -4.5680  -43.6320    2.1720 C   0  0  0  0  0
   -5.0790  -40.5540    5.4630 C   0  0  0  0  0
   -3.7500  -40.4150    6.0810 C   0  0  0  0  0
   -2.7200  -40.2600    6.5540 N   0  0  0  0  0
   -6.1430  -40.6790    6.5840 C   0  0  0  0  0
   -7.2150  -39.4820    6.4530 C   0  0  0  0  0
   -8.2930  -39.5250    5.5830 N   0  0  0  0  0
   -8.3310  -40.3030    4.3340 C   0  0  0  0  0
   -9.6280  -40.2810    3.5160 C   0  0  0  0  0
  -10.7460  -40.5900    4.3770 O   0  0  0  0  0
  -11.9920  -40.2850    3.7570 C   0  0  0  0  0
   -9.1240  -38.4610    5.9340 C   0  0  0  0  0
  -10.4120  -38.3160    5.5660 N   0  0  0  0  0
  -10.9660  -37.2080    6.0820 C   0  0  0  0  0
  -10.4080  -36.2750    6.8610 N   0  0  0  0  0
   -7.1430  -38.2300    7.0420 C   0  0  0  0  0
   -8.3920  -37.5690    6.7560 C   0  0  0  0  0
   -9.1100  -36.4240    7.2060 C   0  0  0  0  0
   -8.5640  -35.4550    7.9590 N   0  0  0  0  0
   -5.9720  -37.6400    7.7350 C   0  0  0  0  0
   -6.0750  -37.2120    9.0520 C   0  0  0  0  0
   -4.9770  -36.6970    9.7230 C   0  0  0  0  0
   -3.7500  -36.6140    9.0760 C   0  0  0  0  0
   -3.6300  -37.0350    7.7590 C   0  0  0  0  0
   -4.7410  -37.5300    7.0920 C   0  0  0  0  0
   -2.7230  -36.1370    9.8950 O   0  0  0  0  0
   -1.6940  -35.3260    9.4200 C   0  0  0  0  0
   -0.5670  -35.2710   10.2330 C   0  0  0  0  0
    0.4790  -34.4320    9.8890 C   0  0  0  0  0
    0.4020  -33.6480    8.7550 C   0  0  0  0  0
   -0.7320  -33.6890    7.9670 C   0  0  0  0  0
   -1.7770  -34.5450    8.2760 C   0  0  0  0  0
   -5.5091  -40.6724    2.8120 H   0  0  0  0  0
   -4.0917  -41.7558    1.3228 H   0  0  0  0  0
   -2.6061  -42.5854    3.8208 H   0  0  0  0  0
   -1.9910  -42.6213    2.1500 H   0  0  0  0  0
   -2.3708  -41.0640    2.9257 H   0  0  0  0  0
   -3.9216  -44.1619    1.4724 H   0  0  0  0  0
   -4.5366  -44.1260    3.1431 H   0  0  0  0  0
   -5.5909  -43.6327    1.7954 H   0  0  0  0  0
   -5.2741  -39.6652    4.8629 H   0  0  0  0  0
   -5.6524  -40.6195    7.5556 H   0  0  0  0  0
   -6.6567  -41.6356    6.4890 H   0  0  0  0  0
   -8.1946  -41.3418    4.6345 H   0  0  0  0  0
   -7.5737  -39.8559    3.6900 H   0  0  0  0  0
   -9.5675  -41.0223    2.7192 H   0  0  0  0  0
   -9.7668  -39.2909    3.0817 H   0  0  0  0  0
  -12.0270  -39.2221    3.5182 H   0  0  0  0  0
  -12.0932  -40.8679    2.8415 H   0  0  0  0  0
  -12.8058  -40.5325    4.4386 H   0  0  0  0  0
  -12.0145  -37.0462    5.8319 H   0  0  0  0  0
   -9.1260  -34.6530    8.2442 H   0  0  0  0  0
   -7.5873  -35.5211    8.2457 H   0  0  0  0  0
   -7.0337  -37.2821    9.5658 H   0  0  0  0  0
   -5.0756  -36.3584   10.7544 H   0  0  0  0  0
   -2.6673  -36.9770    7.2511 H   0  0  0  0  0
   -4.6496  -37.8372    6.0502 H   0  0  0  0  0
   -0.5078  -35.8830   11.1330 H   0  0  0  0  0
    1.3688  -34.3900   10.5172 H   0  0  0  0  0
    1.2337  -32.9985    8.4822 H   0  0  0  0  0
   -0.8055  -33.0414    7.0933 H   0  0  0  0  0
   -2.6524  -34.6040    7.6292 H   0  0  0  0  0
  1  2  2  0  0  0
  2  3  1  0  0  0
  2  7  1  0  0  0
  3  4  1  0  0  0
  4  5  1  0  0  0
  4  6  1  0  0  0
  7  8  1  0  0  0
  7 10  1  0  0  0
  8  9  3  0  0  0
 10 11  1  0  0  0
 11 12  4  0  0  0
 11 21  4  0  0  0
 12 13  1  0  0  0
 12 17  4  0  0  0
 13 14  1  0  0  0
 14 15  1  0  0  0
 15 16  1  0  0  0
 17 18  4  0  0  0
 17 22  4  0  0  0
 18 19  4  0  0  0
 19 20  4  0  0  0
 20 23  4  0  0  0
 21 22  4  0  0  0
 21 25  1  0  0  0
 22 23  4  0  0  0
 23 24  1  0  0  0
 25 26  4  0  0  0
 25 30  4  0  0  0
 26 27  4  0  0  0
 27 28  4  0  0  0
 28 29  4  0  0  0
 28 31  1  0  0  0
 29 30  4  0  0  0
 31 32  1  0  0  0
 32 33  4  0  0  0
 32 37  4  0  0  0
 33 34  4  0  0  0
 34 35  4  0  0  0
 35 36  4  0  0  0
 36 37  4  0  0  0
  3 38  1  0  0  0
  4 39  1  0  0  0
  5 40  1  0  0  0
  5 41  1  0  0  0
  5 42  1  0  0  0
  6 43  1  0  0  0
  6 44  1  0  0  0
  6 45  1  0  0  0
  7 46  1  0  0  0
 10 47  1  0  0  0
 10 48  1  0  0  0
 13 49  1  0  0  0
 13 50  1  0  0  0
 14 51  1  0  0  0
 14 52  1  0  0  0
 16 53  1  0  0  0
 16 54  1  0  0  0
 16 55  1  0  0  0
 19 56  1  0  0  0
 24 57  1  0  0  0
 24 58  1  0  0  0
 26 59  1  0  0  0
 27 60  1  0  0  0
 29 61  1  0  0  0
 30 62  1  0  0  0
 33 63  1  0  0  0
 34 64  1  0  0  0
 35 65  1  0  0  0
 36 66  1  0  0  0
 37 67  1  0  0  0
M  END
$$$$
