3a2o_ligand
  -I-interpret- 

 80 82  0  0  0  0  0  0  0  0999 V2000
   11.0240   18.9070   16.8340 C   0  0  0  0  0
   10.9760   18.0910   18.0940 C   0  0  0  0  0
   10.0220   17.0800   18.2210 C   0  0  0  0  0
    9.9020   16.2850   19.3570 C   0  0  0  0  0
   11.7650   17.5470   20.3170 C   0  0  0  0  0
    8.9670   15.3080   19.4530 N   0  0  0  0  0
   10.7900   16.5430   20.3800 C   0  0  0  0  0
   12.7130   17.7850   21.4510 C   0  0  0  0  0
   11.8460   18.3150   19.1800 C   0  0  0  0  0
   12.7770   19.3140   19.0470 O   0  0  0  0  0
   14.0240   18.8150   18.6060 C   0  0  0  0  0
   14.9220   19.9880   18.1900 C   0  0  0  0  0
   16.1370   19.7620   18.0700 O   0  0  0  0  0
   14.3660   21.1790   17.9830 N   0  0  0  0  0
   15.1370   22.3170   17.5390 C   0  0  0  0  0
   14.5250   22.9340   16.2820 C   0  0  0  0  0
   14.3060   21.9140   15.2100 C   0  0  0  0  0
   15.3840   21.4000   14.4500 C   0  0  0  0  0
   15.1570   20.3950   13.5230 C   0  0  0  0  0
   13.9050   19.8760   13.3500 C   0  0  0  0  0
   12.8610   20.3750   14.0450 C   0  0  0  0  0
   13.0290   21.4130   14.9900 C   0  0  0  0  0
   15.2810   23.3490   18.6880 C   0  0  0  0  0
   14.1640   24.1820   18.6920 O   0  0  0  0  0
   16.5690   24.1320   18.5140 C   0  0  0  0  0
   16.5970   25.1770   17.8480 O   0  0  0  0  0
   17.6860   23.6370   19.0540 N   0  0  0  0  0
   17.7460   22.4220   19.8900 C   0  0  0  0  0
   19.4830   22.0700   20.1240 S   0  0  0  0  0
   19.8730   23.8380   20.0240 C   0  0  0  0  0
   19.4780   24.5500   21.3290 C   0  0  0  0  0
   21.3420   24.0340   19.7270 C   0  0  0  0  0
   18.9550   24.3560   18.8850 C   0  0  0  0  0
   19.4780   24.1450   17.4670 C   0  0  0  0  0
   19.2480   23.1110   16.8400 O   0  0  0  0  0
   20.1560   25.1710   16.9610 N   0  0  0  0  0
   20.7010   25.1690   15.5940 C   0  0  0  0  0
   19.8260   26.0030   14.6830 C   0  0  0  0  0
   18.4370   25.5160   14.4550 C   0  0  0  0  0
   20.3380   27.1310   14.1250 C   0  0  0  0  0
   11.2121   18.2505   15.9844 H   0  0  0  0  0
   10.0706   19.4171   16.6965 H   0  0  0  0  0
   11.8240   19.6435   16.9099 H   0  0  0  0  0
    9.3381   16.9047   17.3905 H   0  0  0  0  0
    8.3253   15.1383   18.6785 H   0  0  0  0  0
    8.9052   14.7426   20.2997 H   0  0  0  0  0
   10.7303   15.9353   21.2829 H   0  0  0  0  0
   12.1482   18.0403   22.3476 H   0  0  0  0  0
   13.2953   16.8815   21.6319 H   0  0  0  0  0
   13.3834   18.6059   21.1963 H   0  0  0  0  0
   13.8710   18.1528   17.7538 H   0  0  0  0  0
   14.5007   18.2594   19.4136 H   0  0  0  0  0
   13.3649   21.2919   18.1427 H   0  0  0  0  0
   16.1389   21.9821   17.2704 H   0  0  0  0  0
   15.2140   23.6878   15.9010 H   0  0  0  0  0
   13.5591   23.3636   16.5476 H   0  0  0  0  0
   16.3902   21.7937   14.5935 H   0  0  0  0  0
   15.9858   20.0147   12.9258 H   0  0  0  0  0
   13.7488   19.0564   12.6486 H   0  0  0  0  0
   11.8645   19.9679   13.8735 H   0  0  0  0  0
   12.1737   21.8123   15.5351 H   0  0  0  0  0
   15.3325   22.8421   19.6516 H   0  0  0  0  0
   14.2471   24.8234   19.4014 H   0  0  0  0  0
   17.2352   21.5871   19.4103 H   0  0  0  0  0
   17.2420   22.5743   20.8444 H   0  0  0  0  0
   18.4075   24.4313   21.4965 H   0  0  0  0  0
   20.0281   24.1114   22.1615 H   0  0  0  0  0
   19.7194   25.6100   21.2505 H   0  0  0  0  0
   21.9355   23.5820   20.5217 H   0  0  0  0  0
   21.5854   23.5605   18.7759 H   0  0  0  0  0
   21.5607   25.1003   19.6700 H   0  0  0  0  0
   18.8762   25.4394   18.9753 H   0  0  0  0  0
   20.3046   25.9940   17.5449 H   0  0  0  0  0
   20.7300   24.1447   15.2223 H   0  0  0  0  0
   21.7058   25.5912   15.6092 H   0  0  0  0  0
   17.7282   26.2728   14.7912 H   0  0  0  0  0
   18.2900   25.3255   13.3919 H   0  0  0  0  0
   18.2798   24.5945   15.0156 H   0  0  0  0  0
   21.3663   27.4248   14.3355 H   0  0  0  0  0
   19.7204   27.7422   13.4668 H   0  0  0  0  0
  1  2  1  0  0  0
  2  3  4  0  0  0
  2  9  4  0  0  0
  3  4  4  0  0  0
  4  6  1  0  0  0
  4  7  4  0  0  0
  7  5  4  0  0  0
  5  8  1  0  0  0
  5  9  4  0  0  0
  9 10  1  0  0  0
 10 11  1  0  0  0
 11 12  1  0  0  0
 12 13  2  0  0  0
 12 14  1  0  0  0
 14 15  1  0  0  0
 15 16  1  0  0  0
 15 23  1  0  0  0
 16 17  1  0  0  0
 17 18  4  0  0  0
 17 22  4  0  0  0
 18 19  4  0  0  0
 19 20  4  0  0  0
 20 21  4  0  0  0
 21 22  4  0  0  0
 23 24  1  0  0  0
 23 25  1  0  0  0
 25 26  2  0  0  0
 25 27  1  0  0  0
 27 28  1  0  0  0
 27 33  1  0  0  0
 28 29  1  0  0  0
 29 30  1  0  0  0
 30 31  1  0  0  0
 30 32  1  0  0  0
 30 33  1  0  0  0
 33 34  1  0  0  0
 34 35  2  0  0  0
 34 36  1  0  0  0
 36 37  1  0  0  0
 37 38  1  0  0  0
 38 39  1  0  0  0
 38 40  2  0  0  0
  1 41  1  0  0  0
  1 42  1  0  0  0
  1 43  1  0  0  0
  3 44  1  0  0  0
  6 45  1  0  0  0
  6 46  1  0  0  0
  7 47  1  0  0  0
  8 48  1  0  0  0
  8 49  1  0  0  0
  8 50  1  0  0  0
 11 51  1  0  0  0
 11 52  1  0  0  0
 14 53  1  0  0  0
 15 54  1  0  0  0
 16 55  1  0  0  0
 16 56  1  0  0  0
 18 57  1  0  0  0
 19 58  1  0  0  0
 20 59  1  0  0  0
 21 60  1  0  0  0
 22 61  1  0  0  0
 23 62  1  0  0  0
 24 63  1  0  0  0
 28 64  1  0  0  0
 28 65  1  0  0  0
 31 66  1  0  0  0
 31 67  1  0  0  0
 31 68  1  0  0  0
 32 69  1  0  0  0
 32 70  1  0  0  0
 32 71  1  0  0  0
 33 72  1  0  0  0
 36 73  1  0  0  0
 37 74  1  0  0  0
 37 75  1  0  0  0
 39 76  1  0  0  0
 39 77  1  0  0  0
 39 78  1  0  0  0
 40 79  1  0  0  0
 40 80  1  0  0  0
M  END
$$$$
