5k0i_ligand
  -I-interpret- 

 63 66  0  0  0  0  0  0  0  0999 V2000
   12.4340   14.2990   34.0350 O   0  0  0  0  0
    6.7370   14.4820   20.7770 C   0  0  0  0  0
   13.7780   16.8810   33.9270 O   0  0  0  0  0
    7.5990   15.3370   20.1060 C   0  0  0  0  0
    7.9990   14.7530   22.8070 C   0  0  0  0  0
    9.3040   14.6210   26.1140 N   0  0  0  0  0
    8.6630   15.8910   20.7550 C   0  0  0  0  0
   10.1310   15.8350   24.1750 C   0  0  0  0  0
    9.9720   16.1500   22.8630 C   0  0  0  0  0
    8.8930   15.6180   22.1250 C   0  0  0  0  0
    8.6910   16.2940   30.5630 O   0  0  0  0  0
    9.2730   15.2280   30.3940 C   0  0  0  0  0
    9.8340   14.5450   31.3980 N   0  0  0  0  0
    9.9990   15.1150   32.7390 C   0  0  0  0  0
   10.0250   14.0320   33.8180 C   0  0  0  0  0
   11.3640   13.3420   33.9570 C   0  0  0  0  0
   12.5080   15.1030   32.8580 C   0  0  0  0  0
   13.8030   15.8700   32.9320 C   0  0  0  0  0
   11.2670   15.9710   32.7980 C   0  0  0  0  0
    9.4060   14.6010   29.0190 C   0  0  0  0  0
   10.5640   15.2430   28.1890 C   0  0  0  0  0
   10.3950   16.7590   27.9840 C   0  0  0  0  0
   11.9280   15.0150   28.8520 C   0  0  0  0  0
   10.5920   14.5730   26.8070 C   0  0  0  0  0
    8.0620   14.6060   28.2650 C   0  0  0  0  0
    8.2130   13.9910   26.8650 C   0  0  0  0  0
    9.1980   14.9730   24.7830 C   0  0  0  0  0
    6.8980   14.1700   22.1120 C   0  0  0  0  0
    5.9540   13.2370   22.8290 C   0  0  0  0  0
    8.1660   14.4480   24.1410 N   0  0  0  0  0
    5.9031   14.0410   20.2308 H   0  0  0  0  0
   14.6210   17.3402   33.9362 H   0  0  0  0  0
    7.4251   15.5672   19.0549 H   0  0  0  0  0
    9.3423   16.5498   20.2141 H   0  0  0  0  0
   10.9653   16.2419   24.7464 H   0  0  0  0  0
   10.6828   16.8183   22.3769 H   0  0  0  0  0
   10.1586   13.5937   31.2246 H   0  0  0  0  0
    9.1354   15.7490   32.9397 H   0  0  0  0  0
    9.2957   13.2730   33.5349 H   0  0  0  0  0
    9.8080   14.5161   34.7702 H   0  0  0  0  0
   11.3580   12.7502   34.8724 H   0  0  0  0  0
   11.5236   12.7110   33.0827 H   0  0  0  0  0
   12.5205   14.5277   31.9323 H   0  0  0  0  0
   14.5966   15.1673   33.1857 H   0  0  0  0  0
   13.9653   16.3508   31.9673 H   0  0  0  0  0
   11.2296   16.5890   33.6951 H   0  0  0  0  0
   11.3147   16.5866   31.8998 H   0  0  0  0  0
    9.6822   13.5564   29.1630 H   0  0  0  0  0
    9.4628   16.9508   27.4527 H   0  0  0  0  0
   10.3704   17.2550   28.9543 H   0  0  0  0  0
   11.2326   17.1410   27.4004 H   0  0  0  0  0
   11.9270   15.4629   29.8457 H   0  0  0  0  0
   12.1159   13.9445   28.9348 H   0  0  0  0  0
   12.7072   15.4761   28.2450 H   0  0  0  0  0
   11.3157   15.1111   26.1947 H   0  0  0  0  0
   10.8476   13.5237   26.9548 H   0  0  0  0  0
    7.7245   15.6370   28.1592 H   0  0  0  0  0
    7.3418   14.0148   28.8306 H   0  0  0  0  0
    8.4391   12.9306   26.9770 H   0  0  0  0  0
    7.2832   14.1469   26.3180 H   0  0  0  0  0
    4.9438   13.6447   22.7913 H   0  0  0  0  0
    5.9716   12.2610   22.3440 H   0  0  0  0  0
    6.2669   13.1335   23.8680 H   0  0  0  0  0
 16  1  1  0  0  0
 17  1  1  0  0  0
  4  2  4  0  0  0
 28  2  4  0  0  0
 18  3  1  0  0  0
  7  4  4  0  0  0
 10  5  4  0  0  0
  5 28  4  0  0  0
  5 30  4  0  0  0
 24  6  1  0  0  0
  6 26  1  0  0  0
  6 27  1  0  0  0
 10  7  4  0  0  0
  8  9  4  0  0  0
 27  8  4  0  0  0
  9 10  4  0  0  0
 12 11  2  0  0  0
 12 13  1  0  0  0
 20 12  1  0  0  0
 13 14  1  0  0  0
 14 15  1  0  0  0
 14 19  1  0  0  0
 15 16  1  0  0  0
 17 18  1  0  0  0
 19 17  1  0  0  0
 21 20  1  0  0  0
 20 25  1  0  0  0
 21 22  1  0  0  0
 21 23  1  0  0  0
 21 24  1  0  0  0
 25 26  1  0  0  0
 27 30  4  0  0  0
 28 29  1  0  0  0
  2 31  1  0  0  0
  3 32  1  0  0  0
  4 33  1  0  0  0
  7 34  1  0  0  0
  8 35  1  0  0  0
  9 36  1  0  0  0
 13 37  1  0  0  0
 14 38  1  0  0  0
 15 39  1  0  0  0
 15 40  1  0  0  0
 16 41  1  0  0  0
 16 42  1  0  0  0
 17 43  1  0  0  0
 18 44  1  0  0  0
 18 45  1  0  0  0
 19 46  1  0  0  0
 19 47  1  0  0  0
 20 48  1  0  0  0
 22 49  1  0  0  0
 22 50  1  0  0  0
 22 51  1  0  0  0
 23 52  1  0  0  0
 23 53  1  0  0  0
 23 54  1  0  0  0
 24 55  1  0  0  0
 24 56  1  0  0  0
 25 57  1  0  0  0
 25 58  1  0  0  0
 26 59  1  0  0  0
 26 60  1  0  0  0
 29 61  1  0  0  0
 29 62  1  0  0  0
 29 63  1  0  0  0
M  END
$$$$
