4uwk_ligand
  -I-interpret- 

 54 57  0  0  0  0  0  0  0  0999 V2000
   20.6730  -18.3380  -25.4760 C   0  0  0  0  0
   18.8020  -17.0550  -24.4420 C   0  0  0  0  0
   18.0450  -18.2130  -24.3920 N   0  0  0  0  0
   20.2220  -17.1360  -24.7560 N   0  0  0  0  0
   18.2810  -15.8370  -24.1500 N   0  0  0  0  0
   16.6500  -18.1220  -24.0680 C   0  0  0  0  0
   18.5760  -19.5550  -24.7550 C   0  0  0  0  0
   16.9360  -15.6820  -23.6890 C   0  0  0  0  0
   16.1290  -16.8230  -23.6970 C   0  0  0  0  0
   16.0330  -19.1720  -24.1220 O   0  0  0  0  0
   20.1010  -19.6290  -24.8650 C   0  0  0  0  0
   15.0870  -14.0590  -23.6480 C   0  0  0  0  0
   14.6770  -12.9030  -22.7710 C   0  0  0  0  0
   15.5550  -11.7830  -22.9190 O   0  0  0  0  0
   16.8970  -12.0770  -22.4940 C   0  0  0  0  0
   17.4780  -13.4010  -22.9790 C   0  0  0  0  0
   16.5100  -14.4570  -23.4180 N   0  3  0  0  0
   20.4510  -18.2000  -26.9700 C   0  0  0  0  0
   19.2360  -17.7650  -27.2810 F   0  0  0  0  0
   20.6210  -19.3540  -27.6080 F   0  0  0  0  0
   21.3060  -17.3370  -27.5030 F   0  0  0  0  0
   22.1450  -15.1980  -21.8220 S   0  0  0  0  0
   21.4610  -15.6510  -23.2790 C   0  0  0  0  0
   21.3410  -14.6520  -24.1830 C   0  0  0  0  0
   21.8150  -13.4250  -23.6770 C   0  0  0  0  0
   22.2950  -13.5700  -22.4210 C   0  0  0  0  0
   22.9490  -12.2770  -21.5710 Cl  0  0  0  0  0
   21.0360  -16.9910  -23.5060 C   0  0  0  0  0
   14.7640  -13.8190  -25.1170 C   0  0  0  0  0
   18.4450  -13.8680  -21.9060 C   0  0  0  0  0
   21.7516  -18.4276  -25.3468 H   0  0  0  0  0
   18.8650  -15.0083  -24.2624 H   0  0  0  0  0
   18.1740  -19.8008  -25.7379 H   0  0  0  0  0
   18.2810  -20.2395  -23.9596 H   0  0  0  0  0
   15.8467  -16.9470  -22.6515 H   0  0  0  0  0
   15.3897  -16.6110  -24.4694 H   0  0  0  0  0
   20.5178  -19.7577  -23.8661 H   0  0  0  0  0
   20.3648  -20.4676  -25.5094 H   0  0  0  0  0
   14.4796  -14.9138  -23.3505 H   0  0  0  0  0
   14.7148  -13.2318  -21.7325 H   0  0  0  0  0
   13.6740  -12.5917  -23.0628 H   0  0  0  0  0
   16.8670  -12.1365  -21.4060 H   0  0  0  0  0
   17.5289  -11.2940  -22.9132 H   0  0  0  0  0
   17.9831  -13.2142  -23.9267 H   0  0  0  0  0
   20.9272  -14.7806  -25.1832 H   0  0  0  0  0
   21.7971  -12.4833  -24.2256 H   0  0  0  0  0
   21.9262  -17.6108  -23.6127 H   0  0  0  0  0
   20.4125  -17.2914  -22.6640 H   0  0  0  0  0
   13.6899  -13.6735  -25.2325 H   0  0  0  0  0
   15.2917  -12.9303  -25.4632 H   0  0  0  0  0
   15.0800  -14.6821  -25.7029 H   0  0  0  0  0
   19.2295  -13.1225  -21.7763 H   0  0  0  0  0
   17.9078  -13.9991  -20.9667 H   0  0  0  0  0
   18.8896  -14.8165  -22.2072 H   0  0  0  0  0
  4  1  1  0  0  0
  1 11  1  0  0  0
  1 18  1  0  0  0
  2  3  4  0  0  0
  4  2  1  0  0  0
  2  5  1  0  0  0
  3  6  1  0  0  0
  3  7  1  0  0  0
 28  4  1  0  0  0
  5  8  1  0  0  0
  6  9  1  0  0  0
  6 10  2  0  0  0
 11  7  1  0  0  0
  8  9  1  0  0  0
  8 17  2  0  0  0
 12 13  1  0  0  0
 17 12  1  0  0  0
 12 29  1  0  0  0
 13 14  1  0  0  0
 15 14  1  0  0  0
 16 15  1  0  0  0
 17 16  1  0  0  0
 16 30  1  0  0  0
 18 19  1  0  0  0
 18 20  1  0  0  0
 18 21  1  0  0  0
 23 22  4  0  0  0
 22 26  4  0  0  0
 23 24  4  0  0  0
 23 28  1  0  0  0
 24 25  4  0  0  0
 25 26  4  0  0  0
 26 27  1  0  0  0
  1 31  1  0  0  0
  5 32  1  0  0  0
  7 33  1  0  0  0
  7 34  1  0  0  0
  9 35  1  0  0  0
  9 36  1  0  0  0
 11 37  1  0  0  0
 11 38  1  0  0  0
 12 39  1  0  0  0
 13 40  1  0  0  0
 13 41  1  0  0  0
 15 42  1  0  0  0
 15 43  1  0  0  0
 16 44  1  0  0  0
 24 45  1  0  0  0
 25 46  1  0  0  0
 28 47  1  0  0  0
 28 48  1  0  0  0
 29 49  1  0  0  0
 29 50  1  0  0  0
 29 51  1  0  0  0
 30 52  1  0  0  0
 30 53  1  0  0  0
 30 54  1  0  0  0
M  END
$$$$
