2w6n_ligand
  -I-interpret- 

 40 42  0  0  0  0  0  0  0  0999 V2000
    4.7780  -24.3280   23.2950 O   0  0  0  0  0
    3.8310  -23.6740   23.7420 C   0  0  0  0  0
    2.6920  -24.4920   24.3020 C   0  0  0  0  0
    2.9270  -25.8280   24.1360 O   0  0  0  0  0
    1.8280  -26.3890   24.6940 C   0  0  0  0  0
    1.6810  -27.7340   24.7320 N   0  0  0  0  0
    0.9390  -25.5240   25.2090 N   0  0  0  0  0
    1.4700  -24.2950   24.9650 C   0  0  0  0  0
    3.8840  -22.3260   23.7160 N   0  0  0  0  0
    4.9510  -21.6090   23.0110 C   0  0  0  0  0
    5.7770  -20.7960   23.9920 C   0  0  0  0  0
    5.9040  -19.4100   23.8250 C   0  0  0  0  0
    6.6590  -18.6640   24.7270 C   0  0  0  0  0
    7.2910  -19.2950   25.7920 C   0  0  0  0  0
    7.1600  -20.6720   25.9670 C   0  0  0  0  0
    6.3940  -21.4260   25.0660 C   0  0  0  0  0
    2.9350  -21.4250   24.3540 C   0  0  0  0  0
    2.0070  -20.7970   23.3440 C   0  0  0  0  0
    1.7350  -21.4000   22.1220 C   0  0  0  0  0
    0.8780  -20.7840   21.2200 C   0  0  0  0  0
    0.2840  -19.5650   21.5410 C   0  0  0  0  0
    0.5620  -18.9610   22.7560 C   0  0  0  0  0
    1.4250  -19.5760   23.6570 C   0  0  0  0  0
    2.4027  -28.3373   24.3375 H   0  0  0  0  0
    0.8485  -28.1443   25.1551 H   0  0  0  0  0
    1.0285  -23.3355   25.2343 H   0  0  0  0  0
    4.5042  -20.9363   22.2789 H   0  0  0  0  0
    5.5981  -22.3323   22.5148 H   0  0  0  0  0
    5.4112  -18.9153   22.9880 H   0  0  0  0  0
    6.7541  -17.5859   24.5977 H   0  0  0  0  0
    7.8901  -18.7123   26.4917 H   0  0  0  0  0
    7.6537  -21.1633   26.8054 H   0  0  0  0  0
    6.2832  -22.5011   25.2075 H   0  0  0  0  0
    3.4923  -20.6316   24.8519 H   0  0  0  0  0
    2.3377  -21.9976   25.0635 H   0  0  0  0  0
    2.1943  -22.3563   21.8717 H   0  0  0  0  0
    0.6695  -21.2546   20.2592 H   0  0  0  0  0
   -0.3980  -19.0878   20.8373 H   0  0  0  0  0
    0.1045  -18.0038   23.0061 H   0  0  0  0  0
    1.6450  -19.0979   24.6115 H   0  0  0  0  0
  1  2  2  0  0  0
  2  3  1  0  0  0
  2  9  1  0  0  0
  3  4  4  0  0  0
  3  8  4  0  0  0
  4  5  4  0  0  0
  5  6  1  0  0  0
  5  7  4  0  0  0
  7  8  4  0  0  0
  9 10  1  0  0  0
  9 17  1  0  0  0
 10 11  1  0  0  0
 11 12  4  0  0  0
 11 16  4  0  0  0
 12 13  4  0  0  0
 13 14  4  0  0  0
 14 15  4  0  0  0
 15 16  4  0  0  0
 17 18  1  0  0  0
 18 19  4  0  0  0
 18 23  4  0  0  0
 19 20  4  0  0  0
 20 21  4  0  0  0
 21 22  4  0  0  0
 22 23  4  0  0  0
  6 24  1  0  0  0
  6 25  1  0  0  0
  8 26  1  0  0  0
 10 27  1  0  0  0
 10 28  1  0  0  0
 12 29  1  0  0  0
 13 30  1  0  0  0
 14 31  1  0  0  0
 15 32  1  0  0  0
 16 33  1  0  0  0
 17 34  1  0  0  0
 17 35  1  0  0  0
 19 36  1  0  0  0
 20 37  1  0  0  0
 21 38  1  0  0  0
 22 39  1  0  0  0
 23 40  1  0  0  0
M  END
$$$$
