3u9n_ligand
  -I-interpret- 

 50 54  0  0  0  0  0  0  0  0999 V2000
    6.9320   -5.2320   12.2840 C   0  0  0  0  0
    6.2820   -4.2660   11.5650 C   0  0  0  0  0
    6.9910   -3.3430   10.8120 C   0  0  0  0  0
    8.3760   -3.3890   10.7940 C   0  0  0  0  0
    9.0640   -4.3920   11.5330 C   0  0  0  0  0
    8.3210   -5.2890   12.2890 C   0  0  0  0  0
   10.4640   -4.3870   11.5550 N   0  0  0  0  0
   11.1250   -5.7050   11.6860 C   0  0  0  0  0
   12.6620   -5.5330   11.5820 C   0  0  0  0  0
   13.2360   -4.5610   12.5610 N   0  3  0  0  0
   12.5700   -3.2700   12.3650 C   0  0  0  0  0
   11.0380   -3.3510   12.4970 C   0  0  0  0  0
    9.1760   -2.5070   10.0470 N   0  0  0  0  0
    8.8850   -1.3130    9.4330 C   0  0  0  0  0
    7.8710   -0.6450    9.5370 O   0  0  0  0  0
    9.9930   -0.8610    8.6120 C   0  0  0  0  0
   11.2310   -1.5580    8.5830 N   0  0  0  0  0
   12.0840   -0.9650    7.7620 C   0  0  0  0  0
   11.4740    0.4520    7.0280 S   0  0  0  0  0
    9.9560    0.2610    7.8200 C   0  0  0  0  0
   13.4760   -1.4020    7.5370 C   0  0  0  0  0
   14.3930   -0.6580    6.7390 C   0  0  0  0  0
   15.7190   -1.0600    6.5750 C   0  0  0  0  0
   16.1210   -2.2040    7.2350 C   0  0  0  0  0
   15.2590   -2.9390    8.0320 C   0  0  0  0  0
   13.9330   -2.5450    8.1980 C   0  0  0  0  0
   17.3950   -2.7290    7.1650 O   0  0  0  0  0
   17.4150   -3.7600    8.2100 C   0  0  0  0  0
   15.9730   -4.1190    8.5910 C   0  0  0  0  0
    6.3575   -5.9607   12.8559 H   0  0  0  0  0
    5.1931   -4.2218   11.5846 H   0  0  0  0  0
    6.4613   -2.5840   10.2363 H   0  0  0  0  0
    8.8300   -6.0425   12.8901 H   0  0  0  0  0
   10.7807   -6.3622   10.8875 H   0  0  0  0  0
   10.8753   -6.1392   12.6541 H   0  0  0  0  0
   12.8764   -5.1498   10.5844 H   0  0  0  0  0
   13.1097   -6.5043   11.7924 H   0  0  0  0  0
   14.2405   -4.4644   12.4126 H   0  0  0  0  0
   13.0867   -4.8924   13.5140 H   0  0  0  0  0
   12.7968   -2.9316   11.3540 H   0  0  0  0  0
   12.9324   -2.5910   13.1368 H   0  0  0  0  0
   10.7906   -3.6346   13.5200 H   0  0  0  0  0
   10.6144   -2.3786   12.2460 H   0  0  0  0  0
   10.1452   -2.8069    9.9422 H   0  0  0  0  0
    9.0998    0.9265    7.7099 H   0  0  0  0  0
   14.0491    0.2498    6.2433 H   0  0  0  0  0
   16.4099   -0.4934    5.9507 H   0  0  0  0  0
   13.2613   -3.1206    8.8348 H   0  0  0  0  0
   18.3118   -4.2003    8.6458 H   0  0  0  0  0
   15.5832   -4.9889    9.1196 H   0  0  0  0  0
  1  2  4  0  0  0
  1  6  4  0  0  0
  2  3  4  0  0  0
  3  4  4  0  0  0
  4  5  4  0  0  0
  4 13  1  0  0  0
  5  6  4  0  0  0
  5  7  1  0  0  0
  7  8  1  0  0  0
  7 12  1  0  0  0
  8  9  1  0  0  0
  9 10  1  0  0  0
 10 11  1  0  0  0
 11 12  1  0  0  0
 13 14  1  0  0  0
 14 15  2  0  0  0
 14 16  1  0  0  0
 16 17  4  0  0  0
 16 20  4  0  0  0
 17 18  4  0  0  0
 18 19  4  0  0  0
 18 21  1  0  0  0
 19 20  4  0  0  0
 21 22  4  0  0  0
 21 26  4  0  0  0
 22 23  4  0  0  0
 23 24  4  0  0  0
 24 25  4  0  0  0
 24 27  4  0  0  0
 25 26  4  0  0  0
 25 29  4  0  0  0
 27 28  4  0  0  0
 28 29  4  0  0  0
  1 30  1  0  0  0
  2 31  1  0  0  0
  3 32  1  0  0  0
  6 33  1  0  0  0
  8 34  1  0  0  0
  8 35  1  0  0  0
  9 36  1  0  0  0
  9 37  1  0  0  0
 10 38  1  0  0  0
 10 39  1  0  0  0
 11 40  1  0  0  0
 11 41  1  0  0  0
 12 42  1  0  0  0
 12 43  1  0  0  0
 13 44  1  0  0  0
 20 45  1  0  0  0
 22 46  1  0  0  0
 23 47  1  0  0  0
 26 48  1  0  0  0
 28 49  1  0  0  0
 29 50  1  0  0  0
M  END
$$$$
