### 
### Created by X-TOOL on Mon Sep 10 21:12:48 2018
### 

@<TRIPOS>MOLECULE
1dxp_ligand
  188   187     1     0     0
SMALL
GAST_HUCK


@<TRIPOS>ATOM
      1 N          -8.8030   14.6150   11.1730 N.4       1 GLY         0.2357
      2 CA         -7.6930   14.7600   10.1630 C.3       1 GLY         0.0545
      3 C          -6.7720   15.9210   10.5540 C.2       1 GLY         0.2237
      4 O          -7.2060   17.0700   10.6690 O.2       1 GLY        -0.3910
      5 N          -5.5350   15.6400   10.8980 N.am      1 SER        -0.2591
      6 CA         -4.6070   16.5720   11.5240 C.3       1 SER         0.1540
      7 C          -3.6860   17.2890   10.5150 C.2       1 SER         0.2062
      8 O          -3.3690   16.6710    9.4700 O.2       1 SER        -0.3943
      9 CB         -3.6700   15.7560   12.4040 C.3       1 SER         0.0843
     10 OG         -3.9300   15.7970   13.7820 O.3       1 SER        -0.3903
     11 N          -3.3740   18.5690   10.7370 N.am      1 VAL        -0.2634
     12 CA         -2.5120   19.2870    9.7870 C.3       1 VAL         0.1333
     13 C          -1.0940   18.7280    9.9730 C.2       1 VAL         0.2042
     14 O          -0.7400   18.3450   11.0830 O.2       1 VAL        -0.3944
     15 CB         -2.4550   20.8060    9.9410 C.3       1 VAL        -0.0063
     16 CG1        -1.5140   21.4390    8.9140 C.3       1 VAL        -0.0584
     17 CG2        -3.8320   21.4600    9.8030 C.3       1 VAL        -0.0584
     18 N          -0.2730   18.6510    8.9300 N.am      1 VAL        -0.2635
     19 CA          1.0440   18.0040    9.0850 C.3       1 VAL         0.1332
     20 C           2.2040   18.8800    8.6360 C.2       1 VAL         0.2042
     21 O           2.2290   19.5060    7.5730 O.2       1 VAL        -0.3944
     22 CB          1.1240   16.6950    8.2730 C.3       1 VAL        -0.0063
     23 CG1         2.3670   15.9130    8.6750 C.3       1 VAL        -0.0584
     24 CG2        -0.1510   15.8590    8.4410 C.3       1 VAL        -0.0584
     25 N           3.1950   19.0080    9.5070 N.am      1 ILE        -0.2635
     26 CA          4.4530   19.6540    9.1480 C.3       1 ILE         0.1335
     27 C           5.1960   18.8210    8.1240 C.2       1 ILE         0.2042
     28 O           5.8400   17.8570    8.5280 O.2       1 ILE        -0.3944
     29 CB          5.3210   19.8700   10.4100 C.3       1 ILE        -0.0037
     30 CG1         4.5920   20.8970   11.3140 C.3       1 ILE        -0.0491
     31 CG2         6.6940   20.3560   10.0630 C.3       1 ILE        -0.0582
     32 CD1         5.4280   21.2250   12.5580 C.3       1 ILE        -0.0648
     33 N           5.1500   19.1500    6.8410 N.am      1 VAL        -0.2635
     34 CA          5.8810   18.4200    5.8150 C.3       1 VAL         0.1332
     35 C           7.2460   19.0070    5.4980 C.2       1 VAL         0.2039
     36 O           7.9300   18.4900    4.6230 O.2       1 VAL        -0.3944
     37 CB          5.1450   18.3410    4.4500 C.3       1 VAL        -0.0063
     38 CG1         3.7340   17.8230    4.7090 C.3       1 VAL        -0.0584
     39 CG2         5.0740   19.6490    3.7190 C.3       1 VAL        -0.0584
     40 N           7.6700   20.0720    6.1620 N.am      1 GLY        -0.2664
     41 CA          8.9980   20.6240    5.9280 C.3       1 GLY         0.1201
     42 C           9.1230   21.9680    6.6320 C.2       1 GLY         0.2007
     43 O           8.1360   22.3630    7.2070 O.2       1 GLY        -0.3947
     44 N          10.2280   22.6830    6.5060 N.am      1 ARG        -0.2640
     45 CA         10.4670   23.9090    7.2330 C.3       1 ARG         0.1311
     46 C          11.3990   24.8720    6.4840 C.2       1 ARG         0.2039
     47 O          12.1500   24.5460    5.5690 O.2       1 ARG        -0.3944
     48 CB         11.0250   23.6490    8.6190 C.3       1 ARG        -0.0092
     49 CG         12.5370   23.4060    8.7000 C.3       1 ARG        -0.0156
     50 CD         12.8200   21.9630    8.3080 C.3       1 ARG         0.0627
     51 NE         13.9970   21.4490    8.9750 N.pl3     1 ARG        -0.2723
     52 CZ         14.1820   20.8030   10.1110 C.cat     1 ARG         0.2882
     53 NH1        13.2160   20.4520   10.9630 N.pl3     1 ARG        -0.2849
     54 NH2        15.4650   20.5140   10.3460 N.pl3     1 ARG        -0.2849
     55 N          11.3110   26.1340    6.8920 N.am      1 ILE        -0.2635
     56 CA         12.0610   27.2280    6.2990 C.3       1 ILE         0.1335
     57 C          12.8880   27.9260    7.3770 C.2       1 ILE         0.2042
     58 O          12.3900   28.3740    8.3990 O.2       1 ILE        -0.3944
     59 CB         11.2270   28.2810    5.5470 C.3       1 ILE        -0.0037
     60 CG1        10.6260   27.6560    4.2770 C.3       1 ILE        -0.0491
     61 CG2        12.1350   29.4470    5.1680 C.3       1 ILE        -0.0582
     62 CD1         9.3390   28.3370    3.8640 C.3       1 ILE        -0.0648
     63 N          14.1960   27.8670    7.1620 N.am      1 ILE        -0.2635
     64 CA         15.1670   28.4420    8.0840 C.3       1 ILE         0.1335
     65 C          15.5590   29.8720    7.7070 C.2       1 ILE         0.2042
     66 O          15.9540   30.2390    6.5920 O.2       1 ILE        -0.3944
     67 CB         16.4430   27.5790    8.1070 C.3       1 ILE        -0.0037
     68 CG1        16.0600   26.1400    8.4760 C.3       1 ILE        -0.0491
     69 CG2        17.4870   28.1890    9.0330 C.3       1 ILE        -0.0582
     70 CD1        15.3140   26.0480    9.7820 C.3       1 ILE        -0.0648
     71 N          15.4340   30.7540    8.6940 N.am      1 LEU        -0.2637
     72 CA         15.6010   32.1840    8.4780 C.3       1 LEU         0.1312
     73 C          16.9390   32.7720    8.9120 C.2       1 LEU         0.2040
     74 O          17.6020   32.4520    9.8920 O.2       1 LEU        -0.3944
     75 CB         14.4890   32.9870    9.1530 C.3       1 LEU        -0.0101
     76 CG         13.6170   33.8500    8.2430 C.3       1 LEU        -0.0425
     77 CD1        13.2600   33.1720    6.9330 C.3       1 LEU        -0.0625
     78 CD2        12.3520   34.2390    8.9980 C.3       1 LEU        -0.0625
     79 N          17.3380   33.7510    8.1040 N.am      1 SER        -0.2604
     80 CA         18.7140   34.2360    8.1000 C.3       1 SER         0.1651
     81 C          18.8090   35.7610    8.1090 C.2       1 SER         0.2594
     82 O          18.4150   36.3390    7.0700 O.2       1 SER        -0.3679
     83 CB         19.4510   33.7340    6.8570 C.3       1 SER         0.0857
     84 OG         20.8430   33.9260    6.9830 O.3       1 SER        -0.3902
     85 O1         19.2808   36.4330    9.1553 O.3       1 SER        -0.2909
     86 H1         -9.4020   13.8494   10.9063 H         1 GLY         0.2012
     87 H2         -9.3409   15.4668   11.2057 H         1 GLY         0.2012
     88 H3         -8.4082   14.4317   12.0822 H         1 GLY         0.2012
     89 H4         -8.1269   14.9580    9.1718 H         1 GLY         0.1061
     90 H5         -7.1090   13.8285   10.1282 H         1 GLY         0.1061
     91 H6         -5.2051   14.7138   10.7157 H         1 SER         0.1885
     92 H7         -5.1678   17.3113   12.1146 H         1 SER         0.0823
     93 H8         -2.6475   16.1284   12.2431 H         1 SER         0.0606
     94 H9         -3.7332   14.7065   12.0806 H         1 SER         0.0606
     95 H10        -3.8667   16.6939   14.0885 H         1 SER         0.2097
     96 H11        -3.7260   19.0375   11.5474 H         1 VAL         0.1883
     97 H12        -2.8670   19.0662    8.7695 H         1 VAL         0.0802
     98 H13        -2.0692   21.0248   10.9476 H         1 VAL         0.0343
     99 H14        -1.4983   22.5299    9.0546 H         1 VAL         0.0234
    100 H15        -1.8681   21.2052    7.8991 H         1 VAL         0.0234
    101 H16        -0.4991   21.0372    9.0499 H         1 VAL         0.0234
    102 H17        -4.5234   21.0168   10.5348 H         1 VAL         0.0234
    103 H18        -4.2173   21.2924    8.7864 H         1 VAL         0.0234
    104 H19        -3.7449   22.5407    9.9886 H         1 VAL         0.0234
    105 H20        -0.5465   19.0294    8.0457 H         1 VAL         0.1883
    106 H21         1.1769   17.7700   10.1516 H         1 VAL         0.0802
    107 H22         1.2158   16.9572    7.2087 H         1 VAL         0.0343
    108 H23         2.4182   14.9812    8.0927 H         1 VAL         0.0234
    109 H24         2.3183   15.6730    9.7474 H         1 VAL         0.0234
    110 H25         3.2625   16.5198    8.4753 H         1 VAL         0.0234
    111 H26        -1.0239   16.4574    8.1412 H         1 VAL         0.0234
    112 H27        -0.2565   15.5587    9.4939 H         1 VAL         0.0234
    113 H28        -0.0870   14.9615    7.8083 H         1 VAL         0.0234
    114 H29         3.0773   18.6526   10.4343 H         1 ILE         0.1883
    115 H30         4.2300   20.6357    8.7046 H         1 ILE         0.0803
    116 H31         5.4151   18.9153   10.9482 H         1 ILE         0.0345
    117 H32         3.6262   20.4761   11.6304 H         1 ILE         0.0267
    118 H33         4.4198   21.8209   10.7425 H         1 ILE         0.0267
    119 H34         7.1942   19.6149    9.4223 H         1 ILE         0.0235
    120 H35         7.2771   20.4966   10.9850 H         1 ILE         0.0235
    121 H36         6.6194   21.3135    9.5267 H         1 ILE         0.0235
    122 H37         4.8886   21.9542   13.1804 H         1 ILE         0.0230
    123 H38         6.3941   21.6505   12.2488 H         1 ILE         0.0230
    124 H39         5.6006   20.3056   13.1367 H         1 ILE         0.0230
    125 H40         4.5902   19.9318    6.5663 H         1 VAL         0.1883
    126 H41         6.0216   17.3968    6.1936 H         1 VAL         0.0802
    127 H42         5.6808   17.6242    3.8104 H         1 VAL         0.0343
    128 H43         3.1873   17.7565    3.7568 H         1 VAL         0.0234
    129 H44         3.2087   18.5127    5.3859 H         1 VAL         0.0234
    130 H45         3.7884   16.8262    5.1710 H         1 VAL         0.0234
    131 H46         6.0924   20.0209    3.5332 H         1 VAL         0.0234
    132 H47         4.5222   20.3800    4.3282 H         1 VAL         0.0234
    133 H48         4.5554   19.5052    2.7596 H         1 VAL         0.0234
    134 H49         7.0691   20.5040    6.8345 H         1 GLY         0.1881
    135 H50         9.1526   20.7608    4.8476 H         1 GLY         0.0763
    136 H51         9.7569   19.9322    6.3223 H         1 GLY         0.0763
    137 H52        10.9339   22.3592    5.8760 H         1 ARG         0.1883
    138 H53         9.4949   24.4101    7.3507 H         1 ARG         0.0800
    139 H54        10.5191   22.7603    9.0243 H         1 ARG         0.0313
    140 H55        10.7904   24.5221    9.2456 H         1 ARG         0.0313
    141 H56        12.8865   23.5860    9.7273 H         1 ARG         0.0301
    142 H57        13.0588   24.0861    8.0107 H         1 ARG         0.0301
    143 H58        12.9761   21.9129    7.2203 H         1 ARG         0.0689
    144 H59        11.9545   21.3423    8.5832 H         1 ARG         0.0689
    145 H60        14.8698   21.6231    8.4566 H         1 ARG         0.2642
    146 H61        13.4518   19.9477   11.8296 H         1 ARG         0.2615
    147 H62        12.2349   20.6854   10.7537 H         1 ARG         0.2615
    148 H63        16.1889   20.7976    9.6704 H         1 ARG         0.2615
    149 H64        15.7303   20.0076   11.2028 H         1 ARG         0.2615
    150 H65        10.6934   26.3423    7.6504 H         1 ILE         0.1883
    151 H66        12.7524   26.7829    5.5684 H         1 ILE         0.0803
    152 H67        10.4154   28.6414    6.1962 H         1 ILE         0.0345
    153 H68        10.4195   26.5926    4.4681 H         1 ILE         0.0267
    154 H69        11.3544   27.7467    3.4577 H         1 ILE         0.0267
    155 H70        12.5622   29.8904    6.0796 H         1 ILE         0.0235
    156 H71        11.5501   30.2074    4.6299 H         1 ILE         0.0235
    157 H72        12.9475   29.0839    4.5214 H         1 ILE         0.0235
    158 H73         8.9466   27.8586    2.9545 H         1 ILE         0.0230
    159 H74         9.5349   29.4007    3.6634 H         1 ILE         0.0230
    160 H75         8.6001   28.2466    4.6738 H         1 ILE         0.0230
    161 H76        14.5279   27.4108    6.3363 H         1 ILE         0.1883
    162 H77        14.7223   28.4543    9.0900 H         1 ILE         0.0803
    163 H78        16.8700   27.5638    7.0934 H         1 ILE         0.0345
    164 H79        16.9794   25.5412    8.5541 H         1 ILE         0.0267
    165 H80        15.4226   25.7309    7.6783 H         1 ILE         0.0267
    166 H81        17.7101   29.2159    8.7080 H         1 ILE         0.0235
    167 H82        18.4060   27.5855    8.9976 H         1 ILE         0.0235
    168 H83        17.0990   28.2063   10.0621 H         1 ILE         0.0235
    169 H84        15.0684   24.9963    9.9907 H         1 ILE         0.0230
    170 H85        14.3861   26.6351    9.7164 H         1 ILE         0.0230
    171 H86        15.9429   26.4454   10.5923 H         1 ILE         0.0230
    172 H87        15.2186   30.4249    9.6134 H         1 LEU         0.1883
    173 H88        15.5189   32.3428    7.3926 H         1 LEU         0.0800
    174 H89        14.9596   33.6520    9.8922 H         1 LEU         0.0315
    175 H90        13.8290   32.2741    9.6688 H         1 LEU         0.0315
    176 H91        14.1780   34.7654    8.0037 H         1 LEU         0.0298
    177 H92        12.6342   33.8462    6.3298 H         1 LEU         0.0232
    178 H93        12.7061   32.2443    7.1393 H         1 LEU         0.0232
    179 H94        14.1808   32.9341    6.3803 H         1 LEU         0.0232
    180 H95        12.6257   34.7287    9.9442 H         1 LEU         0.0232
    181 H96        11.7595   33.3368    9.2101 H         1 LEU         0.0232
    182 H97        11.7576   34.9323    8.3849 H         1 LEU         0.0232
    183 H98        16.6752   34.1666    7.4811 H         1 SER         0.1885
    184 H99        19.2157   33.8476    8.9986 H         1 SER         0.0840
    185 H100       19.0899   34.2864    5.9770 H         1 SER         0.0607
    186 H101       19.2462   32.6612    6.7260 H         1 SER         0.0607
    187 H102       21.1603   33.4477    7.7400 H         1 SER         0.2097
    188 H103       18.6098   37.0211    9.4813 H         1 SER         0.2540
@<TRIPOS>BOND
     1    2    1 1  
     2    3    2 1  
     3    3    4 2  
     4    6    5 1  
     5    6    9 1  
     6    7    6 1  
     7    7    8 2  
     8    9   10 1  
     9    5    3 am 
    10   12   11 1  
    11   12   15 1  
    12   13   12 1  
    13   13   14 2  
    14   15   17 1  
    15   15   16 1  
    16   11    7 am 
    17   19   18 1  
    18   19   22 1  
    19   20   19 1  
    20   20   21 2  
    21   22   24 1  
    22   22   23 1  
    23   18   13 am 
    24   26   25 1  
    25   26   29 1  
    26   27   26 1  
    27   27   28 2  
    28   29   31 1  
    29   29   30 1  
    30   30   32 1  
    31   25   20 am 
    32   34   33 1  
    33   34   37 1  
    34   35   34 1  
    35   35   36 2  
    36   37   39 1  
    37   37   38 1  
    38   33   27 am 
    39   41   40 1  
    40   42   41 1  
    41   42   43 2  
    42   40   35 am 
    43   45   44 1  
    44   45   48 1  
    45   46   45 1  
    46   46   47 2  
    47   48   49 1  
    48   49   50 1  
    49   50   51 1  
    50   51   52 ar 
    51   52   54 ar 
    52   52   53 ar 
    53   44   42 am 
    54   56   55 1  
    55   56   59 1  
    56   57   56 1  
    57   57   58 2  
    58   59   61 1  
    59   59   60 1  
    60   60   62 1  
    61   55   46 am 
    62   64   63 1  
    63   64   67 1  
    64   65   64 1  
    65   65   66 2  
    66   67   69 1  
    67   67   68 1  
    68   68   70 1  
    69   63   57 am 
    70   72   71 1  
    71   72   75 1  
    72   73   72 1  
    73   73   74 2  
    74   75   76 1  
    75   76   77 1  
    76   76   78 1  
    77   71   65 am 
    78   79   80 1  
    79   80   83 1  
    80   80   81 1  
    81   81   82 2  
    82   83   84 1  
    83   73   79 am 
    84   81   85 1  
    85    1   86 1  
    86    1   87 1  
    87    1   88 1  
    88    2   89 1  
    89    2   90 1  
    90    5   91 1  
    91    6   92 1  
    92    9   93 1  
    93    9   94 1  
    94   10   95 1  
    95   11   96 1  
    96   12   97 1  
    97   15   98 1  
    98   16   99 1  
    99   16  100 1  
   100   16  101 1  
   101   17  102 1  
   102   17  103 1  
   103   17  104 1  
   104   18  105 1  
   105   19  106 1  
   106   22  107 1  
   107   23  108 1  
   108   23  109 1  
   109   23  110 1  
   110   24  111 1  
   111   24  112 1  
   112   24  113 1  
   113   25  114 1  
   114   26  115 1  
   115   29  116 1  
   116   30  117 1  
   117   30  118 1  
   118   31  119 1  
   119   31  120 1  
   120   31  121 1  
   121   32  122 1  
   122   32  123 1  
   123   32  124 1  
   124   33  125 1  
   125   34  126 1  
   126   37  127 1  
   127   38  128 1  
   128   38  129 1  
   129   38  130 1  
   130   39  131 1  
   131   39  132 1  
   132   39  133 1  
   133   40  134 1  
   134   41  135 1  
   135   41  136 1  
   136   44  137 1  
   137   45  138 1  
   138   48  139 1  
   139   48  140 1  
   140   49  141 1  
   141   49  142 1  
   142   50  143 1  
   143   50  144 1  
   144   51  145 1  
   145   53  146 1  
   146   53  147 1  
   147   54  148 1  
   148   54  149 1  
   149   55  150 1  
   150   56  151 1  
   151   59  152 1  
   152   60  153 1  
   153   60  154 1  
   154   61  155 1  
   155   61  156 1  
   156   61  157 1  
   157   62  158 1  
   158   62  159 1  
   159   62  160 1  
   160   63  161 1  
   161   64  162 1  
   162   67  163 1  
   163   68  164 1  
   164   68  165 1  
   165   69  166 1  
   166   69  167 1  
   167   69  168 1  
   168   70  169 1  
   169   70  170 1  
   170   70  171 1  
   171   71  172 1  
   172   72  173 1  
   173   75  174 1  
   174   75  175 1  
   175   76  176 1  
   176   77  177 1  
   177   77  178 1  
   178   77  179 1  
   179   78  180 1  
   180   78  181 1  
   181   78  182 1  
   182   79  183 1  
   183   80  184 1  
   184   83  185 1  
   185   83  186 1  
   186   84  187 1  
   187   85  188 1  
@<TRIPOS>SUBSTRUCTURE
     1 GLY         1

