1dxp_ligand
  -I-interpret- 

187186  0  0  0  0  0  0  0  0999 V2000
   -8.8030   14.6150   11.1730 N   0  3  0  0  0
   -7.6930   14.7600   10.1630 C   0  0  0  0  0
   -6.7720   15.9210   10.5540 C   0  0  0  0  0
   -7.2060   17.0700   10.6690 O   0  0  0  0  0
   -5.5350   15.6400   10.8980 N   0  0  0  0  0
   -4.6070   16.5720   11.5240 C   0  0  0  0  0
   -3.6860   17.2890   10.5150 C   0  0  0  0  0
   -3.3690   16.6710    9.4700 O   0  0  0  0  0
   -3.6700   15.7560   12.4040 C   0  0  0  0  0
   -3.9300   15.7970   13.7820 O   0  0  0  0  0
   -3.3740   18.5690   10.7370 N   0  0  0  0  0
   -2.5120   19.2870    9.7870 C   0  0  0  0  0
   -1.0940   18.7280    9.9730 C   0  0  0  0  0
   -0.7400   18.3450   11.0830 O   0  0  0  0  0
   -2.4550   20.8060    9.9410 C   0  0  0  0  0
   -1.5140   21.4390    8.9140 C   0  0  0  0  0
   -3.8320   21.4600    9.8030 C   0  0  0  0  0
   -0.2730   18.6510    8.9300 N   0  0  0  0  0
    1.0440   18.0040    9.0850 C   0  0  0  0  0
    2.2040   18.8800    8.6360 C   0  0  0  0  0
    2.2290   19.5060    7.5730 O   0  0  0  0  0
    1.1240   16.6950    8.2730 C   0  0  0  0  0
    2.3670   15.9130    8.6750 C   0  0  0  0  0
   -0.1510   15.8590    8.4410 C   0  0  0  0  0
    3.1950   19.0080    9.5070 N   0  0  0  0  0
    4.4530   19.6540    9.1480 C   0  0  0  0  0
    5.1960   18.8210    8.1240 C   0  0  0  0  0
    5.8400   17.8570    8.5280 O   0  0  0  0  0
    5.3210   19.8700   10.4100 C   0  0  0  0  0
    4.5920   20.8970   11.3140 C   0  0  0  0  0
    6.6940   20.3560   10.0630 C   0  0  0  0  0
    5.4280   21.2250   12.5580 C   0  0  0  0  0
    5.1500   19.1500    6.8410 N   0  0  0  0  0
    5.8810   18.4200    5.8150 C   0  0  0  0  0
    7.2460   19.0070    5.4980 C   0  0  0  0  0
    7.9300   18.4900    4.6230 O   0  0  0  0  0
    5.1450   18.3410    4.4500 C   0  0  0  0  0
    3.7340   17.8230    4.7090 C   0  0  0  0  0
    5.0740   19.6490    3.7190 C   0  0  0  0  0
    7.6700   20.0720    6.1620 N   0  0  0  0  0
    8.9980   20.6240    5.9280 C   0  0  0  0  0
    9.1230   21.9680    6.6320 C   0  0  0  0  0
    8.1360   22.3630    7.2070 O   0  0  0  0  0
   10.2280   22.6830    6.5060 N   0  0  0  0  0
   10.4670   23.9090    7.2330 C   0  0  0  0  0
   11.3990   24.8720    6.4840 C   0  0  0  0  0
   12.1500   24.5460    5.5690 O   0  0  0  0  0
   11.0250   23.6490    8.6190 C   0  0  0  0  0
   12.5370   23.4060    8.7000 C   0  0  0  0  0
   12.8200   21.9630    8.3080 C   0  0  0  0  0
   13.9970   21.4490    8.9750 N   0  0  0  0  0
   14.1820   20.8030   10.1110 C   0  0  0  0  0
   13.2160   20.4520   10.9630 N   0  0  0  0  0
   15.4650   20.5140   10.3460 N   0  0  0  0  0
   11.3110   26.1340    6.8920 N   0  0  0  0  0
   12.0610   27.2280    6.2990 C   0  0  0  0  0
   12.8880   27.9260    7.3770 C   0  0  0  0  0
   12.3900   28.3740    8.3990 O   0  0  0  0  0
   11.2270   28.2810    5.5470 C   0  0  0  0  0
   10.6260   27.6560    4.2770 C   0  0  0  0  0
   12.1350   29.4470    5.1680 C   0  0  0  0  0
    9.3390   28.3370    3.8640 C   0  0  0  0  0
   14.1960   27.8670    7.1620 N   0  0  0  0  0
   15.1670   28.4420    8.0840 C   0  0  0  0  0
   15.5590   29.8720    7.7070 C   0  0  0  0  0
   15.9540   30.2390    6.5920 O   0  0  0  0  0
   16.4430   27.5790    8.1070 C   0  0  0  0  0
   16.0600   26.1400    8.4760 C   0  0  0  0  0
   17.4870   28.1890    9.0330 C   0  0  0  0  0
   15.3140   26.0480    9.7820 C   0  0  0  0  0
   15.4340   30.7540    8.6940 N   0  0  0  0  0
   15.6010   32.1840    8.4780 C   0  0  0  0  0
   16.9390   32.7720    8.9120 C   0  0  0  0  0
   17.6020   32.4520    9.8920 O   0  0  0  0  0
   14.4890   32.9870    9.1530 C   0  0  0  0  0
   13.6170   33.8500    8.2430 C   0  0  0  0  0
   13.2600   33.1720    6.9330 C   0  0  0  0  0
   12.3520   34.2390    8.9980 C   0  0  0  0  0
   17.3380   33.7510    8.1040 N   0  0  0  0  0
   18.7140   34.2360    8.1000 C   0  0  0  0  0
   18.8090   35.7610    8.1090 C   0  0  0  0  0
   18.4150   36.3390    7.0700 O   0  0  0  0  0
   19.4510   33.7340    6.8570 C   0  0  0  0  0
   20.8430   33.9260    6.9830 O   0  0  0  0  0
   19.2808   36.4330    9.1553 O   0  0  0  0  0
   -9.4084   13.8401   10.9021 H   0  0  0  0  0
   -8.4023   14.4297   12.0925 H   0  0  0  0  0
   -9.3465   15.4775   11.2052 H   0  0  0  0  0
   -8.1256   14.9615    9.1830 H   0  0  0  0  0
   -7.1129   13.8376   10.1347 H   0  0  0  0  0
   -5.1985   14.6952   10.7120 H   0  0  0  0  0
   -5.2069   17.3136   12.0515 H   0  0  0  0  0
   -2.6750   16.1796   12.2673 H   0  0  0  0  0
   -3.7922   14.7164   12.1000 H   0  0  0  0  0
   -3.2875   15.2536   14.2440 H   0  0  0  0  0
   -3.7330   19.0468   11.5636 H   0  0  0  0  0
   -2.9389   19.1254    8.7972 H   0  0  0  0  0
   -2.0789   20.9850   10.9483 H   0  0  0  0  0
   -0.5088   21.0400    9.0497 H   0  0  0  0  0
   -1.8659   21.2066    7.9089 H   0  0  0  0  0
   -1.4993   22.5198    9.0543 H   0  0  0  0  0
   -4.2418   21.2366    8.8180 H   0  0  0  0  0
   -4.4976   21.0683   10.5722 H   0  0  0  0  0
   -3.7337   22.5391    9.9208 H   0  0  0  0  0
   -0.5520   19.0369    8.0280 H   0  0  0  0  0
    1.1343   17.8128   10.1543 H   0  0  0  0  0
    1.2025   16.9420    7.2143 H   0  0  0  0  0
    3.2536   16.5153    8.4767 H   0  0  0  0  0
    2.3176   15.6758    9.7377 H   0  0  0  0  0
    2.4166   14.9900    8.0974 H   0  0  0  0  0
   -0.2836   15.6084    9.4935 H   0  0  0  0  0
   -1.0092   16.4334    8.0921 H   0  0  0  0  0
   -0.0631   14.9432    7.8564 H   0  0  0  0  0
    3.0750   18.6454   10.4528 H   0  0  0  0  0
    4.2368   20.6274    8.7077 H   0  0  0  0  0
    5.4491   18.9208   10.9303 H   0  0  0  0  0
    3.6419   20.4690   11.6339 H   0  0  0  0  0
    4.4356   21.8140   10.7459 H   0  0  0  0  0
    7.1886   19.6209    9.4281 H   0  0  0  0  0
    6.6187   21.3048    9.5318 H   0  0  0  0  0
    7.2708   20.4949   10.9774 H   0  0  0  0  0
    5.5983   20.3132   13.1305 H   0  0  0  0  0
    6.3850   21.6464   12.2503 H   0  0  0  0  0
    4.8925   21.9476   13.1739 H   0  0  0  0  0
    4.5790   19.9474    6.5608 H   0  0  0  0  0
    5.9726   17.4324    6.2670 H   0  0  0  0  0
    5.7165   17.6724    3.8062 H   0  0  0  0  0
    3.7893   16.8353    5.1668 H   0  0  0  0  0
    3.2146   18.5073    5.3799 H   0  0  0  0  0
    3.1934   17.7575    3.7648 H   0  0  0  0  0
    4.5416   20.3772    4.3308 H   0  0  0  0  0
    6.0838   20.0082    3.5206 H   0  0  0  0  0
    4.5452   19.5087    2.7763 H   0  0  0  0  0
    7.0571   20.5126    6.8480 H   0  0  0  0  0
    9.1504   20.7602    4.8573 H   0  0  0  0  0
    9.7496   19.9385    6.3196 H   0  0  0  0  0
   10.9480   22.3527    5.8634 H   0  0  0  0  0
    9.4897   24.3827    7.3259 H   0  0  0  0  0
   10.5486   22.7353    8.9744 H   0  0  0  0  0
   10.8278   24.5485    9.2022 H   0  0  0  0  0
   12.8880   23.5899    9.7154 H   0  0  0  0  0
   13.0580   24.0830    8.0229 H   0  0  0  0  0
   12.9910   21.9263    7.2321 H   0  0  0  0  0
   11.9652   21.3533    8.6007 H   0  0  0  0  0
   14.8613   21.6214    8.4616 H   0  0  0  0  0
   12.2444   20.6832   10.7558 H   0  0  0  0  0
   15.7277   20.0125   11.1945 H   0  0  0  0  0
   16.1819   20.7948    9.6769 H   0  0  0  0  0
   10.6810   26.3465    7.6655 H   0  0  0  0  0
   12.6872   26.7576    5.5409 H   0  0  0  0  0
   10.4163   28.6355    6.1836 H   0  0  0  0  0
   10.4061   26.6087    4.4839 H   0  0  0  0  0
   11.3468   27.7699    3.4673 H   0  0  0  0  0
   12.5573   29.8858    6.0720 H   0  0  0  0  0
   12.9398   29.0859    4.5277 H   0  0  0  0  0
   11.5543   30.1995    4.6344 H   0  0  0  0  0
    8.6077   28.2467    4.6672 H   0  0  0  0  0
    9.5345   29.3908    3.6656 H   0  0  0  0  0
    8.9512   27.8622    2.9628 H   0  0  0  0  0
   14.5345   27.4017    6.3198 H   0  0  0  0  0
   14.6924   28.4648    9.0650 H   0  0  0  0  0
   16.9071   27.5521    7.1211 H   0  0  0  0  0
   16.9811   25.5661    8.5777 H   0  0  0  0  0
   15.4064   25.7580    7.6918 H   0  0  0  0  0
   17.7427   29.1887    8.6817 H   0  0  0  0  0
   17.0832   28.2499   10.0436 H   0  0  0  0  0
   18.3797   27.5635    9.0341 H   0  0  0  0  0
   15.9382   26.4421   10.5840 H   0  0  0  0  0
   14.3949   26.6302    9.7157 H   0  0  0  0  0
   15.0712   25.0055    9.9876 H   0  0  0  0  0
   15.2142   30.4183    9.6318 H   0  0  0  0  0
   15.5569   32.2725    7.3925 H   0  0  0  0  0
   14.9876   33.6770    9.8337 H   0  0  0  0  0
   13.8197   32.2537    9.6030 H   0  0  0  0  0
   14.1954   34.7346    7.9763 H   0  0  0  0  0
   14.1732   32.9368    6.3864 H   0  0  0  0  0
   12.7113   32.2529    7.1388 H   0  0  0  0  0
   12.6400   33.8410    6.3363 H   0  0  0  0  0
   11.8094   33.3379    9.2838 H   0  0  0  0  0
   12.6223   34.8008    9.8921 H   0  0  0  0  0
   11.7226   34.8556    8.3564 H   0  0  0  0  0
   16.6619   34.1749    7.4687 H   0  0  0  0  0
   19.1678   33.8524    9.0138 H   0  0  0  0  0
   19.0976   34.2936    5.9909 H   0  0  0  0  0
   19.2540   32.6683    6.7400 H   0  0  0  0  0
   21.2822   33.6039    6.1925 H   0  0  0  0  0
   19.5288   35.8143    9.8462 H   0  0  0  0  0
  2  1  1  0  0  0
  3  2  1  0  0  0
  3  4  2  0  0  0
  6  5  1  0  0  0
  6  9  1  0  0  0
  7  6  1  0  0  0
  7  8  2  0  0  0
  9 10  1  0  0  0
  5  3  1  0  0  0
 12 11  1  0  0  0
 12 15  1  0  0  0
 13 12  1  0  0  0
 13 14  2  0  0  0
 15 17  1  0  0  0
 15 16  1  0  0  0
 11  7  1  0  0  0
 19 18  1  0  0  0
 19 22  1  0  0  0
 20 19  1  0  0  0
 20 21  2  0  0  0
 22 24  1  0  0  0
 22 23  1  0  0  0
 18 13  1  0  0  0
 26 25  1  0  0  0
 26 29  1  0  0  0
 27 26  1  0  0  0
 27 28  2  0  0  0
 29 31  1  0  0  0
 29 30  1  0  0  0
 30 32  1  0  0  0
 25 20  1  0  0  0
 34 33  1  0  0  0
 34 37  1  0  0  0
 35 34  1  0  0  0
 35 36  2  0  0  0
 37 39  1  0  0  0
 37 38  1  0  0  0
 33 27  1  0  0  0
 41 40  1  0  0  0
 42 41  1  0  0  0
 42 43  2  0  0  0
 40 35  1  0  0  0
 45 44  1  0  0  0
 45 48  1  0  0  0
 46 45  1  0  0  0
 46 47  2  0  0  0
 48 49  1  0  0  0
 49 50  1  0  0  0
 50 51  1  0  0  0
 51 52  1  0  0  0
 52 54  1  0  0  0
 52 53  2  0  0  0
 44 42  1  0  0  0
 56 55  1  0  0  0
 56 59  1  0  0  0
 57 56  1  0  0  0
 57 58  2  0  0  0
 59 61  1  0  0  0
 59 60  1  0  0  0
 60 62  1  0  0  0
 55 46  1  0  0  0
 64 63  1  0  0  0
 64 67  1  0  0  0
 65 64  1  0  0  0
 65 66  2  0  0  0
 67 69  1  0  0  0
 67 68  1  0  0  0
 68 70  1  0  0  0
 63 57  1  0  0  0
 72 71  1  0  0  0
 72 75  1  0  0  0
 73 72  1  0  0  0
 73 74  2  0  0  0
 75 76  1  0  0  0
 76 77  1  0  0  0
 76 78  1  0  0  0
 71 65  1  0  0  0
 79 80  1  0  0  0
 80 83  1  0  0  0
 80 81  1  0  0  0
 81 82  2  0  0  0
 83 84  1  0  0  0
 73 79  1  0  0  0
 81 85  1  0  0  0
  1 86  1  0  0  0
  1 87  1  0  0  0
  1 88  1  0  0  0
  2 89  1  0  0  0
  2 90  1  0  0  0
  5 91  1  0  0  0
  6 92  1  0  0  0
  9 93  1  0  0  0
  9 94  1  0  0  0
 10 95  1  0  0  0
 11 96  1  0  0  0
 12 97  1  0  0  0
 15 98  1  0  0  0
 16 99  1  0  0  0
 16100  1  0  0  0
 16101  1  0  0  0
 17102  1  0  0  0
 17103  1  0  0  0
 17104  1  0  0  0
 18105  1  0  0  0
 19106  1  0  0  0
 22107  1  0  0  0
 23108  1  0  0  0
 23109  1  0  0  0
 23110  1  0  0  0
 24111  1  0  0  0
 24112  1  0  0  0
 24113  1  0  0  0
 25114  1  0  0  0
 26115  1  0  0  0
 29116  1  0  0  0
 30117  1  0  0  0
 30118  1  0  0  0
 31119  1  0  0  0
 31120  1  0  0  0
 31121  1  0  0  0
 32122  1  0  0  0
 32123  1  0  0  0
 32124  1  0  0  0
 33125  1  0  0  0
 34126  1  0  0  0
 37127  1  0  0  0
 38128  1  0  0  0
 38129  1  0  0  0
 38130  1  0  0  0
 39131  1  0  0  0
 39132  1  0  0  0
 39133  1  0  0  0
 40134  1  0  0  0
 41135  1  0  0  0
 41136  1  0  0  0
 44137  1  0  0  0
 45138  1  0  0  0
 48139  1  0  0  0
 48140  1  0  0  0
 49141  1  0  0  0
 49142  1  0  0  0
 50143  1  0  0  0
 50144  1  0  0  0
 51145  1  0  0  0
 53146  1  0  0  0
 54147  1  0  0  0
 54148  1  0  0  0
 55149  1  0  0  0
 56150  1  0  0  0
 59151  1  0  0  0
 60152  1  0  0  0
 60153  1  0  0  0
 61154  1  0  0  0
 61155  1  0  0  0
 61156  1  0  0  0
 62157  1  0  0  0
 62158  1  0  0  0
 62159  1  0  0  0
 63160  1  0  0  0
 64161  1  0  0  0
 67162  1  0  0  0
 68163  1  0  0  0
 68164  1  0  0  0
 69165  1  0  0  0
 69166  1  0  0  0
 69167  1  0  0  0
 70168  1  0  0  0
 70169  1  0  0  0
 70170  1  0  0  0
 71171  1  0  0  0
 72172  1  0  0  0
 75173  1  0  0  0
 75174  1  0  0  0
 76175  1  0  0  0
 77176  1  0  0  0
 77177  1  0  0  0
 77178  1  0  0  0
 78179  1  0  0  0
 78180  1  0  0  0
 78181  1  0  0  0
 79182  1  0  0  0
 80183  1  0  0  0
 83184  1  0  0  0
 83185  1  0  0  0
 84186  1  0  0  0
 85187  1  0  0  0
M  END
$$$$
