4q06_ligand
  -I-interpret- 

 49 50  0  0  0  0  0  0  0  0999 V2000
   -4.7640    2.6410   11.3680 F   0  0  0  0  0
   -4.5270    1.7170   12.3000 C   0  0  0  0  0
   -3.7580    0.5940   11.8220 C   0  0  0  0  0
   -3.1400    0.3410   10.1890 S   0  0  0  0  0
   -1.5290    1.1310   10.1310 C   0  0  0  0  0
   -1.2930    2.1520   11.1880 C   0  0  0  0  0
   -1.0200    3.3230   10.5080 O   0  0  0  0  0
   -3.4230   -0.3520   12.7540 C   0  0  0  0  0
   -2.6650   -1.4310   12.4340 F   0  0  0  0  0
   -4.9340    1.9250   13.5370 C   0  0  0  0  0
   -4.5610    0.9270   14.4450 C   0  0  0  0  0
   -5.1590    0.8730   16.1750 S   0  0  0  0  0
   -6.3850    1.7250   16.2420 O   0  0  0  0  0
   -5.2750   -0.6850   16.3300 N   0  0  0  0  0
   -4.1830    1.3780   17.0970 O   0  0  0  0  0
   -3.7580   -0.1130   13.9840 C   0  0  0  0  0
   -3.5220   -1.1370   15.0230 F   0  0  0  0  0
   -5.6300    3.0420   13.9010 N   0  0  0  0  0
   -4.9960    4.3080   14.4490 C   0  0  0  0  0
   -3.4430    4.3680   14.5610 C   0  0  0  0  0
   -2.5650    5.1660   13.6360 C   0  0  0  0  0
   -2.4970    6.6780   13.8860 C   0  0  0  0  0
   -3.4400    7.4740   12.9800 C   0  0  0  0  0
   -4.8410    7.7480   13.5580 C   0  0  0  0  0
   -5.3750    6.9110   14.7180 C   0  0  0  0  0
   -5.7930    5.5590   14.2080 C   0  0  0  0  0
   -1.4654    1.6478    9.1734 H   0  0  0  0  0
   -0.7873    0.3462   10.2793 H   0  0  0  0  0
   -0.4705    1.8677   11.8444 H   0  0  0  0  0
   -2.1581    2.2600   11.8423 H   0  0  0  0  0
   -0.8570    4.0277   11.1392 H   0  0  0  0  0
   -6.1876   -1.1164   16.4765 H   0  0  0  0  0
   -4.4378   -1.2658   16.2842 H   0  0  0  0  0
   -6.6446    3.0247   13.7977 H   0  0  0  0  0
   -5.1131    4.2188   15.5290 H   0  0  0  0  0
   -3.1462    3.3409   14.3485 H   0  0  0  0  0
   -3.2895    4.8589   15.5220 H   0  0  0  0  0
   -2.9898    5.0449   12.6395 H   0  0  0  0  0
   -1.5524    4.7909   13.7847 H   0  0  0  0  0
   -1.4786    7.0049   13.6761 H   0  0  0  0  0
   -2.7957    6.8587   14.9186 H   0  0  0  0  0
   -3.5868    6.8743   12.0817 H   0  0  0  0  0
   -2.9730    8.4465   12.8242 H   0  0  0  0  0
   -5.5199    7.5300   12.7336 H   0  0  0  0  0
   -4.7724    8.7575   13.9634 H   0  0  0  0  0
   -6.2335    7.4131   15.1640 H   0  0  0  0  0
   -4.5948    6.7911   15.4696 H   0  0  0  0  0
   -6.7215    5.3681   14.7461 H   0  0  0  0  0
   -5.7455    5.6776   13.1255 H   0  0  0  0  0
  1  2  1  0  0  0
  2  3  4  0  0  0
  2 10  4  0  0  0
  3  4  1  0  0  0
  3  8  4  0  0  0
  4  5  1  0  0  0
  5  6  1  0  0  0
  6  7  1  0  0  0
  8  9  1  0  0  0
  8 16  4  0  0  0
 10 11  4  0  0  0
 10 18  1  0  0  0
 11 12  1  0  0  0
 11 16  4  0  0  0
 12 13  2  0  0  0
 12 14  1  0  0  0
 12 15  2  0  0  0
 16 17  1  0  0  0
 18 19  1  0  0  0
 19 20  1  0  0  0
 19 26  1  0  0  0
 20 21  1  0  0  0
 21 22  1  0  0  0
 22 23  1  0  0  0
 23 24  1  0  0  0
 24 25  1  0  0  0
 25 26  1  0  0  0
  5 27  1  0  0  0
  5 28  1  0  0  0
  6 29  1  0  0  0
  6 30  1  0  0  0
  7 31  1  0  0  0
 14 32  1  0  0  0
 14 33  1  0  0  0
 18 34  1  0  0  0
 19 35  1  0  0  0
 20 36  1  0  0  0
 20 37  1  0  0  0
 21 38  1  0  0  0
 21 39  1  0  0  0
 22 40  1  0  0  0
 22 41  1  0  0  0
 23 42  1  0  0  0
 23 43  1  0  0  0
 24 44  1  0  0  0
 24 45  1  0  0  0
 25 46  1  0  0  0
 25 47  1  0  0  0
 26 48  1  0  0  0
 26 49  1  0  0  0
M  END
$$$$
