1os0_ligand
  -I-interpret- 

 67 69  0  0  0  0  0  0  0  0999 V2000
   34.1120   41.4110   -8.4770 N   0  3  0  0  0
   34.4460   40.9520   -7.1100 C   0  0  0  0  0
   35.2700   42.1920   -6.2520 P   0  0  0  0  0
   36.5490   42.7120   -6.8370 O   0  0  0  0  0
   34.3890   43.3580   -6.0400 O   0  0  0  0  0
   34.9630   39.6030   -7.3900 C   0  0  0  0  0
   33.9010   38.6470   -7.9230 C   0  0  0  0  0
   32.8690   38.2590   -7.0560 C   0  0  0  0  0
   33.9710   38.1450   -9.2050 C   0  0  0  0  0
   31.9280   37.3710   -7.5860 C   0  0  0  0  0
   33.0310   37.3340   -9.6820 C   0  0  0  0  0
   31.9820   36.9090   -8.8930 C   0  0  0  0  0
   35.5860   41.3130   -4.7610 C   0  0  0  0  0
   36.6000   41.9580   -3.7960 C   0  0  0  0  0
   35.9200   42.2140   -2.4400 C   0  0  0  0  0
   36.7600   42.9290   -1.4050 C   0  0  0  0  0
   37.0960   44.2660   -1.5520 C   0  0  0  0  0
   37.1800   42.2470   -0.2750 C   0  0  0  0  0
   37.8690   44.9200   -0.6130 C   0  0  0  0  0
   37.9770   42.8840    0.6550 C   0  0  0  0  0
   38.3040   44.2210    0.4970 C   0  0  0  0  0
   37.9170   41.1920   -3.6180 C   0  0  0  0  0
   39.0200   41.7290   -3.6600 O   0  0  0  0  0
   37.7720   39.9080   -3.3910 N   0  0  0  0  0
   38.7000   38.8110   -3.2120 C   0  0  0  0  0
   38.7800   38.0540   -4.5400 C   0  0  0  0  0
   37.7130   37.7660   -5.1130 O   0  0  0  0  0
   38.1700   37.9510   -2.0990 C   0  0  0  0  0
   38.7970   36.6970   -1.5860 C   0  0  0  0  0
   40.0650   36.6930   -1.0410 C   0  0  0  0  0
   38.0990   35.4960   -1.6280 C   0  0  0  0  0
   40.6570   35.5480   -0.5380 C   0  0  0  0  0
   38.6740   34.3400   -1.1360 C   0  0  0  0  0
   39.9470   34.3610   -0.5880 C   0  0  0  0  0
   39.8870   37.7690   -4.9900 O   0  0  0  0  0
   33.7329   42.3570   -8.4336 H   0  0  0  0  0
   34.9551   41.4073   -9.0511 H   0  0  0  0  0
   33.4186   40.7840   -8.8850 H   0  0  0  0  0
   33.6879   40.8079   -6.3402 H   0  0  0  0  0
   37.1507   41.9797   -6.9898 H   0  0  0  0  0
   35.3345   39.1917   -6.4514 H   0  0  0  0  0
   35.7335   39.6983   -8.1551 H   0  0  0  0  0
   32.8045   38.6271   -6.0321 H   0  0  0  0  0
   34.8135   38.4182   -9.8404 H   0  0  0  0  0
   31.1168   37.0268   -6.9444 H   0  0  0  0  0
   33.0906   36.9983  -10.7173 H   0  0  0  0  0
   31.2213   36.2330   -9.2834 H   0  0  0  0  0
   36.0126   40.3544   -5.0562 H   0  0  0  0  0
   34.6381   41.2709   -4.2246 H   0  0  0  0  0
   36.9016   42.8970   -4.2601 H   0  0  0  0  0
   35.6873   41.2341   -2.0232 H   0  0  0  0  0
   35.0656   42.8601   -2.6419 H   0  0  0  0  0
   36.7428   44.8121   -2.4267 H   0  0  0  0  0
   36.8820   41.2100   -0.1204 H   0  0  0  0  0
   38.1316   45.9696   -0.7450 H   0  0  0  0  0
   38.3508   42.3325    1.5177 H   0  0  0  0  0
   38.9076   44.7243    1.2523 H   0  0  0  0  0
   36.7954   39.6207   -3.3268 H   0  0  0  0  0
   39.7039   39.1407   -2.9446 H   0  0  0  0  0
   36.9738   38.0818   -4.5881 H   0  0  0  0  0
   37.2388   37.5787   -2.5261 H   0  0  0  0  0
   38.2591   38.6152   -1.2394 H   0  0  0  0  0
   40.6222   37.6291   -1.0054 H   0  0  0  0  0
   37.0946   35.4659   -2.0505 H   0  0  0  0  0
   41.6598   35.5801   -0.1120 H   0  0  0  0  0
   38.1208   33.4018   -1.1792 H   0  0  0  0  0
   40.3882   33.4442   -0.1971 H   0  0  0  0  0
 24 25  1  0  0  0
 25 28  1  0  0  0
 25 26  1  0  0  0
 26 27  1  0  0  0
 26 35  2  0  0  0
 28 29  1  0  0  0
 29 30  4  0  0  0
 29 31  4  0  0  0
 31 33  4  0  0  0
 33 34  4  0  0  0
 32 34  4  0  0  0
 30 32  4  0  0  0
  2  1  1  0  0  0
  3  2  1  0  0  0
  2  6  1  0  0  0
  3  4  1  0  0  0
  3  5  2  0  0  0
 13  3  1  0  0  0
  6  7  1  0  0  0
  7  8  4  0  0  0
  7  9  4  0  0  0
  8 10  4  0  0  0
  9 11  4  0  0  0
 10 12  4  0  0  0
 11 12  4  0  0  0
 14 13  1  0  0  0
 14 15  1  0  0  0
 22 14  1  0  0  0
 15 16  1  0  0  0
 16 17  4  0  0  0
 16 18  4  0  0  0
 17 19  4  0  0  0
 18 20  4  0  0  0
 19 21  4  0  0  0
 20 21  4  0  0  0
 22 23  2  0  0  0
 22 24  1  0  0  0
  1 36  1  0  0  0
  1 37  1  0  0  0
  1 38  1  0  0  0
  2 39  1  0  0  0
  4 40  1  0  0  0
  6 41  1  0  0  0
  6 42  1  0  0  0
  8 43  1  0  0  0
  9 44  1  0  0  0
 10 45  1  0  0  0
 11 46  1  0  0  0
 12 47  1  0  0  0
 13 48  1  0  0  0
 13 49  1  0  0  0
 14 50  1  0  0  0
 15 51  1  0  0  0
 15 52  1  0  0  0
 17 53  1  0  0  0
 18 54  1  0  0  0
 19 55  1  0  0  0
 20 56  1  0  0  0
 21 57  1  0  0  0
 24 58  1  0  0  0
 25 59  1  0  0  0
 27 60  1  0  0  0
 28 61  1  0  0  0
 28 62  1  0  0  0
 30 63  1  0  0  0
 31 64  1  0  0  0
 32 65  1  0  0  0
 33 66  1  0  0  0
 34 67  1  0  0  0
M  END
$$$$
