3eju_ligand
  -I-interpret- 

 55 57  0  0  0  0  0  0  0  0999 V2000
   26.5920   65.0700    8.4450 O   0  0  0  0  0
   27.2110   65.8110    9.1850 C   0  0  0  0  0
   26.4650   66.9340    9.8800 C   0  0  0  0  0
   25.0730   67.0250    9.7010 C   0  0  0  0  0
   24.3250   68.0300   10.3160 C   0  0  0  0  0
   24.9350   68.9750   11.1410 C   0  0  0  0  0
   24.0930   70.0490   11.8230 C   0  0  0  0  0
   22.6060   69.8890   11.4900 C   0  0  0  0  0
   24.2180   69.9020   13.3420 C   0  0  0  0  0
   24.5180   71.4470   11.3840 C   0  0  0  0  0
   26.3300   68.8900   11.3300 C   0  0  0  0  0
   27.0950   67.8780   10.7080 C   0  0  0  0  0
   28.6950   65.5350    9.3510 C   0  0  0  0  0
   29.4720   66.3800    8.3310 C   0  0  0  0  0
   29.1120   66.0840    6.8610 C   0  0  0  0  0
   29.7750   67.1320    5.9530 C   0  0  0  0  0
   31.2890   67.2570    6.1620 C   0  0  0  0  0
   31.7830   68.3980    5.4500 O   0  0  0  0  0
   30.9630   66.3100    8.4360 N   0  3  0  0  0
   31.5130   66.4940    9.8040 C   0  0  0  0  0
   32.9750   66.9300    9.5360 C   0  0  0  0  0
   33.8590   65.8390    9.8190 O   0  0  0  0  0
   33.0530   67.4310    8.0790 C   0  0  0  0  0
   33.8830   66.5840    7.2510 O   0  0  0  0  0
   31.5880   67.4230    7.6540 C   0  0  0  0  0
   24.5677   66.2951    9.0685 H   0  0  0  0  0
   23.2489   68.0772   10.1493 H   0  0  0  0  0
   22.2658   68.9060   11.8157 H   0  0  0  0  0
   22.0346   70.6615   12.0046 H   0  0  0  0  0
   22.4635   69.9861   10.4137 H   0  0  0  0  0
   23.6240   70.6743   13.8306 H   0  0  0  0  0
   23.8552   68.9188   13.6417 H   0  0  0  0  0
   25.2635   70.0086   13.6312 H   0  0  0  0  0
   24.3550   71.5549   10.3117 H   0  0  0  0  0
   23.9267   72.1900   11.9192 H   0  0  0  0  0
   25.5748   71.5914   11.6086 H   0  0  0  0  0
   26.8279   69.6196   11.9687 H   0  0  0  0  0
   28.1718   67.8298   10.8702 H   0  0  0  0  0
   28.8951   64.4768    9.1832 H   0  0  0  0  0
   29.0085   65.7953   10.3619 H   0  0  0  0  0
   29.1456   67.3821    8.6090 H   0  0  0  0  0
   28.0300   66.1254    6.7355 H   0  0  0  0  0
   29.4693   65.0901    6.5915 H   0  0  0  0  0
   29.3315   68.0986    6.1921 H   0  0  0  0  0
   29.6125   66.8198    4.9214 H   0  0  0  0  0
   31.7778   66.3571    5.7887 H   0  0  0  0  0
   32.7307   68.4717    5.5840 H   0  0  0  0  0
   31.1774   65.3714    8.0991 H   0  0  0  0  0
   31.4460   65.5913   10.4112 H   0  0  0  0  0
   30.9547   67.2249   10.3890 H   0  0  0  0  0
   33.2885   67.7456   10.1876 H   0  0  0  0  0
   34.7645   66.1108    9.6524 H   0  0  0  0  0
   33.5206   68.4105    7.9791 H   0  0  0  0  0
   33.9023   66.9326    6.3567 H   0  0  0  0  0
   31.1814   68.4137    7.8573 H   0  0  0  0  0
  1  2  2  0  0  0
  2  3  1  0  0  0
  2 13  1  0  0  0
  3  4  4  0  0  0
  3 12  4  0  0  0
  4  5  4  0  0  0
  5  6  4  0  0  0
  6  7  1  0  0  0
  6 11  4  0  0  0
  7  8  1  0  0  0
  7  9  1  0  0  0
  7 10  1  0  0  0
 11 12  4  0  0  0
 13 14  1  0  0  0
 14 15  1  0  0  0
 14 19  1  0  0  0
 15 16  1  0  0  0
 16 17  1  0  0  0
 17 18  1  0  0  0
 17 25  1  0  0  0
 19 20  1  0  0  0
 19 25  1  0  0  0
 20 21  1  0  0  0
 21 22  1  0  0  0
 21 23  1  0  0  0
 23 24  1  0  0  0
 23 25  1  0  0  0
  4 26  1  0  0  0
  5 27  1  0  0  0
  8 28  1  0  0  0
  8 29  1  0  0  0
  8 30  1  0  0  0
  9 31  1  0  0  0
  9 32  1  0  0  0
  9 33  1  0  0  0
 10 34  1  0  0  0
 10 35  1  0  0  0
 10 36  1  0  0  0
 11 37  1  0  0  0
 12 38  1  0  0  0
 13 39  1  0  0  0
 13 40  1  0  0  0
 14 41  1  0  0  0
 15 42  1  0  0  0
 15 43  1  0  0  0
 16 44  1  0  0  0
 16 45  1  0  0  0
 17 46  1  0  0  0
 18 47  1  0  0  0
 19 48  1  0  0  0
 20 49  1  0  0  0
 20 50  1  0  0  0
 21 51  1  0  0  0
 22 52  1  0  0  0
 23 53  1  0  0  0
 24 54  1  0  0  0
 25 55  1  0  0  0
M  END
$$$$
