2jh6_ligand
  -I-interpret- 

 52 54  0  0  0  0  0  0  0  0999 V2000
   10.1820   25.4840   46.0270 Cl  0  0  0  0  0
   10.3440   23.9520   46.8200 C   0  0  0  0  0
   11.3340   22.9690   46.4370 C   0  0  0  0  0
   11.2600   21.8240   47.3090 C   0  0  0  0  0
   10.2240   21.9710   48.3000 C   0  0  0  0  0
    9.8880   20.9240   49.3310 C   0  0  0  0  0
    9.6460   18.2320   49.8450 S   0  0  0  0  0
    9.7820   17.0120   49.1100 O   0  0  0  0  0
   10.4020   18.4090   51.0490 O   0  0  0  0  0
    8.1290   18.3930   50.3470 N   0  0  0  0  0
    7.0220   17.9620   49.4970 C   0  0  0  0  0
    6.0160   17.0240   50.2100 C   0  0  0  0  0
    4.6750   17.3830   49.5330 C   0  0  0  0  0
    6.1860   19.1020   48.9300 C   0  0  0  0  0
    6.6360   20.2010   48.6120 O   0  0  0  0  0
    4.9020   18.6790   48.8700 N   0  0  0  0  0
    3.8220   19.4540   48.2360 C   0  0  0  0  0
    3.4530   18.9040   46.8410 C   0  0  0  0  0
    2.5720   19.5120   49.1110 C   0  0  0  0  0
    1.5710   18.9070   48.7750 O   0  0  0  0  0
    2.6100   20.2310   50.2580 N   0  0  0  0  0
    1.4200   20.2970   51.1100 C   0  0  0  0  0
    1.7920   19.9460   52.5430 C   0  0  0  0  0
    2.9090   20.7370   52.9860 O   0  0  0  0  0
    4.0810   20.5440   52.1800 C   0  0  0  0  0
    3.7670   21.0000   50.7480 C   0  0  0  0  0
    9.4150   23.4750   48.1860 S   0  0  0  0  0
   10.0430   19.5390   48.6910 C   0  0  0  0  0
   12.0343   23.0785   45.6090 H   0  0  0  0  0
   11.9092   20.9521   47.2287 H   0  0  0  0  0
    8.8635   21.0600   49.6776 H   0  0  0  0  0
   10.5593   21.0153   50.1849 H   0  0  0  0  0
    7.9377   18.7980   51.2634 H   0  0  0  0  0
    7.5474   17.4393   48.6977 H   0  0  0  0  0
    5.9969   17.1650   51.2907 H   0  0  0  0  0
    6.2737   15.9697   50.1087 H   0  0  0  0  0
    3.8647   17.4431   50.2596 H   0  0  0  0  0
    4.3709   16.6175   48.8191 H   0  0  0  0  0
    4.2104   20.4654   48.1160 H   0  0  0  0  0
    4.3278   18.9464   46.1921 H   0  0  0  0  0
    3.1192   17.8707   46.9359 H   0  0  0  0  0
    2.6525   19.5080   46.4138 H   0  0  0  0  0
    0.6767   19.5874   50.7465 H   0  0  0  0  0
    1.0114   21.3071   51.0808 H   0  0  0  0  0
    2.0664   18.8921   52.5880 H   0  0  0  0  0
    0.9378   20.1492   53.1889 H   0  0  0  0  0
    4.3650   19.4916   52.1818 H   0  0  0  0  0
    4.9099   21.1261   52.5828 H   0  0  0  0  0
    3.5378   22.0656   50.7378 H   0  0  0  0  0
    4.6293   20.8272   50.1041 H   0  0  0  0  0
   11.0801   19.4186   48.3779 H   0  0  0  0  0
    9.3581   19.4717   47.8458 H   0  0  0  0  0
  2  1  1  0  0  0
  2  3  4  0  0  0
 27  2  4  0  0  0
  4  3  4  0  0  0
  5  4  4  0  0  0
  6  5  1  0  0  0
  5 27  4  0  0  0
 28  6  1  0  0  0
  7  8  2  0  0  0
  7  9  2  0  0  0
  7 10  1  0  0  0
  7 28  1  0  0  0
 10 11  1  0  0  0
 11 12  1  0  0  0
 11 14  1  0  0  0
 12 13  1  0  0  0
 13 16  1  0  0  0
 14 15  2  0  0  0
 14 16  1  0  0  0
 16 17  1  0  0  0
 17 18  1  0  0  0
 17 19  1  0  0  0
 19 20  2  0  0  0
 19 21  1  0  0  0
 21 22  1  0  0  0
 21 26  1  0  0  0
 22 23  1  0  0  0
 23 24  1  0  0  0
 24 25  1  0  0  0
 25 26  1  0  0  0
  3 29  1  0  0  0
  4 30  1  0  0  0
  6 31  1  0  0  0
  6 32  1  0  0  0
 10 33  1  0  0  0
 11 34  1  0  0  0
 12 35  1  0  0  0
 12 36  1  0  0  0
 13 37  1  0  0  0
 13 38  1  0  0  0
 17 39  1  0  0  0
 18 40  1  0  0  0
 18 41  1  0  0  0
 18 42  1  0  0  0
 22 43  1  0  0  0
 22 44  1  0  0  0
 23 45  1  0  0  0
 23 46  1  0  0  0
 25 47  1  0  0  0
 25 48  1  0  0  0
 26 49  1  0  0  0
 26 50  1  0  0  0
 28 51  1  0  0  0
 28 52  1  0  0  0
M  END
$$$$
