### 
### Created by X-TOOL on Mon Sep 10 21:13:08 2018
### 

@<TRIPOS>MOLECULE
2y9q_ligand
  298   299     1     0     0
SMALL
GAST_HUCK


@<TRIPOS>ATOM
      1 N          55.0030   45.5030   -1.6070 N.4       1 MET         0.2379
      2 CA         56.1670   45.9540   -0.8570 C.3       1 MET         0.0658
      3 C          57.3200   46.2700   -1.7970 C.2       1 MET         0.2267
      4 O          57.6090   45.5140   -2.7200 O.2       1 MET        -0.3907
      5 CB         56.6080   44.8780    0.1330 C.3       1 MET         0.0168
      6 CG         56.9950   45.4230    1.4970 C.3       1 MET         0.0007
      7 SD         57.6670   44.1540    2.5780 S.3       1 MET        -0.1638
      8 CE         58.8430   43.4320    1.4720 C.3       1 MET        -0.0181
      9 N          57.9850   47.3900   -1.5510 N.am      1 LYS        -0.2610
     10 CA         59.1820   47.7590   -2.2980 C.3       1 LYS         0.1311
     11 C          60.4220   47.3790   -1.4880 C.2       1 LYS         0.2039
     12 O          60.6930   47.9690   -0.4520 O.2       1 LYS        -0.3944
     13 CB         59.1830   49.2600   -2.5720 C.3       1 LYS        -0.0122
     14 CG         60.5160   49.8220   -3.0540 C.3       1 LYS        -0.0440
     15 CD         60.8790   49.3510   -4.4580 C.3       1 LYS        -0.0124
     16 CE         61.8590   50.3260   -5.1190 C.3       1 LYS        -0.0354
     17 NZ         62.3450   49.8490   -6.4480 N.4       1 LYS         0.2185
     18 N          61.1750   46.4020   -1.9650 N.am      1 LEU        -0.2637
     19 CA         62.3880   45.9870   -1.2760 C.3       1 LEU         0.1312
     20 C          63.5040   47.0040   -1.4720 C.2       1 LEU         0.2040
     21 O          63.7160   47.5430   -2.5780 O.2       1 LEU        -0.3944
     22 CB         62.8700   44.6350   -1.8000 C.3       1 LEU        -0.0101
     23 CG         61.9890   43.4210   -1.5230 C.3       1 LEU        -0.0425
     24 CD1        62.4460   42.2400   -2.3850 C.3       1 LEU        -0.0625
     25 CD2        62.0170   43.0620   -0.0230 C.3       1 LEU        -0.0625
     26 N          64.2130   47.2680   -0.3830 N.am      1 SER        -0.2616
     27 CA         65.4510   48.0160   -0.4370 C.3       1 SER         0.1541
     28 C          66.5140   47.1120   -1.0330 C.2       1 SER         0.2087
     29 O          66.3280   45.9060   -1.1220 O.2       1 SER        -0.3941
     30 CB         65.8580   48.4630    0.9630 C.3       1 SER         0.0843
     31 OG         64.8890   49.3540    1.4950 O.3       1 SER        -0.3903
     32 N          67.6310   47.6990   -1.4650 N.am      1 PRO        -0.2498
     33 CA         68.7250   46.8550   -1.9450 C.3       1 PRO         0.1340
     34 C          69.2350   45.9780   -0.8140 C.2       1 PRO         0.2066
     35 O          69.2420   46.4080    0.3420 O.2       1 PRO        -0.3942
     36 CB         69.7990   47.8680   -2.3600 C.3       1 PRO        -0.0104
     37 CG         69.0970   49.1500   -2.5240 C.3       1 PRO        -0.0281
     38 CD         67.9470   49.1320   -1.5670 C.3       1 PRO         0.0369
     39 N          69.6520   44.7470   -1.1250 N.am      1 PRO        -0.2498
     40 CA         70.1410   43.8930   -0.0400 C.3       1 PRO         0.1338
     41 C          71.3050   44.5140    0.7330 C.2       1 PRO         0.2042
     42 O          71.4540   44.2360    1.9120 O.2       1 PRO        -0.3944
     43 CB         70.5890   42.6040   -0.7540 C.3       1 PRO        -0.0104
     44 CG         70.0440   42.6740   -2.1100 C.3       1 PRO        -0.0281
     45 CD         69.6720   44.0810   -2.4370 C.3       1 PRO         0.0369
     46 N          72.0800   45.3790    0.0860 N.am      1 SER        -0.2616
     47 CA         73.2690   45.9430    0.7060 C.3       1 SER         0.1539
     48 C          72.9350   46.8280    1.9110 C.2       1 SER         0.2062
     49 O          73.8180   47.1710    2.6970 O.2       1 SER        -0.3943
     50 CB         74.0490   46.7460   -0.3290 C.3       1 SER         0.0843
     51 OG         73.3210   47.8990   -0.7030 O.3       1 SER        -0.3903
     52 N          71.6650   47.1990    2.0520 N.am      1 LYS        -0.2637
     53 CA         71.2230   48.0270    3.1670 C.3       1 LYS         0.1310
     54 C          70.8370   47.1820    4.3860 C.2       1 LYS         0.2040
     55 O          70.6470   47.7100    5.4810 O.2       1 LYS        -0.3944
     56 CB         70.0250   48.8880    2.7480 C.3       1 LYS        -0.0122
     57 CG         70.2700   49.7840    1.5500 C.3       1 LYS        -0.0440
     58 CD         71.0090   51.0360    1.9310 C.3       1 LYS        -0.0124
     59 CE         71.0230   52.0340    0.7790 C.3       1 LYS        -0.0354
     60 NZ         69.6430   52.3820    0.3060 N.4       1 LYS         0.2185
     61 N          70.7300   45.8710    4.1940 N.am      1 SER        -0.2616
     62 CA         70.3290   44.9670    5.2630 C.3       1 SER         0.1539
     63 C          71.4930   44.7970    6.2450 C.2       1 SER         0.2062
     64 O          72.6510   44.8120    5.8300 O.2       1 SER        -0.3943
     65 CB         69.9170   43.6180    4.6510 C.3       1 SER         0.0843
     66 OG         69.4540   42.6990    5.6090 O.3       1 SER        -0.3903
     67 N          71.1940   44.6270    7.5320 N.am      1 ARG        -0.2637
     68 CA         72.2420   44.5840    8.5660 C.3       1 ARG         0.1311
     69 C          73.2160   43.4170    8.3760 C.2       1 ARG         0.2039
     70 O          74.4250   43.6040    8.4700 O.2       1 ARG        -0.3944
     71 CB         71.6200   44.5470    9.9750 C.3       1 ARG        -0.0092
     72 CG         71.1400   45.8850   10.4690 C.3       1 ARG        -0.0156
     73 CD         70.2460   45.7260   11.6970 C.3       1 ARG         0.0627
     74 NE         68.9860   45.0530   11.3650 N.pl3     1 ARG        -0.2723
     75 CZ         68.0130   44.8110   12.2380 C.cat     1 ARG         0.2882
     76 NH1        68.1440   45.1830   13.5040 N.pl3     1 ARG        -0.2849
     77 NH2        66.9080   44.1940   11.8460 N.pl3     1 ARG        -0.2849
     78 N          72.7000   42.2190    8.1020 N.am      1 LEU        -0.2637
     79 CA         73.5450   41.0450    7.8840 C.3       1 LEU         0.1312
     80 C          74.4100   41.2240    6.6380 C.2       1 LEU         0.2039
     81 O          75.6140   40.9520    6.6610 O.2       1 LEU        -0.3944
     82 CB         72.6590   39.7990    7.7660 C.3       1 LEU        -0.0101
     83 CG         73.2560   38.4970    7.2400 C.3       1 LEU        -0.0425
     84 CD1        74.3320   37.9850    8.1740 C.3       1 LEU        -0.0625
     85 CD2        72.1730   37.4530    7.0620 C.3       1 LEU        -0.0625
     86 N          73.8230   41.7010    5.5480 N.am      1 ALA        -0.2640
     87 CA         74.6220   42.0270    4.3630 C.3       1 ALA         0.1282
     88 C          75.7280   43.0280    4.6810 C.2       1 ALA         0.2036
     89 O          76.8410   42.9310    4.1500 O.2       1 ALA        -0.3944
     90 CB         73.7390   42.5870    3.2600 C.3       1 ALA        -0.0244
     91 N          75.4190   44.0210    5.5070 N.am      1 ARG        -0.2637
     92 CA         76.3990   45.0640    5.8180 C.3       1 ARG         0.1311
     93 C          77.5610   44.4730    6.6050 C.2       1 ARG         0.2039
     94 O          78.7150   44.8690    6.4100 O.2       1 ARG        -0.3944
     95 CB         75.7510   46.2240    6.5800 C.3       1 ARG        -0.0092
     96 CG         74.8640   47.1060    5.7130 C.3       1 ARG        -0.0156
     97 CD         74.2600   48.2770    6.4810 C.3       1 ARG         0.0627
     98 NE         73.9650   49.3920    5.5720 N.pl3     1 ARG        -0.2723
     99 CZ         72.8580   50.1360    5.5970 C.cat     1 ARG         0.2882
    100 NH1        71.9010   49.9090    6.4900 N.pl3     1 ARG        -0.2849
    101 NH2        72.7080   51.1180    4.7170 N.pl3     1 ARG        -0.2849
    102 N          77.2680   43.5170    7.4890 N.am      1 ARG        -0.2637
    103 CA         78.3380   42.8170    8.2140 C.3       1 ARG         0.1311
    104 C          79.2570   42.0810    7.2410 C.2       1 ARG         0.2039
    105 O          80.4780   42.0880    7.4010 O.2       1 ARG        -0.3944
    106 CB         77.7770   41.8080    9.2250 C.3       1 ARG        -0.0092
    107 CG         76.9450   42.4240   10.3240 C.3       1 ARG        -0.0156
    108 CD         76.9800   41.6050   11.6290 C.3       1 ARG         0.0627
    109 NE         76.4700   40.2430   11.4800 N.pl3     1 ARG        -0.2723
    110 CZ         75.1820   39.9000   11.5840 C.cat     1 ARG         0.2882
    111 NH1        74.2450   40.8140   11.8230 N.pl3     1 ARG        -0.2849
    112 NH2        74.8310   38.6410   11.4460 N.pl3     1 ARG        -0.2849
    113 N          78.6730   41.4620    6.2200 N.am      1 ARG        -0.2637
    114 CA         79.4520   40.7210    5.2340 C.3       1 ARG         0.1311
    115 C          80.3030   41.6090    4.3360 C.2       1 ARG         0.2039
    116 O          81.3240   41.1700    3.8080 O.2       1 ARG        -0.3944
    117 CB         78.5260   39.8770    4.3660 C.3       1 ARG        -0.0092
    118 CG         77.8490   38.7860    5.1360 C.3       1 ARG        -0.0156
    119 CD         78.8390   37.7160    5.5510 C.3       1 ARG         0.0627
    120 NE         78.1130   36.6710    6.2550 N.pl3     1 ARG        -0.2723
    121 CZ         77.8340   36.7090    7.5490 C.cat     1 ARG         0.2882
    122 NH1        78.2430   37.7240    8.2900 N.pl3     1 ARG        -0.2849
    123 NH2        77.1320   35.7370    8.0960 N.pl3     1 ARG        -0.2849
    124 N          79.8810   42.8530    4.1560 N.am      1 ALA        -0.2640
    125 CA         80.5850   43.7700    3.2620 C.3       1 ALA         0.1282
    126 C          81.8650   44.3060    3.8840 C.2       1 ALA         0.2031
    127 O          82.7440   44.7950    3.1760 O.2       1 ALA        -0.3944
    128 CB         79.6750   44.9150    2.8660 C.3       1 ALA        -0.0244
    129 N          81.9710   44.2210    5.2050 N.am      1 LEU        -0.2695
    130 CA         83.1560   44.7220    5.8950 C.3       1 LEU         0.0946
    131 C          84.3730   43.8390    5.6290 C.2       1 LEU         0.0601
    132 O          84.2430   42.6370    5.3870 O.co2     1 LEU        -0.5666
    133 CB         82.8940   44.8040    7.3920 C.3       1 LEU        -0.0156
    134 CG         81.7390   45.7250    7.7870 C.3       1 LEU        -0.0431
    135 CD1        81.3190   45.4530    9.2250 C.3       1 LEU        -0.0625
    136 CD2        82.1210   47.1860    7.5890 C.3       1 LEU        -0.0625
    137 H          54.7201   46.2307   -2.2633 H         1 MET         0.2015
    138 H          55.2389   44.6536   -2.1202 H         1 MET         0.2015
    139 H          54.2377   45.3099   -0.9609 H         1 MET         0.2015
    140 H          55.8896   46.8574   -0.3139 H         1 MET         0.1098
    141 H          57.4896   44.3924   -0.2855 H         1 MET         0.0354
    142 H          55.7635   44.2046    0.2793 H         1 MET         0.0354
    143 H          56.0969   45.8244    1.9665 H         1 MET         0.0380
    144 H          57.7633   46.1823    1.3507 H         1 MET         0.0380
    145 H          58.3249   43.0460    0.5941 H         1 MET         0.0340
    146 H          59.5645   44.1895    1.1658 H         1 MET         0.0340
    147 H          59.3619   42.6171    1.9768 H         1 MET         0.0340
    148 H          57.6491   48.0130   -0.8165 H         1 LYS         0.1884
    149 H          59.1921   47.2270   -3.2493 H         1 LYS         0.0800
    150 H          58.9546   49.7539   -1.6276 H         1 LYS         0.0312
    151 H          58.4592   49.4366   -3.3676 H         1 LYS         0.0312
    152 H          61.2923   49.4738   -2.3727 H         1 LYS         0.0269
    153 H          60.4330   50.9086   -3.0762 H         1 LYS         0.0269
    154 H          59.9711   49.3017   -5.0592 H         1 LYS         0.0317
    155 H          61.3493   48.3700   -4.3903 H         1 LYS         0.0317
    156 H          62.7243   50.4241   -4.4635 H         1 LYS         0.0813
    157 H          61.3361   51.2696   -5.2746 H         1 LYS         0.0813
    158 H          62.9910   50.5349   -6.8387 H         1 LYS         0.1994
    159 H          62.8241   48.9559   -6.3329 H         1 LYS         0.1994
    160 H          61.5507   49.7315   -7.0770 H         1 LYS         0.1994
    161 H          60.9017   45.9325   -2.8283 H         1 LEU         0.1883
    162 H          62.1468   45.9104   -0.2158 H         1 LEU         0.0800
    163 H          63.8114   44.4389   -1.2867 H         1 LEU         0.0315
    164 H          62.9020   44.7342   -2.8850 H         1 LEU         0.0315
    165 H          60.9586   43.6605   -1.7858 H         1 LEU         0.0298
    166 H          62.3685   42.5092   -3.4384 H         1 LEU         0.0232
    167 H          63.4813   41.9966   -2.1461 H         1 LEU         0.0232
    168 H          61.8122   41.3768   -2.1817 H         1 LEU         0.0232
    169 H          63.0400   42.8326    0.2753 H         1 LEU         0.0232
    170 H          61.6484   43.9071    0.5585 H         1 LEU         0.0232
    171 H          61.3823   42.1936    0.1533 H         1 LEU         0.0232
    172 H          63.8758   46.9339    0.5198 H         1 SER         0.1884
    173 H          65.3288   48.9089   -1.0501 H         1 SER         0.0823
    174 H          66.8198   48.9731    0.9089 H         1 SER         0.0606
    175 H          65.9311   47.5884    1.6094 H         1 SER         0.0606
    176 H          65.1567   49.6276    2.3754 H         1 SER         0.2097
    177 H          68.4337   46.1873   -2.7559 H         1 PRO         0.0802
    178 H          70.2943   47.5658   -3.2827 H         1 PRO         0.0313
    179 H          70.5873   47.9401   -1.6107 H         1 PRO         0.0313
    180 H          68.7488   49.2752   -3.5493 H         1 PRO         0.0287
    181 H          69.7627   49.9880   -2.3174 H         1 PRO         0.0287
    182 H          68.1887   49.5829   -0.6045 H         1 PRO         0.0524
    183 H          67.1017   49.7298   -1.9079 H         1 PRO         0.0524
    184 H          69.3686   43.7293    0.7114 H         1 PRO         0.0802
    185 H          70.2252   41.7197   -0.2308 H         1 PRO         0.0313
    186 H          71.6759   42.5239   -0.7723 H         1 PRO         0.0313
    187 H          69.1567   42.0441   -2.1733 H         1 PRO         0.0287
    188 H          70.7971   42.3279   -2.8179 H         1 PRO         0.0287
    189 H          70.3720   44.5470   -3.1306 H         1 PRO         0.0524
    190 H          68.7150   44.1499   -2.9542 H         1 PRO         0.0524
    191 H          71.8357   45.6531   -0.8656 H         1 SER         0.1884
    192 H          73.8744   45.1147    1.0741 H         1 SER         0.0823
    193 H          74.2137   46.1267   -1.2107 H         1 SER         0.0606
    194 H          75.0031   47.0506    0.1011 H         1 SER         0.0606
    195 H          73.8222   48.3953   -1.3542 H         1 SER         0.2097
    196 H          70.9807   46.8950    1.3594 H         1 LYS         0.1883
    197 H          72.0601   48.6671    3.4456 H         1 LYS         0.0800
    198 H          69.7971   49.5421    3.5896 H         1 LYS         0.0312
    199 H          69.2252   48.2015    2.4700 H         1 LYS         0.0312
    200 H          69.3044   50.0697    1.1328 H         1 LYS         0.0269
    201 H          70.8758   49.2345    0.8295 H         1 LYS         0.0269
    202 H          72.0375   50.7733    2.1786 H         1 LYS         0.0317
    203 H          70.5065   51.4930    2.7835 H         1 LYS         0.0317
    204 H          71.5600   51.5798   -0.0537 H         1 LYS         0.0813
    205 H          71.4990   52.9490    1.1317 H         1 LYS         0.0813
    206 H          69.7066   53.0500   -0.4622 H         1 LYS         0.1994
    207 H          69.1717   51.5364   -0.0152 H         1 LYS         0.1994
    208 H          69.1155   52.7955    1.0749 H         1 LYS         0.1994
    209 H          70.9346   45.4872    3.2714 H         1 SER         0.1884
    210 H          69.4778   45.3749    5.8082 H         1 SER         0.0823
    211 H          70.7975   43.1864    4.1750 H         1 SER         0.0606
    212 H          69.1034   43.8057    3.9504 H         1 SER         0.0606
    213 H          68.6867   43.0637    6.0560 H         1 SER         0.2097
    214 H          70.2173   44.5243    7.8075 H         1 ARG         0.1883
    215 H          72.8226   45.5003    8.4588 H         1 ARG         0.0800
    216 H          72.3960   44.2088   10.6617 H         1 ARG         0.0313
    217 H          70.7516   43.8899    9.9274 H         1 ARG         0.0313
    218 H          70.5646   46.3644    9.6771 H         1 ARG         0.0301
    219 H          72.0058   46.4882   10.7423 H         1 ARG         0.0301
    220 H          70.0144   46.7180   12.0848 H         1 ARG         0.0689
    221 H          70.7760   45.1207   12.4324 H         1 ARG         0.0689
    222 H          68.8470   44.7507   10.4008 H         1 ARG         0.2642
    223 H          68.9936   45.6566   13.8111 H         1 ARG         0.2615
    224 H          67.3952   44.9955   14.1707 H         1 ARG         0.2615
    225 H          66.8033   43.9042   10.8737 H         1 ARG         0.2615
    226 H          66.1620   44.0088   12.5166 H         1 ARG         0.2615
    227 H          71.6868   42.1179    8.0426 H         1 LEU         0.1883
    228 H          74.2175   40.9226    8.7330 H         1 LEU         0.0800
    229 H          71.8986   40.0696    7.0335 H         1 LEU         0.0315
    230 H          72.3632   39.5728    8.7904 H         1 LEU         0.0315
    231 H          73.7106   38.6971    6.2698 H         1 LEU         0.0298
    232 H          75.1246   38.7288    8.2555 H         1 LEU         0.0232
    233 H          73.9004   37.8028    9.1582 H         1 LEU         0.0232
    234 H          74.7429   37.0562    7.7784 H         1 LEU         0.0232
    235 H          71.6932   37.2618    8.0218 H         1 LEU         0.0232
    236 H          71.4323   37.8175    6.3503 H         1 LEU         0.0232
    237 H          72.6170   36.5312    6.6863 H         1 LEU         0.0232
    238 H          72.8128   41.8413    5.5345 H         1 ALA         0.1883
    239 H          75.0854   41.0996    4.0265 H         1 ALA         0.0797
    240 H          72.9872   41.8465    2.9870 H         1 ALA         0.0277
    241 H          73.2468   43.4925    3.6149 H         1 ALA         0.0277
    242 H          74.3519   42.8222    2.3899 H         1 ALA         0.0277
    243 H          74.4909   44.0576    5.9285 H         1 ARG         0.1883
    244 H          76.7838   45.4650    4.8803 H         1 ARG         0.0800
    245 H          76.5554   46.8501    6.9660 H         1 ARG         0.0313
    246 H          75.1207   45.7917    7.3571 H         1 ARG         0.0313
    247 H          74.0432   46.4916    5.3430 H         1 ARG         0.0301
    248 H          75.4812   47.5152    4.9132 H         1 ARG         0.0301
    249 H          74.9741   48.6129    7.2329 H         1 ARG         0.0689
    250 H          73.3332   47.9504    6.9527 H         1 ARG         0.0689
    251 H          74.6638   49.6159    4.8635 H         1 ARG         0.2642
    252 H          72.0064   49.1564    7.1703 H         1 ARG         0.2615
    253 H          71.0608   50.4873    6.4953 H         1 ARG         0.2615
    254 H          73.4367   51.3002    4.0269 H         1 ARG         0.2615
    255 H          71.8640   51.6906    4.7307 H         1 ARG         0.2615
    256 H          76.2937   43.2701    7.6629 H         1 ARG         0.1883
    257 H          78.9019   43.5773    8.7545 H         1 ARG         0.0800
    258 H          78.6298   41.3248    9.7018 H         1 ARG         0.0313
    259 H          77.1264   41.1298    8.6729 H         1 ARG         0.0313
    260 H          75.9113   42.4603    9.9800 H         1 ARG         0.0301
    261 H          77.3532   43.4117   10.5384 H         1 ARG         0.0301
    262 H          76.3430   42.1149   12.3517 H         1 ARG         0.0689
    263 H          78.0220   41.5313   11.9404 H         1 ARG         0.0689
    264 H          77.1437   39.5029   11.2830 H         1 ARG         0.2642
    265 H          74.5046   41.7946   11.9300 H         1 ARG         0.2615
    266 H          73.2671   40.5341   11.8992 H         1 ARG         0.2615
    267 H          75.5398   37.9313   11.2605 H         1 ARG         0.2615
    268 H          73.8498   38.3736   11.5244 H         1 ARG         0.2615
    269 H          77.6585   41.5060    6.1238 H         1 ARG         0.1883
    270 H          80.1362   40.0901    5.8014 H         1 ARG         0.0800
    271 H          79.1293   39.4120    3.5863 H         1 ARG         0.0313
    272 H          77.7534   40.5327    3.9644 H         1 ARG         0.0313
    273 H          77.0890   38.3307    4.5010 H         1 ARG         0.0301
    274 H          77.4041   39.2165    6.0331 H         1 ARG         0.0301
    275 H          79.6020   38.1443    6.2010 H         1 ARG         0.0689
    276 H          79.3322   37.3015    4.6717 H         1 ARG         0.0689
    277 H          77.8001   35.8606    5.7204 H         1 ARG         0.2642
    278 H          78.7762   38.4830    7.8657 H         1 ARG         0.2615
    279 H          78.0254   37.7484    9.2862 H         1 ARG         0.2615
    280 H          76.8055   34.9589    7.5230 H         1 ARG         0.2615
    281 H          76.9152   35.7628    9.0923 H         1 ARG         0.2615
    282 H          79.0495   43.1760    4.6507 H         1 ALA         0.1883
    283 H          80.8669   43.2069    2.3723 H         1 ALA         0.0797
    284 H          78.7975   44.5197    2.3543 H         1 ALA         0.0277
    285 H          79.3633   45.4555    3.7598 H         1 ALA         0.0277
    286 H          80.2119   45.5905    2.2001 H         1 ALA         0.0277
    287 H          81.2146   43.8002    5.7446 H         1 LEU         0.1875
    288 H          83.3705   45.7183    5.5083 H         1 LEU         0.0726
    289 O          85.5262   44.3458    5.6572 O.co2     1 LEU        -0.5666
    290 H          83.7956   45.2099    7.8508 H         1 LEU         0.0308
    291 H          82.6281   43.8003    7.7237 H         1 LEU         0.0308
    292 H          80.8877   45.5171    7.1387 H         1 LEU         0.0297
    293 H          80.9974   44.4157    9.3182 H         1 LEU         0.0232
    294 H          82.1640   45.6338    9.8894 H         1 LEU         0.0232
    295 H          80.4960   46.1154    9.4933 H         1 LEU         0.0232
    296 H          82.9866   47.4211    8.2084 H         1 LEU         0.0232
    297 H          82.3655   47.3574    6.5407 H         1 LEU         0.0232
    298 H          81.2834   47.8214    7.8767 H         1 LEU         0.0232
@<TRIPOS>BOND
     1    1    2 1  
     2    2    3 1  
     3    2    5 1  
     4    3    4 2  
     5    3    9 am 
     6    5    6 1  
     7    6    7 1  
     8    7    8 1  
     9    9   10 1  
    10   10   11 1  
    11   10   13 1  
    12   11   12 2  
    13   11   18 am 
    14   13   14 1  
    15   14   15 1  
    16   15   16 1  
    17   16   17 1  
    18   18   19 1  
    19   19   20 1  
    20   19   22 1  
    21   20   21 2  
    22   20   26 am 
    23   22   23 1  
    24   23   24 1  
    25   23   25 1  
    26   26   27 1  
    27   27   28 1  
    28   27   30 1  
    29   28   29 2  
    30   28   32 am 
    31   30   31 1  
    32   32   33 1  
    33   32   38 1  
    34   33   34 1  
    35   33   36 1  
    36   34   35 2  
    37   34   39 am 
    38   36   37 1  
    39   37   38 1  
    40   39   40 1  
    41   39   45 1  
    42   40   41 1  
    43   40   43 1  
    44   41   42 2  
    45   41   46 am 
    46   43   44 1  
    47   44   45 1  
    48   46   47 1  
    49   47   48 1  
    50   47   50 1  
    51   48   49 2  
    52   48   52 am 
    53   50   51 1  
    54   52   53 1  
    55   53   54 1  
    56   53   56 1  
    57   54   55 2  
    58   54   61 am 
    59   56   57 1  
    60   57   58 1  
    61   58   59 1  
    62   59   60 1  
    63   61   62 1  
    64   62   63 1  
    65   62   65 1  
    66   63   64 2  
    67   63   67 am 
    68   65   66 1  
    69   67   68 1  
    70   68   69 1  
    71   68   71 1  
    72   69   70 2  
    73   69   78 am 
    74   71   72 1  
    75   72   73 1  
    76   73   74 1  
    77   74   75 ar 
    78   75   76 ar 
    79   75   77 ar 
    80   78   79 1  
    81   79   80 1  
    82   79   82 1  
    83   80   81 2  
    84   80   86 am 
    85   82   83 1  
    86   83   84 1  
    87   83   85 1  
    88   86   87 1  
    89   87   88 1  
    90   87   90 1  
    91   88   89 2  
    92   88   91 am 
    93   91   92 1  
    94   92   93 1  
    95   92   95 1  
    96   93   94 2  
    97   93  102 am 
    98   95   96 1  
    99   96   97 1  
   100   97   98 1  
   101   98   99 ar 
   102   99  100 ar 
   103   99  101 ar 
   104  102  103 1  
   105  103  104 1  
   106  103  106 1  
   107  104  105 2  
   108  104  113 am 
   109  106  107 1  
   110  107  108 1  
   111  108  109 1  
   112  109  110 ar 
   113  110  111 ar 
   114  110  112 ar 
   115  113  114 1  
   116  114  115 1  
   117  114  117 1  
   118  115  116 2  
   119  115  124 am 
   120  117  118 1  
   121  118  119 1  
   122  119  120 1  
   123  120  121 ar 
   124  121  122 ar 
   125  121  123 ar 
   126  124  125 1  
   127  125  126 1  
   128  125  128 1  
   129  126  127 2  
   130  126  129 am 
   131  129  130 1  
   132  130  131 1  
   133  130  133 1  
   134  131  132 ar 
   135  133  134 1  
   136  134  135 1  
   137  134  136 1  
   138    1  137 1  
   139    1  138 1  
   140    1  139 1  
   141    2  140 1  
   142    5  141 1  
   143    5  142 1  
   144    6  143 1  
   145    6  144 1  
   146    8  145 1  
   147    8  146 1  
   148    8  147 1  
   149    9  148 1  
   150   10  149 1  
   151   13  150 1  
   152   13  151 1  
   153   14  152 1  
   154   14  153 1  
   155   15  154 1  
   156   15  155 1  
   157   16  156 1  
   158   16  157 1  
   159   17  158 1  
   160   17  159 1  
   161   17  160 1  
   162   18  161 1  
   163   19  162 1  
   164   22  163 1  
   165   22  164 1  
   166   23  165 1  
   167   24  166 1  
   168   24  167 1  
   169   24  168 1  
   170   25  169 1  
   171   25  170 1  
   172   25  171 1  
   173   26  172 1  
   174   27  173 1  
   175   30  174 1  
   176   30  175 1  
   177   31  176 1  
   178   33  177 1  
   179   36  178 1  
   180   36  179 1  
   181   37  180 1  
   182   37  181 1  
   183   38  182 1  
   184   38  183 1  
   185   40  184 1  
   186   43  185 1  
   187   43  186 1  
   188   44  187 1  
   189   44  188 1  
   190   45  189 1  
   191   45  190 1  
   192   46  191 1  
   193   47  192 1  
   194   50  193 1  
   195   50  194 1  
   196   51  195 1  
   197   52  196 1  
   198   53  197 1  
   199   56  198 1  
   200   56  199 1  
   201   57  200 1  
   202   57  201 1  
   203   58  202 1  
   204   58  203 1  
   205   59  204 1  
   206   59  205 1  
   207   60  206 1  
   208   60  207 1  
   209   60  208 1  
   210   61  209 1  
   211   62  210 1  
   212   65  211 1  
   213   65  212 1  
   214   66  213 1  
   215   67  214 1  
   216   68  215 1  
   217   71  216 1  
   218   71  217 1  
   219   72  218 1  
   220   72  219 1  
   221   73  220 1  
   222   73  221 1  
   223   74  222 1  
   224   76  223 1  
   225   76  224 1  
   226   77  225 1  
   227   77  226 1  
   228   78  227 1  
   229   79  228 1  
   230   82  229 1  
   231   82  230 1  
   232   83  231 1  
   233   84  232 1  
   234   84  233 1  
   235   84  234 1  
   236   85  235 1  
   237   85  236 1  
   238   85  237 1  
   239   86  238 1  
   240   87  239 1  
   241   90  240 1  
   242   90  241 1  
   243   90  242 1  
   244   91  243 1  
   245   92  244 1  
   246   95  245 1  
   247   95  246 1  
   248   96  247 1  
   249   96  248 1  
   250   97  249 1  
   251   97  250 1  
   252   98  251 1  
   253  100  252 1  
   254  100  253 1  
   255  101  254 1  
   256  101  255 1  
   257  102  256 1  
   258  103  257 1  
   259  106  258 1  
   260  106  259 1  
   261  107  260 1  
   262  107  261 1  
   263  108  262 1  
   264  108  263 1  
   265  109  264 1  
   266  111  265 1  
   267  111  266 1  
   268  112  267 1  
   269  112  268 1  
   270  113  269 1  
   271  114  270 1  
   272  117  271 1  
   273  117  272 1  
   274  118  273 1  
   275  118  274 1  
   276  119  275 1  
   277  119  276 1  
   278  120  277 1  
   279  122  278 1  
   280  122  279 1  
   281  123  280 1  
   282  123  281 1  
   283  124  282 1  
   284  125  283 1  
   285  128  284 1  
   286  128  285 1  
   287  128  286 1  
   288  129  287 1  
   289  130  288 1  
   290  131  289 ar 
   291  133  290 1  
   292  133  291 1  
   293  134  292 1  
   294  135  293 1  
   295  135  294 1  
   296  135  295 1  
   297  136  296 1  
   298  136  297 1  
   299  136  298 1  
@<TRIPOS>SUBSTRUCTURE
     1 MET         1

