2y9q_ligand
  -I-interpret- 

295296  0  0  0  0  0  0  0  0999 V2000
   55.0030   45.5030   -1.6070 N   0  3  0  0  0
   56.1670   45.9540   -0.8570 C   0  0  0  0  0
   57.3200   46.2700   -1.7970 C   0  0  0  0  0
   57.6090   45.5140   -2.7200 O   0  0  0  0  0
   56.6080   44.8780    0.1330 C   0  0  0  0  0
   56.9950   45.4230    1.4970 C   0  0  0  0  0
   57.6670   44.1540    2.5780 S   0  0  0  0  0
   58.8430   43.4320    1.4720 C   0  0  0  0  0
   57.9850   47.3900   -1.5510 N   0  0  0  0  0
   59.1820   47.7590   -2.2980 C   0  0  0  0  0
   60.4220   47.3790   -1.4880 C   0  0  0  0  0
   60.6930   47.9690   -0.4520 O   0  0  0  0  0
   59.1830   49.2600   -2.5720 C   0  0  0  0  0
   60.5160   49.8220   -3.0540 C   0  0  0  0  0
   60.8790   49.3510   -4.4580 C   0  0  0  0  0
   61.8590   50.3260   -5.1190 C   0  0  0  0  0
   62.3450   49.8490   -6.4480 N   0  3  0  0  0
   61.1750   46.4020   -1.9650 N   0  0  0  0  0
   62.3880   45.9870   -1.2760 C   0  0  0  0  0
   63.5040   47.0040   -1.4720 C   0  0  0  0  0
   63.7160   47.5430   -2.5780 O   0  0  0  0  0
   62.8700   44.6350   -1.8000 C   0  0  0  0  0
   61.9890   43.4210   -1.5230 C   0  0  0  0  0
   62.4460   42.2400   -2.3850 C   0  0  0  0  0
   62.0170   43.0620   -0.0230 C   0  0  0  0  0
   64.2130   47.2680   -0.3830 N   0  0  0  0  0
   65.4510   48.0160   -0.4370 C   0  0  0  0  0
   66.5140   47.1120   -1.0330 C   0  0  0  0  0
   66.3280   45.9060   -1.1220 O   0  0  0  0  0
   65.8580   48.4630    0.9630 C   0  0  0  0  0
   64.8890   49.3540    1.4950 O   0  0  0  0  0
   67.6310   47.6990   -1.4650 N   0  0  0  0  0
   68.7250   46.8550   -1.9450 C   0  0  0  0  0
   69.2350   45.9780   -0.8140 C   0  0  0  0  0
   69.2420   46.4080    0.3420 O   0  0  0  0  0
   69.7990   47.8680   -2.3600 C   0  0  0  0  0
   69.0970   49.1500   -2.5240 C   0  0  0  0  0
   67.9470   49.1320   -1.5670 C   0  0  0  0  0
   69.6520   44.7470   -1.1250 N   0  0  0  0  0
   70.1410   43.8930   -0.0400 C   0  0  0  0  0
   71.3050   44.5140    0.7330 C   0  0  0  0  0
   71.4540   44.2360    1.9120 O   0  0  0  0  0
   70.5890   42.6040   -0.7540 C   0  0  0  0  0
   70.0440   42.6740   -2.1100 C   0  0  0  0  0
   69.6720   44.0810   -2.4370 C   0  0  0  0  0
   72.0800   45.3790    0.0860 N   0  0  0  0  0
   73.2690   45.9430    0.7060 C   0  0  0  0  0
   72.9350   46.8280    1.9110 C   0  0  0  0  0
   73.8180   47.1710    2.6970 O   0  0  0  0  0
   74.0490   46.7460   -0.3290 C   0  0  0  0  0
   73.3210   47.8990   -0.7030 O   0  0  0  0  0
   71.6650   47.1990    2.0520 N   0  0  0  0  0
   71.2230   48.0270    3.1670 C   0  0  0  0  0
   70.8370   47.1820    4.3860 C   0  0  0  0  0
   70.6470   47.7100    5.4810 O   0  0  0  0  0
   70.0250   48.8880    2.7480 C   0  0  0  0  0
   70.2700   49.7840    1.5500 C   0  0  0  0  0
   71.0090   51.0360    1.9310 C   0  0  0  0  0
   71.0230   52.0340    0.7790 C   0  0  0  0  0
   69.6430   52.3820    0.3060 N   0  3  0  0  0
   70.7300   45.8710    4.1940 N   0  0  0  0  0
   70.3290   44.9670    5.2630 C   0  0  0  0  0
   71.4930   44.7970    6.2450 C   0  0  0  0  0
   72.6510   44.8120    5.8300 O   0  0  0  0  0
   69.9170   43.6180    4.6510 C   0  0  0  0  0
   69.4540   42.6990    5.6090 O   0  0  0  0  0
   71.1940   44.6270    7.5320 N   0  0  0  0  0
   72.2420   44.5840    8.5660 C   0  0  0  0  0
   73.2160   43.4170    8.3760 C   0  0  0  0  0
   74.4250   43.6040    8.4700 O   0  0  0  0  0
   71.6200   44.5470    9.9750 C   0  0  0  0  0
   71.1400   45.8850   10.4690 C   0  0  0  0  0
   70.2460   45.7260   11.6970 C   0  0  0  0  0
   68.9860   45.0530   11.3650 N   0  0  0  0  0
   68.0130   44.8110   12.2380 C   0  0  0  0  0
   68.1440   45.1830   13.5040 N   0  0  0  0  0
   66.9080   44.1940   11.8460 N   0  0  0  0  0
   72.7000   42.2190    8.1020 N   0  0  0  0  0
   73.5450   41.0450    7.8840 C   0  0  0  0  0
   74.4100   41.2240    6.6380 C   0  0  0  0  0
   75.6140   40.9520    6.6610 O   0  0  0  0  0
   72.6590   39.7990    7.7660 C   0  0  0  0  0
   73.2560   38.4970    7.2400 C   0  0  0  0  0
   74.3320   37.9850    8.1740 C   0  0  0  0  0
   72.1730   37.4530    7.0620 C   0  0  0  0  0
   73.8230   41.7010    5.5480 N   0  0  0  0  0
   74.6220   42.0270    4.3630 C   0  0  0  0  0
   75.7280   43.0280    4.6810 C   0  0  0  0  0
   76.8410   42.9310    4.1500 O   0  0  0  0  0
   73.7390   42.5870    3.2600 C   0  0  0  0  0
   75.4190   44.0210    5.5070 N   0  0  0  0  0
   76.3990   45.0640    5.8180 C   0  0  0  0  0
   77.5610   44.4730    6.6050 C   0  0  0  0  0
   78.7150   44.8690    6.4100 O   0  0  0  0  0
   75.7510   46.2240    6.5800 C   0  0  0  0  0
   74.8640   47.1060    5.7130 C   0  0  0  0  0
   74.2600   48.2770    6.4810 C   0  0  0  0  0
   73.9650   49.3920    5.5720 N   0  0  0  0  0
   72.8580   50.1360    5.5970 C   0  0  0  0  0
   71.9010   49.9090    6.4900 N   0  0  0  0  0
   72.7080   51.1180    4.7170 N   0  0  0  0  0
   77.2680   43.5170    7.4890 N   0  0  0  0  0
   78.3380   42.8170    8.2140 C   0  0  0  0  0
   79.2570   42.0810    7.2410 C   0  0  0  0  0
   80.4780   42.0880    7.4010 O   0  0  0  0  0
   77.7770   41.8080    9.2250 C   0  0  0  0  0
   76.9450   42.4240   10.3240 C   0  0  0  0  0
   76.9800   41.6050   11.6290 C   0  0  0  0  0
   76.4700   40.2430   11.4800 N   0  0  0  0  0
   75.1820   39.9000   11.5840 C   0  0  0  0  0
   74.2450   40.8140   11.8230 N   0  0  0  0  0
   74.8310   38.6410   11.4460 N   0  0  0  0  0
   78.6730   41.4620    6.2200 N   0  0  0  0  0
   79.4520   40.7210    5.2340 C   0  0  0  0  0
   80.3030   41.6090    4.3360 C   0  0  0  0  0
   81.3240   41.1700    3.8080 O   0  0  0  0  0
   78.5260   39.8770    4.3660 C   0  0  0  0  0
   77.8490   38.7860    5.1360 C   0  0  0  0  0
   78.8390   37.7160    5.5510 C   0  0  0  0  0
   78.1130   36.6710    6.2550 N   0  0  0  0  0
   77.8340   36.7090    7.5490 C   0  0  0  0  0
   78.2430   37.7240    8.2900 N   0  0  0  0  0
   77.1320   35.7370    8.0960 N   0  0  0  0  0
   79.8810   42.8530    4.1560 N   0  0  0  0  0
   80.5850   43.7700    3.2620 C   0  0  0  0  0
   81.8650   44.3060    3.8840 C   0  0  0  0  0
   82.7440   44.7950    3.1760 O   0  0  0  0  0
   79.6750   44.9150    2.8660 C   0  0  0  0  0
   81.9710   44.2210    5.2050 N   0  0  0  0  0
   83.1560   44.7220    5.8950 C   0  0  0  0  0
   84.3730   43.8390    5.6290 C   0  0  0  0  0
   84.2430   42.6370    5.3870 O   0  0  0  0  0
   82.8940   44.8040    7.3920 C   0  0  0  0  0
   81.7390   45.7250    7.7870 C   0  0  0  0  0
   81.3190   45.4530    9.2250 C   0  0  0  0  0
   82.1210   47.1860    7.5890 C   0  0  0  0  0
   85.5262   44.3458    5.6572 O   0  0  0  0  0
   54.7201   46.2307   -2.2633 H   0  0  0  0  0
   55.2389   44.6536   -2.1202 H   0  0  0  0  0
   54.2377   45.3099   -0.9609 H   0  0  0  0  0
   55.8896   46.8574   -0.3139 H   0  0  0  0  0
   57.4896   44.3924   -0.2855 H   0  0  0  0  0
   55.7635   44.2046    0.2793 H   0  0  0  0  0
   56.0969   45.8244    1.9665 H   0  0  0  0  0
   57.7633   46.1823    1.3507 H   0  0  0  0  0
   58.3249   43.0460    0.5941 H   0  0  0  0  0
   59.5645   44.1895    1.1658 H   0  0  0  0  0
   59.3619   42.6171    1.9768 H   0  0  0  0  0
   57.6491   48.0130   -0.8165 H   0  0  0  0  0
   59.1921   47.2270   -3.2493 H   0  0  0  0  0
   58.9546   49.7539   -1.6276 H   0  0  0  0  0
   58.4592   49.4366   -3.3676 H   0  0  0  0  0
   61.2923   49.4738   -2.3727 H   0  0  0  0  0
   60.4330   50.9086   -3.0762 H   0  0  0  0  0
   59.9711   49.3017   -5.0592 H   0  0  0  0  0
   61.3493   48.3700   -4.3903 H   0  0  0  0  0
   62.7243   50.4241   -4.4635 H   0  0  0  0  0
   61.3361   51.2696   -5.2746 H   0  0  0  0  0
   62.9910   50.5349   -6.8387 H   0  0  0  0  0
   62.8241   48.9559   -6.3329 H   0  0  0  0  0
   61.5507   49.7315   -7.0770 H   0  0  0  0  0
   60.9017   45.9325   -2.8283 H   0  0  0  0  0
   62.1468   45.9104   -0.2158 H   0  0  0  0  0
   63.8114   44.4389   -1.2867 H   0  0  0  0  0
   62.9020   44.7342   -2.8850 H   0  0  0  0  0
   60.9586   43.6605   -1.7858 H   0  0  0  0  0
   62.3685   42.5092   -3.4384 H   0  0  0  0  0
   63.4813   41.9966   -2.1461 H   0  0  0  0  0
   61.8122   41.3768   -2.1817 H   0  0  0  0  0
   63.0400   42.8326    0.2753 H   0  0  0  0  0
   61.6484   43.9071    0.5585 H   0  0  0  0  0
   61.3823   42.1936    0.1533 H   0  0  0  0  0
   63.8758   46.9339    0.5198 H   0  0  0  0  0
   65.3288   48.9089   -1.0501 H   0  0  0  0  0
   66.8198   48.9731    0.9089 H   0  0  0  0  0
   65.9311   47.5884    1.6094 H   0  0  0  0  0
   65.1567   49.6276    2.3754 H   0  0  0  0  0
   68.4337   46.1873   -2.7559 H   0  0  0  0  0
   70.2943   47.5658   -3.2827 H   0  0  0  0  0
   70.5873   47.9401   -1.6107 H   0  0  0  0  0
   68.7488   49.2752   -3.5493 H   0  0  0  0  0
   69.7627   49.9880   -2.3174 H   0  0  0  0  0
   68.1887   49.5829   -0.6045 H   0  0  0  0  0
   67.1017   49.7298   -1.9079 H   0  0  0  0  0
   69.3686   43.7293    0.7114 H   0  0  0  0  0
   70.2252   41.7197   -0.2308 H   0  0  0  0  0
   71.6759   42.5239   -0.7723 H   0  0  0  0  0
   69.1567   42.0441   -2.1733 H   0  0  0  0  0
   70.7971   42.3279   -2.8179 H   0  0  0  0  0
   70.3720   44.5470   -3.1306 H   0  0  0  0  0
   68.7150   44.1499   -2.9542 H   0  0  0  0  0
   71.8357   45.6531   -0.8656 H   0  0  0  0  0
   73.8744   45.1147    1.0741 H   0  0  0  0  0
   74.2137   46.1267   -1.2107 H   0  0  0  0  0
   75.0031   47.0506    0.1011 H   0  0  0  0  0
   73.8222   48.3953   -1.3542 H   0  0  0  0  0
   70.9807   46.8950    1.3594 H   0  0  0  0  0
   72.0601   48.6671    3.4456 H   0  0  0  0  0
   69.7971   49.5421    3.5896 H   0  0  0  0  0
   69.2252   48.2015    2.4700 H   0  0  0  0  0
   69.3044   50.0697    1.1328 H   0  0  0  0  0
   70.8758   49.2345    0.8295 H   0  0  0  0  0
   72.0375   50.7733    2.1786 H   0  0  0  0  0
   70.5065   51.4930    2.7835 H   0  0  0  0  0
   71.5600   51.5798   -0.0537 H   0  0  0  0  0
   71.4990   52.9490    1.1317 H   0  0  0  0  0
   69.7066   53.0500   -0.4622 H   0  0  0  0  0
   69.1717   51.5364   -0.0152 H   0  0  0  0  0
   69.1155   52.7955    1.0749 H   0  0  0  0  0
   70.9346   45.4872    3.2714 H   0  0  0  0  0
   69.4778   45.3749    5.8082 H   0  0  0  0  0
   70.7975   43.1864    4.1750 H   0  0  0  0  0
   69.1034   43.8057    3.9504 H   0  0  0  0  0
   69.2119   41.8787    5.1730 H   0  0  0  0  0
   70.2173   44.5243    7.8075 H   0  0  0  0  0
   72.8226   45.5003    8.4588 H   0  0  0  0  0
   72.3960   44.2088   10.6617 H   0  0  0  0  0
   70.7516   43.8899    9.9274 H   0  0  0  0  0
   70.5646   46.3644    9.6771 H   0  0  0  0  0
   72.0058   46.4882   10.7423 H   0  0  0  0  0
   70.0144   46.7180   12.0848 H   0  0  0  0  0
   70.7760   45.1207   12.4324 H   0  0  0  0  0
   68.8470   44.7507   10.4008 H   0  0  0  0  0
   67.3960   44.9938   14.1712 H   0  0  0  0  0
   68.9928   45.6583   13.8107 H   0  0  0  0  0
   66.8033   43.9042   10.8737 H   0  0  0  0  0
   71.6868   42.1179    8.0426 H   0  0  0  0  0
   74.2175   40.9226    8.7330 H   0  0  0  0  0
   71.8986   40.0696    7.0335 H   0  0  0  0  0
   72.3632   39.5728    8.7904 H   0  0  0  0  0
   73.7106   38.6971    6.2698 H   0  0  0  0  0
   75.1246   38.7288    8.2555 H   0  0  0  0  0
   73.9004   37.8028    9.1582 H   0  0  0  0  0
   74.7429   37.0562    7.7784 H   0  0  0  0  0
   71.6932   37.2618    8.0218 H   0  0  0  0  0
   71.4323   37.8175    6.3503 H   0  0  0  0  0
   72.6170   36.5312    6.6863 H   0  0  0  0  0
   72.8128   41.8413    5.5345 H   0  0  0  0  0
   75.0854   41.0996    4.0265 H   0  0  0  0  0
   72.9872   41.8465    2.9870 H   0  0  0  0  0
   73.2468   43.4925    3.6149 H   0  0  0  0  0
   74.3519   42.8222    2.3899 H   0  0  0  0  0
   74.4909   44.0576    5.9285 H   0  0  0  0  0
   76.7838   45.4650    4.8803 H   0  0  0  0  0
   76.5554   46.8501    6.9660 H   0  0  0  0  0
   75.1207   45.7917    7.3571 H   0  0  0  0  0
   74.0432   46.4916    5.3430 H   0  0  0  0  0
   75.4812   47.5152    4.9132 H   0  0  0  0  0
   74.9741   48.6129    7.2329 H   0  0  0  0  0
   73.3332   47.9504    6.9527 H   0  0  0  0  0
   74.6638   49.6159    4.8635 H   0  0  0  0  0
   71.0606   50.4870    6.4950 H   0  0  0  0  0
   72.0066   49.1567    7.1706 H   0  0  0  0  0
   73.4367   51.3002    4.0269 H   0  0  0  0  0
   76.2937   43.2701    7.6629 H   0  0  0  0  0
   78.9019   43.5773    8.7545 H   0  0  0  0  0
   78.6298   41.3248    9.7018 H   0  0  0  0  0
   77.1264   41.1298    8.6729 H   0  0  0  0  0
   75.9113   42.4603    9.9800 H   0  0  0  0  0
   77.3532   43.4117   10.5384 H   0  0  0  0  0
   76.3430   42.1149   12.3517 H   0  0  0  0  0
   78.0220   41.5313   11.9404 H   0  0  0  0  0
   77.1437   39.5029   11.2830 H   0  0  0  0  0
   73.2669   40.5343   11.8972 H   0  0  0  0  0
   74.5048   41.7943   11.9320 H   0  0  0  0  0
   75.5398   37.9313   11.2605 H   0  0  0  0  0
   77.6585   41.5060    6.1238 H   0  0  0  0  0
   80.1362   40.0901    5.8014 H   0  0  0  0  0
   79.1293   39.4120    3.5863 H   0  0  0  0  0
   77.7534   40.5327    3.9644 H   0  0  0  0  0
   77.0890   38.3307    4.5010 H   0  0  0  0  0
   77.4041   39.2165    6.0331 H   0  0  0  0  0
   79.6020   38.1443    6.2010 H   0  0  0  0  0
   79.3322   37.3015    4.6717 H   0  0  0  0  0
   77.8001   35.8606    5.7204 H   0  0  0  0  0
   78.0153   37.7543    9.2838 H   0  0  0  0  0
   78.7864   38.4771    7.8681 H   0  0  0  0  0
   76.8055   34.9589    7.5230 H   0  0  0  0  0
   79.0495   43.1760    4.6507 H   0  0  0  0  0
   80.8669   43.2069    2.3723 H   0  0  0  0  0
   78.7975   44.5197    2.3543 H   0  0  0  0  0
   79.3633   45.4555    3.7598 H   0  0  0  0  0
   80.2119   45.5905    2.2001 H   0  0  0  0  0
   81.2146   43.8002    5.7446 H   0  0  0  0  0
   83.3705   45.7183    5.5083 H   0  0  0  0  0
   83.7956   45.2099    7.8508 H   0  0  0  0  0
   82.6281   43.8003    7.7237 H   0  0  0  0  0
   80.8877   45.5171    7.1387 H   0  0  0  0  0
   80.9974   44.4157    9.3182 H   0  0  0  0  0
   82.1640   45.6338    9.8894 H   0  0  0  0  0
   80.4960   46.1154    9.4933 H   0  0  0  0  0
   82.9866   47.4211    8.2084 H   0  0  0  0  0
   82.3655   47.3574    6.5407 H   0  0  0  0  0
   81.2834   47.8214    7.8767 H   0  0  0  0  0
   85.4581   45.2823    5.8571 H   0  0  0  0  0
  1  2  1  0  0  0
  2  3  1  0  0  0
  2  5  1  0  0  0
  3  4  2  0  0  0
  3  9  1  0  0  0
  5  6  1  0  0  0
  6  7  1  0  0  0
  7  8  1  0  0  0
  9 10  1  0  0  0
 10 11  1  0  0  0
 10 13  1  0  0  0
 11 12  2  0  0  0
 11 18  1  0  0  0
 13 14  1  0  0  0
 14 15  1  0  0  0
 15 16  1  0  0  0
 16 17  1  0  0  0
 18 19  1  0  0  0
 19 20  1  0  0  0
 19 22  1  0  0  0
 20 21  2  0  0  0
 20 26  1  0  0  0
 22 23  1  0  0  0
 23 24  1  0  0  0
 23 25  1  0  0  0
 26 27  1  0  0  0
 27 28  1  0  0  0
 27 30  1  0  0  0
 28 29  2  0  0  0
 28 32  1  0  0  0
 30 31  1  0  0  0
 32 33  1  0  0  0
 32 38  1  0  0  0
 33 34  1  0  0  0
 33 36  1  0  0  0
 34 35  2  0  0  0
 34 39  1  0  0  0
 36 37  1  0  0  0
 37 38  1  0  0  0
 39 40  1  0  0  0
 39 45  1  0  0  0
 40 41  1  0  0  0
 40 43  1  0  0  0
 41 42  2  0  0  0
 41 46  1  0  0  0
 43 44  1  0  0  0
 44 45  1  0  0  0
 46 47  1  0  0  0
 47 48  1  0  0  0
 47 50  1  0  0  0
 48 49  2  0  0  0
 48 52  1  0  0  0
 50 51  1  0  0  0
 52 53  1  0  0  0
 53 54  1  0  0  0
 53 56  1  0  0  0
 54 55  2  0  0  0
 54 61  1  0  0  0
 56 57  1  0  0  0
 57 58  1  0  0  0
 58 59  1  0  0  0
 59 60  1  0  0  0
 61 62  1  0  0  0
 62 63  1  0  0  0
 62 65  1  0  0  0
 63 64  2  0  0  0
 63 67  1  0  0  0
 65 66  1  0  0  0
 67 68  1  0  0  0
 68 69  1  0  0  0
 68 71  1  0  0  0
 69 70  2  0  0  0
 69 78  1  0  0  0
 71 72  1  0  0  0
 72 73  1  0  0  0
 73 74  1  0  0  0
 74 75  1  0  0  0
 75 76  1  0  0  0
 75 77  2  0  0  0
 78 79  1  0  0  0
 79 80  1  0  0  0
 79 82  1  0  0  0
 80 81  2  0  0  0
 80 86  1  0  0  0
 82 83  1  0  0  0
 83 84  1  0  0  0
 83 85  1  0  0  0
 86 87  1  0  0  0
 87 88  1  0  0  0
 87 90  1  0  0  0
 88 89  2  0  0  0
 88 91  1  0  0  0
 91 92  1  0  0  0
 92 93  1  0  0  0
 92 95  1  0  0  0
 93 94  2  0  0  0
 93102  1  0  0  0
 95 96  1  0  0  0
 96 97  1  0  0  0
 97 98  1  0  0  0
 98 99  1  0  0  0
 99100  1  0  0  0
 99101  2  0  0  0
102103  1  0  0  0
103104  1  0  0  0
103106  1  0  0  0
104105  2  0  0  0
104113  1  0  0  0
106107  1  0  0  0
107108  1  0  0  0
108109  1  0  0  0
109110  1  0  0  0
110111  1  0  0  0
110112  2  0  0  0
113114  1  0  0  0
114115  1  0  0  0
114117  1  0  0  0
115116  2  0  0  0
115124  1  0  0  0
117118  1  0  0  0
118119  1  0  0  0
119120  1  0  0  0
120121  1  0  0  0
121122  1  0  0  0
121123  2  0  0  0
124125  1  0  0  0
125126  1  0  0  0
125128  1  0  0  0
126127  2  0  0  0
126129  1  0  0  0
129130  1  0  0  0
130131  1  0  0  0
130133  1  0  0  0
131132  2  0  0  0
133134  1  0  0  0
134135  1  0  0  0
134136  1  0  0  0
131137  1  0  0  0
  1138  1  0  0  0
  1139  1  0  0  0
  1140  1  0  0  0
  2141  1  0  0  0
  5142  1  0  0  0
  5143  1  0  0  0
  6144  1  0  0  0
  6145  1  0  0  0
  8146  1  0  0  0
  8147  1  0  0  0
  8148  1  0  0  0
  9149  1  0  0  0
 10150  1  0  0  0
 13151  1  0  0  0
 13152  1  0  0  0
 14153  1  0  0  0
 14154  1  0  0  0
 15155  1  0  0  0
 15156  1  0  0  0
 16157  1  0  0  0
 16158  1  0  0  0
 17159  1  0  0  0
 17160  1  0  0  0
 17161  1  0  0  0
 18162  1  0  0  0
 19163  1  0  0  0
 22164  1  0  0  0
 22165  1  0  0  0
 23166  1  0  0  0
 24167  1  0  0  0
 24168  1  0  0  0
 24169  1  0  0  0
 25170  1  0  0  0
 25171  1  0  0  0
 25172  1  0  0  0
 26173  1  0  0  0
 27174  1  0  0  0
 30175  1  0  0  0
 30176  1  0  0  0
 31177  1  0  0  0
 33178  1  0  0  0
 36179  1  0  0  0
 36180  1  0  0  0
 37181  1  0  0  0
 37182  1  0  0  0
 38183  1  0  0  0
 38184  1  0  0  0
 40185  1  0  0  0
 43186  1  0  0  0
 43187  1  0  0  0
 44188  1  0  0  0
 44189  1  0  0  0
 45190  1  0  0  0
 45191  1  0  0  0
 46192  1  0  0  0
 47193  1  0  0  0
 50194  1  0  0  0
 50195  1  0  0  0
 51196  1  0  0  0
 52197  1  0  0  0
 53198  1  0  0  0
 56199  1  0  0  0
 56200  1  0  0  0
 57201  1  0  0  0
 57202  1  0  0  0
 58203  1  0  0  0
 58204  1  0  0  0
 59205  1  0  0  0
 59206  1  0  0  0
 60207  1  0  0  0
 60208  1  0  0  0
 60209  1  0  0  0
 61210  1  0  0  0
 62211  1  0  0  0
 65212  1  0  0  0
 65213  1  0  0  0
 66214  1  0  0  0
 67215  1  0  0  0
 68216  1  0  0  0
 71217  1  0  0  0
 71218  1  0  0  0
 72219  1  0  0  0
 72220  1  0  0  0
 73221  1  0  0  0
 73222  1  0  0  0
 74223  1  0  0  0
 76224  1  0  0  0
 76225  1  0  0  0
 77226  1  0  0  0
 78227  1  0  0  0
 79228  1  0  0  0
 82229  1  0  0  0
 82230  1  0  0  0
 83231  1  0  0  0
 84232  1  0  0  0
 84233  1  0  0  0
 84234  1  0  0  0
 85235  1  0  0  0
 85236  1  0  0  0
 85237  1  0  0  0
 86238  1  0  0  0
 87239  1  0  0  0
 90240  1  0  0  0
 90241  1  0  0  0
 90242  1  0  0  0
 91243  1  0  0  0
 92244  1  0  0  0
 95245  1  0  0  0
 95246  1  0  0  0
 96247  1  0  0  0
 96248  1  0  0  0
 97249  1  0  0  0
 97250  1  0  0  0
 98251  1  0  0  0
100252  1  0  0  0
100253  1  0  0  0
101254  1  0  0  0
102255  1  0  0  0
103256  1  0  0  0
106257  1  0  0  0
106258  1  0  0  0
107259  1  0  0  0
107260  1  0  0  0
108261  1  0  0  0
108262  1  0  0  0
109263  1  0  0  0
111264  1  0  0  0
111265  1  0  0  0
112266  1  0  0  0
113267  1  0  0  0
114268  1  0  0  0
117269  1  0  0  0
117270  1  0  0  0
118271  1  0  0  0
118272  1  0  0  0
119273  1  0  0  0
119274  1  0  0  0
120275  1  0  0  0
122276  1  0  0  0
122277  1  0  0  0
123278  1  0  0  0
124279  1  0  0  0
125280  1  0  0  0
128281  1  0  0  0
128282  1  0  0  0
128283  1  0  0  0
129284  1  0  0  0
130285  1  0  0  0
133286  1  0  0  0
133287  1  0  0  0
134288  1  0  0  0
135289  1  0  0  0
135290  1  0  0  0
135291  1  0  0  0
136292  1  0  0  0
136293  1  0  0  0
136294  1  0  0  0
137295  1  0  0  0
M  END
$$$$
