5sz0_ligand
  -I-interpret- 

 27 28  0  0  0  0  0  0  0  0999 V2000
    0.2920    2.5890   84.9250 C   0  0  0  0  0
   -0.4470    1.4590   85.6130 C   0  0  0  0  0
   -1.7550    1.4770   85.6650 C   0  0  0  0  0
   -2.5370    0.0740   86.5000 S   0  0  0  0  0
   -2.1620    0.1520   87.9160 O   0  0  0  0  0
   -4.0040    0.1880   86.4900 O   0  0  0  0  0
   -2.0440   -1.4000   85.8000 N   0  0  0  0  0
   -2.5560    2.6360   85.0700 C   0  0  0  0  0
   -1.9120    3.6330   84.4840 C   0  0  0  0  0
   -0.3820    3.5840   84.4020 C   0  0  0  0  0
    0.4570    4.6880   83.7780 C   0  0  0  0  0
    1.1880    4.4860   82.7050 C   0  0  0  0  0
    2.0240    5.6290   82.1420 C   0  0  0  0  0
    2.0240    6.8020   82.7420 C   0  0  0  0  0
    1.1900    7.0210   83.9990 C   0  0  0  0  0
    0.4670    6.0350   84.4820 C   0  0  0  0  0
    1.3803    2.5744   84.8653 H   0  0  0  0  0
    0.1077    0.6353   86.0623 H   0  0  0  0  0
   -1.5523   -2.0932   86.3640 H   0  0  0  0  0
   -2.2407   -1.5888   84.8171 H   0  0  0  0  0
   -3.6445    2.6410   85.1278 H   0  0  0  0  0
   -2.4615    4.4764   84.0659 H   0  0  0  0  0
    1.1964    3.5091   82.2216 H   0  0  0  0  0
    2.6217    5.4762   81.2434 H   0  0  0  0  0
    2.6224    7.6186   82.3381 H   0  0  0  0  0
    1.1931    7.9914   84.4954 H   0  0  0  0  0
   -0.1242    6.1832   85.3857 H   0  0  0  0  0
  1  2  4  0  0  0
  1 10  4  0  0  0
  2  3  4  0  0  0
  3  4  1  0  0  0
  3  8  4  0  0  0
  4  5  2  0  0  0
  4  6  2  0  0  0
  4  7  1  0  0  0
  8  9  4  0  0  0
  9 10  4  0  0  0
 10 11  1  0  0  0
 11 12  4  0  0  0
 11 16  4  0  0  0
 12 13  4  0  0  0
 13 14  4  0  0  0
 14 15  4  0  0  0
 15 16  4  0  0  0
  1 17  1  0  0  0
  2 18  1  0  0  0
  7 19  1  0  0  0
  7 20  1  0  0  0
  8 21  1  0  0  0
  9 22  1  0  0  0
 12 23  1  0  0  0
 13 24  1  0  0  0
 14 25  1  0  0  0
 15 26  1  0  0  0
 16 27  1  0  0  0
M  END
$$$$
