1hdq_ligand
  -I-interpret- 

 28 28  0  0  0  0  0  0  0  0999 V2000
   -2.1330   30.7500   -6.0920 N   0  0  0  0  0
   -1.2390   31.8850   -6.3600 C   0  0  0  0  0
    0.1820   31.3410   -6.6460 C   0  0  0  0  0
    1.1610   32.0170   -6.6550 O   0  0  0  0  0
   -1.7560   32.7370   -7.5670 C   0  0  0  0  0
   -2.0310   31.9920   -8.8700 C   0  0  0  0  0
   -1.0350   31.9510   -9.8930 C   0  0  0  0  0
   -3.2670   31.3260   -9.1020 C   0  0  0  0  0
   -1.2660   31.2640  -11.1080 C   0  0  0  0  0
   -3.5010   30.6360  -10.3200 C   0  0  0  0  0
   -2.5000   30.6030  -11.3240 C   0  0  0  0  0
    0.2080   30.0210   -6.9010 O   0  0  0  0  0
   -2.7510   30.5360   -4.9140 C   0  0  0  0  0
   -2.6390   31.2580   -3.9310 O   0  0  0  0  0
   -3.5200   29.4380   -4.9230 N   0  0  0  0  0
   -3.6170   28.6530   -6.0850 O   0  0  0  0  0
   -2.2960   30.0820   -6.8454 H   0  0  0  0  0
   -1.2155   32.5384   -5.4879 H   0  0  0  0  0
   -0.9617   33.4487   -7.7920 H   0  0  0  0  0
   -2.7139   33.1507   -7.2518 H   0  0  0  0  0
   -0.0824   32.4567   -9.7352 H   0  0  0  0  0
   -4.0423   31.3460   -8.3361 H   0  0  0  0  0
   -0.4945   31.2434  -11.8777 H   0  0  0  0  0
   -4.4525   30.1302  -10.4841 H   0  0  0  0  0
   -2.6795   30.0710  -12.2583 H   0  0  0  0  0
   -0.6826   29.6674   -6.8430 H   0  0  0  0  0
   -4.0361   29.1715   -4.0845 H   0  0  0  0  0
   -4.2035   27.9110   -5.9205 H   0  0  0  0  0
  6  7  4  0  0  0
  6  8  4  0  0  0
  7  9  4  0  0  0
  9 11  4  0  0  0
  8 10  4  0  0  0
  5  2  1  0  0  0
  2  3  1  0  0  0
  2  1  1  0  0  0
  3  4  2  0  0  0
 13 15  1  0  0  0
 13 14  2  0  0  0
 15 16  1  0  0  0
  1 13  1  0  0  0
  3 12  1  0  0  0
  5  6  1  0  0  0
 10 11  4  0  0  0
  1 17  1  0  0  0
  2 18  1  0  0  0
  5 19  1  0  0  0
  5 20  1  0  0  0
  7 21  1  0  0  0
  8 22  1  0  0  0
  9 23  1  0  0  0
 10 24  1  0  0  0
 11 25  1  0  0  0
 12 26  1  0  0  0
 15 27  1  0  0  0
 16 28  1  0  0  0
M  END
$$$$
