4p0w_ligand
  -I-interpret- 

 53 55  0  0  0  0  0  0  0  0999 V2000
   34.8500   10.3290    6.4340 C   0  0  0  0  0
   36.3960    8.1570    1.0430 C   0  0  0  0  0
   34.5430   10.5360    3.8500 C   0  0  0  0  0
   35.2760    6.2050    2.4370 C   0  0  0  0  0
   30.1230    5.2340   -2.0500 O   0  0  0  0  0
   32.3290    5.3860    2.5690 O   0  0  0  0  0
   30.1600    4.6230   -0.0420 C   0  0  0  0  0
   30.7680    4.6880    1.1930 C   0  0  0  0  0
   31.8950    6.1940   -0.8410 C   0  0  0  0  0
   32.0830    7.6960    5.5500 C   0  0  0  0  0
   33.2850    8.2960    6.4000 C   0  0  0  0  0
   32.6260    7.1030    4.2310 C   0  0  0  0  0
   36.1990    8.6140    3.0820 C   0  0  0  0  0
   35.6480    8.3570    4.4300 C   0  0  0  0  0
   33.6980    7.1320    0.6210 C   0  0  0  0  0
   34.1890    9.2380    5.7560 C   0  0  0  0  0
   32.5640    6.2570    0.4330 C   0  0  0  0  0
   30.7310    5.3930   -1.0080 C   0  0  0  0  0
   31.9070    5.4700    1.4420 C   0  0  0  0  0
   35.3540    8.4040    1.9320 C   0  0  0  0  0
   33.5670    8.0850    3.3930 C   0  0  0  0  0
   34.4810    9.0640    4.4060 C   0  0  0  0  0
   34.4640    7.4580    2.0950 C   0  0  0  0  0
   34.1015   10.9982    6.8583 H   0  0  0  0  0
   35.4782    9.9322    7.2315 H   0  0  0  0  0
   35.4673   10.8769    5.7220 H   0  0  0  0  0
   37.0503    9.0278    1.0012 H   0  0  0  0  0
   36.9635    7.2904    1.3822 H   0  0  0  0  0
   35.9873    7.9601    0.0519 H   0  0  0  0  0
   35.2285   11.1247    4.4596 H   0  0  0  0  0
   34.8952   10.5189    2.8186 H   0  0  0  0  0
   33.5481   10.9797    3.8883 H   0  0  0  0  0
   34.6046    5.3506    2.5226 H   0  0  0  0  0
   36.0041    6.0188    1.6475 H   0  0  0  0  0
   35.7951    6.3571    3.3833 H   0  0  0  0  0
   29.2856    4.0003   -0.2313 H   0  0  0  0  0
   30.3459    4.1066    2.0127 H   0  0  0  0  0
   32.2837    6.7648   -1.6843 H   0  0  0  0  0
   31.3687    8.4877    5.3240 H   0  0  0  0  0
   31.5900    6.9113    6.1239 H   0  0  0  0  0
   33.9054    7.4386    6.6608 H   0  0  0  0  0
   32.8119    8.8595    7.2042 H   0  0  0  0  0
   31.7622    6.8809    3.6044 H   0  0  0  0  0
   33.2309    6.2367    4.4987 H   0  0  0  0  0
   37.0122    7.8971    2.9687 H   0  0  0  0  0
   36.4305    9.6791    3.0707 H   0  0  0  0  0
   36.3185    8.6627    5.2331 H   0  0  0  0  0
   35.5035    7.2972    4.6396 H   0  0  0  0  0
   33.2781    8.1046    0.3645 H   0  0  0  0  0
   34.4803    6.6097    0.0703 H   0  0  0  0  0
   33.5256    9.4790    6.5866 H   0  0  0  0  0
   34.6668    9.1962    1.6349 H   0  0  0  0  0
   32.8407    8.6873    2.8473 H   0  0  0  0  0
 16  1  1  0  0  0
 20  2  1  0  0  0
 22  3  1  0  0  0
 23  4  1  0  0  0
 18  5  2  0  0  0
 19  6  2  0  0  0
  8  7  2  0  0  0
 18  7  1  0  0  0
 19  8  1  0  0  0
 17  9  2  0  0  0
  9 18  1  0  0  0
 11 10  1  0  0  0
 10 12  1  0  0  0
 16 11  1  0  0  0
 12 21  1  0  0  0
 13 14  1  0  0  0
 20 13  1  0  0  0
 14 22  1  0  0  0
 15 17  1  0  0  0
 23 15  1  0  0  0
 22 16  1  0  0  0
 17 19  1  0  0  0
 20 23  1  0  0  0
 21 22  1  0  0  0
 21 23  1  0  0  0
  1 24  1  0  0  0
  1 25  1  0  0  0
  1 26  1  0  0  0
  2 27  1  0  0  0
  2 28  1  0  0  0
  2 29  1  0  0  0
  3 30  1  0  0  0
  3 31  1  0  0  0
  3 32  1  0  0  0
  4 33  1  0  0  0
  4 34  1  0  0  0
  4 35  1  0  0  0
  7 36  1  0  0  0
  8 37  1  0  0  0
  9 38  1  0  0  0
 10 39  1  0  0  0
 10 40  1  0  0  0
 11 41  1  0  0  0
 11 42  1  0  0  0
 12 43  1  0  0  0
 12 44  1  0  0  0
 13 45  1  0  0  0
 13 46  1  0  0  0
 14 47  1  0  0  0
 14 48  1  0  0  0
 15 49  1  0  0  0
 15 50  1  0  0  0
 16 51  1  0  0  0
 20 52  1  0  0  0
 21 53  1  0  0  0
M  END
$$$$
