### 
### Created by X-TOOL on Mon Sep 10 21:13:16 2018
### 

@<TRIPOS>MOLECULE
2lsv_ligand
  129   128     1     0     0
SMALL
GAST_HUCK


@<TRIPOS>ATOM
      1 N          22.3790   19.7020  -14.8640 N.4       1 ALA         0.2377
      2 CA         20.9790   19.2560  -14.9860 C.3       1 ALA         0.0621
      3 C          20.0810   20.0180  -14.0170 C.2       1 ALA         0.2265
      4 O          20.5550   20.8670  -13.2620 O.2       1 ALA        -0.3907
      5 CB         20.8580   17.7470  -14.7560 C.3       1 ALA        -0.0040
      6 N          18.7830   19.7110  -14.0370 N.am      1 ASP        -0.2595
      7 CA         17.7790   20.3610  -13.2060 C.3       1 ASP         0.1424
      8 C          16.7450   19.3310  -12.7570 C.2       1 ASP         0.2057
      9 O          15.6000   19.6730  -12.4610 O.2       1 ASP        -0.3943
     10 CB         17.1150   21.4960  -13.9930 C.3       1 ASP         0.0406
     11 CG         18.1190   22.5820  -14.3730 C.2       1 ASP         0.0393
     12 OD1        18.3540   23.4730  -13.5240 O.co2     1 ASP        -0.5688
     13 OD2        18.6480   22.5160  -15.5070 O.co2     1 ASP        -0.5688
     14 N          17.1490   18.0590  -12.7120 N.am      1 THR        -0.2612
     15 CA         16.2380   16.9540  -12.4540 C.3       1 THR         0.1565
     16 C          16.8780   15.7910  -11.7230 C.2       1 THR         0.2065
     17 O          18.0760   15.5310  -11.8130 O.2       1 THR        -0.3943
     18 CB         15.7910   16.3310  -13.7870 C.3       1 THR         0.0924
     19 OG1        16.9080   16.1620  -14.6410 O.3       1 THR        -0.3874
     20 CG2        14.7400   17.1380  -14.5320 C.3       1 THR        -0.0346
     21 N          16.0080   15.1000  -10.9920 N.am      1 GLU        -0.2635
     22 CA         16.2120   13.7330  -10.5640 C.3       1 GLU         0.1325
     23 C          15.1800   12.9150  -11.3460 C.2       1 GLU         0.2040
     24 O          15.2340   11.6900  -11.3700 O.2       1 GLU        -0.3944
     25 CB         16.0460   13.6060   -9.0470 C.3       1 GLU        -0.0008
     26 CG         14.6370   13.9990   -8.6060 C.3       1 GLU         0.0044
     27 CD         14.4920   13.9090   -7.0910 C.2       1 GLU         0.0350
     28 OE1        14.2950   12.7730   -6.5960 O.co2     1 GLU        -0.5690
     29 OE2        14.5770   14.9690   -6.4340 O.co2     1 GLU        -0.5690
     30 N          14.2390   13.6210  -11.9930 N.am      1 MET        -0.2637
     31 CA         13.1480   13.0950  -12.7970 C.3       1 MET         0.1317
     32 C          13.6630   12.3590  -14.0220 C.2       1 MET         0.2039
     33 O          12.9290   11.5820  -14.6350 O.2       1 MET        -0.3944
     34 CB         12.3040   14.2770  -13.3050 C.3       1 MET        -0.0034
     35 CG         11.9110   15.3210  -12.2550 C.3       1 MET        -0.0024
     36 SD         10.3780   14.9820  -11.3580 S.3       1 MET        -0.1639
     37 CE         10.7290   13.2730  -10.9140 C.3       1 MET        -0.0181
     38 N          14.9240   12.6090  -14.3690 N.am      1 GLU        -0.2636
     39 CA         15.5500   12.0690  -15.5580 C.3       1 GLU         0.1325
     40 C          16.7920   11.2750  -15.1380 C.2       1 GLU         0.2040
     41 O          17.7200   11.0490  -15.9110 O.2       1 GLU        -0.3944
     42 CB         15.7740   13.2170  -16.5490 C.3       1 GLU        -0.0008
     43 CG         16.1250   12.6640  -17.9340 C.3       1 GLU         0.0044
     44 CD         16.1660   13.7550  -19.0010 C.2       1 GLU         0.0350
     45 OE1        16.8020   14.8050  -18.7510 O.co2     1 GLU        -0.5690
     46 OE2        15.5540   13.5250  -20.0710 O.co2     1 GLU        -0.5690
     47 N          16.7780   10.8500  -13.8710 N.am      1 GLU        -0.2636
     48 CA         17.7110    9.9030  -13.2830 C.3       1 GLU         0.1325
     49 C          16.8880    8.6650  -12.9330 C.2       1 GLU         0.2040
     50 O          15.6560    8.7080  -12.9820 O.2       1 GLU        -0.3944
     51 CB         18.3580   10.5060  -12.0330 C.3       1 GLU        -0.0008
     52 CG         19.2550   11.6980  -12.3770 C.3       1 GLU         0.0044
     53 CD         20.4430   11.2930  -13.2440 C.2       1 GLU         0.0350
     54 OE1        20.9140   10.1400  -13.0970 O.co2     1 GLU        -0.5690
     55 OE2        20.8830   12.1390  -14.0530 O.co2     1 GLU        -0.5690
     56 N          17.5290    7.5500  -12.5810 N.am      1 VAL        -0.2635
     57 CA         16.7940    6.2930  -12.5260 C.3       1 VAL         0.1332
     58 C          16.2010    5.9680  -11.1550 C.2       1 VAL         0.2037
     59 O          14.9780    5.8950  -11.0340 O.2       1 VAL        -0.3944
     60 CB         17.6510    5.1540  -13.0860 C.3       1 VAL        -0.0063
     61 CG1        18.3500    5.6120  -14.3620 C.3       1 VAL        -0.0584
     62 CG2        18.7310    4.6320  -12.1460 C.3       1 VAL        -0.0584
     63 N          17.0230    5.7710  -10.1230 N.am      1 ASP        -0.2679
     64 CA         16.5340    5.3810   -8.8060 C.3       1 ASP         0.1057
     65 C          16.1830    6.6000   -7.9500 C.2       1 ASP         0.0618
     66 O          15.6890    6.3920   -6.8210 O.co2     1 ASP        -0.5665
     67 CB         17.5680    4.5140   -8.0800 C.3       1 ASP         0.0351
     68 CG         18.9340    5.1950   -7.9590 C.2       1 ASP         0.0387
     69 OD1        19.5800    5.4040   -9.0090 O.co2     1 ASP        -0.5688
     70 OD2        19.3180    5.5020   -6.8080 O.co2     1 ASP        -0.5688
     71 OXT        16.4100    7.7360   -8.4310 O.co2     1 ASP        -0.5665
     72 H1         22.9536   19.1863  -15.5121 H         1 ALA         0.2015
     73 H2         22.7031   19.5381  -13.9237 H         1 ALA         0.2015
     74 H3         22.4375   20.6864  -15.0729 H         1 ALA         0.2015
     75 H4         20.6406   19.4734  -16.0098 H         1 ALA         0.1095
     76 H5         19.8049   17.4446  -14.8532 H         1 ALA         0.0310
     77 H6         21.2188   17.4998  -13.7467 H         1 ALA         0.0310
     78 H7         21.4633   17.2125  -15.5029 H         1 ALA         0.0310
     79 H8         18.4808   18.9903  -14.6609 H         1 ASP         0.1886
     80 H9         18.2677   20.7849  -12.3164 H         1 ASP         0.0819
     81 H10        16.3232   21.9433  -13.3742 H         1 ASP         0.0478
     82 H11        16.6730   21.0821  -14.9113 H         1 ASP         0.0478
     83 H12        18.1170   17.8576  -12.8617 H         1 THR         0.1884
     84 H13        15.3746   17.3295  -11.8852 H         1 THR         0.0826
     85 H14        15.3631   15.3424  -13.5644 H         1 THR         0.0639
     86 H15        17.5403   15.5888  -14.2238 H         1 THR         0.2101
     87 H16        14.4789   16.6238  -15.4687 H         1 THR         0.0257
     88 H17        15.1392   18.1371  -14.7612 H         1 THR         0.0257
     89 H18        13.8414   17.2370  -13.9053 H         1 THR         0.0257
     90 H19        15.1592   15.5539  -10.7210 H         1 GLU         0.1883
     91 H20        17.2260   13.4016  -10.8324 H         1 GLU         0.0801
     92 H21        16.7733   14.2654   -8.5508 H         1 GLU         0.0330
     93 H22        16.2356   12.5634   -8.7522 H         1 GLU         0.0330
     94 H23        13.9105   13.3208   -9.0775 H         1 GLU         0.0433
     95 H24        14.4353   15.0320   -8.9256 H         1 GLU         0.0433
     96 H25        14.2946   14.6163  -11.9132 H         1 MET         0.1883
     97 H26        12.5332   12.4180  -12.1857 H         1 MET         0.0800
     98 H27        11.3783   13.8688  -13.7367 H         1 MET         0.0320
     99 H28        12.8799   14.7892  -14.0899 H         1 MET         0.0320
    100 H29        11.7985   16.2891  -12.7649 H         1 MET         0.0378
    101 H30        12.7266   15.3863  -11.5199 H         1 MET         0.0378
    102 H31         9.8855   12.8629  -10.3392 H         1 MET         0.0340
    103 H32        11.6429   13.2331  -10.3031 H         1 MET         0.0340
    104 H33        10.8730   12.6787  -11.8284 H         1 MET         0.0340
    105 H34        15.4686   13.2022  -13.7761 H         1 GLU         0.1883
    106 H35        14.8564   11.3596  -16.0331 H         1 GLU         0.0801
    107 H36        16.5998   13.8493  -16.1910 H         1 GLU         0.0330
    108 H37        14.8559   13.8187  -16.6207 H         1 GLU         0.0330
    109 H38        15.3680   11.9186  -18.2194 H         1 GLU         0.0433
    110 H39        17.1127   12.1825  -17.8826 H         1 GLU         0.0433
    111 H40        16.0629   11.2156  -13.2752 H         1 GLU         0.1883
    112 H41        18.4963    9.6419  -14.0076 H         1 GLU         0.0801
    113 H42        18.9658    9.7338  -11.5387 H         1 GLU         0.0330
    114 H43        17.5653   10.8426  -11.3486 H         1 GLU         0.0330
    115 H44        19.6323   12.1389  -11.4425 H         1 GLU         0.0433
    116 H45        18.6583   12.4454  -12.9204 H         1 GLU         0.0433
    117 H46        18.5033    7.5762  -12.3572 H         1 VAL         0.1883
    118 H47        15.9363    6.4059  -13.2054 H         1 VAL         0.0802
    119 H48        16.9759    4.3191  -13.3252 H         1 VAL         0.0343
    120 H49        18.9636    4.7900  -14.7592 H         1 VAL         0.0234
    121 H50        18.9941    6.4751  -14.1377 H         1 VAL         0.0234
    122 H51        17.5965    5.9012  -15.1093 H         1 VAL         0.0234
    123 H52        18.2674    4.2899  -11.2089 H         1 VAL         0.0234
    124 H53        19.4478    5.4374  -11.9278 H         1 VAL         0.0234
    125 H54        19.2573    3.7919  -12.6227 H         1 VAL         0.0234
    126 H55        18.0062    5.8948  -10.2570 H         1 ASP         0.1876
    127 H56        15.6197    4.7856   -8.9455 H         1 ASP         0.0745
    128 H57        17.6922    3.5741   -8.6377 H         1 ASP         0.0471
    129 H58        17.1944    4.2939   -7.0691 H         1 ASP         0.0471
@<TRIPOS>BOND
     1    1    2 1  
     2    2    3 1  
     3    2    5 1  
     4    3    4 2  
     5    3    6 am 
     6    6    7 1  
     7    7    8 1  
     8    7   10 1  
     9    8    9 2  
    10    8   14 am 
    11   10   11 1  
    12   11   12 ar 
    13   11   13 ar 
    14   14   15 1  
    15   15   16 1  
    16   15   18 1  
    17   16   17 2  
    18   16   21 am 
    19   18   19 1  
    20   18   20 1  
    21   21   22 1  
    22   22   23 1  
    23   22   25 1  
    24   23   24 2  
    25   23   30 am 
    26   25   26 1  
    27   26   27 1  
    28   27   28 ar 
    29   27   29 ar 
    30   30   31 1  
    31   31   32 1  
    32   31   34 1  
    33   32   33 2  
    34   32   38 am 
    35   34   35 1  
    36   35   36 1  
    37   36   37 1  
    38   38   39 1  
    39   39   40 1  
    40   39   42 1  
    41   40   41 2  
    42   40   47 am 
    43   42   43 1  
    44   43   44 1  
    45   44   45 ar 
    46   44   46 ar 
    47   47   48 1  
    48   48   49 1  
    49   48   51 1  
    50   49   50 2  
    51   49   56 am 
    52   51   52 1  
    53   52   53 1  
    54   53   54 ar 
    55   53   55 ar 
    56   56   57 1  
    57   57   58 1  
    58   57   60 1  
    59   58   59 2  
    60   58   63 am 
    61   60   61 1  
    62   60   62 1  
    63   63   64 1  
    64   64   65 1  
    65   64   67 1  
    66   65   66 ar 
    67   65   71 ar 
    68   67   68 1  
    69   68   69 ar 
    70   68   70 ar 
    71    1   72 1  
    72    1   73 1  
    73    1   74 1  
    74    2   75 1  
    75    5   76 1  
    76    5   77 1  
    77    5   78 1  
    78    6   79 1  
    79    7   80 1  
    80   10   81 1  
    81   10   82 1  
    82   14   83 1  
    83   15   84 1  
    84   18   85 1  
    85   19   86 1  
    86   20   87 1  
    87   20   88 1  
    88   20   89 1  
    89   21   90 1  
    90   22   91 1  
    91   25   92 1  
    92   25   93 1  
    93   26   94 1  
    94   26   95 1  
    95   30   96 1  
    96   31   97 1  
    97   34   98 1  
    98   34   99 1  
    99   35  100 1  
   100   35  101 1  
   101   37  102 1  
   102   37  103 1  
   103   37  104 1  
   104   38  105 1  
   105   39  106 1  
   106   42  107 1  
   107   42  108 1  
   108   43  109 1  
   109   43  110 1  
   110   47  111 1  
   111   48  112 1  
   112   51  113 1  
   113   51  114 1  
   114   52  115 1  
   115   52  116 1  
   116   56  117 1  
   117   57  118 1  
   118   60  119 1  
   119   61  120 1  
   120   61  121 1  
   121   61  122 1  
   122   62  123 1  
   123   62  124 1  
   124   62  125 1  
   125   63  126 1  
   126   64  127 1  
   127   67  128 1  
   128   67  129 1  
@<TRIPOS>SUBSTRUCTURE
     1 ALA         1

