2lsv_ligand
  -I-interpret- 

135134  0  0  0  0  0  0  0  0999 V2000
   22.3790   19.7020  -14.8640 N   0  3  0  0  0
   20.9790   19.2560  -14.9860 C   0  0  0  0  0
   20.0810   20.0180  -14.0170 C   0  0  0  0  0
   20.5550   20.8670  -13.2620 O   0  0  0  0  0
   20.8580   17.7470  -14.7560 C   0  0  0  0  0
   18.7830   19.7110  -14.0370 N   0  0  0  0  0
   17.7790   20.3610  -13.2060 C   0  0  0  0  0
   16.7450   19.3310  -12.7570 C   0  0  0  0  0
   15.6000   19.6730  -12.4610 O   0  0  0  0  0
   17.1150   21.4960  -13.9930 C   0  0  0  0  0
   18.1190   22.5820  -14.3730 C   0  0  0  0  0
   18.3540   23.4730  -13.5240 O   0  0  0  0  0
   18.6480   22.5160  -15.5070 O   0  0  0  0  0
   17.1490   18.0590  -12.7120 N   0  0  0  0  0
   16.2380   16.9540  -12.4540 C   0  0  0  0  0
   16.8780   15.7910  -11.7230 C   0  0  0  0  0
   18.0760   15.5310  -11.8130 O   0  0  0  0  0
   15.7910   16.3310  -13.7870 C   0  0  0  0  0
   16.9080   16.1620  -14.6410 O   0  0  0  0  0
   14.7400   17.1380  -14.5320 C   0  0  0  0  0
   16.0080   15.1000  -10.9920 N   0  0  0  0  0
   16.2120   13.7330  -10.5640 C   0  0  0  0  0
   15.1800   12.9150  -11.3460 C   0  0  0  0  0
   15.2340   11.6900  -11.3700 O   0  0  0  0  0
   16.0460   13.6060   -9.0470 C   0  0  0  0  0
   14.6370   13.9990   -8.6060 C   0  0  0  0  0
   14.4920   13.9090   -7.0910 C   0  0  0  0  0
   14.2950   12.7730   -6.5960 O   0  0  0  0  0
   14.5770   14.9690   -6.4340 O   0  0  0  0  0
   14.2390   13.6210  -11.9930 N   0  0  0  0  0
   13.1480   13.0950  -12.7970 C   0  0  0  0  0
   13.6630   12.3590  -14.0220 C   0  0  0  0  0
   12.9290   11.5820  -14.6350 O   0  0  0  0  0
   12.3040   14.2770  -13.3050 C   0  0  0  0  0
   11.9110   15.3210  -12.2550 C   0  0  0  0  0
   10.3780   14.9820  -11.3580 S   0  0  0  0  0
   10.7290   13.2730  -10.9140 C   0  0  0  0  0
   14.9240   12.6090  -14.3690 N   0  0  0  0  0
   15.5500   12.0690  -15.5580 C   0  0  0  0  0
   16.7920   11.2750  -15.1380 C   0  0  0  0  0
   17.7200   11.0490  -15.9110 O   0  0  0  0  0
   15.7740   13.2170  -16.5490 C   0  0  0  0  0
   16.1250   12.6640  -17.9340 C   0  0  0  0  0
   16.1660   13.7550  -19.0010 C   0  0  0  0  0
   16.8020   14.8050  -18.7510 O   0  0  0  0  0
   15.5540   13.5250  -20.0710 O   0  0  0  0  0
   16.7780   10.8500  -13.8710 N   0  0  0  0  0
   17.7110    9.9030  -13.2830 C   0  0  0  0  0
   16.8880    8.6650  -12.9330 C   0  0  0  0  0
   15.6560    8.7080  -12.9820 O   0  0  0  0  0
   18.3580   10.5060  -12.0330 C   0  0  0  0  0
   19.2550   11.6980  -12.3770 C   0  0  0  0  0
   20.4430   11.2930  -13.2440 C   0  0  0  0  0
   20.9140   10.1400  -13.0970 O   0  0  0  0  0
   20.8830   12.1390  -14.0530 O   0  0  0  0  0
   17.5290    7.5500  -12.5810 N   0  0  0  0  0
   16.7940    6.2930  -12.5260 C   0  0  0  0  0
   16.2010    5.9680  -11.1550 C   0  0  0  0  0
   14.9780    5.8950  -11.0340 O   0  0  0  0  0
   17.6510    5.1540  -13.0860 C   0  0  0  0  0
   18.3500    5.6120  -14.3620 C   0  0  0  0  0
   18.7310    4.6320  -12.1460 C   0  0  0  0  0
   17.0230    5.7710  -10.1230 N   0  0  0  0  0
   16.5340    5.3810   -8.8060 C   0  0  0  0  0
   16.1830    6.6000   -7.9500 C   0  0  0  0  0
   15.6890    6.3920   -6.8210 O   0  0  0  0  0
   17.5680    4.5140   -8.0800 C   0  0  0  0  0
   18.9340    5.1950   -7.9590 C   0  0  0  0  0
   19.5800    5.4040   -9.0090 O   0  0  0  0  0
   19.3180    5.5020   -6.8080 O   0  0  0  0  0
   16.4100    7.7360   -8.4310 O   0  0  0  0  0
   22.4289   20.7085  -15.0217 H   0  0  0  0  0
   22.7232   19.4857  -13.9285 H   0  0  0  0  0
   22.9501   19.2192  -15.5577 H   0  0  0  0  0
   20.6492   19.4707  -16.0025 H   0  0  0  0  0
   21.1576   17.5112  -13.7348 H   0  0  0  0  0
   19.8244   17.4385  -14.9132 H   0  0  0  0  0
   21.5061   17.2208  -15.4568 H   0  0  0  0  0
   18.4747   18.9759  -14.6734 H   0  0  0  0  0
   18.2509   20.7871  -12.3206 H   0  0  0  0  0
   16.3449   21.9445  -13.3654 H   0  0  0  0  0
   16.6962   21.0796  -14.9091 H   0  0  0  0  0
   18.3094   21.7477  -15.9726 H   0  0  0  0  0
   18.1364   17.8536  -12.8647 H   0  0  0  0  0
   15.4360   17.3914  -11.8594 H   0  0  0  0  0
   15.3372   15.3759  -13.5224 H   0  0  0  0  0
   16.6197   15.7729  -15.4699 H   0  0  0  0  0
   13.8502   17.2354  -13.9100 H   0  0  0  0  0
   15.1367   18.1277  -14.7584 H   0  0  0  0  0
   14.4821   16.6275  -15.4599 H   0  0  0  0  0
   15.1422   15.5630  -10.7156 H   0  0  0  0  0
   17.2215   13.3746  -10.7655 H   0  0  0  0  0
   16.7591   14.2737   -8.5635 H   0  0  0  0  0
   16.2200   12.5675   -8.7653 H   0  0  0  0  0
   13.9237   13.3153   -9.0662 H   0  0  0  0  0
   14.4488   15.0274   -8.9143 H   0  0  0  0  0
   14.2688   12.1192   -7.2985 H   0  0  0  0  0
   14.2957   14.6362  -11.9116 H   0  0  0  0  0
   12.5725   12.4083  -12.1762 H   0  0  0  0  0
   11.3723   13.8507  -13.6768 H   0  0  0  0  0
   12.9175   14.7978  -14.0402 H   0  0  0  0  0
   11.7570   16.2578  -12.7906 H   0  0  0  0  0
   12.7094   15.3314  -11.5130 H   0  0  0  0  0
   10.8715   12.6853  -11.8208 H   0  0  0  0  0
   11.6347   13.2349  -10.3087 H   0  0  0  0  0
    9.8926   12.8678  -10.3445 H   0  0  0  0  0
   15.4795   13.2140  -13.7642 H   0  0  0  0  0
   14.9268   11.3512  -16.0914 H   0  0  0  0  0
   16.5974   13.8371  -16.1946 H   0  0  0  0  0
   14.8602   13.8066  -16.6227 H   0  0  0  0  0
   15.3558   11.9448  -18.2155 H   0  0  0  0  0
   17.1146   12.2108  -17.8760 H   0  0  0  0  0
   15.1461   12.6572  -20.0248 H   0  0  0  0  0
   16.0486   11.2229  -13.2633 H   0  0  0  0  0
   18.5211    9.6523  -13.9679 H   0  0  0  0  0
   18.9725    9.7393  -11.5611 H   0  0  0  0  0
   17.5654   10.8533  -11.3702 H   0  0  0  0  0
   19.6404   12.1127  -11.4455 H   0  0  0  0  0
   18.6594   12.4214  -12.9339 H   0  0  0  0  0
   20.4141    9.6750  -12.4221 H   0  0  0  0  0
   18.5228    7.5767  -12.3528 H   0  0  0  0  0
   15.9190    6.4143  -13.1646 H   0  0  0  0  0
   16.9462    4.3400  -13.2553 H   0  0  0  0  0
   17.6023    5.8983  -15.1016 H   0  0  0  0  0
   18.9878    6.4672  -14.1384 H   0  0  0  0  0
   18.9577    4.7967  -14.7545 H   0  0  0  0  0
   19.4157    5.4423  -11.8958 H   0  0  0  0  0
   18.2664    4.2530  -11.2357 H   0  0  0  0  0
   19.2806    3.8286  -12.6366 H   0  0  0  0  0
   18.0259    5.8973  -10.2597 H   0  0  0  0  0
   15.6240    4.8004   -8.9573 H   0  0  0  0  0
   17.7012    3.5994   -8.6578 H   0  0  0  0  0
   17.1979    4.3271   -7.0719 H   0  0  0  0  0
   18.6511    5.2404   -6.1690 H   0  0  0  0  0
   16.7895    7.6411   -9.3077 H   0  0  0  0  0
  1  2  1  0  0  0
  2  3  1  0  0  0
  2  5  1  0  0  0
  3  4  2  0  0  0
  3  6  1  0  0  0
  6  7  1  0  0  0
  7  8  1  0  0  0
  7 10  1  0  0  0
  8  9  2  0  0  0
  8 14  1  0  0  0
 10 11  1  0  0  0
 11 12  2  0  0  0
 11 13  1  0  0  0
 14 15  1  0  0  0
 15 16  1  0  0  0
 15 18  1  0  0  0
 16 17  2  0  0  0
 16 21  1  0  0  0
 18 19  1  0  0  0
 18 20  1  0  0  0
 21 22  1  0  0  0
 22 23  1  0  0  0
 22 25  1  0  0  0
 23 24  2  0  0  0
 23 30  1  0  0  0
 25 26  1  0  0  0
 26 27  1  0  0  0
 27 28  1  0  0  0
 27 29  2  0  0  0
 30 31  1  0  0  0
 31 32  1  0  0  0
 31 34  1  0  0  0
 32 33  2  0  0  0
 32 38  1  0  0  0
 34 35  1  0  0  0
 35 36  1  0  0  0
 36 37  1  0  0  0
 38 39  1  0  0  0
 39 40  1  0  0  0
 39 42  1  0  0  0
 40 41  2  0  0  0
 40 47  1  0  0  0
 42 43  1  0  0  0
 43 44  1  0  0  0
 44 45  2  0  0  0
 44 46  1  0  0  0
 47 48  1  0  0  0
 48 49  1  0  0  0
 48 51  1  0  0  0
 49 50  2  0  0  0
 49 56  1  0  0  0
 51 52  1  0  0  0
 52 53  1  0  0  0
 53 54  1  0  0  0
 53 55  2  0  0  0
 56 57  1  0  0  0
 57 58  1  0  0  0
 57 60  1  0  0  0
 58 59  2  0  0  0
 58 63  1  0  0  0
 60 61  1  0  0  0
 60 62  1  0  0  0
 63 64  1  0  0  0
 64 65  1  0  0  0
 64 67  1  0  0  0
 65 66  2  0  0  0
 65 71  1  0  0  0
 67 68  1  0  0  0
 68 69  2  0  0  0
 68 70  1  0  0  0
  1 72  1  0  0  0
  1 73  1  0  0  0
  1 74  1  0  0  0
  2 75  1  0  0  0
  5 76  1  0  0  0
  5 77  1  0  0  0
  5 78  1  0  0  0
  6 79  1  0  0  0
  7 80  1  0  0  0
 10 81  1  0  0  0
 10 82  1  0  0  0
 13 83  1  0  0  0
 14 84  1  0  0  0
 15 85  1  0  0  0
 18 86  1  0  0  0
 19 87  1  0  0  0
 20 88  1  0  0  0
 20 89  1  0  0  0
 20 90  1  0  0  0
 21 91  1  0  0  0
 22 92  1  0  0  0
 25 93  1  0  0  0
 25 94  1  0  0  0
 26 95  1  0  0  0
 26 96  1  0  0  0
 28 97  1  0  0  0
 30 98  1  0  0  0
 31 99  1  0  0  0
 34100  1  0  0  0
 34101  1  0  0  0
 35102  1  0  0  0
 35103  1  0  0  0
 37104  1  0  0  0
 37105  1  0  0  0
 37106  1  0  0  0
 38107  1  0  0  0
 39108  1  0  0  0
 42109  1  0  0  0
 42110  1  0  0  0
 43111  1  0  0  0
 43112  1  0  0  0
 46113  1  0  0  0
 47114  1  0  0  0
 48115  1  0  0  0
 51116  1  0  0  0
 51117  1  0  0  0
 52118  1  0  0  0
 52119  1  0  0  0
 54120  1  0  0  0
 56121  1  0  0  0
 57122  1  0  0  0
 60123  1  0  0  0
 61124  1  0  0  0
 61125  1  0  0  0
 61126  1  0  0  0
 62127  1  0  0  0
 62128  1  0  0  0
 62129  1  0  0  0
 63130  1  0  0  0
 64131  1  0  0  0
 67132  1  0  0  0
 67133  1  0  0  0
 70134  1  0  0  0
 71135  1  0  0  0
M  END
$$$$
