### 
### Created by X-TOOL on Sun Sep  9 21:51:24 2018
### 

@<TRIPOS>MOLECULE
2x6y_ligand
  140   145     1     0     0
SMALL
GAST_HUCK


@<TRIPOS>ATOM
      1 C1          5.8020  -16.5310   28.4310 C.3       1 NON         0.1879
      2 C2          5.4300  -15.7620   27.1650 C.3       1 NON         0.1341
      3 C3          6.5890  -15.6550   26.1830 C.3       1 NON         0.1140
      4 C4          7.2430  -17.0140   26.0000 C.3       1 NON         0.1095
      5 C5          7.6400  -17.6050   27.3590 C.3       1 NON         0.0873
      6 C6          8.2600  -18.9920   27.2410 C.3       1 NON        -0.0361
      7 O2          4.3580  -16.4000   26.5280 O.3       1 NON        -0.3841
      8 O3          6.1290  -15.1540   24.9390 O.3       1 NON        -0.3864
      9 O4          8.3600  -16.8500   25.1560 O.3       1 NON        -0.3866
     10 O5          6.4790  -17.7560   28.1590 O.3       1 NON        -0.3431
     11 C1          7.0140  -13.0560   32.4410 C.3       1 NON         0.1884
     12 C2          5.5430  -12.6450   32.4630 C.3       1 NON         0.1341
     13 C3          4.6250  -13.8750   32.5520 C.3       1 NON         0.1141
     14 C4          4.9770  -14.8740   31.4570 C.3       1 NON         0.1119
     15 C5          6.4810  -15.1970   31.5340 C.3       1 NON         0.1134
     16 C6          7.0120  -16.1040   30.4320 C.3       1 NON         0.0796
     17 O2          5.3220  -11.7540   33.5430 O.3       1 NON        -0.3841
     18 O3          3.2650  -13.4750   32.4450 O.3       1 NON        -0.3864
     19 O4          4.1780  -16.0390   31.5930 O.3       1 NON        -0.3865
     20 O5          7.2260  -13.9930   31.4070 O.3       1 NON        -0.3405
     21 O6          6.6450  -15.6890   29.1870 O.3       1 NON        -0.3461
     22 C1          9.0170  -14.0380   36.7280 C.3       1 NON         0.1884
     23 C2          8.6640  -15.2590   35.8710 C.3       1 NON         0.1345
     24 C3          9.1620  -15.0670   34.4350 C.3       1 NON         0.1209
     25 C4          8.7440  -13.7050   33.8710 C.3       1 NON         0.1188
     26 C5          9.2430  -12.6020   34.8260 C.3       1 NON         0.1134
     27 C6          8.8940  -11.1740   34.4150 C.3       1 NON         0.0730
     28 O2          9.1030  -16.4630   36.4810 O.3       1 NON        -0.3841
     29 O3          8.6680  -16.1310   33.6400 O.3       1 NON        -0.3403
     30 O4          7.4260  -13.5370   33.7120 O.3       1 NON        -0.3401
     31 O5          8.7470  -12.7720   36.1540 O.3       1 NON        -0.3405
     32 O6          9.4490  -10.8910   33.1570 O.3       1 NON        -0.3924
     33 C1          9.5260  -17.1260   33.3170 C.3       1 NON         0.1854
     34 C2          8.7560  -18.3940   32.9380 C.3       1 NON         0.1210
     35 C3          9.6670  -19.4570   32.3210 C.3       1 NON         0.1111
     36 C4         10.6990  -18.8640   31.3630 C.3       1 NON         0.1116
     37 C5         11.3710  -17.6330   31.9580 C.3       1 NON         0.1130
     38 C6         12.3770  -17.0060   30.9920 C.3       1 NON         0.0730
     39 C7          6.8070  -19.0170   34.2940 C.2       1 NON         0.1733
     40 C8          6.3580  -19.5900   35.6150 C.3       1 NON         0.0257
     41 N2          8.1140  -18.9330   34.1270 N.am      1 NON        -0.2766
     42 O3          8.8690  -20.3950   31.6240 O.3       1 NON        -0.3867
     43 O4         11.6530  -19.8770   31.0870 O.3       1 NON        -0.3865
     44 O5         10.3840  -16.6670   32.2830 O.3       1 NON        -0.3408
     45 O6         11.7510  -16.4760   29.8450 O.3       1 NON        -0.3924
     46 O7          6.0150  -18.6660   33.4340 O.2       1 NON        -0.3974
     47 C1         12.5960  -11.9440   39.0760 C.3       1 NON         0.1823
     48 C2         12.1940  -12.6540   37.7890 C.3       1 NON         0.1211
     49 C3         10.8830  -13.3630   38.0600 C.3       1 NON         0.1176
     50 C4         11.0580  -14.3140   39.2450 C.3       1 NON         0.1120
     51 C5         11.6390  -13.5970   40.4690 C.3       1 NON         0.1134
     52 C6         12.0650  -14.6020   41.5290 C.3       1 NON         0.0796
     53 C7         12.7720  -11.8020   35.5630 C.2       1 NON         0.1733
     54 C8         12.6590  -10.6560   34.5970 C.3       1 NON         0.0257
     55 N2         12.1260  -11.6530   36.7310 N.am      1 NON        -0.2766
     56 O1         13.8400  -11.3230   38.9970 O.3       1 NON        -0.3651
     57 O3         10.4170  -14.0570   36.9040 O.3       1 NON        -0.3403
     58 O4          9.8480  -14.9600   39.5970 O.3       1 NON        -0.3865
     59 O5         12.7730  -12.8110   40.1650 O.3       1 NON        -0.3409
     60 O6         12.0270  -13.9740   42.8070 O.3       1 NON        -0.3460
     61 O7         13.4010  -12.8280   35.2450 O.2       1 NON        -0.3974
     62 C1         10.9120  -14.0730   43.5510 C.3       1 NON         0.1880
     63 C2         10.9260  -13.2430   44.8230 C.3       1 NON         0.1341
     64 C3         12.0190  -13.8030   45.7320 C.3       1 NON         0.1141
     65 C4         11.7350  -15.2800   45.9900 C.3       1 NON         0.1119
     66 C5         11.4870  -16.0640   44.6930 C.3       1 NON         0.1130
     67 C6         11.0810  -17.5120   44.9660 C.3       1 NON         0.0730
     68 O2         11.1890  -11.8880   44.5230 O.3       1 NON        -0.3841
     69 O3         12.0830  -13.0640   46.9340 O.3       1 NON        -0.3864
     70 O4         12.8100  -15.8310   46.6970 O.3       1 NON        -0.3865
     71 O5         10.5310  -15.3790   43.9040 O.3       1 NON        -0.3405
     72 O6          9.8660  -17.5110   45.6780 O.3       1 NON        -0.3924
     73 H1          4.8873  -16.7533   29.0001 H         1 NON         0.0937
     74 H2          5.1235  -14.7461   27.4548 H         1 NON         0.0671
     75 H3          7.3349  -14.9565   26.5902 H         1 NON         0.0648
     76 H4          6.5285  -17.6975   25.5180 H         1 NON         0.0646
     77 H5          8.3528  -16.9252   27.8486 H         1 NON         0.0621
     78 H6          8.5230  -19.3625   28.2428 H         1 NON         0.0255
     79 H7          9.1668  -18.9368   26.6208 H         1 NON         0.0255
     80 H8          7.5378  -19.6780   26.7743 H         1 NON         0.0255
     81 H9          4.0934  -15.8917   25.7703 H         1 NON         0.2101
     82 H10         5.4927  -15.7564   24.5720 H         1 NON         0.2100
     83 H11         8.0775  -16.4832   24.3264 H         1 NON         0.2100
     84 H12         7.6158  -12.1636   32.2142 H         1 NON         0.0938
     85 H13         5.3149  -12.1171   31.5253 H         1 NON         0.0671
     86 H14         4.7742  -14.3576   33.5292 H         1 NON         0.0648
     87 H15         4.7659  -14.4202   30.4774 H         1 NON         0.0647
     88 H16         6.6803  -15.6658   32.5089 H         1 NON         0.0647
     89 H17         6.6218  -17.1197   30.5936 H         1 NON         0.0587
     90 H18         8.1104  -16.1199   30.4880 H         1 NON         0.0587
     91 H19         5.4965  -12.2019   34.3623 H         1 NON         0.2101
     92 H20         3.0638  -12.8533   33.1345 H         1 NON         0.2100
     93 H21         4.3530  -16.4452   32.4337 H         1 NON         0.2100
     94 H22         8.4937  -14.1177   37.6923 H         1 NON         0.0938
     95 H23         7.5667  -15.3159   35.8203 H         1 NON         0.0671
     96 H24        10.2611  -15.1114   34.4365 H         1 NON         0.0651
     97 H25         9.2249  -13.5835   32.8892 H         1 NON         0.0651
     98 H26        10.3396  -12.6833   34.8534 H         1 NON         0.0647
     99 H27         9.2979  -10.4711   35.1585 H         1 NON         0.0584
    100 H28         7.8005  -11.0657   34.3642 H         1 NON         0.0584
    101 H29         8.7574  -16.5134   37.3645 H         1 NON         0.2101
    102 H30         9.2281  -10.0014   32.9075 H         1 NON         0.2095
    103 H31        10.1437  -17.3581   34.1971 H         1 NON         0.0935
    104 H32         7.9832  -18.1276   32.2019 H         1 NON         0.0633
    105 H33        10.2022  -19.9711   33.1329 H         1 NON         0.0645
    106 H34        10.1985  -18.5711   30.4283 H         1 NON         0.0647
    107 H35        11.9010  -17.9314   32.8745 H         1 NON         0.0647
    108 H36        13.0964  -17.7770   30.6792 H         1 NON         0.0584
    109 H37        12.9102  -16.1961   31.5113 H         1 NON         0.0584
    110 H38         5.2588  -19.6149   35.6492 H         1 NON         0.0467
    111 H39         6.7362  -18.9616   36.4348 H         1 NON         0.0467
    112 H40         6.7514  -20.6114   35.7244 H         1 NON         0.0467
    113 H41         8.7014  -19.2616   34.8666 H         1 NON         0.1857
    114 H42         8.2263  -20.7653   32.2175 H         1 NON         0.2100
    115 H43        12.2927  -19.5475   30.4667 H         1 NON         0.2100
    116 H44        11.2926  -17.1703   29.3864 H         1 NON         0.2095
    117 H45        11.8177  -11.2022   39.3082 H         1 NON         0.0932
    118 H46        12.9525  -13.4029   37.5172 H         1 NON         0.0633
    119 H47        10.1298  -12.6079   38.3292 H         1 NON         0.0649
    120 H48        11.7746  -15.0903   38.9387 H         1 NON         0.0647
    121 H49        10.8572  -12.9434   40.8832 H         1 NON         0.0647
    122 H50        13.0877  -14.9483   41.3188 H         1 NON         0.0587
    123 H51        11.3779  -15.4609   41.5199 H         1 NON         0.0587
    124 H52        13.2244  -10.8899   33.6829 H         1 NON         0.0467
    125 H53        13.0687   -9.7455   35.0586 H         1 NON         0.0467
    126 H54        11.6012  -10.4939   34.3424 H         1 NON         0.0467
    127 H55        11.5804  -10.8283   36.8800 H         1 NON         0.1857
    128 H56        14.5109  -11.9785   38.8467 H         1 NON         0.2126
    129 H57        10.0173  -15.5952   40.2828 H         1 NON         0.2100
    130 H58        10.1065  -13.6714   42.9186 H         1 NON         0.0937
    131 H59         9.9505  -13.3191   45.3255 H         1 NON         0.0671
    132 H60        12.9886  -13.7156   45.2200 H         1 NON         0.0648
    133 H61        10.8298  -15.3545   46.6104 H         1 NON         0.0647
    134 H62        12.4313  -16.0902   44.1294 H         1 NON         0.0647
    135 H63        11.8599  -18.0091   45.5628 H         1 NON         0.0584
    136 H64        10.9519  -18.0466   44.0134 H         1 NON         0.0584
    137 H65        10.5036  -11.5511   43.9580 H         1 NON         0.2101
    138 H66        11.2535  -13.1335   47.3917 H         1 NON         0.2100
    139 H67        12.9500  -15.3353   47.4952 H         1 NON         0.2100
    140 H68         9.9816  -17.0466   46.4987 H         1 NON         0.2095
@<TRIPOS>BOND
     1    1    2 1  
     2    1   10 1  
     3   21    1 1  
     4    2    3 1  
     5    2    7 1  
     6    3    4 1  
     7    3    8 1  
     8    5    4 1  
     9    4    9 1  
    10    5    6 1  
    11   10    5 1  
    12   11   12 1  
    13   11   20 1  
    14   30   11 1  
    15   12   13 1  
    16   12   17 1  
    17   13   14 1  
    18   13   18 1  
    19   15   14 1  
    20   14   19 1  
    21   15   16 1  
    22   20   15 1  
    23   16   21 1  
    24   22   23 1  
    25   22   31 1  
    26   57   22 1  
    27   23   24 1  
    28   23   28 1  
    29   24   25 1  
    30   24   29 1  
    31   26   25 1  
    32   25   30 1  
    33   26   27 1  
    34   31   26 1  
    35   27   32 1  
    36   29   33 1  
    37   33   34 1  
    38   33   44 1  
    39   34   35 1  
    40   34   41 1  
    41   35   36 1  
    42   35   42 1  
    43   37   36 1  
    44   36   43 1  
    45   37   38 1  
    46   44   37 1  
    47   38   45 1  
    48   39   40 1  
    49   41   39 am 
    50   39   46 2  
    51   48   47 1  
    52   47   56 1  
    53   47   59 1  
    54   48   49 1  
    55   55   48 1  
    56   49   50 1  
    57   49   57 1  
    58   50   51 1  
    59   50   58 1  
    60   51   52 1  
    61   59   51 1  
    62   52   60 1  
    63   53   54 1  
    64   53   55 am 
    65   53   61 2  
    66   60   62 1  
    67   62   63 1  
    68   62   71 1  
    69   63   64 1  
    70   63   68 1  
    71   64   65 1  
    72   64   69 1  
    73   65   66 1  
    74   65   70 1  
    75   66   67 1  
    76   66   71 1  
    77   67   72 1  
    78    1   73 1  
    79    2   74 1  
    80    3   75 1  
    81    4   76 1  
    82    5   77 1  
    83    6   78 1  
    84    6   79 1  
    85    6   80 1  
    86    7   81 1  
    87    8   82 1  
    88    9   83 1  
    89   11   84 1  
    90   12   85 1  
    91   13   86 1  
    92   14   87 1  
    93   15   88 1  
    94   16   89 1  
    95   16   90 1  
    96   17   91 1  
    97   18   92 1  
    98   19   93 1  
    99   22   94 1  
   100   23   95 1  
   101   24   96 1  
   102   25   97 1  
   103   26   98 1  
   104   27   99 1  
   105   27  100 1  
   106   28  101 1  
   107   32  102 1  
   108   33  103 1  
   109   34  104 1  
   110   35  105 1  
   111   36  106 1  
   112   37  107 1  
   113   38  108 1  
   114   38  109 1  
   115   40  110 1  
   116   40  111 1  
   117   40  112 1  
   118   41  113 1  
   119   42  114 1  
   120   43  115 1  
   121   45  116 1  
   122   47  117 1  
   123   48  118 1  
   124   49  119 1  
   125   50  120 1  
   126   51  121 1  
   127   52  122 1  
   128   52  123 1  
   129   54  124 1  
   130   54  125 1  
   131   54  126 1  
   132   55  127 1  
   133   56  128 1  
   134   58  129 1  
   135   62  130 1  
   136   63  131 1  
   137   64  132 1  
   138   65  133 1  
   139   66  134 1  
   140   67  135 1  
   141   67  136 1  
   142   68  137 1  
   143   69  138 1  
   144   70  139 1  
   145   72  140 1  
@<TRIPOS>SUBSTRUCTURE
     1 NON         1

