2x6y_ligand
  -I-interpret- 

140145  0  0  0  0  0  0  0  0999 V2000
    5.8020  -16.5310   28.4310 C   0  0  0  0  0
    5.4300  -15.7620   27.1650 C   0  0  0  0  0
    6.5890  -15.6550   26.1830 C   0  0  0  0  0
    7.2430  -17.0140   26.0000 C   0  0  0  0  0
    7.6400  -17.6050   27.3590 C   0  0  0  0  0
    8.2600  -18.9920   27.2410 C   0  0  0  0  0
    4.3580  -16.4000   26.5280 O   0  0  0  0  0
    6.1290  -15.1540   24.9390 O   0  0  0  0  0
    8.3600  -16.8500   25.1560 O   0  0  0  0  0
    6.4790  -17.7560   28.1590 O   0  0  0  0  0
    7.0140  -13.0560   32.4410 C   0  0  0  0  0
    5.5430  -12.6450   32.4630 C   0  0  0  0  0
    4.6250  -13.8750   32.5520 C   0  0  0  0  0
    4.9770  -14.8740   31.4570 C   0  0  0  0  0
    6.4810  -15.1970   31.5340 C   0  0  0  0  0
    7.0120  -16.1040   30.4320 C   0  0  0  0  0
    5.3220  -11.7540   33.5430 O   0  0  0  0  0
    3.2650  -13.4750   32.4450 O   0  0  0  0  0
    4.1780  -16.0390   31.5930 O   0  0  0  0  0
    7.2260  -13.9930   31.4070 O   0  0  0  0  0
    6.6450  -15.6890   29.1870 O   0  0  0  0  0
    9.0170  -14.0380   36.7280 C   0  0  0  0  0
    8.6640  -15.2590   35.8710 C   0  0  0  0  0
    9.1620  -15.0670   34.4350 C   0  0  0  0  0
    8.7440  -13.7050   33.8710 C   0  0  0  0  0
    9.2430  -12.6020   34.8260 C   0  0  0  0  0
    8.8940  -11.1740   34.4150 C   0  0  0  0  0
    9.1030  -16.4630   36.4810 O   0  0  0  0  0
    8.6680  -16.1310   33.6400 O   0  0  0  0  0
    7.4260  -13.5370   33.7120 O   0  0  0  0  0
    8.7470  -12.7720   36.1540 O   0  0  0  0  0
    9.4490  -10.8910   33.1570 O   0  0  0  0  0
    9.5260  -17.1260   33.3170 C   0  0  0  0  0
    8.7560  -18.3940   32.9380 C   0  0  0  0  0
    9.6670  -19.4570   32.3210 C   0  0  0  0  0
   10.6990  -18.8640   31.3630 C   0  0  0  0  0
   11.3710  -17.6330   31.9580 C   0  0  0  0  0
   12.3770  -17.0060   30.9920 C   0  0  0  0  0
    6.8070  -19.0170   34.2940 C   0  0  0  0  0
    6.3580  -19.5900   35.6150 C   0  0  0  0  0
    8.1140  -18.9330   34.1270 N   0  0  0  0  0
    8.8690  -20.3950   31.6240 O   0  0  0  0  0
   11.6530  -19.8770   31.0870 O   0  0  0  0  0
   10.3840  -16.6670   32.2830 O   0  0  0  0  0
   11.7510  -16.4760   29.8450 O   0  0  0  0  0
    6.0150  -18.6660   33.4340 O   0  0  0  0  0
   12.5960  -11.9440   39.0760 C   0  0  0  0  0
   12.1940  -12.6540   37.7890 C   0  0  0  0  0
   10.8830  -13.3630   38.0600 C   0  0  0  0  0
   11.0580  -14.3140   39.2450 C   0  0  0  0  0
   11.6390  -13.5970   40.4690 C   0  0  0  0  0
   12.0650  -14.6020   41.5290 C   0  0  0  0  0
   12.7720  -11.8020   35.5630 C   0  0  0  0  0
   12.6590  -10.6560   34.5970 C   0  0  0  0  0
   12.1260  -11.6530   36.7310 N   0  0  0  0  0
   13.8400  -11.3230   38.9970 O   0  0  0  0  0
   10.4170  -14.0570   36.9040 O   0  0  0  0  0
    9.8480  -14.9600   39.5970 O   0  0  0  0  0
   12.7730  -12.8110   40.1650 O   0  0  0  0  0
   12.0270  -13.9740   42.8070 O   0  0  0  0  0
   13.4010  -12.8280   35.2450 O   0  0  0  0  0
   10.9120  -14.0730   43.5510 C   0  0  0  0  0
   10.9260  -13.2430   44.8230 C   0  0  0  0  0
   12.0190  -13.8030   45.7320 C   0  0  0  0  0
   11.7350  -15.2800   45.9900 C   0  0  0  0  0
   11.4870  -16.0640   44.6930 C   0  0  0  0  0
   11.0810  -17.5120   44.9660 C   0  0  0  0  0
   11.1890  -11.8880   44.5230 O   0  0  0  0  0
   12.0830  -13.0640   46.9340 O   0  0  0  0  0
   12.8100  -15.8310   46.6970 O   0  0  0  0  0
   10.5310  -15.3790   43.9040 O   0  0  0  0  0
    9.8660  -17.5110   45.6780 O   0  0  0  0  0
    4.8891  -16.7966   28.9641 H   0  0  0  0  0
    5.1581  -14.7523   27.4725 H   0  0  0  0  0
    7.3304  -14.9630   26.5825 H   0  0  0  0  0
    6.5462  -17.7163   25.5425 H   0  0  0  0  0
    8.3682  -16.9194   27.7923 H   0  0  0  0  0
    8.5138  -19.3609   28.2348 H   0  0  0  0  0
    7.5460  -19.6691   26.7721 H   0  0  0  0  0
    9.1622  -18.9347   26.6320 H   0  0  0  0  0
    3.6213  -16.4725   27.1392 H   0  0  0  0  0
    5.7192  -14.2962   25.0726 H   0  0  0  0  0
    8.0746  -16.4794   24.3177 H   0  0  0  0  0
    7.6347  -12.1849   32.2310 H   0  0  0  0  0
    5.3000  -12.1351   31.5308 H   0  0  0  0  0
    4.7707  -14.3578   33.5183 H   0  0  0  0  0
    4.7698  -14.4483   30.4752 H   0  0  0  0  0
    6.5959  -15.7078   32.4900 H   0  0  0  0  0
    6.5969  -17.0996   30.5889 H   0  0  0  0  0
    8.1007  -16.0896   30.4822 H   0  0  0  0  0
    4.3978  -11.4946   33.5584 H   0  0  0  0  0
    2.6996  -14.2488   32.5016 H   0  0  0  0  0
    4.4048  -16.6638   30.9004 H   0  0  0  0  0
    8.4061  -14.1279   37.6262 H   0  0  0  0  0
    7.5798  -15.3512   35.8064 H   0  0  0  0  0
   10.2519  -15.0816   34.4255 H   0  0  0  0  0
    9.1885  -13.6501   32.8773 H   0  0  0  0  0
   10.3250  -12.7236   34.7761 H   0  0  0  0  0
    9.2975  -10.4787   35.1511 H   0  0  0  0  0
    7.8103  -11.0693   34.3622 H   0  0  0  0  0
    8.8682  -17.2076   35.9223 H   0  0  0  0  0
    9.2258   -9.9920   32.9049 H   0  0  0  0  0
   10.1450  -17.3938   34.1733 H   0  0  0  0  0
    8.0116  -18.1253   32.1885 H   0  0  0  0  0
   10.2159  -19.9334   33.1333 H   0  0  0  0  0
   10.2105  -18.5360   30.4454 H   0  0  0  0  0
   11.9098  -17.9513   32.8505 H   0  0  0  0  0
   13.0712  -17.7831   30.6722 H   0  0  0  0  0
   12.8837  -16.1917   31.5099 H   0  0  0  0  0
    5.7429  -18.8571   36.1372 H   0  0  0  0  0
    5.7762  -20.4946   35.4382 H   0  0  0  0  0
    7.2315  -19.8308   36.2208 H   0  0  0  0  0
    8.7131  -19.2681   34.8814 H   0  0  0  0  0
    9.4335  -21.0661   31.2335 H   0  0  0  0  0
   12.3175  -19.5338   30.4852 H   0  0  0  0  0
   12.4154  -16.0935   29.2671 H   0  0  0  0  0
   11.7697  -11.2464   39.2129 H   0  0  0  0  0
   12.9087  -13.4086   37.4606 H   0  0  0  0  0
   10.1251  -12.6201   38.3088 H   0  0  0  0  0
   11.7666  -15.0749   38.9179 H   0  0  0  0  0
   10.8406  -12.9480   40.8287 H   0  0  0  0  0
   13.0770  -14.9489   41.3204 H   0  0  0  0  0
   11.3872  -15.4556   41.5191 H   0  0  0  0  0
   13.6557  -10.2881   34.3535 H   0  0  0  0  0
   12.1637  -10.9965   33.6877 H   0  0  0  0  0
   12.0759   -9.8552   35.0518 H   0  0  0  0  0
   11.5694  -10.8118   36.8830 H   0  0  0  0  0
   14.0366  -10.8953   39.8337 H   0  0  0  0  0
   10.0038  -15.5448   40.3422 H   0  0  0  0  0
   10.1746  -13.6715   42.8560 H   0  0  0  0  0
    9.9559  -13.2934   45.3175 H   0  0  0  0  0
   12.9920  -13.7142   45.2488 H   0  0  0  0  0
   10.8197  -15.3536   46.5772 H   0  0  0  0  0
   12.4212  -16.1201   44.1342 H   0  0  0  0  0
   11.8539  -18.0102   45.5513 H   0  0  0  0  0
   10.9590  -18.0472   44.0243 H   0  0  0  0  0
   11.1947  -11.3768   45.3355 H   0  0  0  0  0
   12.7729  -13.4263   47.4947 H   0  0  0  0  0
   12.6391  -16.7609   46.8635 H   0  0  0  0  0
    9.5999  -18.4161   45.8559 H   0  0  0  0  0
  1  2  1  0  0  0
  1 10  1  0  0  0
 21  1  1  0  0  0
  2  3  1  0  0  0
  2  7  1  0  0  0
  3  4  1  0  0  0
  3  8  1  0  0  0
  5  4  1  0  0  0
  4  9  1  0  0  0
  5  6  1  0  0  0
 10  5  1  0  0  0
 11 12  1  0  0  0
 11 20  1  0  0  0
 30 11  1  0  0  0
 12 13  1  0  0  0
 12 17  1  0  0  0
 13 14  1  0  0  0
 13 18  1  0  0  0
 15 14  1  0  0  0
 14 19  1  0  0  0
 15 16  1  0  0  0
 20 15  1  0  0  0
 16 21  1  0  0  0
 22 23  1  0  0  0
 22 31  1  0  0  0
 57 22  1  0  0  0
 23 24  1  0  0  0
 23 28  1  0  0  0
 24 25  1  0  0  0
 24 29  1  0  0  0
 26 25  1  0  0  0
 25 30  1  0  0  0
 26 27  1  0  0  0
 31 26  1  0  0  0
 27 32  1  0  0  0
 29 33  1  0  0  0
 33 34  1  0  0  0
 33 44  1  0  0  0
 34 35  1  0  0  0
 34 41  1  0  0  0
 35 36  1  0  0  0
 35 42  1  0  0  0
 37 36  1  0  0  0
 36 43  1  0  0  0
 37 38  1  0  0  0
 44 37  1  0  0  0
 38 45  1  0  0  0
 39 40  1  0  0  0
 41 39  1  0  0  0
 39 46  2  0  0  0
 48 47  1  0  0  0
 47 56  1  0  0  0
 47 59  1  0  0  0
 48 49  1  0  0  0
 55 48  1  0  0  0
 49 50  1  0  0  0
 49 57  1  0  0  0
 50 51  1  0  0  0
 50 58  1  0  0  0
 51 52  1  0  0  0
 59 51  1  0  0  0
 52 60  1  0  0  0
 53 54  1  0  0  0
 53 55  1  0  0  0
 53 61  2  0  0  0
 60 62  1  0  0  0
 62 63  1  0  0  0
 62 71  1  0  0  0
 63 64  1  0  0  0
 63 68  1  0  0  0
 64 65  1  0  0  0
 64 69  1  0  0  0
 65 66  1  0  0  0
 65 70  1  0  0  0
 66 67  1  0  0  0
 66 71  1  0  0  0
 67 72  1  0  0  0
  1 73  1  0  0  0
  2 74  1  0  0  0
  3 75  1  0  0  0
  4 76  1  0  0  0
  5 77  1  0  0  0
  6 78  1  0  0  0
  6 79  1  0  0  0
  6 80  1  0  0  0
  7 81  1  0  0  0
  8 82  1  0  0  0
  9 83  1  0  0  0
 11 84  1  0  0  0
 12 85  1  0  0  0
 13 86  1  0  0  0
 14 87  1  0  0  0
 15 88  1  0  0  0
 16 89  1  0  0  0
 16 90  1  0  0  0
 17 91  1  0  0  0
 18 92  1  0  0  0
 19 93  1  0  0  0
 22 94  1  0  0  0
 23 95  1  0  0  0
 24 96  1  0  0  0
 25 97  1  0  0  0
 26 98  1  0  0  0
 27 99  1  0  0  0
 27100  1  0  0  0
 28101  1  0  0  0
 32102  1  0  0  0
 33103  1  0  0  0
 34104  1  0  0  0
 35105  1  0  0  0
 36106  1  0  0  0
 37107  1  0  0  0
 38108  1  0  0  0
 38109  1  0  0  0
 40110  1  0  0  0
 40111  1  0  0  0
 40112  1  0  0  0
 41113  1  0  0  0
 42114  1  0  0  0
 43115  1  0  0  0
 45116  1  0  0  0
 47117  1  0  0  0
 48118  1  0  0  0
 49119  1  0  0  0
 50120  1  0  0  0
 51121  1  0  0  0
 52122  1  0  0  0
 52123  1  0  0  0
 54124  1  0  0  0
 54125  1  0  0  0
 54126  1  0  0  0
 55127  1  0  0  0
 56128  1  0  0  0
 58129  1  0  0  0
 62130  1  0  0  0
 63131  1  0  0  0
 64132  1  0  0  0
 65133  1  0  0  0
 66134  1  0  0  0
 67135  1  0  0  0
 67136  1  0  0  0
 68137  1  0  0  0
 69138  1  0  0  0
 70139  1  0  0  0
 72140  1  0  0  0
M  END
$$$$
