1iup_ligand
  -I-interpret- 

 14 13  0  0  0  0  0  0  0  0999 V2000
    3.5750   29.6540   -1.7730 C   0  0  0  0  0
    2.9390   28.7700   -0.6640 C   0  0  0  0  0
    2.9140   29.1620    0.5680 O   0  0  0  0  0
    2.4220   27.6280   -0.9760 O   0  0  0  0  0
    4.8610   28.9920   -2.2980 C   0  0  0  0  0
    3.9050   31.0670   -1.2350 C   0  0  0  0  0
    2.8538   29.7508   -2.5845 H   0  0  0  0  0
    3.3335   30.0227    0.6373 H   0  0  0  0  0
    5.5701   28.8776   -1.4781 H   0  0  0  0  0
    4.6211   28.0126   -2.7119 H   0  0  0  0  0
    5.2996   29.6185   -3.0747 H   0  0  0  0  0
    2.9890   31.5454   -0.8883 H   0  0  0  0  0
    4.6089   30.9838   -0.4069 H   0  0  0  0  0
    4.3487   31.6634   -2.0322 H   0  0  0  0  0
  1  6  1  0  0  0
  1  5  1  0  0  0
  1  2  1  0  0  0
  2  4  2  0  0  0
  2  3  1  0  0  0
  1  7  1  0  0  0
  3  8  1  0  0  0
  5  9  1  0  0  0
  5 10  1  0  0  0
  5 11  1  0  0  0
  6 12  1  0  0  0
  6 13  1  0  0  0
  6 14  1  0  0  0
M  END
$$$$
