5jim_ligand
  -I-interpret- 

 30 29  0  0  0  0  0  0  0  0999 V2000
   -0.9680   -2.3660   10.1430 F   0  0  0  0  0
    0.2640   -1.8840   10.2400 C   0  0  0  0  0
    0.8970   -2.4870   11.2110 F   0  0  0  0  0
    0.9630   -2.1330    9.1540 F   0  0  0  0  0
    0.1650   -0.3970   10.5630 C   0  0  0  0  0
    0.9720   -0.1310   11.5660 F   0  0  0  0  0
   -1.0680   -0.1510   10.9550 F   0  0  0  0  0
    0.4910    0.5440    9.4090 C   0  0  0  0  0
    1.7280    0.3590    8.9960 F   0  0  0  0  0
    0.3890    1.7750    9.8730 F   0  0  0  0  0
   -0.4860    0.4130    8.2490 C   0  0  0  0  0
   -1.6620    0.0490    8.7300 F   0  0  0  0  0
   -0.5960    1.5970    7.6760 F   0  0  0  0  0
   -0.1020   -0.6310    7.2090 C   0  0  0  0  0
   -0.6530   -1.7670    7.5900 F   0  0  0  0  0
    1.2080   -0.8100    7.0890 F   0  0  0  0  0
   -0.7430   -0.2800    5.8840 C   0  0  0  0  0
   -1.5050   -1.2960    5.5420 F   0  0  0  0  0
   -1.4750    0.8110    6.0270 F   0  0  0  0  0
    0.2480    0.0010    4.7780 C   0  0  0  0  0
    0.8870    1.1090    5.1010 F   0  0  0  0  0
    1.0950   -1.0120    4.7160 F   0  0  0  0  0
   -0.4450    0.1760    3.4300 C   0  0  0  0  0
   -1.4480    1.0140    3.5880 F   0  0  0  0  0
   -0.9160   -0.9910    3.0340 F   0  0  0  0  0
    0.6730    0.8460    2.1400 S   0  0  0  0  0
    0.5400    2.2770    2.2140 O   0  0  0  0  0
    2.0340    0.3740    2.4460 O   0  0  0  0  0
    0.1890    0.3320    0.8870 O   0  0  0  0  0
    2.0616   -0.5834    2.3811 H   0  0  0  0  0
  1  2  1  0  0  0
  2  3  1  0  0  0
  2  4  1  0  0  0
  2  5  1  0  0  0
  5  6  1  0  0  0
  5  7  1  0  0  0
  5  8  1  0  0  0
  8  9  1  0  0  0
  8 10  1  0  0  0
  8 11  1  0  0  0
 11 12  1  0  0  0
 11 13  1  0  0  0
 11 14  1  0  0  0
 14 15  1  0  0  0
 14 16  1  0  0  0
 14 17  1  0  0  0
 17 18  1  0  0  0
 17 19  1  0  0  0
 17 20  1  0  0  0
 20 21  1  0  0  0
 20 22  1  0  0  0
 20 23  1  0  0  0
 23 24  1  0  0  0
 23 25  1  0  0  0
 23 26  1  0  0  0
 26 27  2  0  0  0
 26 28  1  0  0  0
 26 29  2  0  0  0
 28 30  1  0  0  0
M  END
$$$$
