4f65_ligand
  -I-interpret- 

 48 51  0  0  0  0  0  0  0  0999 V2000
   11.2720   -3.6250   -9.9110 C   0  0  0  0  0
   12.2920   -3.0990   -9.1420 C   0  0  0  0  0
   11.4960   -3.9650  -11.2320 C   0  0  0  0  0
   13.5430   -2.9170   -9.7000 C   0  0  0  0  0
   12.7520   -3.7800  -11.7820 C   0  0  0  0  0
   19.5660   -4.3290   -9.9030 C   0  0  0  0  0
   17.6610   -1.9580  -13.1690 C   0  0  0  0  0
   22.6390   -3.3840  -14.4490 C   0  0  0  0  0
   13.7760   -3.2460  -11.0210 C   0  0  0  0  0
   21.8120   -2.3270  -14.7390 C   0  0  0  0  0
   18.6630   -4.0630   -8.8470 C   0  0  0  0  0
   16.4100   -1.3960  -13.0620 C   0  0  0  0  0
   18.8230   -5.0240  -10.8300 C   0  0  0  0  0
   18.3730   -1.1110  -14.0550 C   0  0  0  0  0
   20.5310   -2.3500  -14.1890 C   0  0  0  0  0
   20.9550   -4.4070  -13.2540 C   0  0  0  0  0
   18.9410   -3.3420   -7.5910 C   0  0  0  0  0
   15.1350   -3.0420  -11.6110 C   0  0  0  0  0
   15.1780   -1.7050  -12.3060 C   0  0  0  0  0
   19.1480   -5.6040  -12.1550 C   0  0  0  0  0
   22.2220   -4.4230  -13.7080 N   0  0  0  0  0
   17.4430   -4.5540   -9.1080 N   0  0  0  0  0
   20.0970   -3.3930  -13.4640 N   0  0  0  0  0
   17.6080   -0.0820  -14.4460 N   0  0  0  0  0
   16.4280   -0.3020  -13.8640 N   0  0  0  0  0
   19.6790   -1.2610  -14.4190 N   0  0  0  0  0
   20.5690   -5.5360  -12.5060 N   0  0  0  0  0
   17.5560   -5.1680  -10.3520 O   0  0  0  0  0
   22.4870   -0.9310  -15.8330 Br  0  0  0  0  0
   10.2847   -3.7728   -9.4735 H   0  0  0  0  0
   12.1111   -2.8292   -8.1015 H   0  0  0  0  0
   10.6879   -4.3764  -11.8368 H   0  0  0  0  0
   14.3521   -2.5107   -9.0930 H   0  0  0  0  0
   12.9354   -4.0565  -12.8203 H   0  0  0  0  0
   20.6167   -4.0464   -9.9681 H   0  0  0  0  0
   18.0261   -2.8602  -12.6782 H   0  0  0  0  0
   23.6602   -3.3794  -14.8301 H   0  0  0  0  0
   19.7259   -3.8615   -7.0414 H   0  0  0  0  0
   19.2668   -2.3275   -7.8204 H   0  0  0  0  0
   18.0350   -3.3060   -6.9861 H   0  0  0  0  0
   15.3447   -3.8346  -12.3293 H   0  0  0  0  0
   15.8847   -3.0675  -10.8202 H   0  0  0  0  0
   14.3697   -1.7180  -13.0371 H   0  0  0  0  0
   15.1089   -0.9531  -11.5199 H   0  0  0  0  0
   18.6035   -5.0265  -12.9020 H   0  0  0  0  0
   18.8744   -6.6586  -12.1211 H   0  0  0  0  0
   20.0900   -0.4769  -14.9256 H   0  0  0  0  0
   21.2337   -6.2577  -12.2274 H   0  0  0  0  0
  2  1  4  0  0  0
  3  1  4  0  0  0
  4  2  4  0  0  0
  5  3  4  0  0  0
  9  4  4  0  0  0
  9  5  4  0  0  0
  6 11  4  0  0  0
 13  6  4  0  0  0
  7 12  4  0  0  0
 14  7  4  0  0  0
  8 10  4  0  0  0
 21  8  4  0  0  0
 18  9  1  0  0  0
 15 10  4  0  0  0
 10 29  1  0  0  0
 11 17  1  0  0  0
 11 22  4  0  0  0
 12 19  1  0  0  0
 12 25  4  0  0  0
 20 13  1  0  0  0
 13 28  4  0  0  0
 14 24  4  0  0  0
 26 14  1  0  0  0
 23 15  4  0  0  0
 15 26  1  0  0  0
 16 21  4  0  0  0
 16 23  4  0  0  0
 27 16  1  0  0  0
 19 18  1  0  0  0
 20 27  1  0  0  0
 22 28  4  0  0  0
 24 25  4  0  0  0
  1 30  1  0  0  0
  2 31  1  0  0  0
  3 32  1  0  0  0
  4 33  1  0  0  0
  5 34  1  0  0  0
  6 35  1  0  0  0
  7 36  1  0  0  0
  8 37  1  0  0  0
 17 38  1  0  0  0
 17 39  1  0  0  0
 17 40  1  0  0  0
 18 41  1  0  0  0
 18 42  1  0  0  0
 19 43  1  0  0  0
 19 44  1  0  0  0
 20 45  1  0  0  0
 20 46  1  0  0  0
 26 47  1  0  0  0
 27 48  1  0  0  0
M  END
$$$$
