3oyp_ligand
  -I-interpret- 

 77 81  0  0  0  0  0  0  0  0999 V2000
   15.1570  -30.7430   -3.6010 C   0  0  0  0  0
   14.5860  -31.0600   -4.8260 N   0  0  0  0  0
   15.2720  -31.7180   -2.6220 C   0  0  0  0  0
   14.1320  -32.3460   -5.0810 C   0  0  0  0  0
   14.8210  -33.0040   -2.8730 C   0  0  0  0  0
   14.2490  -33.3260   -4.1020 C   0  0  0  0  0
   13.9330  -35.5860   -3.3340 C   0  0  0  0  0
   13.8050  -34.6240   -4.3290 C   0  0  0  0  0
   14.5030  -35.2670   -2.1120 C   0  0  0  0  0
   14.9490  -33.9730   -1.8840 C   0  0  0  0  0
   13.3350  -37.3390   -3.6410 Br  0  0  0  0  0
   13.5730  -32.6560   -6.2890 O   0  0  0  0  0
   13.1930  -31.7620   -7.3310 C   0  0  0  0  0
   11.7740  -31.2630   -7.1690 C   0  0  0  0  0
   11.0130  -32.5430   -7.4880 C   0  0  0  0  0
   11.8430  -33.3410   -8.4510 N   0  0  0  0  0
   13.1290  -32.6250   -8.5850 C   0  0  0  0  0
    9.6300  -32.3930   -8.1000 C   0  0  0  0  0
    9.5210  -32.0720   -9.2660 O   0  0  0  0  0
    8.4980  -32.6670   -7.3420 N   0  0  0  0  0
    7.1290  -32.7000   -7.8930 C   0  0  0  0  0
    6.8660  -33.6580   -9.0710 C   0  0  0  0  0
    6.2040  -33.9080   -7.7130 C   0  0  0  0  0
    6.0860  -33.2430  -10.2800 C   0  0  0  0  0
    6.6610  -33.4360  -11.4630 C   0  0  0  0  0
    6.5990  -31.2880   -7.8350 C   0  0  0  0  0
    5.4420  -31.1120   -8.1460 O   0  0  0  0  0
    7.3200  -30.1840   -7.4370 N   0  0  0  0  0
    6.7070  -28.6600   -7.3720 S   0  0  0  0  0
    6.5210  -28.1330   -8.7000 O   0  0  0  0  0
    5.4270  -28.6960   -6.7150 O   0  0  0  0  0
    7.8130  -27.6210   -6.4010 C   0  0  0  0  0
    7.5630  -27.4520   -4.8840 C   0  0  0  0  0
    7.3990  -26.2950   -5.8210 C   0  0  0  0  0
   11.4450  -34.5260   -9.0940 C   0  0  0  0  0
   10.3400  -34.9660   -8.8690 O   0  0  0  0  0
   12.3190  -35.3140  -10.0860 C   0  0  0  0  0
   11.5600  -35.7740  -11.2630 N   0  0  0  0  0
   12.9560  -36.5220   -9.3860 C   0  0  0  0  0
   11.1980  -34.9210  -12.2920 C   0  0  0  0  0
   11.4970  -33.7480  -12.2310 O   0  0  0  0  0
   10.4400  -35.3950  -13.5050 C   0  0  0  0  0
    9.7290  -36.7340  -13.3050 C   0  0  0  0  0
   15.5137  -29.7310   -3.4095 H   0  0  0  0  0
   15.7162  -31.4735   -1.6571 H   0  0  0  0  0
   13.3567  -34.8870   -5.2871 H   0  0  0  0  0
   14.6002  -36.0264   -1.3361 H   0  0  0  0  0
   15.4012  -33.7152   -0.9263 H   0  0  0  0  0
   13.8868  -30.9214   -7.3461 H   0  0  0  0  0
   11.5175  -30.4138   -7.8024 H   0  0  0  0  0
   11.5528  -30.8365   -6.1906 H   0  0  0  0  0
   10.8476  -33.0157   -6.5198 H   0  0  0  0  0
   13.9773  -33.3047   -8.6662 H   0  0  0  0  0
   13.1834  -32.0347   -9.4997 H   0  0  0  0  0
    8.6202  -32.8563   -6.3472 H   0  0  0  0  0
    7.4905  -34.2450   -9.7445 H   0  0  0  0  0
    5.2105  -34.1211   -7.3184 H   0  0  0  0  0
    6.0682  -34.7323   -7.0129 H   0  0  0  0  0
    5.0925  -32.8029  -10.1941 H   0  0  0  0  0
    7.6557  -33.8782  -11.5199 H   0  0  0  0  0
    6.1378  -33.1521  -12.3761 H   0  0  0  0  0
    8.2938  -30.3203   -7.1660 H   0  0  0  0  0
    8.6312  -27.9430   -7.0452 H   0  0  0  0  0
    8.0524  -27.6827   -3.9378 H   0  0  0  0  0
    7.0168  -27.9441   -4.0793 H   0  0  0  0  0
    6.6499  -25.5302   -6.0257 H   0  0  0  0  0
    7.7290  -25.2577   -5.8782 H   0  0  0  0  0
   13.0939  -34.6324  -10.4368 H   0  0  0  0  0
   11.2917  -36.7563  -11.3216 H   0  0  0  0  0
   13.5764  -36.1758   -8.5594 H   0  0  0  0  0
   12.1709  -37.1747   -9.0042 H   0  0  0  0  0
   13.5715  -37.0705  -10.0990 H   0  0  0  0  0
   11.1641  -35.5286  -14.3087 H   0  0  0  0  0
    9.6744  -34.6499  -13.7213 H   0  0  0  0  0
   10.4639  -37.5014  -13.0619 H   0  0  0  0  0
    9.0116  -36.6447  -12.4892 H   0  0  0  0  0
    9.2064  -37.0069  -14.2218 H   0  0  0  0  0
  1  2  4  0  0  0
  1  3  4  0  0  0
  2  4  4  0  0  0
  3  5  4  0  0  0
  4  6  4  0  0  0
  4 12  1  0  0  0
  5  6  4  0  0  0
  5 10  4  0  0  0
  6  8  4  0  0  0
  8  7  4  0  0  0
  7  9  4  0  0  0
  7 11  1  0  0  0
  9 10  4  0  0  0
 12 13  1  0  0  0
 13 14  1  0  0  0
 13 17  1  0  0  0
 14 15  1  0  0  0
 15 16  1  0  0  0
 15 18  1  0  0  0
 16 17  1  0  0  0
 16 35  1  0  0  0
 18 19  2  0  0  0
 18 20  1  0  0  0
 20 21  1  0  0  0
 21 22  1  0  0  0
 21 23  1  0  0  0
 21 26  1  0  0  0
 22 23  1  0  0  0
 22 24  1  0  0  0
 24 25  2  0  0  0
 26 27  2  0  0  0
 26 28  1  0  0  0
 28 29  1  0  0  0
 29 30  2  0  0  0
 29 31  2  0  0  0
 29 32  1  0  0  0
 32 33  1  0  0  0
 32 34  1  0  0  0
 33 34  1  0  0  0
 35 36  2  0  0  0
 35 37  1  0  0  0
 37 38  1  0  0  0
 37 39  1  0  0  0
 38 40  1  0  0  0
 40 41  2  0  0  0
 40 42  1  0  0  0
 42 43  1  0  0  0
  1 44  1  0  0  0
  3 45  1  0  0  0
  8 46  1  0  0  0
  9 47  1  0  0  0
 10 48  1  0  0  0
 13 49  1  0  0  0
 14 50  1  0  0  0
 14 51  1  0  0  0
 15 52  1  0  0  0
 17 53  1  0  0  0
 17 54  1  0  0  0
 20 55  1  0  0  0
 22 56  1  0  0  0
 23 57  1  0  0  0
 23 58  1  0  0  0
 24 59  1  0  0  0
 25 60  1  0  0  0
 25 61  1  0  0  0
 28 62  1  0  0  0
 32 63  1  0  0  0
 33 64  1  0  0  0
 33 65  1  0  0  0
 34 66  1  0  0  0
 34 67  1  0  0  0
 37 68  1  0  0  0
 38 69  1  0  0  0
 39 70  1  0  0  0
 39 71  1  0  0  0
 39 72  1  0  0  0
 42 73  1  0  0  0
 42 74  1  0  0  0
 43 75  1  0  0  0
 43 76  1  0  0  0
 43 77  1  0  0  0
M  END
$$$$
