### 
### Created by X-TOOL on Mon Sep 10 21:13:19 2018
### 

@<TRIPOS>MOLECULE
4prh_ligand
  168   172     1     0     0
SMALL
GAST_HUCK


@<TRIPOS>ATOM
      1 N         -11.5190   18.8020    2.3710 N.4       1 HIS         0.2394
      2 CA        -11.2480   18.3600    0.9950 C.3       1 HIS         0.0763
      3 C         -12.3250   18.8990    0.0270 C.2       1 HIS         0.2313
      4 O         -13.5210   18.6450    0.2240 O.2       1 HIS        -0.3903
      5 CB        -11.1200   16.8120    0.8880 C.3       1 HIS         0.0628
      6 CG        -10.4380   16.3390   -0.3700 C.2       1 HIS         0.0593
      7 ND1       -11.1250   16.2280   -1.5730 N.pl3     1 HIS        -0.2622
      8 CD2        -9.1520   15.9570   -0.5710 C.2       1 HIS        -0.0274
      9 CE1       -10.2380   15.8020   -2.4590 C.2       1 HIS         0.0875
     10 NE2        -9.0400   15.6100   -1.9030 N.2       1 HIS        -0.3437
     11 N         -11.9140   19.6110   -1.0390 N.am      1 PRO        -0.2470
     12 CA        -12.9060   20.1480   -1.9920 C.3       1 PRO         0.1339
     13 C         -13.5660   19.0980   -2.8980 C.2       1 PRO         0.2041
     14 O         -13.1340   17.9380   -2.9170 O.2       1 PRO        -0.3944
     15 CB        -12.1100   21.1850   -2.7940 C.3       1 PRO        -0.0104
     16 CG        -10.7160   20.8090   -2.6510 C.3       1 PRO        -0.0281
     17 CD        -10.5400   20.0100   -1.4020 C.3       1 PRO         0.0371
     18 N         -14.6620   19.5070   -3.5980 N.am      1 VAL        -0.2635
     19 CA        -15.4090   18.6730   -4.5460 C.3       1 VAL         0.1332
     20 C         -14.9600   18.9940   -5.9410 C.2       1 VAL         0.2039
     21 O         -14.7900   20.1680   -6.2890 O.2       1 VAL        -0.3944
     22 CB        -16.9540   18.7330   -4.4060 C.3       1 VAL        -0.0063
     23 CG1       -17.5250   20.1060   -4.7600 C.3       1 VAL        -0.0584
     24 CG2       -17.6410   17.6270   -5.2140 C.3       1 VAL        -0.0584
     25 N         -14.7370   17.9480   -6.7260 N.am      1 GLY        -0.2664
     26 CA        -14.3400   18.1200   -8.1080 C.3       1 GLY         0.1201
     27 C         -15.5450   18.5090   -8.9390 C.2       1 GLY         0.2008
     28 O         -16.6960   18.1860   -8.5930 O.2       1 GLY        -0.3947
     29 N         -15.2920   19.2340  -10.0210 N.am      1 ASP        -0.2624
     30 CA        -16.3470   19.5570  -10.9580 C.3       1 ASP         0.1423
     31 C         -16.1860   18.5840  -12.0800 C.2       1 ASP         0.2056
     32 O         -15.1120   18.5250  -12.6970 O.2       1 ASP        -0.3943
     33 CB        -16.2560   21.0040  -11.4920 C.3       1 ASP         0.0406
     34 CG        -17.1140   21.9950  -10.7390 C.2       1 ASP         0.0393
     35 OD1       -16.5430   22.9150  -10.1030 O.co2     1 ASP        -0.5688
     36 OD2       -18.3490   21.8450  -10.7660 O.co2     1 ASP        -0.5688
     37 N         -17.2480   17.8000  -12.3400 N.am      1 ALA        -0.2639
     38 CA        -17.3000   16.8620  -13.4600 C.3       1 ALA         0.1282
     39 C         -17.4680   17.6930  -14.7500 C.2       1 ALA         0.2037
     40 O         -17.3730   18.9160  -14.7220 O.2       1 ALA        -0.3944
     41 CB        -18.4790   15.8920  -13.2770 C.3       1 ALA        -0.0244
     42 N         -17.6940   17.0250  -15.8740 N.am      1 ASP        -0.2622
     43 CA        -17.9220   17.6150  -17.1790 C.3       1 ASP         0.1423
     44 C         -19.3770   18.1290  -17.2160 C.2       1 ASP         0.2057
     45 O         -20.2500   17.5220  -16.5910 O.2       1 ASP        -0.3943
     46 CB        -17.7350   16.5130  -18.2400 C.3       1 ASP         0.0406
     47 CG        -16.3100   16.2090  -18.6580 C.2       1 ASP         0.0393
     48 OD1       -15.3730   16.8070  -18.0800 O.co2     1 ASP        -0.5688
     49 OD2       -16.1320   15.4350  -19.6220 O.co2     1 ASP        -0.5688
     50 N         -19.6290   19.2350  -17.9680 N.am      1 TYR        -0.2620
     51 CA        -20.9540   19.8660  -18.1510 C.3       1 TYR         0.1390
     52 C         -21.5510   20.4810  -16.8580 C.2       1 TYR         0.2059
     53 O         -22.7660   20.6740  -16.7610 O.2       1 TYR        -0.3942
     54 CB        -21.9590   18.8950  -18.8570 C.3       1 TYR         0.0163
     55 CG        -21.3850   18.1900  -20.0780 C.ar      1 TYR        -0.0493
     56 CD1       -21.1420   18.8870  -21.2650 C.ar      1 TYR        -0.0685
     57 CD2       -21.0530   16.8350  -20.0360 C.ar      1 TYR        -0.0685
     58 CE1       -20.6100   18.2450  -22.3850 C.ar      1 TYR        -0.0398
     59 CE2       -20.5100   16.1870  -21.1460 C.ar      1 TYR        -0.0398
     60 CZ        -20.2930   16.8940  -22.3190 C.ar      1 TYR         0.0805
     61 OH        -19.7480   16.2560  -23.4050 O.3       1 TYR        -0.3376
     62 N         -20.6850   20.8080  -15.8850 N.am      1 PHE        -0.2618
     63 CA        -21.0530   21.3460  -14.5680 C.3       1 PHE         0.1404
     64 C         -21.0800   22.9110  -14.5320 C.2       1 PHE         0.2060
     65 O         -21.4310   23.4960  -13.5090 O.2       1 PHE        -0.3942
     66 CB        -20.1040   20.7360  -13.4920 C.3       1 PHE         0.0214
     67 CG        -20.6110   19.5060  -12.7670 C.ar      1 PHE        -0.0386
     68 CD1       -20.4690   19.3840  -11.3900 C.ar      1 PHE        -0.0601
     69 CD2       -21.2250   18.4660  -13.4650 C.ar      1 PHE        -0.0601
     70 CE1       -20.9830   18.2780  -10.7100 C.ar      1 PHE        -0.0686
     71 CE2       -21.7630   17.3720  -12.7900 C.ar      1 PHE        -0.0686
     72 CZ        -21.6230   17.2750  -11.4120 C.ar      1 PHE        -0.0687
     73 N         -20.7550   23.5640  -15.6780 N.am      1 GLU        -0.2635
     74 CA        -20.7270   25.0240  -15.8790 C.3       1 GLU         0.1324
     75 C         -22.0580   25.7400  -15.6370 C.2       1 GLU         0.2036
     76 O         -23.1210   25.1150  -15.5270 O.2       1 GLU        -0.3944
     77 CB        -20.1690   25.3960  -17.2670 C.3       1 GLU        -0.0008
     78 CG        -18.6870   25.1070  -17.4560 C.3       1 GLU         0.0044
     79 CD        -18.3270   23.7240  -17.9780 C.2       1 GLU         0.0350
     80 OE1       -19.1460   22.7820  -17.8380 O.co2     1 GLU        -0.5690
     81 OE2       -17.2030   23.5810  -18.5150 O.co2     1 GLU        -0.5690
     82 N         -21.9730   27.0670  -15.5000 N.am      1 TYR        -0.2679
     83 CA        -23.1270   27.9320  -15.2730 C.3       1 TYR         0.1025
     84 C         -23.8230   28.1910  -16.6080 C.2       1 TYR         0.0619
     85 O         -23.1130   28.5050  -17.5850 O.co2     1 TYR        -0.5665
     86 CB        -22.6960   29.2400  -14.5680 C.3       1 TYR         0.0108
     87 CG        -22.4370   29.0460  -13.0880 C.ar      1 TYR        -0.0499
     88 CD1       -21.1790   28.6760  -12.6220 C.ar      1 TYR        -0.0686
     89 CD2       -23.4720   29.1350  -12.1620 C.ar      1 TYR        -0.0686
     90 CE1       -20.9520   28.4260  -11.2670 C.ar      1 TYR        -0.0398
     91 CE2       -23.2560   28.8970  -10.8060 C.ar      1 TYR        -0.0398
     92 CZ        -21.9920   28.5500  -10.3610 C.ar      1 TYR         0.0805
     93 OH        -21.7760   28.3250   -9.0210 O.3       1 TYR        -0.3376
     94 OXT       -25.0500   27.9540  -16.7010 O.co2     1 TYR        -0.5665
     95 H         -10.8069   18.4409    2.9863 H         1 HIS         0.2017
     96 H         -12.4207   18.4587    2.6628 H         1 HIS         0.2017
     97 H         -11.5151   19.8093    2.4073 H         1 HIS         0.2017
     98 H         -10.2819   18.7911    0.6937 H         1 HIS         0.1123
     99 H         -12.1305   16.3784    0.9176 H         1 HIS         0.0525
    100 H         -10.5412   16.4522    1.7514 H         1 HIS         0.0525
    101 H         -12.1200   16.4347   -1.7409 H         1 HIS         0.2386
    102 H          -8.3594   15.9293    0.1753 H         1 HIS         0.0324
    103 H         -10.4587   15.6296   -3.5114 H         1 HIS         0.1149
    104 H         -13.7080   20.6503   -1.4313 H         1 PRO         0.0802
    105 H         -12.2782   22.1939   -2.3892 H         1 PRO         0.0313
    106 H         -12.4067   21.1606   -3.8529 H         1 PRO         0.0313
    107 H         -10.0957   21.7157   -2.5963 H         1 PRO         0.0287
    108 H         -10.4084   20.2060   -3.5180 H         1 PRO         0.0287
    109 H          -9.9121   19.1262   -1.5881 H         1 PRO         0.0524
    110 H         -10.0870   20.6209   -0.6073 H         1 PRO         0.0524
    111 H         -14.9801   20.4442   -3.4548 H         1 VAL         0.1883
    112 H         -15.1241   17.6304   -4.3417 H         1 VAL         0.0802
    113 H         -17.1854   18.5522   -3.3459 H         1 VAL         0.0343
    114 H         -18.6187   20.0895   -4.6432 H         1 VAL         0.0234
    115 H         -17.2712   20.3511   -5.8019 H         1 VAL         0.0234
    116 H         -17.0961   20.8654   -4.0897 H         1 VAL         0.0234
    117 H         -17.2116   16.6521   -4.9399 H         1 VAL         0.0234
    118 H         -17.4857   17.8071   -6.2880 H         1 VAL         0.0234
    119 H         -18.7188   17.6278   -4.9942 H         1 VAL         0.0234
    120 H         -14.8449   17.0249   -6.3570 H         1 GLY         0.1881
    121 H         -13.9221   17.1765   -8.4888 H         1 GLY         0.0763
    122 H         -13.5789   18.9114   -8.1743 H         1 GLY         0.0763
    123 H         -14.3623   19.5609  -10.1910 H         1 ASP         0.1884
    124 H         -17.3255   19.4210  -10.4743 H         1 ASP         0.0819
    125 H         -16.5722   21.0039  -12.5456 H         1 ASP         0.0478
    126 H         -15.2084   21.3322  -11.4236 H         1 ASP         0.0478
    127 H         -18.0426   17.8621  -11.7361 H         1 ALA         0.1883
    128 H         -16.3636   16.2869  -13.5094 H         1 ALA         0.0797
    129 H         -18.5110   15.1901  -14.1233 H         1 ALA         0.0277
    130 H         -19.4194   16.4613  -13.2370 H         1 ALA         0.0277
    131 H         -18.3500   15.3307  -12.3398 H         1 ALA         0.0277
    132 H         -17.7084   16.0268  -15.8161 H         1 ASP         0.1884
    133 H         -17.2194   18.4419  -17.3596 H         1 ASP         0.0819
    134 H         -18.2889   16.8185  -19.1399 H         1 ASP         0.0478
    135 H         -18.1702   15.5859  -17.8387 H         1 ASP         0.0478
    136 H         -18.8526   19.6567  -18.4364 H         1 TYR         0.1885
    137 H         -20.7968   20.7080  -18.8411 H         1 TYR         0.0821
    138 H         -22.8369   19.4768  -19.1745 H         1 TYR         0.0453
    139 H         -22.2694   18.1300  -18.1301 H         1 TYR         0.0453
    140 H         -21.3708   19.9453  -21.3170 H         1 TYR         0.0530
    141 H         -21.2203   16.2750  -19.1230 H         1 TYR         0.0530
    142 H         -20.4450   18.7985  -23.3023 H         1 TYR         0.0525
    143 H         -20.2585   15.1340  -21.0915 H         1 TYR         0.0525
    144 H         -20.3134   15.5386  -23.6661 H         1 TYR         0.2458
    145 H         -19.7117   20.6747  -16.0717 H         1 PHE         0.1885
    146 H         -22.0743   21.0048  -14.3434 H         1 PHE         0.0823
    147 H         -19.9098   21.5128  -12.7378 H         1 PHE         0.0474
    148 H         -19.1618   20.4657  -13.9911 H         1 PHE         0.0474
    149 H         -19.9517   20.1587  -10.8357 H         1 PHE         0.0557
    150 H         -21.2844   18.5094  -14.5465 H         1 PHE         0.0557
    151 H         -20.8800   18.2066   -9.6333 H         1 PHE         0.0599
    152 H         -22.2890   16.5993  -13.3389 H         1 PHE         0.0599
    153 H         -22.0160   16.4120  -10.8869 H         1 PHE         0.0559
    154 H         -20.5101   22.9971  -16.4645 H         1 GLU         0.1883
    155 H         -20.0229   25.4199  -15.1324 H         1 GLU         0.0801
    156 H         -20.3306   26.4727  -17.4237 H         1 GLU         0.0330
    157 H         -20.7281   24.8272  -18.0245 H         1 GLU         0.0330
    158 H         -18.1944   25.2349  -16.4808 H         1 GLU         0.0433
    159 H         -18.2902   25.8465  -18.1671 H         1 GLU         0.0433
    160 H         -21.0689   27.4907  -15.5561 H         1 TYR         0.1877
    161 H         -23.8336   27.4085  -14.6122 H         1 TYR         0.0747
    162 H         -23.4947   29.9862  -14.6910 H         1 TYR         0.0446
    163 H         -21.7740   29.6082  -15.0417 H         1 TYR         0.0446
    164 H         -20.3592   28.5800  -13.3247 H         1 TYR         0.0530
    165 H         -24.4676   29.3950  -12.5028 H         1 TYR         0.0530
    166 H         -19.9650   28.1358  -10.9255 H         1 TYR         0.0525
    167 H         -24.0755   28.9834  -10.1017 H         1 TYR         0.0525
    168 H         -21.9864   29.1113   -8.5311 H         1 TYR         0.2458
@<TRIPOS>BOND
     1    1    2 1  
     2    2    3 1  
     3    2    5 1  
     4    3    4 2  
     5    3   11 am 
     6    5    6 1  
     7    6    7 1  
     8    6    8 2  
     9    7    9 1  
    10    8   10 1  
    11    9   10 2  
    12   11   12 1  
    13   11   17 1  
    14   12   13 1  
    15   12   15 1  
    16   13   14 2  
    17   13   18 am 
    18   15   16 1  
    19   16   17 1  
    20   18   19 1  
    21   19   20 1  
    22   19   22 1  
    23   20   21 2  
    24   20   25 am 
    25   22   23 1  
    26   22   24 1  
    27   25   26 1  
    28   26   27 1  
    29   27   28 2  
    30   27   29 am 
    31   29   30 1  
    32   30   31 1  
    33   30   33 1  
    34   31   32 2  
    35   31   37 am 
    36   33   34 1  
    37   34   35 ar 
    38   34   36 ar 
    39   37   38 1  
    40   38   39 1  
    41   38   41 1  
    42   39   40 2  
    43   39   42 am 
    44   42   43 1  
    45   43   44 1  
    46   43   46 1  
    47   44   45 2  
    48   44   50 am 
    49   46   47 1  
    50   47   48 ar 
    51   47   49 ar 
    52   50   51 1  
    53   51   52 1  
    54   51   54 1  
    55   52   53 2  
    56   52   62 am 
    57   54   55 1  
    58   55   56 ar 
    59   55   57 ar 
    60   56   58 ar 
    61   57   59 ar 
    62   58   60 ar 
    63   59   60 ar 
    64   60   61 1  
    65   62   63 1  
    66   63   64 1  
    67   63   66 1  
    68   64   65 2  
    69   64   73 am 
    70   66   67 1  
    71   67   68 ar 
    72   67   69 ar 
    73   68   70 ar 
    74   69   71 ar 
    75   70   72 ar 
    76   71   72 ar 
    77   73   74 1  
    78   74   75 1  
    79   74   77 1  
    80   75   76 2  
    81   75   82 am 
    82   77   78 1  
    83   78   79 1  
    84   79   80 ar 
    85   79   81 ar 
    86   82   83 1  
    87   83   84 1  
    88   83   86 1  
    89   84   85 ar 
    90   84   94 ar 
    91   86   87 1  
    92   87   88 ar 
    93   87   89 ar 
    94   88   90 ar 
    95   89   91 ar 
    96   90   92 ar 
    97   91   92 ar 
    98   92   93 1  
    99    1   95 1  
   100    1   96 1  
   101    1   97 1  
   102    2   98 1  
   103    5   99 1  
   104    5  100 1  
   105    7  101 1  
   106    8  102 1  
   107    9  103 1  
   108   12  104 1  
   109   15  105 1  
   110   15  106 1  
   111   16  107 1  
   112   16  108 1  
   113   17  109 1  
   114   17  110 1  
   115   18  111 1  
   116   19  112 1  
   117   22  113 1  
   118   23  114 1  
   119   23  115 1  
   120   23  116 1  
   121   24  117 1  
   122   24  118 1  
   123   24  119 1  
   124   25  120 1  
   125   26  121 1  
   126   26  122 1  
   127   29  123 1  
   128   30  124 1  
   129   33  125 1  
   130   33  126 1  
   131   37  127 1  
   132   38  128 1  
   133   41  129 1  
   134   41  130 1  
   135   41  131 1  
   136   42  132 1  
   137   43  133 1  
   138   46  134 1  
   139   46  135 1  
   140   50  136 1  
   141   51  137 1  
   142   54  138 1  
   143   54  139 1  
   144   56  140 1  
   145   57  141 1  
   146   58  142 1  
   147   59  143 1  
   148   61  144 1  
   149   62  145 1  
   150   63  146 1  
   151   66  147 1  
   152   66  148 1  
   153   68  149 1  
   154   69  150 1  
   155   70  151 1  
   156   71  152 1  
   157   72  153 1  
   158   73  154 1  
   159   74  155 1  
   160   77  156 1  
   161   77  157 1  
   162   78  158 1  
   163   78  159 1  
   164   82  160 1  
   165   83  161 1  
   166   86  162 1  
   167   86  163 1  
   168   88  164 1  
   169   89  165 1  
   170   90  166 1  
   171   91  167 1  
   172   93  168 1  
@<TRIPOS>SUBSTRUCTURE
     1 HIS         1

