4prh_ligand
  -I-interpret- 

171175  0  0  0  0  0  0  0  0999 V2000
  -11.5190   18.8020    2.3710 N   0  3  0  0  0
  -11.2480   18.3600    0.9950 C   0  0  0  0  0
  -12.3250   18.8990    0.0270 C   0  0  0  0  0
  -13.5210   18.6450    0.2240 O   0  0  0  0  0
  -11.1200   16.8120    0.8880 C   0  0  0  0  0
  -10.4380   16.3390   -0.3700 C   0  0  0  0  0
  -11.1250   16.2280   -1.5730 N   0  0  0  0  0
   -9.1520   15.9570   -0.5710 C   0  0  0  0  0
  -10.2380   15.8020   -2.4590 C   0  0  0  0  0
   -9.0400   15.6100   -1.9030 N   0  0  0  0  0
  -11.9140   19.6110   -1.0390 N   0  0  0  0  0
  -12.9060   20.1480   -1.9920 C   0  0  0  0  0
  -13.5660   19.0980   -2.8980 C   0  0  0  0  0
  -13.1340   17.9380   -2.9170 O   0  0  0  0  0
  -12.1100   21.1850   -2.7940 C   0  0  0  0  0
  -10.7160   20.8090   -2.6510 C   0  0  0  0  0
  -10.5400   20.0100   -1.4020 C   0  0  0  0  0
  -14.6620   19.5070   -3.5980 N   0  0  0  0  0
  -15.4090   18.6730   -4.5460 C   0  0  0  0  0
  -14.9600   18.9940   -5.9410 C   0  0  0  0  0
  -14.7900   20.1680   -6.2890 O   0  0  0  0  0
  -16.9540   18.7330   -4.4060 C   0  0  0  0  0
  -17.5250   20.1060   -4.7600 C   0  0  0  0  0
  -17.6410   17.6270   -5.2140 C   0  0  0  0  0
  -14.7370   17.9480   -6.7260 N   0  0  0  0  0
  -14.3400   18.1200   -8.1080 C   0  0  0  0  0
  -15.5450   18.5090   -8.9390 C   0  0  0  0  0
  -16.6960   18.1860   -8.5930 O   0  0  0  0  0
  -15.2920   19.2340  -10.0210 N   0  0  0  0  0
  -16.3470   19.5570  -10.9580 C   0  0  0  0  0
  -16.1860   18.5840  -12.0800 C   0  0  0  0  0
  -15.1120   18.5250  -12.6970 O   0  0  0  0  0
  -16.2560   21.0040  -11.4920 C   0  0  0  0  0
  -17.1140   21.9950  -10.7390 C   0  0  0  0  0
  -16.5430   22.9150  -10.1030 O   0  0  0  0  0
  -18.3490   21.8450  -10.7660 O   0  0  0  0  0
  -17.2480   17.8000  -12.3400 N   0  0  0  0  0
  -17.3000   16.8620  -13.4600 C   0  0  0  0  0
  -17.4680   17.6930  -14.7500 C   0  0  0  0  0
  -17.3730   18.9160  -14.7220 O   0  0  0  0  0
  -18.4790   15.8920  -13.2770 C   0  0  0  0  0
  -17.6940   17.0250  -15.8740 N   0  0  0  0  0
  -17.9220   17.6150  -17.1790 C   0  0  0  0  0
  -19.3770   18.1290  -17.2160 C   0  0  0  0  0
  -20.2500   17.5220  -16.5910 O   0  0  0  0  0
  -17.7350   16.5130  -18.2400 C   0  0  0  0  0
  -16.3100   16.2090  -18.6580 C   0  0  0  0  0
  -15.3730   16.8070  -18.0800 O   0  0  0  0  0
  -16.1320   15.4350  -19.6220 O   0  0  0  0  0
  -19.6290   19.2350  -17.9680 N   0  0  0  0  0
  -20.9540   19.8660  -18.1510 C   0  0  0  0  0
  -21.5510   20.4810  -16.8580 C   0  0  0  0  0
  -22.7660   20.6740  -16.7610 O   0  0  0  0  0
  -21.9590   18.8950  -18.8570 C   0  0  0  0  0
  -21.3850   18.1900  -20.0780 C   0  0  0  0  0
  -21.1420   18.8870  -21.2650 C   0  0  0  0  0
  -21.0530   16.8350  -20.0360 C   0  0  0  0  0
  -20.6100   18.2450  -22.3850 C   0  0  0  0  0
  -20.5100   16.1870  -21.1460 C   0  0  0  0  0
  -20.2930   16.8940  -22.3190 C   0  0  0  0  0
  -19.7480   16.2560  -23.4050 O   0  0  0  0  0
  -20.6850   20.8080  -15.8850 N   0  0  0  0  0
  -21.0530   21.3460  -14.5680 C   0  0  0  0  0
  -21.0800   22.9110  -14.5320 C   0  0  0  0  0
  -21.4310   23.4960  -13.5090 O   0  0  0  0  0
  -20.1040   20.7360  -13.4920 C   0  0  0  0  0
  -20.6110   19.5060  -12.7670 C   0  0  0  0  0
  -20.4690   19.3840  -11.3900 C   0  0  0  0  0
  -21.2250   18.4660  -13.4650 C   0  0  0  0  0
  -20.9830   18.2780  -10.7100 C   0  0  0  0  0
  -21.7630   17.3720  -12.7900 C   0  0  0  0  0
  -21.6230   17.2750  -11.4120 C   0  0  0  0  0
  -20.7550   23.5640  -15.6780 N   0  0  0  0  0
  -20.7270   25.0240  -15.8790 C   0  0  0  0  0
  -22.0580   25.7400  -15.6370 C   0  0  0  0  0
  -23.1210   25.1150  -15.5270 O   0  0  0  0  0
  -20.1690   25.3960  -17.2670 C   0  0  0  0  0
  -18.6870   25.1070  -17.4560 C   0  0  0  0  0
  -18.3270   23.7240  -17.9780 C   0  0  0  0  0
  -19.1460   22.7820  -17.8380 O   0  0  0  0  0
  -17.2030   23.5810  -18.5150 O   0  0  0  0  0
  -21.9730   27.0670  -15.5000 N   0  0  0  0  0
  -23.1270   27.9320  -15.2730 C   0  0  0  0  0
  -23.8230   28.1910  -16.6080 C   0  0  0  0  0
  -23.1130   28.5050  -17.5850 O   0  0  0  0  0
  -22.6960   29.2400  -14.5680 C   0  0  0  0  0
  -22.4370   29.0460  -13.0880 C   0  0  0  0  0
  -21.1790   28.6760  -12.6220 C   0  0  0  0  0
  -23.4720   29.1350  -12.1620 C   0  0  0  0  0
  -20.9520   28.4260  -11.2670 C   0  0  0  0  0
  -23.2560   28.8970  -10.8060 C   0  0  0  0  0
  -21.9920   28.5500  -10.3610 C   0  0  0  0  0
  -21.7760   28.3250   -9.0210 O   0  0  0  0  0
  -25.0500   27.9540  -16.7010 O   0  0  0  0  0
  -11.5944   19.8190    2.3915 H   0  0  0  0  0
  -12.3938   18.3884    2.6936 H   0  0  0  0  0
  -10.7561   18.5041    2.9790 H   0  0  0  0  0
  -10.2834   18.7762    0.7046 H   0  0  0  0  0
  -12.1306   16.4036    0.8811 H   0  0  0  0  0
  -10.5130   16.4787    1.7298 H   0  0  0  0  0
   -8.3587   15.9292    0.1760 H   0  0  0  0  0
  -10.4589   15.6294   -3.5123 H   0  0  0  0  0
  -13.7637   20.5663   -1.4652 H   0  0  0  0  0
  -12.2886   22.1948   -2.4244 H   0  0  0  0  0
  -12.4130   21.1947   -3.8410 H   0  0  0  0  0
  -10.1016   21.7077   -2.5963 H   0  0  0  0  0
  -10.4116   20.2111   -3.5100 H   0  0  0  0  0
   -9.8849   19.1513   -1.5489 H   0  0  0  0  0
  -10.0521   20.5800   -0.6114 H   0  0  0  0  0
  -14.9864   20.4629   -3.4519 H   0  0  0  0  0
  -15.1735   17.6371   -4.3019 H   0  0  0  0  0
  -17.1693   18.5618   -3.3513 H   0  0  0  0  0
  -17.0992   20.8576   -4.0952 H   0  0  0  0  0
  -17.2728   20.3477   -5.7925 H   0  0  0  0  0
  -18.6087   20.0884   -4.6439 H   0  0  0  0  0
  -17.3874   17.7380   -6.2682 H   0  0  0  0  0
  -17.3016   16.6543   -4.8578 H   0  0  0  0  0
  -18.7210   17.7047   -5.0887 H   0  0  0  0  0
  -14.8471   17.0064   -6.3496 H   0  0  0  0  0
  -13.9272   17.1843   -8.4851 H   0  0  0  0  0
  -13.5868   18.9052   -8.1731 H   0  0  0  0  0
  -14.3438   19.5674  -10.1944 H   0  0  0  0  0
  -17.3193   19.4896  -10.4700 H   0  0  0  0  0
  -16.6090   20.9900  -12.5231 H   0  0  0  0  0
  -15.2201   21.3243  -11.3805 H   0  0  0  0  0
  -15.5930   22.8418  -10.2204 H   0  0  0  0  0
  -18.0585   17.8634  -11.7240 H   0  0  0  0  0
  -16.3888   16.2663  -13.5137 H   0  0  0  0  0
  -18.3500   15.3365  -12.3481 H   0  0  0  0  0
  -19.4101   16.4573  -13.2375 H   0  0  0  0  0
  -18.5097   15.1970  -14.1162 H   0  0  0  0  0
  -17.7087   16.0068  -15.8150 H   0  0  0  0  0
  -17.2314   18.4354  -17.3739 H   0  0  0  0  0
  -18.2425   16.8689  -19.1366 H   0  0  0  0  0
  -18.1199   15.5963  -17.7932 H   0  0  0  0  0
  -15.7290   17.3475  -17.3709 H   0  0  0  0  0
  -18.8371   19.6651  -18.4458 H   0  0  0  0  0
  -20.7831   20.7155  -18.8123 H   0  0  0  0  0
  -22.8032   19.4948  -19.1972 H   0  0  0  0  0
  -22.2255   18.1240  -18.1341 H   0  0  0  0  0
  -21.3720   19.9512  -21.3173 H   0  0  0  0  0
  -21.2212   16.2719  -19.1180 H   0  0  0  0  0
  -20.4441   18.8016  -23.3074 H   0  0  0  0  0
  -20.2571   15.1282  -21.0912 H   0  0  0  0  0
  -19.5924   15.3338  -23.1881 H   0  0  0  0  0
  -19.6922   20.6720  -16.0754 H   0  0  0  0  0
  -22.0784   21.0510  -14.3451 H   0  0  0  0  0
  -19.9756   21.5051  -12.7304 H   0  0  0  0  0
  -19.2042   20.4253  -14.0229 H   0  0  0  0  0
  -19.9488   20.1630  -10.8326 H   0  0  0  0  0
  -21.2847   18.5096  -14.5525 H   0  0  0  0  0
  -20.8794   18.2062   -9.6273 H   0  0  0  0  0
  -22.2919   16.5950  -13.3419 H   0  0  0  0  0
  -22.0182   16.4072  -10.8840 H   0  0  0  0  0
  -20.5052   22.9858  -16.4803 H   0  0  0  0  0
  -20.0522   25.3845  -15.1026 H   0  0  0  0  0
  -20.2994   26.4719  -17.3830 H   0  0  0  0  0
  -20.7056   24.7901  -17.9971 H   0  0  0  0  0
  -18.2358   25.1834  -16.4667 H   0  0  0  0  0
  -18.3346   25.8144  -18.2067 H   0  0  0  0  0
  -19.9378   23.1096  -17.4052 H   0  0  0  0  0
  -21.0508   27.4991  -15.5572 H   0  0  0  0  0
  -23.8382   27.4422  -14.6079 H   0  0  0  0  0
  -23.5061   29.9614  -14.6750 H   0  0  0  0  0
  -21.7686   29.5797  -15.0291 H   0  0  0  0  0
  -20.3546   28.5794  -13.3285 H   0  0  0  0  0
  -24.4731   29.3965  -12.5047 H   0  0  0  0  0
  -19.9595   28.1342  -10.9236 H   0  0  0  0  0
  -24.0800   28.9838  -10.0978 H   0  0  0  0  0
  -22.5967   28.4533   -8.5398 H   0  0  0  0  0
  -25.3988   27.7334  -15.8342 H   0  0  0  0  0
  1  2  1  0  0  0
  2  3  1  0  0  0
  2  5  1  0  0  0
  3  4  2  0  0  0
  3 11  1  0  0  0
  5  6  1  0  0  0
  6  7  4  0  0  0
  6  8  4  0  0  0
  7  9  4  0  0  0
  8 10  4  0  0  0
  9 10  4  0  0  0
 11 12  1  0  0  0
 11 17  1  0  0  0
 12 13  1  0  0  0
 12 15  1  0  0  0
 13 14  2  0  0  0
 13 18  1  0  0  0
 15 16  1  0  0  0
 16 17  1  0  0  0
 18 19  1  0  0  0
 19 20  1  0  0  0
 19 22  1  0  0  0
 20 21  2  0  0  0
 20 25  1  0  0  0
 22 23  1  0  0  0
 22 24  1  0  0  0
 25 26  1  0  0  0
 26 27  1  0  0  0
 27 28  2  0  0  0
 27 29  1  0  0  0
 29 30  1  0  0  0
 30 31  1  0  0  0
 30 33  1  0  0  0
 31 32  2  0  0  0
 31 37  1  0  0  0
 33 34  1  0  0  0
 34 35  1  0  0  0
 34 36  2  0  0  0
 37 38  1  0  0  0
 38 39  1  0  0  0
 38 41  1  0  0  0
 39 40  2  0  0  0
 39 42  1  0  0  0
 42 43  1  0  0  0
 43 44  1  0  0  0
 43 46  1  0  0  0
 44 45  2  0  0  0
 44 50  1  0  0  0
 46 47  1  0  0  0
 47 48  1  0  0  0
 47 49  2  0  0  0
 50 51  1  0  0  0
 51 52  1  0  0  0
 51 54  1  0  0  0
 52 53  2  0  0  0
 52 62  1  0  0  0
 54 55  1  0  0  0
 55 56  4  0  0  0
 55 57  4  0  0  0
 56 58  4  0  0  0
 57 59  4  0  0  0
 58 60  4  0  0  0
 59 60  4  0  0  0
 60 61  1  0  0  0
 62 63  1  0  0  0
 63 64  1  0  0  0
 63 66  1  0  0  0
 64 65  2  0  0  0
 64 73  1  0  0  0
 66 67  1  0  0  0
 67 68  4  0  0  0
 67 69  4  0  0  0
 68 70  4  0  0  0
 69 71  4  0  0  0
 70 72  4  0  0  0
 71 72  4  0  0  0
 73 74  1  0  0  0
 74 75  1  0  0  0
 74 77  1  0  0  0
 75 76  2  0  0  0
 75 82  1  0  0  0
 77 78  1  0  0  0
 78 79  1  0  0  0
 79 80  1  0  0  0
 79 81  2  0  0  0
 82 83  1  0  0  0
 83 84  1  0  0  0
 83 86  1  0  0  0
 84 85  2  0  0  0
 84 94  1  0  0  0
 86 87  1  0  0  0
 87 88  4  0  0  0
 87 89  4  0  0  0
 88 90  4  0  0  0
 89 91  4  0  0  0
 90 92  4  0  0  0
 91 92  4  0  0  0
 92 93  1  0  0  0
  1 95  1  0  0  0
  1 96  1  0  0  0
  1 97  1  0  0  0
  2 98  1  0  0  0
  5 99  1  0  0  0
  5100  1  0  0  0
  8101  1  0  0  0
  9102  1  0  0  0
 12103  1  0  0  0
 15104  1  0  0  0
 15105  1  0  0  0
 16106  1  0  0  0
 16107  1  0  0  0
 17108  1  0  0  0
 17109  1  0  0  0
 18110  1  0  0  0
 19111  1  0  0  0
 22112  1  0  0  0
 23113  1  0  0  0
 23114  1  0  0  0
 23115  1  0  0  0
 24116  1  0  0  0
 24117  1  0  0  0
 24118  1  0  0  0
 25119  1  0  0  0
 26120  1  0  0  0
 26121  1  0  0  0
 29122  1  0  0  0
 30123  1  0  0  0
 33124  1  0  0  0
 33125  1  0  0  0
 35126  1  0  0  0
 37127  1  0  0  0
 38128  1  0  0  0
 41129  1  0  0  0
 41130  1  0  0  0
 41131  1  0  0  0
 42132  1  0  0  0
 43133  1  0  0  0
 46134  1  0  0  0
 46135  1  0  0  0
 48136  1  0  0  0
 50137  1  0  0  0
 51138  1  0  0  0
 54139  1  0  0  0
 54140  1  0  0  0
 56141  1  0  0  0
 57142  1  0  0  0
 58143  1  0  0  0
 59144  1  0  0  0
 61145  1  0  0  0
 62146  1  0  0  0
 63147  1  0  0  0
 66148  1  0  0  0
 66149  1  0  0  0
 68150  1  0  0  0
 69151  1  0  0  0
 70152  1  0  0  0
 71153  1  0  0  0
 72154  1  0  0  0
 73155  1  0  0  0
 74156  1  0  0  0
 77157  1  0  0  0
 77158  1  0  0  0
 78159  1  0  0  0
 78160  1  0  0  0
 80161  1  0  0  0
 82162  1  0  0  0
 83163  1  0  0  0
 86164  1  0  0  0
 86165  1  0  0  0
 88166  1  0  0  0
 89167  1  0  0  0
 90168  1  0  0  0
 91169  1  0  0  0
 93170  1  0  0  0
 94171  1  0  0  0
M  END
$$$$
