2p3a_ligand
  -I-interpret- 

130133  0  0  0  0  0  0  0  0999 V2000
   18.2190    1.2750    1.9740 N   0  0  0  0  0
   18.2400    1.2900    0.5240 C   0  0  0  0  0
   16.3440    2.1220    4.6850 N   0  0  0  0  0
   19.1620    0.2190   -0.0290 C   0  0  0  0  0
   18.8020    2.6180    0.0650 C   0  0  0  0  0
   17.8760    3.7170    0.4890 C   0  0  0  0  0
   18.4020    4.8310    1.1740 C   0  0  0  0  0
   20.4630    0.4950    0.4650 O   0  0  0  0  0
   17.5370    5.8580    1.5660 C   0  0  0  0  0
   16.1670    5.7530    1.2670 C   0  0  0  0  0
   16.0300    0.8090    2.1630 O   0  0  0  0  0
   15.6560    4.6350    0.5910 C   0  0  0  0  0
   16.5110    3.6150    0.1940 C   0  0  0  0  0
   17.2550    1.1070    4.1680 C   0  0  0  0  0
   17.1110    1.0430    2.6750 C   0  0  0  0  0
   17.0460   -0.2270    4.8970 C   0  0  0  0  0
   12.5100    5.6960   11.0640 C   0  0  0  0  0
   11.7140    6.8480   11.0300 C   0  0  0  0  0
   16.1040    4.6000    7.1750 N   0  0  0  0  0
   12.1500    7.9930   10.3570 C   0  0  0  0  0
   13.3930    7.9840    9.7110 C   0  0  0  0  0
   14.1960    6.8390    9.7460 C   0  0  0  0  0
   18.0540    3.0410    5.7890 O   0  0  0  0  0
   16.0040    4.2500    5.7870 C   0  0  0  0  0
   16.8920    3.0840    5.4300 C   0  0  0  0  0
   16.4030    5.4680    4.9770 C   0  0  0  0  0
   14.8480   -3.8320   -7.4940 O   0  0  0  0  0
   15.8890   -4.3970   -7.7940 C   0  0  0  0  0
   15.9360   -5.0730   -9.0630 O   0  0  0  0  0
   14.6990   -5.0860   -9.7970 C   0  0  0  0  0
   13.8220   -6.2860   -9.5060 C   0  0  0  0  0
   12.7720   -6.5710  -10.3930 C   0  0  0  0  0
   11.9270   -7.6610  -10.1740 C   0  0  0  0  0
   12.1190   -8.4920   -9.0670 C   0  0  0  0  0
   13.1690   -8.2110   -8.1710 C   0  0  0  0  0
   14.0240   -7.1180   -8.3970 C   0  0  0  0  0
   16.9790   -4.4210   -7.0540 N   0  0  0  0  0
   16.8900   -4.3350   -5.6100 C   0  0  0  0  0
   17.4830   -5.5860   -4.9820 C   0  0  0  0  0
   17.6040   -3.0850   -5.1990 C   0  0  0  0  0
   18.7340   -2.8620   -5.6300 O   0  0  0  0  0
   16.8870   -2.2820   -4.4170 N   0  0  0  0  0
   17.3080   -0.9790   -3.9290 C   0  0  0  0  0
   16.7270    0.1510   -4.8160 C   0  0  0  0  0
   16.8580   -0.0590   -6.3120 C   0  0  0  0  0
   17.2800    1.5420   -4.4620 C   0  0  0  0  0
   16.8500   -0.9570   -2.4910 C   0  0  0  0  0
   15.8310   -0.3870   -2.1610 O   0  0  0  0  0
   17.5870   -1.6870   -1.6450 N   0  0  0  0  0
   17.4730   -1.6920   -0.1970 C   0  0  0  0  0
   17.3220   -3.0950    0.4090 C   0  0  0  0  0
   16.7220   -4.1830   -0.4470 C   0  0  0  0  0
   15.4240   -4.0520   -0.9200 C   0  0  0  0  0
   14.8770   -5.0630   -1.6920 C   0  0  0  0  0
   15.6080   -6.2260   -1.9750 C   0  0  0  0  0
   16.9160   -6.3710   -1.5020 C   0  0  0  0  0
   17.4640   -5.3450   -0.7290 C   0  0  0  0  0
   18.7520   -1.1770    0.4290 C   0  0  0  0  0
   19.7830   -2.0790    0.0650 O   0  0  0  0  0
   17.5690   -0.1690    6.3290 C   0  0  0  0  0
   17.6970   -1.3790    4.1160 C   0  0  0  0  0
   15.1520    4.3930    8.0640 C   0  0  0  0  0
   13.9890    4.1390    7.8160 O   0  0  0  0  0
   15.5740    4.5070    9.4450 O   0  0  0  0  0
   14.5920    4.4530   10.4690 C   0  0  0  0  0
   13.7420    5.6960   10.4120 C   0  0  0  0  0
   19.0888    1.4493    2.4775 H   0  0  0  0  0
   17.2221    1.1196    0.1735 H   0  0  0  0  0
   15.3435    2.0978    4.4880 H   0  0  0  0  0
   19.1183    0.2350   -1.1180 H   0  0  0  0  0
   18.8985    2.6191   -1.0207 H   0  0  0  0  0
   19.7840    2.7740    0.5117 H   0  0  0  0  0
   19.4676    4.8913    1.3951 H   0  0  0  0  0
   20.7319    1.3722    0.1826 H   0  0  0  0  0
   17.9204    6.7293    2.0969 H   0  0  0  0  0
   15.4906    6.5539    1.5655 H   0  0  0  0  0
   14.5893    4.5669    0.3776 H   0  0  0  0  0
   16.1247    2.7468   -0.3400 H   0  0  0  0  0
   18.2939    1.3691    4.3680 H   0  0  0  0  0
   15.9735   -0.4143    4.9501 H   0  0  0  0  0
   12.1691    4.8075   11.5955 H   0  0  0  0  0
   10.7467    6.8517   11.5324 H   0  0  0  0  0
   16.9680    5.0376    7.4951 H   0  0  0  0  0
   11.5268    8.8870   10.3350 H   0  0  0  0  0
   13.7355    8.8718    9.1795 H   0  0  0  0  0
   15.1701    6.8377    9.2569 H   0  0  0  0  0
   14.9804    3.9453    5.5689 H   0  0  0  0  0
   15.7312    6.2940    5.2104 H   0  0  0  0  0
   17.4264    5.7489    5.2258 H   0  0  0  0  0
   16.3372    5.2337    3.9145 H   0  0  0  0  0
   14.9523   -5.1203  -10.8566 H   0  0  0  0  0
   14.1395   -4.1980   -9.5030 H   0  0  0  0  0
   12.6143   -5.9338  -11.2632 H   0  0  0  0  0
   11.1134   -7.8647  -10.8702 H   0  0  0  0  0
   11.4643   -9.3471   -8.8989 H   0  0  0  0  0
   13.3196   -8.8448   -7.2971 H   0  0  0  0  0
   14.8450   -6.9177   -7.7086 H   0  0  0  0  0
   17.8924   -4.5007   -7.5009 H   0  0  0  0  0
   15.8569   -4.2824   -5.2665 H   0  0  0  0  0
   16.9309   -6.4605   -5.3263 H   0  0  0  0  0
   18.5291   -5.6769   -5.2744 H   0  0  0  0  0
   17.4127   -5.5144   -3.8966 H   0  0  0  0  0
   15.9626   -2.6088   -4.1358 H   0  0  0  0  0
   18.3836   -0.8095   -3.9786 H   0  0  0  0  0
   15.6644    0.1036   -4.5778 H   0  0  0  0  0
   17.9124   -0.1448   -6.5746 H   0  0  0  0  0
   16.3359   -0.9726   -6.5965 H   0  0  0  0  0
   16.4195    0.7899   -6.8365 H   0  0  0  0  0
   17.0350    1.7761   -3.4260 H   0  0  0  0  0
   18.3624    1.5447   -4.5903 H   0  0  0  0  0
   16.8330    2.2874   -5.1197 H   0  0  0  0  0
   18.2945   -2.2965   -2.0554 H   0  0  0  0  0
   16.5918   -1.0830    0.0048 H   0  0  0  0  0
   16.6319   -2.9739    1.2440 H   0  0  0  0  0
   18.3384   -3.4259    0.6225 H   0  0  0  0  0
   14.8405   -3.1616   -0.6860 H   0  0  0  0  0
   13.8660   -4.9537   -2.0845 H   0  0  0  0  0
   15.1542   -7.0210   -2.5667 H   0  0  0  0  0
   17.4952   -7.2653   -1.7316 H   0  0  0  0  0
   18.4773   -5.4454   -0.3400 H   0  0  0  0  0
   18.5842   -1.1091    1.5039 H   0  0  0  0  0
   20.6136   -1.7842    0.4454 H   0  0  0  0  0
   18.6358    0.0545    6.3161 H   0  0  0  0  0
   17.0397    0.6109    6.8765 H   0  0  0  0  0
   17.4039   -1.1311    6.8140 H   0  0  0  0  0
   17.2479   -1.4438    3.1249 H   0  0  0  0  0
   18.7666   -1.1925    4.0202 H   0  0  0  0  0
   17.5366   -2.3151    4.6508 H   0  0  0  0  0
   15.0819    4.3909   11.4407 H   0  0  0  0  0
   13.9630    3.5746   10.3247 H   0  0  0  0  0
  1  2  1  0  0  0
 15  1  1  0  0  0
  2  4  1  0  0  0
  2  5  1  0  0  0
  3 14  1  0  0  0
 25  3  1  0  0  0
  4  8  1  0  0  0
  4 58  1  0  0  0
  5  6  1  0  0  0
  6  7  4  0  0  0
  6 13  4  0  0  0
  7  9  4  0  0  0
  9 10  4  0  0  0
 12 10  4  0  0  0
 15 11  2  0  0  0
 13 12  4  0  0  0
 14 15  1  0  0  0
 14 16  1  0  0  0
 16 60  1  0  0  0
 16 61  1  0  0  0
 17 18  4  0  0  0
 66 17  4  0  0  0
 18 20  4  0  0  0
 19 24  1  0  0  0
 62 19  1  0  0  0
 21 20  4  0  0  0
 22 21  4  0  0  0
 66 22  4  0  0  0
 25 23  2  0  0  0
 24 25  1  0  0  0
 24 26  1  0  0  0
 28 27  2  0  0  0
 28 29  1  0  0  0
 37 28  1  0  0  0
 29 30  1  0  0  0
 30 31  1  0  0  0
 31 32  4  0  0  0
 31 36  4  0  0  0
 32 33  4  0  0  0
 33 34  4  0  0  0
 35 34  4  0  0  0
 36 35  4  0  0  0
 38 37  1  0  0  0
 38 39  1  0  0  0
 40 38  1  0  0  0
 40 41  2  0  0  0
 42 40  1  0  0  0
 43 42  1  0  0  0
 43 44  1  0  0  0
 47 43  1  0  0  0
 44 45  1  0  0  0
 44 46  1  0  0  0
 47 48  2  0  0  0
 49 47  1  0  0  0
 50 49  1  0  0  0
 50 51  1  0  0  0
 58 50  1  0  0  0
 51 52  1  0  0  0
 52 53  4  0  0  0
 52 57  4  0  0  0
 53 54  4  0  0  0
 54 55  4  0  0  0
 56 55  4  0  0  0
 57 56  4  0  0  0
 58 59  1  0  0  0
 62 63  2  0  0  0
 64 62  1  0  0  0
 65 64  1  0  0  0
 65 66  1  0  0  0
  1 67  1  0  0  0
  2 68  1  0  0  0
  3 69  1  0  0  0
  4 70  1  0  0  0
  5 71  1  0  0  0
  5 72  1  0  0  0
  7 73  1  0  0  0
  8 74  1  0  0  0
  9 75  1  0  0  0
 10 76  1  0  0  0
 12 77  1  0  0  0
 13 78  1  0  0  0
 14 79  1  0  0  0
 16 80  1  0  0  0
 17 81  1  0  0  0
 18 82  1  0  0  0
 19 83  1  0  0  0
 20 84  1  0  0  0
 21 85  1  0  0  0
 22 86  1  0  0  0
 24 87  1  0  0  0
 26 88  1  0  0  0
 26 89  1  0  0  0
 26 90  1  0  0  0
 30 91  1  0  0  0
 30 92  1  0  0  0
 32 93  1  0  0  0
 33 94  1  0  0  0
 34 95  1  0  0  0
 35 96  1  0  0  0
 36 97  1  0  0  0
 37 98  1  0  0  0
 38 99  1  0  0  0
 39100  1  0  0  0
 39101  1  0  0  0
 39102  1  0  0  0
 42103  1  0  0  0
 43104  1  0  0  0
 44105  1  0  0  0
 45106  1  0  0  0
 45107  1  0  0  0
 45108  1  0  0  0
 46109  1  0  0  0
 46110  1  0  0  0
 46111  1  0  0  0
 49112  1  0  0  0
 50113  1  0  0  0
 51114  1  0  0  0
 51115  1  0  0  0
 53116  1  0  0  0
 54117  1  0  0  0
 55118  1  0  0  0
 56119  1  0  0  0
 57120  1  0  0  0
 58121  1  0  0  0
 59122  1  0  0  0
 60123  1  0  0  0
 60124  1  0  0  0
 60125  1  0  0  0
 61126  1  0  0  0
 61127  1  0  0  0
 61128  1  0  0  0
 65129  1  0  0  0
 65130  1  0  0  0
M  END
$$$$
