4xii_ligand
  -I-interpret- 

 80 84  0  0  0  0  0  0  0  0999 V2000
    2.1930  -10.2680  -14.3410 C   0  0  0  0  0
    1.5760  -10.9280  -16.8540 C   0  0  0  0  0
    1.6870   -9.8680  -15.7780 C   0  0  0  0  0
    7.6270  -13.1720  -11.4630 C   0  0  0  0  0
    6.5260   -9.7520  -14.9020 C   0  0  0  0  0
    7.3020  -11.7290  -13.7380 C   0  0  0  0  0
    5.5480  -10.4720  -12.7780 C   0  0  0  0  0
    6.3680  -12.3040  -11.9010 C   0  0  0  0  0
    4.5250   -8.6070  -14.2300 C   0  0  0  0  0
    3.1440   -6.0090  -12.8410 C   0  0  0  0  0
    6.8840  -15.8620   -8.4540 C   0  0  0  0  0
    5.6770  -15.1120   -7.8670 C   0  0  0  0  0
    1.3390  -12.9190  -18.9960 C   0  0  0  0  0
    1.8370  -13.3460  -17.6410 C   0  0  0  0  0
    7.6140  -15.2810   -9.6680 C   0  0  0  0  0
    5.1940  -13.7890   -8.5020 C   0  0  0  0  0
    2.5820  -11.6890  -14.0290 C   0  0  0  0  0
    0.9520  -11.4710  -19.2770 C   0  0  0  0  0
    1.9540  -12.3550  -16.5580 C   0  0  0  0  0
    7.1250  -13.9540  -10.2990 C   0  0  0  0  0
    5.9280  -13.2230   -9.7150 C   0  0  0  0  0
    2.4810  -12.7640  -15.0980 C   0  0  0  0  0
    2.3030   -9.1560  -13.2330 C   0  0  0  0  0
    5.6890  -11.9850  -10.5110 C   0  0  0  0  0
    7.6630  -10.5570  -14.6390 C   0  0  0  0  0
    5.8420   -9.3130  -13.7220 C   0  0  0  0  0
    1.3400   -5.3490  -14.2570 C   0  0  0  0  0
    3.6750   -7.2520  -12.2190 C   0  0  0  0  0
    1.0750  -10.4870  -18.2100 N   0  0  0  0  0
    6.6910  -11.3000  -12.5210 N   0  3  0  0  0
    3.5400   -8.3430  -13.2380 N   0  0  0  0  0
    2.8740  -14.0830  -14.6920 N   0  0  0  0  0
    3.1230  -14.3170  -13.3600 O   0  0  0  0  0
    1.4050   -8.9520  -12.4170 O   0  0  0  0  0
    2.9960  -14.9830  -15.4710 O   0  0  0  0  0
    1.3180   -8.5240  -16.0780 O   0  0  0  0  0
    1.8130   -6.2590  -13.3070 O   0  0  0  0  0
    1.7806  -11.2751  -14.2801 H   0  0  0  0  0
    2.3540   -9.1854  -15.2514 H   0  0  0  0  0
    8.4904  -12.5564  -11.2106 H   0  0  0  0  0
    7.9937  -13.8101  -12.2671 H   0  0  0  0  0
    5.8255  -10.3574  -15.4772 H   0  0  0  0  0
    6.8727   -8.8617  -15.4266 H   0  0  0  0  0
    8.2193  -12.2626  -13.4891 H   0  0  0  0  0
    6.5926  -12.3624  -14.2706 H   0  0  0  0  0
    4.7890  -11.0961  -13.2497 H   0  0  0  0  0
    5.2282  -10.0480  -11.8261 H   0  0  0  0  0
    5.6992  -12.8139  -12.5944 H   0  0  0  0  0
    4.0660   -9.2904  -14.9444 H   0  0  0  0  0
    4.8291   -7.6383  -14.6265 H   0  0  0  0  0
    3.7787   -5.7135  -13.6764 H   0  0  0  0  0
    3.1333   -5.2036  -12.1066 H   0  0  0  0  0
    6.4771  -16.8109   -8.8035 H   0  0  0  0  0
    7.6269  -15.8584   -7.6564 H   0  0  0  0  0
    5.9981  -14.8280   -6.8648 H   0  0  0  0  0
    4.8410  -15.7977   -8.0050 H   0  0  0  0  0
    1.2534  -13.6591  -19.7916 H   0  0  0  0  0
    2.1102  -14.3859  -17.4620 H   0  0  0  0  0
    7.4752  -16.0247  -10.4527 H   0  0  0  0  0
    8.6167  -15.0577   -9.3035 H   0  0  0  0  0
    5.3336  -13.0412   -7.7214 H   0  0  0  0  0
    4.1896  -14.0075   -8.8645 H   0  0  0  0  0
    1.8715  -12.0016  -13.2638 H   0  0  0  0  0
    3.6466  -11.6337  -13.8015 H   0  0  0  0  0
    0.5887  -11.1767  -20.2616 H   0  0  0  0  0
    7.8553  -14.7612  -10.3550 H   0  0  0  0  0
    5.0996  -13.1008   -9.0172 H   0  0  0  0  0
    2.3336  -13.2919  -16.0402 H   0  0  0  0  0
    4.6294  -11.7486  -10.6080 H   0  0  0  0  0
    6.1053  -11.0963  -10.0367 H   0  0  0  0  0
    8.4152   -9.9480  -14.1375 H   0  0  0  0  0
    8.0436  -10.9454  -15.5837 H   0  0  0  0  0
    6.4529   -8.6246  -13.1381 H   0  0  0  0  0
    1.3390   -4.3465  -13.8290 H   0  0  0  0  0
    1.9880   -5.3707  -15.1332 H   0  0  0  0  0
    0.3255   -5.6227  -14.5469 H   0  0  0  0  0
    3.1198   -7.4983  -11.3139 H   0  0  0  0  0
    4.7173   -7.1229  -11.9275 H   0  0  0  0  0
    7.3458  -10.7371  -11.9780 H   0  0  0  0  0
    1.4439   -7.9773  -15.2990 H   0  0  0  0  0
  1  3  1  0  0  0
  1 17  1  0  0  0
 23  1  1  0  0  0
  3  2  1  0  0  0
  2 19  4  0  0  0
  2 29  4  0  0  0
  3 36  1  0  0  0
  8  4  1  0  0  0
  4 20  1  0  0  0
  5 25  1  0  0  0
 26  5  1  0  0  0
 25  6  1  0  0  0
 30  6  1  0  0  0
 26  7  1  0  0  0
  7 30  1  0  0  0
  8 24  1  0  0  0
 30  8  1  0  0  0
  9 26  1  0  0  0
 31  9  1  0  0  0
 28 10  1  0  0  0
 10 37  1  0  0  0
 12 11  1  0  0  0
 15 11  1  0  0  0
 16 12  1  0  0  0
 14 13  4  0  0  0
 18 13  4  0  0  0
 19 14  4  0  0  0
 20 15  1  0  0  0
 21 16  1  0  0  0
 17 22  1  0  0  0
 29 18  4  0  0  0
 22 19  1  0  0  0
 21 20  1  0  0  0
 24 21  1  0  0  0
 22 32  1  0  0  0
 31 23  1  0  0  0
 23 34  2  0  0  0
 37 27  1  0  0  0
 28 31  1  0  0  0
 32 33  2  0  0  0
 32 35  2  0  0  0
  1 38  1  0  0  0
  3 39  1  0  0  0
  4 40  1  0  0  0
  4 41  1  0  0  0
  5 42  1  0  0  0
  5 43  1  0  0  0
  6 44  1  0  0  0
  6 45  1  0  0  0
  7 46  1  0  0  0
  7 47  1  0  0  0
  8 48  1  0  0  0
  9 49  1  0  0  0
  9 50  1  0  0  0
 10 51  1  0  0  0
 10 52  1  0  0  0
 11 53  1  0  0  0
 11 54  1  0  0  0
 12 55  1  0  0  0
 12 56  1  0  0  0
 13 57  1  0  0  0
 14 58  1  0  0  0
 15 59  1  0  0  0
 15 60  1  0  0  0
 16 61  1  0  0  0
 16 62  1  0  0  0
 17 63  1  0  0  0
 17 64  1  0  0  0
 18 65  1  0  0  0
 20 66  1  0  0  0
 21 67  1  0  0  0
 22 68  1  0  0  0
 24 69  1  0  0  0
 24 70  1  0  0  0
 25 71  1  0  0  0
 25 72  1  0  0  0
 26 73  1  0  0  0
 27 74  1  0  0  0
 27 75  1  0  0  0
 27 76  1  0  0  0
 28 77  1  0  0  0
 28 78  1  0  0  0
 30 79  1  0  0  0
 36 80  1  0  0  0
M  END
$$$$
