4mrg_ligand
  -I-interpret- 

 24 25  0  0  0  0  0  0  0  0999 V2000
   12.3240   -4.9690    0.7350 C   0  0  0  0  0
   11.4020   -5.5960    1.7340 N   0  3  0  0  0
   10.3820   -6.3890    1.0260 C   0  0  0  0  0
    9.5190   -5.4860    0.1490 C   0  0  0  0  0
   10.3150   -4.6470   -0.7080 C   0  0  0  0  0
   11.6710   -4.3780   -0.4030 C   0  0  0  0  0
   12.3800   -3.5280   -1.2740 C   0  0  0  0  0
   11.7760   -2.9490   -2.4010 C   0  0  0  0  0
   10.4120   -3.1900   -2.6860 C   0  0  0  0  0
    9.7170   -4.0430   -1.8330 C   0  0  0  0  0
    8.3870   -4.3150   -2.0830 N   0  0  0  0  0
   12.9648   -5.7641    0.3539 H   0  0  0  0  0
   12.8491   -4.1650    1.2507 H   0  0  0  0  0
   10.9467   -4.8666    2.2828 H   0  0  0  0  0
   11.9353   -6.2035    2.3560 H   0  0  0  0  0
    9.7457   -6.8843    1.7594 H   0  0  0  0  0
   10.8800   -7.1253    0.3951 H   0  0  0  0  0
    8.9263   -4.8436    0.8002 H   0  0  0  0  0
    8.8926   -6.1189   -0.4796 H   0  0  0  0  0
   13.4284   -3.3135   -1.0668 H   0  0  0  0  0
   12.3622   -2.3094   -3.0609 H   0  0  0  0  0
    9.9228   -2.7251   -3.5419 H   0  0  0  0  0
    7.8681   -4.9362   -1.4624 H   0  0  0  0  0
    7.9231   -3.8947   -2.8884 H   0  0  0  0  0
  1  2  1  0  0  0
  1  6  1  0  0  0
  2  3  1  0  0  0
  3  4  1  0  0  0
  4  5  1  0  0  0
  5  6  4  0  0  0
  5 10  4  0  0  0
  6  7  4  0  0  0
  7  8  4  0  0  0
  8  9  4  0  0  0
  9 10  4  0  0  0
 10 11  1  0  0  0
  1 12  1  0  0  0
  1 13  1  0  0  0
  2 14  1  0  0  0
  2 15  1  0  0  0
  3 16  1  0  0  0
  3 17  1  0  0  0
  4 18  1  0  0  0
  4 19  1  0  0  0
  7 20  1  0  0  0
  8 21  1  0  0  0
  9 22  1  0  0  0
 11 23  1  0  0  0
 11 24  1  0  0  0
M  END
$$$$
