2i4z_ligand
  -I-interpret- 

 69 71  0  0  0  0  0  0  0  0999 V2000
   20.3000   20.6650   17.3190 C   0  0  0  0  0
   19.4260   19.9370   18.3420 C   0  0  0  0  0
   20.2080   18.8450   19.0780 C   0  0  0  0  0
   19.3130   18.1370   20.1000 C   0  0  0  0  0
   19.8810   17.5570   21.0510 O   0  0  0  0  0
   18.0780   18.1780   19.9110 O   0  0  0  0  0
   21.3870   19.4650   19.8330 C   0  0  0  0  0
   20.7490   17.9110   18.1350 O   0  0  0  0  0
   19.9920   17.1370   17.3030 C   0  0  0  0  0
   18.7520   16.6200   17.6720 C   0  0  0  0  0
   18.0570   15.7740   16.8100 C   0  0  0  0  0
   20.5230   16.8090   16.0590 C   0  0  0  0  0
   19.8300   15.9640   15.1970 C   0  0  0  0  0
   18.5960   15.4410   15.5700 C   0  0  0  0  0
   17.8990   14.4570   14.6240 C   0  0  0  0  0
   16.3690   14.5010   14.6760 C   0  0  0  0  0
   15.7340   15.2790   13.5980 N   0  0  0  0  0
   14.2710   15.2320   13.4370 C   0  0  0  0  0
   13.5840   14.5440   14.6180 C   0  0  0  0  0
   12.0750   14.4180   14.4020 C   0  0  0  0  0
   11.4290   13.8830   15.6810 C   0  0  0  0  0
    9.9140   13.7210   15.5420 C   0  0  0  0  0
    9.2820   13.3410   16.8830 C   0  0  0  0  0
    9.8490   12.0280   17.4290 C   0  0  0  0  0
   16.4220   15.8790   12.6270 C   0  0  0  0  0
   17.7700   15.7870   12.4210 O   0  0  0  0  0
   18.0220   16.4680   11.2650 C   0  0  0  0  0
   19.1880   16.6990   10.5420 C   0  0  0  0  0
   19.1370   17.4280    9.3570 C   0  0  0  0  0
   17.9210   17.9260    8.8990 C   0  0  0  0  0
   16.7540   17.6960    9.6210 C   0  0  0  0  0
   16.8070   16.9640   10.8030 C   0  0  0  0  0
   15.8580   16.5890   11.6550 N   0  0  0  0  0
   21.1435   21.1301   17.8292 H   0  0  0  0  0
   20.6681   19.9500   16.5833 H   0  0  0  0  0
   19.7089   21.4318   16.8182 H   0  0  0  0  0
   18.5957   19.4686   17.8136 H   0  0  0  0  0
   19.0771   20.6639   19.0755 H   0  0  0  0  0
   20.8310   17.6709   20.9724 H   0  0  0  0  0
   21.9412   18.6795   20.3468 H   0  0  0  0  0
   22.0437   19.9717   19.1258 H   0  0  0  0  0
   21.0125   20.1836   20.5620 H   0  0  0  0  0
   18.3232   16.8787   18.6402 H   0  0  0  0  0
   17.0885   15.3717   17.1073 H   0  0  0  0  0
   21.4880   17.2166   15.7578 H   0  0  0  0  0
   20.2558   15.7111   14.2260 H   0  0  0  0  0
   18.1997   13.4545   14.9286 H   0  0  0  0  0
   18.1915   14.7283   13.6096 H   0  0  0  0  0
   16.0989   14.9840   15.6151 H   0  0  0  0  0
   16.0200   13.4737   14.5715 H   0  0  0  0  0
   14.0463   14.6634   12.5346 H   0  0  0  0  0
   13.9023   16.2561   13.3787 H   0  0  0  0  0
   13.7534   15.1456   15.5110 H   0  0  0  0  0
   14.0004   13.5419   14.7204 H   0  0  0  0  0
   11.8787   13.7324   13.5777 H   0  0  0  0  0
   11.6564   15.3951   14.1609 H   0  0  0  0  0
   11.6208   14.5977   16.4813 H   0  0  0  0  0
   11.8562   12.9025   15.8912 H   0  0  0  0  0
    9.7101   12.9295   14.8208 H   0  0  0  0  0
    9.4887   14.6677   15.2090 H   0  0  0  0  0
    8.2100   13.2140   16.7321 H   0  0  0  0  0
    9.5002   14.1322   17.6003 H   0  0  0  0  0
    9.6522   11.2253   16.7183 H   0  0  0  0  0
   10.9244   12.1307   17.5744 H   0  0  0  0  0
    9.3727   11.7964   18.3817 H   0  0  0  0  0
   20.1401   16.3098   10.9028 H   0  0  0  0  0
   20.0491   17.6086    8.7882 H   0  0  0  0  0
   17.8826   18.4980    7.9719 H   0  0  0  0  0
   15.8022   18.0877    9.2621 H   0  0  0  0  0
  1  2  1  0  0  0
  2  3  1  0  0  0
  3  4  1  0  0  0
  3  7  1  0  0  0
  3  8  1  0  0  0
  4  5  1  0  0  0
  4  6  2  0  0  0
  8  9  1  0  0  0
  9 10  4  0  0  0
  9 12  4  0  0  0
 10 11  4  0  0  0
 11 14  4  0  0  0
 12 13  4  0  0  0
 13 14  4  0  0  0
 14 15  1  0  0  0
 15 16  1  0  0  0
 16 17  1  0  0  0
 17 18  1  0  0  0
 17 25  1  0  0  0
 18 19  1  0  0  0
 19 20  1  0  0  0
 20 21  1  0  0  0
 21 22  1  0  0  0
 22 23  1  0  0  0
 23 24  1  0  0  0
 25 26  4  0  0  0
 25 33  4  0  0  0
 26 27  4  0  0  0
 27 28  4  0  0  0
 27 32  4  0  0  0
 28 29  4  0  0  0
 29 30  4  0  0  0
 30 31  4  0  0  0
 31 32  4  0  0  0
 32 33  4  0  0  0
  1 34  1  0  0  0
  1 35  1  0  0  0
  1 36  1  0  0  0
  2 37  1  0  0  0
  2 38  1  0  0  0
  5 39  1  0  0  0
  7 40  1  0  0  0
  7 41  1  0  0  0
  7 42  1  0  0  0
 10 43  1  0  0  0
 11 44  1  0  0  0
 12 45  1  0  0  0
 13 46  1  0  0  0
 15 47  1  0  0  0
 15 48  1  0  0  0
 16 49  1  0  0  0
 16 50  1  0  0  0
 18 51  1  0  0  0
 18 52  1  0  0  0
 19 53  1  0  0  0
 19 54  1  0  0  0
 20 55  1  0  0  0
 20 56  1  0  0  0
 21 57  1  0  0  0
 21 58  1  0  0  0
 22 59  1  0  0  0
 22 60  1  0  0  0
 23 61  1  0  0  0
 23 62  1  0  0  0
 24 63  1  0  0  0
 24 64  1  0  0  0
 24 65  1  0  0  0
 28 66  1  0  0  0
 29 67  1  0  0  0
 30 68  1  0  0  0
 31 69  1  0  0  0
M  END
$$$$
