1my2_ligand
  -I-interpret- 

 24 24  0  0  0  0  0  0  0  0999 V2000
   48.4200   25.5000   43.0060 N   0  3  0  0  0
   47.3100   26.4980   43.1070 C   0  0  0  0  0
   47.0400   26.8210   44.6210 C   0  0  0  0  0
   46.0960   27.6400   44.8830 O   0  0  0  0  0
   47.7780   26.2460   45.4730 O   0  0  0  0  0
   46.0450   25.9320   42.4090 C   0  0  0  0  0
   46.2120   25.6560   40.9290 C   0  0  0  0  0
   46.0320   26.5640   39.8430 C   0  0  0  0  0
   46.6300   24.5450   40.2620 C   0  0  0  0  0
   47.0680   23.1780   40.6820 C   0  0  0  0  0
   45.6470   27.7980   40.1590 O   0  0  0  0  0
   46.2870   26.1470   38.6280 N   0  0  0  0  0
   46.6900   24.7850   38.9000 O   0  0  0  0  0
   49.2521   25.8712   43.4646 H   0  0  0  0  0
   48.1378   24.6321   43.4616 H   0  0  0  0  0
   48.6242   25.3187   42.0232 H   0  0  0  0  0
   47.5853   27.4260   42.6060 H   0  0  0  0  0
   45.6916   27.9333   44.0632 H   0  0  0  0  0
   45.2638   26.6860   42.5060 H   0  0  0  0  0
   45.8174   24.9791   42.8867 H   0  0  0  0  0
   47.9421   23.2604   41.3279 H   0  0  0  0  0
   46.2587   22.6892   41.2244 H   0  0  0  0  0
   47.3213   22.5917   39.7987 H   0  0  0  0  0
   45.5576   28.3192   39.3578 H   0  0  0  0  0
  1  2  1  0  0  0
  2  3  1  0  0  0
  2  6  1  0  0  0
  3  4  1  0  0  0
  3  5  2  0  0  0
  6  7  1  0  0  0
  7  8  4  0  0  0
  7  9  4  0  0  0
  8 11  1  0  0  0
  8 12  4  0  0  0
  9 10  1  0  0  0
  9 13  4  0  0  0
 12 13  4  0  0  0
  1 14  1  0  0  0
  1 15  1  0  0  0
  1 16  1  0  0  0
  2 17  1  0  0  0
  4 18  1  0  0  0
  6 19  1  0  0  0
  6 20  1  0  0  0
 10 21  1  0  0  0
 10 22  1  0  0  0
 10 23  1  0  0  0
 11 24  1  0  0  0
M  END
$$$$
