5ue4_ligand
  -I-interpret- 

 40 42  0  0  0  0  0  0  0  0999 V2000
   46.4730   63.4260   45.3510 C   0  0  0  0  0
   47.8630   65.1950   44.1250 C   0  0  0  0  0
   48.9990   67.1340   43.1940 C   0  0  0  0  0
   48.4010   66.0270   45.0810 C   0  0  0  0  0
   48.3680   65.8890   46.5770 C   0  0  0  0  0
   49.4360   68.3020   41.0870 C   0  0  0  0  0
   44.3290   58.0270   40.2300 C   0  0  0  0  0
   44.9840   59.0790   40.9320 O   0  0  0  0  0
   45.8110   59.9700   40.2710 C   0  0  0  0  0
   46.2110   59.8570   38.9080 C   0  0  0  0  0
   47.0560   60.8280   38.3260 C   0  0  0  0  0
   47.5140   61.9220   39.0870 C   0  0  0  0  0
   47.1290   62.0430   40.4440 C   0  0  0  0  0
   46.2780   61.0710   41.0300 C   0  0  0  0  0
   45.8860   61.1780   42.3290 N   0  0  0  0  0
   46.1940   62.1010   43.3020 C   0  0  0  0  0
   46.9190   63.1890   43.0930 N   0  0  0  0  0
   47.0990   63.9630   44.2490 C   0  0  0  0  0
   45.6470   61.9470   44.9610 S   0  0  0  0  0
   48.1370   65.7690   42.4900 S   0  0  0  0  0
   49.0520   67.1320   44.5290 N   0  0  0  0  0
   49.5780   68.1540   42.4060 N   0  0  0  0  0
   50.1600   69.4940   40.4660 C   0  0  0  0  0
   48.7660   67.5310   40.3930 O   0  0  0  0  0
   46.4928   63.8728   46.3450 H   0  0  0  0  0
   47.3324   65.8810   46.9171 H   0  0  0  0  0
   48.8537   64.9568   46.8654 H   0  0  0  0  0
   48.8940   66.7294   47.0298 H   0  0  0  0  0
   43.6827   58.4518   39.4619 H   0  0  0  0  0
   45.0750   57.3834   39.7638 H   0  0  0  0  0
   43.7297   57.4435   40.9290 H   0  0  0  0  0
   45.8624   59.0150   38.3100 H   0  0  0  0  0
   47.3554   60.7305   37.2825 H   0  0  0  0  0
   48.1618   62.6718   38.6329 H   0  0  0  0  0
   47.4867   62.8835   41.0388 H   0  0  0  0  0
   45.2500   60.4422   42.6363 H   0  0  0  0  0
   50.1576   68.8401   42.8894 H   0  0  0  0  0
   50.8732   69.1374   39.7228 H   0  0  0  0  0
   49.4328   70.1504   39.9880 H   0  0  0  0  0
   50.6891   70.0424   41.2454 H   0  0  0  0  0
  1 18  4  0  0  0
 19  1  4  0  0  0
  2  4  4  0  0  0
 18  2  1  0  0  0
  2 20  4  0  0  0
 20  3  4  0  0  0
  3 21  4  0  0  0
  3 22  1  0  0  0
  4  5  1  0  0  0
  4 21  4  0  0  0
 22  6  1  0  0  0
  6 23  1  0  0  0
  6 24  2  0  0  0
  8  7  1  0  0  0
  9  8  1  0  0  0
  9 10  4  0  0  0
 14  9  4  0  0  0
 10 11  4  0  0  0
 12 11  4  0  0  0
 13 12  4  0  0  0
 14 13  4  0  0  0
 15 14  1  0  0  0
 16 15  1  0  0  0
 16 17  4  0  0  0
 16 19  4  0  0  0
 17 18  4  0  0  0
  1 25  1  0  0  0
  5 26  1  0  0  0
  5 27  1  0  0  0
  5 28  1  0  0  0
  7 29  1  0  0  0
  7 30  1  0  0  0
  7 31  1  0  0  0
 10 32  1  0  0  0
 11 33  1  0  0  0
 12 34  1  0  0  0
 13 35  1  0  0  0
 15 36  1  0  0  0
 22 37  1  0  0  0
 23 38  1  0  0  0
 23 39  1  0  0  0
 23 40  1  0  0  0
M  END
$$$$
