### 
### Created by X-TOOL on Mon Sep 10 21:13:15 2018
### 

@<TRIPOS>MOLECULE
4i31_ligand
  194   193     1     0     0
SMALL
GAST_HUCK


@<TRIPOS>ATOM
      1 N          75.7520   -3.7600   14.7350 N.4       1 LYS         0.2357
      2 CA         76.0760   -4.0660   16.1180 C.3       1 LYS         0.0545
      3 C          76.9160   -2.9760   16.7530 C.2       1 LYS         0.2234
      4 O          77.2010   -3.0060   17.9540 O.2       1 LYS        -0.3911
      5 N          77.3270   -2.0110   15.9400 N.am      1 GLY        -0.2639
      6 CA         78.1020   -0.8900   16.4380 C.3       1 GLY         0.1202
      7 C          77.2110    0.1600   17.0750 C.2       1 GLY         0.2008
      8 O          75.9840    0.0900   16.9590 O.2       1 GLY        -0.3947
      9 N          77.8300    1.1200   17.7580 N.am      1 SER        -0.2618
     10 CA         77.1160    2.2470   18.3360 C.3       1 SER         0.1539
     11 C          76.6920    3.2110   17.2440 C.2       1 SER         0.2062
     12 O          77.2790    3.2400   16.1630 O.2       1 SER        -0.3943
     13 CB         77.9990    3.0110   19.3300 C.3       1 SER         0.0843
     14 OG         78.2890    2.2460   20.4840 O.3       1 SER        -0.3903
     15 N          75.6620    3.9970   17.5320 N.am      1 VAL        -0.2634
     16 CA         75.3410    5.1400   16.6880 C.3       1 VAL         0.1333
     17 C          76.3990    6.2030   16.9780 C.2       1 VAL         0.2042
     18 O          76.8460    6.3460   18.1240 O.2       1 VAL        -0.3944
     19 CB         73.9540    5.7050   17.0140 C.3       1 VAL        -0.0063
     20 CG1        73.6690    6.9660   16.1640 C.3       1 VAL        -0.0584
     21 CG2        72.8960    4.6250   16.7980 C.3       1 VAL        -0.0584
     22 N          76.7850    6.9490   15.9500 N.am      1 VAL        -0.2635
     23 CA         77.8870    7.9010   16.0850 C.3       1 VAL         0.1332
     24 C          77.4820    9.3070   15.6300 C.2       1 VAL         0.2042
     25 O          76.9260    9.4700   14.5520 O.2       1 VAL        -0.3944
     26 CB         79.0920    7.4760   15.2200 C.3       1 VAL        -0.0063
     27 CG1        80.2730    8.4040   15.4850 C.3       1 VAL        -0.0584
     28 CG2        79.4800    6.0100   15.4780 C.3       1 VAL        -0.0584
     29 N          77.7920   10.3190   16.4270 N.am      1 ILE        -0.2635
     30 CA         77.5670   11.6850   15.9830 C.3       1 ILE         0.1335
     31 C          78.6740   12.0610   15.0080 C.2       1 ILE         0.2042
     32 O          79.8690   12.0700   15.3660 O.2       1 ILE        -0.3944
     33 CB         77.6480   12.6440   17.1640 C.3       1 ILE        -0.0037
     34 CG1        76.5320   12.3420   18.1660 C.3       1 ILE        -0.0491
     35 CG2        77.6180   14.1020   16.6690 C.3       1 ILE        -0.0582
     36 CD1        76.6210   13.1630   19.4360 C.3       1 ILE        -0.0648
     37 N          78.2860   12.3090   13.7600 N.am      1 VAL        -0.2635
     38 CA         79.2230   12.7170   12.7170 C.3       1 VAL         0.1332
     39 C          79.2070   14.2150   12.3330 C.2       1 VAL         0.2039
     40 O          79.9610   14.6480   11.4690 O.2       1 VAL        -0.3944
     41 CB         79.0870   11.8350   11.4800 C.3       1 VAL        -0.0063
     42 CG1        79.2320   10.3650   11.8970 C.3       1 VAL        -0.0584
     43 CG2        77.7780   12.0870   10.7450 C.3       1 VAL        -0.0584
     44 N          78.3190   14.9800   12.9540 N.am      1 GLY        -0.2664
     45 CA         78.1440   16.3810   12.6140 C.3       1 GLY         0.1201
     46 C          77.0810   16.9920   13.5000 C.2       1 GLY         0.2007
     47 O          76.4780   16.3090   14.3260 O.2       1 GLY        -0.3947
     48 N          76.8670   18.2940   13.3580 N.am      1 ARG        -0.2640
     49 CA         75.8100   18.9430   14.0920 C.3       1 ARG         0.1311
     50 C          75.2460   20.1040   13.3070 C.2       1 ARG         0.2039
     51 O          75.8570   20.5980   12.3630 O.2       1 ARG        -0.3944
     52 CB         76.2630   19.4210   15.4800 C.3       1 ARG        -0.0092
     53 CG         77.2360   20.5720   15.4770 C.3       1 ARG        -0.0156
     54 CD         78.6220   20.0590   15.2570 C.3       1 ARG         0.0627
     55 NE         79.6180   21.0620   15.5890 N.pl3     1 ARG        -0.2723
     56 CZ         80.4650   20.9850   16.6120 C.cat     1 ARG         0.2882
     57 NH1        80.4560   19.9420   17.4370 N.pl3     1 ARG        -0.2849
     58 NH2        81.3240   21.9650   16.8050 N.pl3     1 ARG        -0.2849
     59 N          74.0650   20.5300   13.7120 N.am      1 ILE        -0.2635
     60 CA         73.3900   21.6480   13.0760 C.3       1 ILE         0.1335
     61 C          73.1260   22.6750   14.1640 C.2       1 ILE         0.2042
     62 O          72.6340   22.3320   15.2420 O.2       1 ILE        -0.3944
     63 CB         72.0920   21.1820   12.3800 C.3       1 ILE        -0.0037
     64 CG1        72.4360   20.4070   11.1030 C.3       1 ILE        -0.0491
     65 CG2        71.1570   22.3700   12.0850 C.3       1 ILE        -0.0582
     66 CD1        71.2690   19.6160   10.5570 C.3       1 ILE        -0.0648
     67 N          73.5230   23.9150   13.8990 N.am      1 ILE        -0.2635
     68 CA         73.3990   25.0070   14.8570 C.3       1 ILE         0.1335
     69 C          72.2690   25.9230   14.4040 C.2       1 ILE         0.2042
     70 O          72.2870   26.4060   13.2670 O.2       1 ILE        -0.3944
     71 CB         74.6660   25.8710   14.8750 C.3       1 ILE        -0.0037
     72 CG1        75.9170   25.0260   15.1500 C.3       1 ILE        -0.0491
     73 CG2        74.5220   27.0200   15.8880 C.3       1 ILE        -0.0582
     74 CD1        75.9930   24.5030   16.5440 C.3       1 ILE        -0.0648
     75 N          71.3100   26.1660   15.2920 N.am      1 LEU        -0.2637
     76 CA         70.1240   26.9660   14.9720 C.3       1 LEU         0.1312
     77 C          70.2610   28.4030   15.4640 C.2       1 LEU         0.2034
     78 O          70.8030   28.6380   16.5450 O.2       1 LEU        -0.3944
     79 CB         68.8830   26.3500   15.6080 C.3       1 LEU        -0.0101
     80 CG         68.5490   24.9220   15.2080 C.3       1 LEU        -0.0425
     81 CD1        67.2240   24.4980   15.8240 C.3       1 LEU        -0.0625
     82 CD2        68.5100   24.7970   13.7030 C.3       1 LEU        -0.0625
     83 N          69.7800   29.3590   14.6680 N.am      1 SER        -0.2672
     84 CA         69.7930   30.7670   15.0670 C.3       1 SER         0.1173
     85 C          68.3870   31.3510   15.0080 C.2       1 SER         0.0623
     86 O          67.9419   32.0646   15.9462 O.co2     1 SER        -0.5665
     87 CB         70.7320   31.5790   14.1760 C.3       1 SER         0.0789
     88 OG         70.8530   32.9070   14.6500 O.3       1 SER        -0.3910
     89 O          67.6590   31.1170   14.0066 O.co2     1 SER        -0.5665
     90 H1         75.1945   -4.5052   14.3477 H         1 LYS         0.2012
     91 H2         76.6032   -3.6660   14.2033 H         1 LYS         0.2012
     92 H3         75.2334   -2.8966   14.6945 H         1 LYS         0.2012
     93 H4         76.6359   -5.0123   16.1517 H         1 LYS         0.1061
     94 H5         75.1411   -4.1726   16.6877 H         1 LYS         0.1061
     95 H6         77.0987   -2.0572   14.9675 H         1 GLY         0.1882
     96 H7         78.6502   -0.4338   15.6005 H         1 GLY         0.0763
     97 H8         78.8177   -1.2553   17.1891 H         1 GLY         0.0763
     98 H9         78.8212    1.0642   17.8779 H         1 SER         0.1884
     99 H10        76.2241    1.8714   18.8589 H         1 SER         0.0823
    100 H11        77.4759    3.9290   19.6358 H         1 SER         0.0606
    101 H12        78.9443    3.2756   18.8336 H         1 SER         0.0606
    102 H13        78.7469    1.4533   20.2302 H         1 SER         0.2097
    103 H14        75.1007    3.8026   18.3365 H         1 VAL         0.1883
    104 H15        75.3750    4.8451   15.6288 H         1 VAL         0.0802
    105 H16        73.9365    5.9970   18.0744 H         1 VAL         0.0343
    106 H17        72.6709    7.3569   16.4112 H         1 VAL         0.0234
    107 H18        73.7063    6.7046   15.0962 H         1 VAL         0.0234
    108 H19        74.4271    7.7331   16.3804 H         1 VAL         0.0234
    109 H20        73.1348    3.7485   17.4183 H         1 VAL         0.0234
    110 H21        72.8828    4.3313   15.7380 H         1 VAL         0.0234
    111 H22        71.9084    5.0171   17.0822 H         1 VAL         0.0234
    112 H23        76.3159    6.8588   15.0715 H         1 VAL         0.1883
    113 H24        78.1901    7.9354   17.1419 H         1 VAL         0.0802
    114 H25        78.8069    7.5717   14.1619 H         1 VAL         0.0343
    115 H26        81.1280    8.0954   14.8655 H         1 VAL         0.0234
    116 H27        80.5515    8.3488   16.5477 H         1 VAL         0.0234
    117 H28        79.9914    9.4370   15.2329 H         1 VAL         0.0234
    118 H29        78.6138    5.3613   15.2806 H         1 VAL         0.0234
    119 H30        79.7946    5.8928   16.5255 H         1 VAL         0.0234
    120 H31        80.3089    5.7275   14.8124 H         1 VAL         0.0234
    121 H32        78.1799   10.1436   17.3319 H         1 ILE         0.1883
    122 H33        76.5830   11.7648   15.4979 H         1 ILE         0.0803
    123 H34        78.6095   12.4823   17.6734 H         1 ILE         0.0345
    124 H35        76.5852   11.2769   18.4357 H         1 ILE         0.0267
    125 H36        75.5655   12.5504   17.6839 H         1 ILE         0.0267
    126 H37        78.4383   14.2634   15.9541 H         1 ILE         0.0235
    127 H38        77.7384   14.7824   17.5249 H         1 ILE         0.0235
    128 H39        76.6560   14.3016   16.1744 H         1 ILE         0.0235
    129 H40        75.7909   12.8937   20.1056 H         1 ILE         0.0230
    130 H41        76.5585   14.2325   19.1864 H         1 ILE         0.0230
    131 H42        77.5781   12.9590   19.9382 H         1 ILE         0.0230
    132 H43        77.3181   12.2126   13.5278 H         1 VAL         0.1883
    133 H44        80.2250   12.5278   13.1295 H         1 VAL         0.0802
    134 H45        79.9089   12.0799   10.7911 H         1 VAL         0.0343
    135 H46        79.1352    9.7211   11.0104 H         1 VAL         0.0234
    136 H47        78.4455   10.1104   12.6227 H         1 VAL         0.0234
    137 H48        80.2192   10.2099   12.3567 H         1 VAL         0.0234
    138 H49        77.7135   13.1487   10.4646 H         1 VAL         0.0234
    139 H50        76.9336   11.8291   11.4010 H         1 VAL         0.0234
    140 H51        77.7411   11.4654    9.8382 H         1 VAL         0.0234
    141 H52        77.7543   14.5809   13.6764 H         1 GLY         0.1881
    142 H53        77.8358   16.4661   11.5615 H         1 GLY         0.0763
    143 H54        79.0944   16.9147   12.7621 H         1 GLY         0.0763
    144 H55        77.4423   18.8278   12.7383 H         1 ARG         0.1883
    145 H56        75.0061   18.2064   14.2373 H         1 ARG         0.0800
    146 H57        76.7407   18.5731   15.9926 H         1 ARG         0.0313
    147 H58        75.3695   19.7324   16.0409 H         1 ARG         0.0313
    148 H59        77.1884   21.0936   16.4443 H         1 ARG         0.0301
    149 H60        76.9726   21.2714   14.6699 H         1 ARG         0.0301
    150 H61        78.7359   19.7782   14.1996 H         1 ARG         0.0689
    151 H62        78.7807   19.1739   15.8906 H         1 ARG         0.0689
    152 H63        79.6729   21.8960   14.9871 H         1 ARG         0.2642
    153 H64        81.1202   19.9015   18.2232 H         1 ARG         0.2615
    154 H65        79.7849   19.1747   17.2897 H         1 ARG         0.2615
    155 H66        81.3337   22.7743   16.1679 H         1 ARG         0.2615
    156 H67        81.9859   21.9219   17.5930 H         1 ARG         0.2615
    157 H68        73.6208   20.0692   14.4804 H         1 ILE         0.1883
    158 H69        74.0505   22.0901   12.3156 H         1 ILE         0.0803
    159 H70        71.5637   20.4996   13.0621 H         1 ILE         0.0345
    160 H71        73.2571   19.7101   11.3268 H         1 ILE         0.0267
    161 H72        72.7626   21.1241   10.3355 H         1 ILE         0.0267
    162 H73        70.9324   22.9012   13.0217 H         1 ILE         0.0235
    163 H74        70.2217   21.9990   11.6406 H         1 ILE         0.0235
    164 H75        71.6492   23.0583   11.3822 H         1 ILE         0.0235
    165 H76        71.5803   19.0855    9.6450 H         1 ILE         0.0230
    166 H77        70.4415   20.3005   10.3186 H         1 ILE         0.0230
    167 H78        70.9361   18.8865   11.3100 H         1 ILE         0.0230
    168 H79        73.9243   24.1076   13.0035 H         1 ILE         0.1883
    169 H80        73.1975   24.6031   15.8601 H         1 ILE         0.0803
    170 H81        74.7812   26.3181   13.8766 H         1 ILE         0.0345
    171 H82        76.8044   25.6488   14.9640 H         1 ILE         0.0267
    172 H83        75.9175   24.1710   14.4580 H         1 ILE         0.0267
    173 H84        73.6164   27.6004   15.6578 H         1 ILE         0.0235
    174 H85        75.4031   27.6756   15.8265 H         1 ILE         0.0235
    175 H86        74.4435   26.6055   16.9039 H         1 ILE         0.0235
    176 H87        76.9120   23.9104   16.6637 H         1 ILE         0.0230
    177 H88        75.1181   23.8674   16.7454 H         1 ILE         0.0230
    178 H89        76.0051   25.3452   17.2515 H         1 ILE         0.0230
    179 H90        71.4011   25.7886   16.2136 H         1 LEU         0.1883
    180 H91        69.9981   26.9777   13.8793 H         1 LEU         0.0800
    181 H92        68.0228   26.9811   15.3401 H         1 LEU         0.0315
    182 H93        69.0243   26.3663   16.6988 H         1 LEU         0.0315
    183 H94        69.3379   24.2580   15.5911 H         1 LEU         0.0298
    184 H95        66.9955   23.4640   15.5263 H         1 LEU         0.0232
    185 H96        66.4249   25.1663   15.4708 H         1 LEU         0.0232
    186 H97        67.2936   24.5571   16.9202 H         1 LEU         0.0232
    187 H98        69.4780   25.1091   13.2840 H         1 LEU         0.0232
    188 H99        67.7126   25.4400   13.3022 H         1 LEU         0.0232
    189 H100       68.3111   23.7510   13.4270 H         1 LEU         0.0232
    190 H101       69.4014   29.1077   13.7772 H         1 SER         0.1876
    191 H102       70.1552   30.8300   16.1037 H         1 SER         0.0749
    192 H103       70.3311   31.5971   13.1518 H         1 SER         0.0599
    193 H104       71.7249   31.1056   14.1729 H         1 SER         0.0599
    194 H105       71.4400   33.3924   14.0823 H         1 SER         0.2096
@<TRIPOS>BOND
     1    1    2 1  
     2    2    3 1  
     3    3    4 2  
     4    3    5 am 
     5    5    6 1  
     6    6    7 1  
     7    7    8 2  
     8    7    9 am 
     9    9   10 1  
    10   10   11 1  
    11   10   13 1  
    12   11   12 2  
    13   11   15 am 
    14   13   14 1  
    15   15   16 1  
    16   16   17 1  
    17   16   19 1  
    18   17   18 2  
    19   17   22 am 
    20   19   20 1  
    21   19   21 1  
    22   22   23 1  
    23   23   24 1  
    24   23   26 1  
    25   24   25 2  
    26   24   29 am 
    27   26   27 1  
    28   26   28 1  
    29   29   30 1  
    30   30   31 1  
    31   30   33 1  
    32   31   32 2  
    33   31   37 am 
    34   33   34 1  
    35   33   35 1  
    36   34   36 1  
    37   37   38 1  
    38   38   39 1  
    39   38   41 1  
    40   39   40 2  
    41   39   44 am 
    42   41   42 1  
    43   41   43 1  
    44   44   45 1  
    45   45   46 1  
    46   46   47 2  
    47   46   48 am 
    48   48   49 1  
    49   49   50 1  
    50   49   52 1  
    51   50   51 2  
    52   50   59 am 
    53   52   53 1  
    54   53   54 1  
    55   54   55 1  
    56   55   56 ar 
    57   56   57 ar 
    58   56   58 ar 
    59   59   60 1  
    60   60   61 1  
    61   60   63 1  
    62   61   62 2  
    63   61   67 am 
    64   63   64 1  
    65   63   65 1  
    66   64   66 1  
    67   67   68 1  
    68   68   69 1  
    69   68   71 1  
    70   69   70 2  
    71   69   75 am 
    72   71   72 1  
    73   71   73 1  
    74   72   74 1  
    75   75   76 1  
    76   76   77 1  
    77   76   79 1  
    78   77   78 2  
    79   77   83 am 
    80   79   80 1  
    81   80   81 1  
    82   80   82 1  
    83   83   84 1  
    84   84   85 1  
    85   84   87 1  
    86   85   86 ar 
    87   87   88 1  
    88   85   89 ar 
    89    1   90 1  
    90    1   91 1  
    91    1   92 1  
    92    2   93 1  
    93    2   94 1  
    94    5   95 1  
    95    6   96 1  
    96    6   97 1  
    97    9   98 1  
    98   10   99 1  
    99   13  100 1  
   100   13  101 1  
   101   14  102 1  
   102   15  103 1  
   103   16  104 1  
   104   19  105 1  
   105   20  106 1  
   106   20  107 1  
   107   20  108 1  
   108   21  109 1  
   109   21  110 1  
   110   21  111 1  
   111   22  112 1  
   112   23  113 1  
   113   26  114 1  
   114   27  115 1  
   115   27  116 1  
   116   27  117 1  
   117   28  118 1  
   118   28  119 1  
   119   28  120 1  
   120   29  121 1  
   121   30  122 1  
   122   33  123 1  
   123   34  124 1  
   124   34  125 1  
   125   35  126 1  
   126   35  127 1  
   127   35  128 1  
   128   36  129 1  
   129   36  130 1  
   130   36  131 1  
   131   37  132 1  
   132   38  133 1  
   133   41  134 1  
   134   42  135 1  
   135   42  136 1  
   136   42  137 1  
   137   43  138 1  
   138   43  139 1  
   139   43  140 1  
   140   44  141 1  
   141   45  142 1  
   142   45  143 1  
   143   48  144 1  
   144   49  145 1  
   145   52  146 1  
   146   52  147 1  
   147   53  148 1  
   148   53  149 1  
   149   54  150 1  
   150   54  151 1  
   151   55  152 1  
   152   57  153 1  
   153   57  154 1  
   154   58  155 1  
   155   58  156 1  
   156   59  157 1  
   157   60  158 1  
   158   63  159 1  
   159   64  160 1  
   160   64  161 1  
   161   65  162 1  
   162   65  163 1  
   163   65  164 1  
   164   66  165 1  
   165   66  166 1  
   166   66  167 1  
   167   67  168 1  
   168   68  169 1  
   169   71  170 1  
   170   72  171 1  
   171   72  172 1  
   172   73  173 1  
   173   73  174 1  
   174   73  175 1  
   175   74  176 1  
   176   74  177 1  
   177   74  178 1  
   178   75  179 1  
   179   76  180 1  
   180   79  181 1  
   181   79  182 1  
   182   80  183 1  
   183   81  184 1  
   184   81  185 1  
   185   81  186 1  
   186   82  187 1  
   187   82  188 1  
   188   82  189 1  
   189   83  190 1  
   190   84  191 1  
   191   87  192 1  
   192   87  193 1  
   193   88  194 1  
@<TRIPOS>SUBSTRUCTURE
     1 LYS         1

