4i31_ligand
  -I-interpret- 

194193  0  0  0  0  0  0  0  0999 V2000
   75.7520   -3.7600   14.7350 N   0  3  0  0  0
   76.0760   -4.0660   16.1180 C   0  0  0  0  0
   76.9160   -2.9760   16.7530 C   0  0  0  0  0
   77.2010   -3.0060   17.9540 O   0  0  0  0  0
   77.3270   -2.0110   15.9400 N   0  0  0  0  0
   78.1020   -0.8900   16.4380 C   0  0  0  0  0
   77.2110    0.1600   17.0750 C   0  0  0  0  0
   75.9840    0.0900   16.9590 O   0  0  0  0  0
   77.8300    1.1200   17.7580 N   0  0  0  0  0
   77.1160    2.2470   18.3360 C   0  0  0  0  0
   76.6920    3.2110   17.2440 C   0  0  0  0  0
   77.2790    3.2400   16.1630 O   0  0  0  0  0
   77.9990    3.0110   19.3300 C   0  0  0  0  0
   78.2890    2.2460   20.4840 O   0  0  0  0  0
   75.6620    3.9970   17.5320 N   0  0  0  0  0
   75.3410    5.1400   16.6880 C   0  0  0  0  0
   76.3990    6.2030   16.9780 C   0  0  0  0  0
   76.8460    6.3460   18.1240 O   0  0  0  0  0
   73.9540    5.7050   17.0140 C   0  0  0  0  0
   73.6690    6.9660   16.1640 C   0  0  0  0  0
   72.8960    4.6250   16.7980 C   0  0  0  0  0
   76.7850    6.9490   15.9500 N   0  0  0  0  0
   77.8870    7.9010   16.0850 C   0  0  0  0  0
   77.4820    9.3070   15.6300 C   0  0  0  0  0
   76.9260    9.4700   14.5520 O   0  0  0  0  0
   79.0920    7.4760   15.2200 C   0  0  0  0  0
   80.2730    8.4040   15.4850 C   0  0  0  0  0
   79.4800    6.0100   15.4780 C   0  0  0  0  0
   77.7920   10.3190   16.4270 N   0  0  0  0  0
   77.5670   11.6850   15.9830 C   0  0  0  0  0
   78.6740   12.0610   15.0080 C   0  0  0  0  0
   79.8690   12.0700   15.3660 O   0  0  0  0  0
   77.6480   12.6440   17.1640 C   0  0  0  0  0
   76.5320   12.3420   18.1660 C   0  0  0  0  0
   77.6180   14.1020   16.6690 C   0  0  0  0  0
   76.6210   13.1630   19.4360 C   0  0  0  0  0
   78.2860   12.3090   13.7600 N   0  0  0  0  0
   79.2230   12.7170   12.7170 C   0  0  0  0  0
   79.2070   14.2150   12.3330 C   0  0  0  0  0
   79.9610   14.6480   11.4690 O   0  0  0  0  0
   79.0870   11.8350   11.4800 C   0  0  0  0  0
   79.2320   10.3650   11.8970 C   0  0  0  0  0
   77.7780   12.0870   10.7450 C   0  0  0  0  0
   78.3190   14.9800   12.9540 N   0  0  0  0  0
   78.1440   16.3810   12.6140 C   0  0  0  0  0
   77.0810   16.9920   13.5000 C   0  0  0  0  0
   76.4780   16.3090   14.3260 O   0  0  0  0  0
   76.8670   18.2940   13.3580 N   0  0  0  0  0
   75.8100   18.9430   14.0920 C   0  0  0  0  0
   75.2460   20.1040   13.3070 C   0  0  0  0  0
   75.8570   20.5980   12.3630 O   0  0  0  0  0
   76.2630   19.4210   15.4800 C   0  0  0  0  0
   77.2360   20.5720   15.4770 C   0  0  0  0  0
   78.6220   20.0590   15.2570 C   0  0  0  0  0
   79.6180   21.0620   15.5890 N   0  0  0  0  0
   80.4650   20.9850   16.6120 C   0  0  0  0  0
   80.4560   19.9420   17.4370 N   0  0  0  0  0
   81.3240   21.9650   16.8050 N   0  0  0  0  0
   74.0650   20.5300   13.7120 N   0  0  0  0  0
   73.3900   21.6480   13.0760 C   0  0  0  0  0
   73.1260   22.6750   14.1640 C   0  0  0  0  0
   72.6340   22.3320   15.2420 O   0  0  0  0  0
   72.0920   21.1820   12.3800 C   0  0  0  0  0
   72.4360   20.4070   11.1030 C   0  0  0  0  0
   71.1570   22.3700   12.0850 C   0  0  0  0  0
   71.2690   19.6160   10.5570 C   0  0  0  0  0
   73.5230   23.9150   13.8990 N   0  0  0  0  0
   73.3990   25.0070   14.8570 C   0  0  0  0  0
   72.2690   25.9230   14.4040 C   0  0  0  0  0
   72.2870   26.4060   13.2670 O   0  0  0  0  0
   74.6660   25.8710   14.8750 C   0  0  0  0  0
   75.9170   25.0260   15.1500 C   0  0  0  0  0
   74.5220   27.0200   15.8880 C   0  0  0  0  0
   75.9930   24.5030   16.5440 C   0  0  0  0  0
   71.3100   26.1660   15.2920 N   0  0  0  0  0
   70.1240   26.9660   14.9720 C   0  0  0  0  0
   70.2610   28.4030   15.4640 C   0  0  0  0  0
   70.8030   28.6380   16.5450 O   0  0  0  0  0
   68.8830   26.3500   15.6080 C   0  0  0  0  0
   68.5490   24.9220   15.2080 C   0  0  0  0  0
   67.2240   24.4980   15.8240 C   0  0  0  0  0
   68.5100   24.7970   13.7030 C   0  0  0  0  0
   69.7800   29.3590   14.6680 N   0  0  0  0  0
   69.7930   30.7670   15.0670 C   0  0  0  0  0
   68.3870   31.3510   15.0080 C   0  0  0  0  0
   67.9419   32.0646   15.9462 O   0  0  0  0  0
   70.7320   31.5790   14.1760 C   0  0  0  0  0
   70.8530   32.9070   14.6500 O   0  0  0  0  0
   67.6590   31.1170   14.0066 O   0  0  0  0  0
   75.1879   -4.5147   14.3442 H   0  0  0  0  0
   75.2274   -2.8862   14.6953 H   0  0  0  0  0
   76.6140   -3.6651   14.1981 H   0  0  0  0  0
   76.6464   -4.9946   16.1391 H   0  0  0  0  0
   75.1445   -4.1509   16.6777 H   0  0  0  0  0
   77.0941   -2.0581   14.9481 H   0  0  0  0  0
   78.6291   -0.4342   15.5999 H   0  0  0  0  0
   78.7971   -1.2580   17.1926 H   0  0  0  0  0
   78.8410    1.0631   17.8803 H   0  0  0  0  0
   76.2439    1.8499   18.8555 H   0  0  0  0  0
   77.4616    3.9063   19.6426 H   0  0  0  0  0
   78.9406    3.2482   18.8347 H   0  0  0  0  0
   78.8418    2.7603   21.0769 H   0  0  0  0  0
   75.0895    3.7987   18.3525 H   0  0  0  0  0
   75.3324    4.8413   15.6398 H   0  0  0  0  0
   73.9216    6.0071   18.0608 H   0  0  0  0  0
   74.4208    7.7253   16.3793 H   0  0  0  0  0
   73.7062    6.7056   15.1062 H   0  0  0  0  0
   72.6798    7.3523   16.4098 H   0  0  0  0  0
   72.9191    4.2983   15.7584 H   0  0  0  0  0
   73.1049    3.7777   17.4511 H   0  0  0  0  0
   71.9115    5.0308   17.0309 H   0  0  0  0  0
   76.3066    6.8570   15.0539 H   0  0  0  0  0
   78.1507    7.9108   17.1426 H   0  0  0  0  0
   78.8064    7.5564   14.1712 H   0  0  0  0  0
   79.9927    9.4272   15.2348 H   0  0  0  0  0
   80.5479    8.3484   16.5383 H   0  0  0  0  0
   81.1195    8.0973   14.8706 H   0  0  0  0  0
   79.7462    5.8853   16.5276 H   0  0  0  0  0
   78.6357    5.3642   15.2367 H   0  0  0  0  0
   80.3321    5.7454   14.8518 H   0  0  0  0  0
   78.1876   10.1401   17.3500 H   0  0  0  0  0
   76.5826   11.7514   15.5197 H   0  0  0  0  0
   78.5947   12.5025   17.6853 H   0  0  0  0  0
   76.6199   11.2927   18.4476 H   0  0  0  0  0
   75.5849   12.5854   17.6845 H   0  0  0  0  0
   78.4665   14.2774   16.0077 H   0  0  0  0  0
   76.6897   14.2811   16.1265 H   0  0  0  0  0
   77.6766   14.7758   17.5238 H   0  0  0  0  0
   77.5698   12.9600   19.9326 H   0  0  0  0  0
   76.5590   14.2224   19.1873 H   0  0  0  0  0
   75.7980   12.8952   20.0986 H   0  0  0  0  0
   77.2988   12.2107   13.5232 H   0  0  0  0  0
   80.2022   12.5704   13.1728 H   0  0  0  0  0
   79.8805   12.0860   10.7762 H   0  0  0  0  0
   80.2105   10.2127   12.3524 H   0  0  0  0  0
   78.4522   10.1140   12.6160 H   0  0  0  0  0
   79.1359    9.7281   11.0177 H   0  0  0  0  0
   76.9419   11.8736   11.4110 H   0  0  0  0  0
   77.7353   13.1292   10.4285 H   0  0  0  0  0
   77.7228   11.4380    9.8710 H   0  0  0  0  0
   77.7430   14.5729   13.6909 H   0  0  0  0  0
   77.8368   16.4641   11.5715 H   0  0  0  0  0
   79.0858   16.9092   12.7629 H   0  0  0  0  0
   77.4538   18.8384   12.7259 H   0  0  0  0  0
   75.0315   18.1949   14.2411 H   0  0  0  0  0
   76.7745   18.5803   15.9487 H   0  0  0  0  0
   75.3692   19.7684   15.9982 H   0  0  0  0  0
   77.1894   21.0871   16.4365 H   0  0  0  0  0
   76.9752   21.2636   14.6758 H   0  0  0  0  0
   78.7312   19.7984   14.2043 H   0  0  0  0  0
   78.7761   19.1925   15.9000 H   0  0  0  0  0
   79.6724   21.8879   14.9929 H   0  0  0  0  0
   81.1129   19.9025   18.2163 H   0  0  0  0  0
   79.7922   19.1815   17.2904 H   0  0  0  0  0
   81.3328   22.7670   16.1748 H   0  0  0  0  0
   73.6120   20.0600   14.4957 H   0  0  0  0  0
   74.0034   22.0894   12.2905 H   0  0  0  0  0
   71.5544   20.5155   13.0544 H   0  0  0  0  0
   73.2294   19.7008   11.3477 H   0  0  0  0  0
   72.7286   21.1324   10.3439 H   0  0  0  0  0
   70.8917   22.8629   13.0203 H   0  0  0  0  0
   71.6664   23.0781   11.4314 H   0  0  0  0  0
   70.2535   22.0067   11.5953 H   0  0  0  0  0
   70.9401   18.8936   11.3040 H   0  0  0  0  0
   70.4498   20.2953   10.3213 H   0  0  0  0  0
   71.5787   19.0908    9.6535 H   0  0  0  0  0
   73.9323   24.1115   12.9856 H   0  0  0  0  0
   73.2221   24.5731   15.8411 H   0  0  0  0  0
   74.7912   26.3109   13.8856 H   0  0  0  0  0
   76.7842   25.6680   14.9952 H   0  0  0  0  0
   75.8829   24.1662   14.4809 H   0  0  0  0  0
   73.6721   27.6433   15.6100 H   0  0  0  0  0
   74.3609   26.6068   16.8837 H   0  0  0  0  0
   75.4313   27.6210   15.8854 H   0  0  0  0  0
   76.0048   25.3384   17.2440 H   0  0  0  0  0
   75.1256   23.8734   16.7423 H   0  0  0  0  0
   76.9040   23.9161   16.6613 H   0  0  0  0  0
   71.4030   25.7811   16.2320 H   0  0  0  0  0
   70.0279   26.9745   13.8863 H   0  0  0  0  0
   68.0419   26.9593   15.2771 H   0  0  0  0  0
   69.0763   26.3243   16.6804 H   0  0  0  0  0
   69.3268   24.2580   15.5851 H   0  0  0  0  0
   67.2943   24.5570   16.9101 H   0  0  0  0  0
   66.4331   25.1609   15.4733 H   0  0  0  0  0
   66.9987   23.4733   15.5284 H   0  0  0  0  0
   67.7488   25.4672   13.3036 H   0  0  0  0  0
   69.4834   25.0647   13.2921 H   0  0  0  0  0
   68.2697   23.7692   13.4312 H   0  0  0  0  0
   69.3938   29.1026   13.7594 H   0  0  0  0  0
   70.1568   30.8214   16.0930 H   0  0  0  0  0
   68.6117   32.1480   16.6288 H   0  0  0  0  0
   70.3239   31.6027   13.1655 H   0  0  0  0  0
   71.7167   31.1117   14.1858 H   0  0  0  0  0
   71.4462   33.3975   14.0763 H   0  0  0  0  0
  1  2  1  0  0  0
  2  3  1  0  0  0
  3  4  2  0  0  0
  3  5  1  0  0  0
  5  6  1  0  0  0
  6  7  1  0  0  0
  7  8  2  0  0  0
  7  9  1  0  0  0
  9 10  1  0  0  0
 10 11  1  0  0  0
 10 13  1  0  0  0
 11 12  2  0  0  0
 11 15  1  0  0  0
 13 14  1  0  0  0
 15 16  1  0  0  0
 16 17  1  0  0  0
 16 19  1  0  0  0
 17 18  2  0  0  0
 17 22  1  0  0  0
 19 20  1  0  0  0
 19 21  1  0  0  0
 22 23  1  0  0  0
 23 24  1  0  0  0
 23 26  1  0  0  0
 24 25  2  0  0  0
 24 29  1  0  0  0
 26 27  1  0  0  0
 26 28  1  0  0  0
 29 30  1  0  0  0
 30 31  1  0  0  0
 30 33  1  0  0  0
 31 32  2  0  0  0
 31 37  1  0  0  0
 33 34  1  0  0  0
 33 35  1  0  0  0
 34 36  1  0  0  0
 37 38  1  0  0  0
 38 39  1  0  0  0
 38 41  1  0  0  0
 39 40  2  0  0  0
 39 44  1  0  0  0
 41 42  1  0  0  0
 41 43  1  0  0  0
 44 45  1  0  0  0
 45 46  1  0  0  0
 46 47  2  0  0  0
 46 48  1  0  0  0
 48 49  1  0  0  0
 49 50  1  0  0  0
 49 52  1  0  0  0
 50 51  2  0  0  0
 50 59  1  0  0  0
 52 53  1  0  0  0
 53 54  1  0  0  0
 54 55  1  0  0  0
 55 56  1  0  0  0
 56 57  1  0  0  0
 56 58  2  0  0  0
 59 60  1  0  0  0
 60 61  1  0  0  0
 60 63  1  0  0  0
 61 62  2  0  0  0
 61 67  1  0  0  0
 63 64  1  0  0  0
 63 65  1  0  0  0
 64 66  1  0  0  0
 67 68  1  0  0  0
 68 69  1  0  0  0
 68 71  1  0  0  0
 69 70  2  0  0  0
 69 75  1  0  0  0
 71 72  1  0  0  0
 71 73  1  0  0  0
 72 74  1  0  0  0
 75 76  1  0  0  0
 76 77  1  0  0  0
 76 79  1  0  0  0
 77 78  2  0  0  0
 77 83  1  0  0  0
 79 80  1  0  0  0
 80 81  1  0  0  0
 80 82  1  0  0  0
 83 84  1  0  0  0
 84 85  1  0  0  0
 84 87  1  0  0  0
 85 86  1  0  0  0
 87 88  1  0  0  0
 85 89  2  0  0  0
  1 90  1  0  0  0
  1 91  1  0  0  0
  1 92  1  0  0  0
  2 93  1  0  0  0
  2 94  1  0  0  0
  5 95  1  0  0  0
  6 96  1  0  0  0
  6 97  1  0  0  0
  9 98  1  0  0  0
 10 99  1  0  0  0
 13100  1  0  0  0
 13101  1  0  0  0
 14102  1  0  0  0
 15103  1  0  0  0
 16104  1  0  0  0
 19105  1  0  0  0
 20106  1  0  0  0
 20107  1  0  0  0
 20108  1  0  0  0
 21109  1  0  0  0
 21110  1  0  0  0
 21111  1  0  0  0
 22112  1  0  0  0
 23113  1  0  0  0
 26114  1  0  0  0
 27115  1  0  0  0
 27116  1  0  0  0
 27117  1  0  0  0
 28118  1  0  0  0
 28119  1  0  0  0
 28120  1  0  0  0
 29121  1  0  0  0
 30122  1  0  0  0
 33123  1  0  0  0
 34124  1  0  0  0
 34125  1  0  0  0
 35126  1  0  0  0
 35127  1  0  0  0
 35128  1  0  0  0
 36129  1  0  0  0
 36130  1  0  0  0
 36131  1  0  0  0
 37132  1  0  0  0
 38133  1  0  0  0
 41134  1  0  0  0
 42135  1  0  0  0
 42136  1  0  0  0
 42137  1  0  0  0
 43138  1  0  0  0
 43139  1  0  0  0
 43140  1  0  0  0
 44141  1  0  0  0
 45142  1  0  0  0
 45143  1  0  0  0
 48144  1  0  0  0
 49145  1  0  0  0
 52146  1  0  0  0
 52147  1  0  0  0
 53148  1  0  0  0
 53149  1  0  0  0
 54150  1  0  0  0
 54151  1  0  0  0
 55152  1  0  0  0
 57153  1  0  0  0
 57154  1  0  0  0
 58155  1  0  0  0
 59156  1  0  0  0
 60157  1  0  0  0
 63158  1  0  0  0
 64159  1  0  0  0
 64160  1  0  0  0
 65161  1  0  0  0
 65162  1  0  0  0
 65163  1  0  0  0
 66164  1  0  0  0
 66165  1  0  0  0
 66166  1  0  0  0
 67167  1  0  0  0
 68168  1  0  0  0
 71169  1  0  0  0
 72170  1  0  0  0
 72171  1  0  0  0
 73172  1  0  0  0
 73173  1  0  0  0
 73174  1  0  0  0
 74175  1  0  0  0
 74176  1  0  0  0
 74177  1  0  0  0
 75178  1  0  0  0
 76179  1  0  0  0
 79180  1  0  0  0
 79181  1  0  0  0
 80182  1  0  0  0
 81183  1  0  0  0
 81184  1  0  0  0
 81185  1  0  0  0
 82186  1  0  0  0
 82187  1  0  0  0
 82188  1  0  0  0
 83189  1  0  0  0
 84190  1  0  0  0
 86191  1  0  0  0
 87192  1  0  0  0
 87193  1  0  0  0
 88194  1  0  0  0
M  END
$$$$
