3fcf_ligand
  -I-interpret- 

 39 40  0  0  0  0  0  0  0  0999 V2000
  -11.8940   -7.5360   -1.4420 O   0  0  0  0  0
  -12.4150   -7.3750   -2.7660 C   0  0  0  0  0
  -12.6310   -8.3610   -3.5070 O   0  0  0  0  0
  -12.7200   -5.9920   -3.2720 C   0  0  0  0  0
  -13.0780   -5.7900   -4.6080 C   0  0  0  0  0
  -13.3650   -4.5070   -5.0760 C   0  0  0  0  0
  -12.6520   -4.9010   -2.4020 C   0  0  0  0  0
  -12.9360   -3.6160   -2.8660 C   0  0  0  0  0
  -13.2930   -3.4220   -4.2040 C   0  0  0  0  0
  -12.8570   -2.4720   -1.9260 C   0  0  0  0  0
  -13.2000   -1.3080   -2.2730 N   0  0  0  0  0
  -13.1210   -0.2820   -1.3880 O   0  0  0  0  0
  -13.4680    1.0450   -1.7900 C   0  0  0  0  0
  -14.9770    1.2460   -1.6660 C   0  0  0  0  0
  -15.3010    1.9220   -0.4470 O   0  0  0  0  0
  -15.1160    1.3030    0.7470 N   0  0  0  0  0
  -15.8180    1.5900    1.7550 C   0  0  0  0  0
  -15.5660    0.8790    3.0270 C   0  0  0  0  0
  -14.9970   -0.3370    2.9960 N   0  0  0  0  0
  -15.9080    1.4510    4.2490 C   0  0  0  0  0
  -15.6410    0.7250    5.4090 C   0  0  0  0  0
  -15.9250    1.1920    6.5320 O   0  0  0  0  0
  -15.0700   -0.4870    5.3190 N   0  0  0  0  0
  -14.7480   -1.0130    4.1270 C   0  0  0  0  0
  -14.2130   -2.1410    4.0700 O   0  0  0  0  0
  -11.7962   -6.6741   -1.0308 H   0  0  0  0  0
  -13.1333   -6.6398   -5.2884 H   0  0  0  0  0
  -13.6441   -4.3541   -6.1185 H   0  0  0  0  0
  -12.3765   -5.0539   -1.3585 H   0  0  0  0  0
  -13.5158   -2.4185   -4.5664 H   0  0  0  0  0
  -12.4943   -2.6402   -0.9119 H   0  0  0  0  0
  -13.1684    1.1971   -2.8269 H   0  0  0  0  0
  -12.9553    1.7614   -1.1481 H   0  0  0  0  0
  -15.4628    0.2703   -1.6667 H   0  0  0  0  0
  -15.3213    1.8503   -2.5053 H   0  0  0  0  0
  -16.5973    2.3493    1.6896 H   0  0  0  0  0
  -16.9917    1.5646    4.2219 H   0  0  0  0  0
  -15.3008    2.3529    4.3261 H   0  0  0  0  0
  -14.8780   -1.0160    6.1697 H   0  0  0  0  0
  1  2  1  0  0  0
  2  3  2  0  0  0
  2  4  1  0  0  0
  4  5  4  0  0  0
  4  7  4  0  0  0
  5  6  4  0  0  0
  6  9  4  0  0  0
  7  8  4  0  0  0
  8  9  4  0  0  0
  8 10  1  0  0  0
 10 11  2  0  0  0
 11 12  1  0  0  0
 12 13  1  0  0  0
 13 14  1  0  0  0
 14 15  1  0  0  0
 15 16  1  0  0  0
 16 17  2  0  0  0
 17 18  1  0  0  0
 18 19  2  0  0  0
 18 20  1  0  0  0
 19 24  1  0  0  0
 20 21  1  0  0  0
 21 22  2  0  0  0
 21 23  1  0  0  0
 23 24  1  0  0  0
 24 25  2  0  0  0
  1 26  1  0  0  0
  5 27  1  0  0  0
  6 28  1  0  0  0
  7 29  1  0  0  0
  9 30  1  0  0  0
 10 31  1  0  0  0
 13 32  1  0  0  0
 13 33  1  0  0  0
 14 34  1  0  0  0
 14 35  1  0  0  0
 17 36  1  0  0  0
 20 37  1  0  0  0
 20 38  1  0  0  0
 23 39  1  0  0  0
M  END
$$$$
