4hzw_ligand
  -I-interpret- 

 46 46  0  0  0  0  0  0  0  0999 V2000
   -5.4720  -30.1340   35.9800 C   0  0  0  0  0
   -5.7520  -28.7220   35.6010 C   0  0  0  0  0
   -7.0440  -28.4250   34.8930 C   0  0  0  0  0
   -8.0380  -29.5510   34.7370 C   0  0  0  0  0
   -7.3450  -30.9560   34.6420 C   0  0  0  0  0
   -6.3320  -31.1280   35.5990 O   0  0  0  0  0
   -4.1950  -30.5290   36.6200 C   0  0  0  0  0
   -3.5490  -29.5940   37.3020 O   0  0  0  0  0
   -4.0340  -31.8550   36.7410 O   0  0  0  0  0
   -8.3250  -32.1260   34.7990 C   0  0  0  0  0
   -7.6480  -33.4550   34.5260 C   0  0  0  0  0
   -8.6300  -34.6160   34.6010 C   0  0  0  0  0
   -9.7170  -34.5130   33.8240 O   0  0  0  0  0
   -8.8360  -32.1360   36.0590 O   0  0  0  0  0
  -10.1080  -31.8740   36.2410 C   0  0  0  0  0
   -7.1360  -33.4150   33.3120 O   0  0  0  0  0
   -7.6020  -27.1350   35.1160 N   0  0  0  0  0
   -8.2930  -26.3700   34.1590 C   0  0  0  0  0
   -8.0860  -26.5350   32.8770 N   0  0  0  0  0
   -8.9110  -25.3330   34.6050 N   0  0  0  0  0
  -10.2410  -28.7420   34.0310 C   0  0  0  0  0
  -11.1090  -28.6410   32.8570 C   0  0  0  0  0
  -10.6160  -28.5780   35.0710 O   0  0  0  0  0
   -8.9740  -29.2970   33.7440 N   0  0  0  0  0
   -5.0416  -27.9276   35.8300 H   0  0  0  0  0
   -6.6724  -28.3533   33.8708 H   0  0  0  0  0
   -8.6202  -29.5968   35.6574 H   0  0  0  0  0
   -6.9187  -30.9680   33.6389 H   0  0  0  0  0
   -4.6235  -32.3048   36.1313 H   0  0  0  0  0
   -9.1255  -31.9892   34.0720 H   0  0  0  0  0
   -6.8792  -33.6127   35.2824 H   0  0  0  0  0
   -8.9894  -34.6487   35.6295 H   0  0  0  0  0
   -8.0896  -35.4983   34.2581 H   0  0  0  0  0
  -10.2688  -35.2895   33.9430 H   0  0  0  0  0
  -10.3285  -30.8736   35.8686 H   0  0  0  0  0
  -10.7092  -32.6051   35.7004 H   0  0  0  0  0
  -10.3398  -31.9263   37.3048 H   0  0  0  0  0
   -6.7023  -34.2499   33.1212 H   0  0  0  0  0
   -7.4918  -26.7319   36.0465 H   0  0  0  0  0
   -8.4165  -25.8350   32.2128 H   0  0  0  0  0
   -7.5942  -27.3635   32.5423 H   0  0  0  0  0
   -8.8800  -25.1094   35.5997 H   0  0  0  0  0
  -11.9145  -29.3708   32.9385 H   0  0  0  0  0
  -11.5304  -27.6372   32.8036 H   0  0  0  0  0
  -10.5262  -28.8401   31.9577 H   0  0  0  0  0
   -8.7395  -29.5181   32.7763 H   0  0  0  0  0
  2  1  2  0  0  0
  6  1  1  0  0  0
  1  7  1  0  0  0
  3  2  1  0  0  0
  4  3  1  0  0  0
  3 17  1  0  0  0
  4  5  1  0  0  0
 24  4  1  0  0  0
  5  6  1  0  0  0
  5 10  1  0  0  0
  7  8  2  0  0  0
  7  9  1  0  0  0
 10 11  1  0  0  0
 10 14  1  0  0  0
 11 12  1  0  0  0
 11 16  1  0  0  0
 12 13  1  0  0  0
 14 15  1  0  0  0
 17 18  1  0  0  0
 18 19  1  0  0  0
 18 20  2  0  0  0
 21 22  1  0  0  0
 21 23  2  0  0  0
 21 24  1  0  0  0
  2 25  1  0  0  0
  3 26  1  0  0  0
  4 27  1  0  0  0
  5 28  1  0  0  0
  9 29  1  0  0  0
 10 30  1  0  0  0
 11 31  1  0  0  0
 12 32  1  0  0  0
 12 33  1  0  0  0
 13 34  1  0  0  0
 15 35  1  0  0  0
 15 36  1  0  0  0
 15 37  1  0  0  0
 16 38  1  0  0  0
 17 39  1  0  0  0
 19 40  1  0  0  0
 19 41  1  0  0  0
 20 42  1  0  0  0
 22 43  1  0  0  0
 22 44  1  0  0  0
 22 45  1  0  0  0
 24 46  1  0  0  0
M  END
$$$$
