### 
### Created by X-TOOL on Mon Sep 10 21:12:45 2018
### 

@<TRIPOS>MOLECULE
1lhe_ligand
   68    69     1     0     0
SMALL
GAST_HUCK


@<TRIPOS>ATOM
      1 B1         15.2270  -10.7390   18.4200 B         1 DI3         0.7163
      2 C          15.0200  -11.8020   19.5500 C.3       1 DI3         0.0532
      3 C2         13.6510  -11.6490   20.1690 C.3       1 DI3        -0.0388
      4 C3         13.4030  -10.7600   21.3730 C.3       1 DI3        -0.0524
      5 C4         11.9890  -11.0260   21.9850 C.3       1 DI3        -0.0504
      6 C5         12.1060  -12.0620   23.1440 C.3       1 DI3         0.0189
      7 C6         11.0570  -11.8970   24.2260 C.cat     1 DI3         0.2044
      8 C7         18.3690  -13.0150   21.2070 C.3       1 DI3         0.1336
      9 C8         17.0600  -12.9310   20.3290 C.2       1 DI3         0.2010
     10 C9         19.5740  -12.9860   20.2100 C.3       1 DI3        -0.0104
     11 C10        20.3510  -14.2750   20.3420 C.3       1 DI3        -0.0281
     12 C11        19.6450  -15.1480   21.3590 C.3       1 DI3         0.0369
     13 C12        17.6880  -14.7610   22.8690 C.2       1 DI3         0.2085
     14 C13        18.4080  -16.1500   24.9750 C.3       1 DI3         0.0214
     15 C14        17.7970  -16.1760   23.5460 C.3       1 DI3         0.1406
     16 C15        16.0080  -17.8050   22.9200 C.2       1 DI3         0.1752
     17 C16        14.5280  -18.1840   23.0170 C.3       1 DI3         0.0258
     18 C17        22.1770  -15.3420   24.8130 C.ar      1 DI3        -0.0686
     19 C18        22.2570  -14.2100   25.6020 C.ar      1 DI3        -0.0687
     20 C19        21.1000  -13.6840   26.1890 C.ar      1 DI3        -0.0686
     21 C20        19.8640  -14.2960   25.9680 C.ar      1 DI3        -0.0601
     22 C21        19.7670  -15.4480   25.1890 C.ar      1 DI3        -0.0386
     23 C22        20.9440  -15.9660   24.6050 C.ar      1 DI3        -0.0601
     24 N          16.2180  -11.8740   20.4520 N.am      1 DI3        -0.2918
     25 N1         10.3560  -12.8830   24.5780 N.pl3     1 DI3        -0.2762
     26 N2         10.8390  -10.6520   24.8590 N.pl3     1 DI3        -0.2762
     27 N3         18.5440  -14.3470   21.8890 N.am      1 DI3        -0.2497
     28 N4         16.3990  -16.6990   23.5790 N.am      1 DI3        -0.2640
     29 O          13.9810  -10.6210   17.6720 O.3       1 DI3        -0.4967
     30 O1         16.2960  -11.0270   17.5220 O.3       1 DI3        -0.4967
     31 O2         16.8750  -13.8740   19.5370 O.2       1 DI3        -0.3946
     32 O3         16.7520  -14.0420   23.2410 O.2       1 DI3        -0.3940
     33 O4         16.7980  -18.5230   22.2770 O.2       1 DI3        -0.3972
     34 H1         14.9921  -12.7811   19.0494 H         1 DI3         0.0431
     35 H2         13.3324  -12.6599   20.4631 H         1 DI3         0.0275
     36 H3         12.9932  -11.2750   19.3706 H         1 DI3         0.0275
     37 H4         13.4678   -9.7069   21.0619 H         1 DI3         0.0265
     38 H5         14.1691  -10.9650   22.1353 H         1 DI3         0.0265
     39 H6         11.3217  -11.4227   21.2057 H         1 DI3         0.0263
     40 H7         11.5766  -10.0843   22.3763 H         1 DI3         0.0263
     41 H8         13.0988  -11.9545   23.6053 H         1 DI3         0.0281
     42 H9         12.0072  -13.0711   22.7174 H         1 DI3         0.0281
     43 H10        18.3990  -12.1889   21.9327 H         1 DI3         0.0802
     44 H11        20.2288  -12.1345   20.4471 H         1 DI3         0.0313
     45 H12        19.1991  -12.8849   19.1808 H         1 DI3         0.0313
     46 H13        21.3748  -14.0601   20.6819 H         1 DI3         0.0287
     47 H14        20.3876  -14.7895   19.3704 H         1 DI3         0.0287
     48 H15        20.3367  -15.4276   22.1673 H         1 DI3         0.0524
     49 H16        19.2573  -16.0576   20.8771 H         1 DI3         0.0524
     50 H17        18.5303  -17.1957   25.2937 H         1 DI3         0.0474
     51 H18        17.6790  -15.6500   25.6296 H         1 DI3         0.0474
     52 H19        18.4240  -16.8276   22.9197 H         1 DI3         0.0823
     53 H20        14.3455  -19.1006   22.4369 H         1 DI3         0.0467
     54 H21        13.9128  -17.3662   22.6136 H         1 DI3         0.0467
     55 H22        14.2622  -18.3576   24.0702 H         1 DI3         0.0467
     56 H23        23.0722  -15.7465   24.3547 H         1 DI3         0.0599
     57 H24        23.2149  -13.7298   25.7662 H         1 DI3         0.0559
     58 H25        21.1634  -12.8015   26.8152 H         1 DI3         0.0599
     59 H26        18.9694  -13.8700   26.4076 H         1 DI3         0.0557
     60 H27        20.8904  -16.8565   23.9893 H         1 DI3         0.0557
     61 H28        16.3917  -11.1586   21.1287 H         1 DI3         0.1840
     62 H29         9.6431  -12.7718   25.3130 H         1 DI3         0.3177
     63 H30        10.4959  -13.8002   24.1307 H         1 DI3         0.3177
     64 H31        10.1201  -10.5656   25.5915 H         1 DI3         0.3177
     65 H32        11.3991   -9.8313   24.5877 H         1 DI3         0.3177
     66 H33        15.7189  -16.2022   24.1181 H         1 DI3         0.1884
     67 H34        14.0594   -9.9187   17.0371 H         1 DI3         0.1667
     68 H35        16.3728  -10.3244   16.8872 H         1 DI3         0.1667
@<TRIPOS>BOND
     1    2    1 1  
     2    1   29 1  
     3    1   30 1  
     4    2    3 1  
     5   24    2 1  
     6    3    4 1  
     7    4    5 1  
     8    5    6 1  
     9    6    7 1  
    10    7   25 ar 
    11    7   26 ar 
    12    8    9 1  
    13    8   10 1  
    14   27    8 1  
    15    9   24 am 
    16    9   31 2  
    17   11   10 1  
    18   12   11 1  
    19   27   12 1  
    20   15   13 1  
    21   13   27 am 
    22   13   32 2  
    23   14   15 1  
    24   22   14 1  
    25   15   28 1  
    26   16   17 1  
    27   28   16 am 
    28   16   33 2  
    29   19   18 ar 
    30   18   23 ar 
    31   20   19 ar 
    32   21   20 ar 
    33   21   22 ar 
    34   22   23 ar 
    35    2   34 1  
    36    3   35 1  
    37    3   36 1  
    38    4   37 1  
    39    4   38 1  
    40    5   39 1  
    41    5   40 1  
    42    6   41 1  
    43    6   42 1  
    44    8   43 1  
    45   10   44 1  
    46   10   45 1  
    47   11   46 1  
    48   11   47 1  
    49   12   48 1  
    50   12   49 1  
    51   14   50 1  
    52   14   51 1  
    53   15   52 1  
    54   17   53 1  
    55   17   54 1  
    56   17   55 1  
    57   18   56 1  
    58   19   57 1  
    59   20   58 1  
    60   21   59 1  
    61   23   60 1  
    62   24   61 1  
    63   25   62 1  
    64   25   63 1  
    65   26   64 1  
    66   26   65 1  
    67   28   66 1  
    68   29   67 1  
    69   30   68 1  
@<TRIPOS>SUBSTRUCTURE
     1 DI3         1

