1lhe_ligand
  -I-interpret- 

 67 68  0  0  0  0  0  0  0  0999 V2000
   15.2270  -10.7390   18.4200 B   0  0  0  0  0
   15.0200  -11.8020   19.5500 C   0  0  0  0  0
   13.6510  -11.6490   20.1690 C   0  0  0  0  0
   13.4030  -10.7600   21.3730 C   0  0  0  0  0
   11.9890  -11.0260   21.9850 C   0  0  0  0  0
   12.1060  -12.0620   23.1440 C   0  0  0  0  0
   11.0570  -11.8970   24.2260 C   0  0  0  0  0
   18.3690  -13.0150   21.2070 C   0  0  0  0  0
   17.0600  -12.9310   20.3290 C   0  0  0  0  0
   19.5740  -12.9860   20.2100 C   0  0  0  0  0
   20.3510  -14.2750   20.3420 C   0  0  0  0  0
   19.6450  -15.1480   21.3590 C   0  0  0  0  0
   17.6880  -14.7610   22.8690 C   0  0  0  0  0
   18.4080  -16.1500   24.9750 C   0  0  0  0  0
   17.7970  -16.1760   23.5460 C   0  0  0  0  0
   16.0080  -17.8050   22.9200 C   0  0  0  0  0
   14.5280  -18.1840   23.0170 C   0  0  0  0  0
   22.1770  -15.3420   24.8130 C   0  0  0  0  0
   22.2570  -14.2100   25.6020 C   0  0  0  0  0
   21.1000  -13.6840   26.1890 C   0  0  0  0  0
   19.8640  -14.2960   25.9680 C   0  0  0  0  0
   19.7670  -15.4480   25.1890 C   0  0  0  0  0
   20.9440  -15.9660   24.6050 C   0  0  0  0  0
   16.2180  -11.8740   20.4520 N   0  0  0  0  0
   10.3560  -12.8830   24.5780 N   0  0  0  0  0
   10.8390  -10.6520   24.8590 N   0  0  0  0  0
   18.5440  -14.3470   21.8890 N   0  0  0  0  0
   16.3990  -16.6990   23.5790 N   0  0  0  0  0
   13.9810  -10.6210   17.6720 O   0  0  0  0  0
   16.2960  -11.0270   17.5220 O   0  0  0  0  0
   16.8750  -13.8740   19.5370 O   0  0  0  0  0
   16.7520  -14.0420   23.2410 O   0  0  0  0  0
   16.7980  -18.5230   22.2770 O   0  0  0  0  0
   14.9872  -12.8156   19.1505 H   0  0  0  0  0
   13.4262  -12.6489   20.5402 H   0  0  0  0  0
   13.0659  -11.1774   19.3795 H   0  0  0  0  0
   13.4560   -9.7187   21.0554 H   0  0  0  0  0
   14.1575  -10.9772   22.1291 H   0  0  0  0  0
   11.3288  -11.4204   21.2125 H   0  0  0  0  0
   11.5816  -10.0927   22.3738 H   0  0  0  0  0
   13.0794  -11.9153   23.6120 H   0  0  0  0  0
   11.9686  -13.0517   22.7084 H   0  0  0  0  0
   18.3124  -12.2108   21.9406 H   0  0  0  0  0
   20.2220  -12.1404   20.4404 H   0  0  0  0  0
   19.2051  -12.8815   19.1897 H   0  0  0  0  0
   21.3702  -14.0676   20.6680 H   0  0  0  0  0
   20.4003  -14.7842   19.3795 H   0  0  0  0  0
   20.3255  -15.4552   22.1532 H   0  0  0  0  0
   19.2779  -16.0666   20.9012 H   0  0  0  0  0
   18.5872  -17.1957   25.2252 H   0  0  0  0  0
   17.6982  -15.5815   25.5759 H   0  0  0  0  0
   18.4796  -16.8070   22.9768 H   0  0  0  0  0
   14.0966  -18.2179   22.0166 H   0  0  0  0  0
   14.4350  -19.1628   23.4875 H   0  0  0  0  0
   14.0023  -17.4402   23.6158 H   0  0  0  0  0
   23.0772  -15.7487   24.3522 H   0  0  0  0  0
   23.2202  -13.7272   25.7671 H   0  0  0  0  0
   21.1637  -12.7966   26.8187 H   0  0  0  0  0
   18.9644  -13.8676   26.4100 H   0  0  0  0  0
   20.8901  -16.8615   23.9858 H   0  0  0  0  0
   16.3952  -11.1442   21.1423 H   0  0  0  0  0
    9.6494  -12.7727   25.3053 H   0  0  0  0  0
   10.1265  -10.5662   25.5838 H   0  0  0  0  0
   11.3942   -9.8394   24.5909 H   0  0  0  0  0
   15.7053  -16.1923   24.1289 H   0  0  0  0  0
   13.2623  -10.4271   18.2782 H   0  0  0  0  0
   17.1154  -11.1043   18.0161 H   0  0  0  0  0
  2  1  1  0  0  0
  1 29  1  0  0  0
  1 30  1  0  0  0
  2  3  1  0  0  0
 24  2  1  0  0  0
  3  4  1  0  0  0
  4  5  1  0  0  0
  5  6  1  0  0  0
  6  7  1  0  0  0
  7 25  2  0  0  0
  7 26  1  0  0  0
  8  9  1  0  0  0
  8 10  1  0  0  0
 27  8  1  0  0  0
  9 24  1  0  0  0
  9 31  2  0  0  0
 11 10  1  0  0  0
 12 11  1  0  0  0
 27 12  1  0  0  0
 15 13  1  0  0  0
 13 27  1  0  0  0
 13 32  2  0  0  0
 14 15  1  0  0  0
 22 14  1  0  0  0
 15 28  1  0  0  0
 16 17  1  0  0  0
 28 16  1  0  0  0
 16 33  2  0  0  0
 19 18  4  0  0  0
 18 23  4  0  0  0
 20 19  4  0  0  0
 21 20  4  0  0  0
 21 22  4  0  0  0
 22 23  4  0  0  0
  2 34  1  0  0  0
  3 35  1  0  0  0
  3 36  1  0  0  0
  4 37  1  0  0  0
  4 38  1  0  0  0
  5 39  1  0  0  0
  5 40  1  0  0  0
  6 41  1  0  0  0
  6 42  1  0  0  0
  8 43  1  0  0  0
 10 44  1  0  0  0
 10 45  1  0  0  0
 11 46  1  0  0  0
 11 47  1  0  0  0
 12 48  1  0  0  0
 12 49  1  0  0  0
 14 50  1  0  0  0
 14 51  1  0  0  0
 15 52  1  0  0  0
 17 53  1  0  0  0
 17 54  1  0  0  0
 17 55  1  0  0  0
 18 56  1  0  0  0
 19 57  1  0  0  0
 20 58  1  0  0  0
 21 59  1  0  0  0
 23 60  1  0  0  0
 24 61  1  0  0  0
 25 62  1  0  0  0
 26 63  1  0  0  0
 26 64  1  0  0  0
 28 65  1  0  0  0
 29 66  1  0  0  0
 30 67  1  0  0  0
M  END
$$$$
