5zni_ligand
  -I-interpret- 

 43 45  0  0  0  0  0  0  0  0999 V2000
   -5.3810   33.0040    7.1120 F   0  0  0  0  0
   -4.9430   31.7540    7.0920 C   0  0  0  0  0
   -5.5920   31.2460    6.0930 F   0  0  0  0  0
   -3.6570   31.8480    6.9960 F   0  0  0  0  0
   -5.1600   30.8060    8.1930 C   0  0  0  0  0
   -5.1550   29.4290    7.9380 C   0  0  0  0  0
   -5.3540   28.5450    8.9930 C   0  0  0  0  0
   -5.5600   29.0740   10.2960 C   0  0  0  0  0
   -5.5730   30.4330   10.5480 C   0  0  0  0  0
   -5.3600   31.3000    9.4690 C   0  0  0  0  0
   -5.3270   32.6470    9.6130 N   0  0  0  0  0
   -5.5130   33.1630   10.8410 C   0  0  0  0  0
   -5.5230   34.6540   11.0300 C   0  0  0  0  0
   -6.4880   35.1160   10.2910 F   0  0  0  0  0
   -5.6170   34.9990   12.3170 F   0  0  0  0  0
   -4.5360   35.2750   10.4460 F   0  0  0  0  0
   -5.7370   32.3340   11.9380 C   0  0  0  0  0
   -5.7610   30.9460   11.7990 C   0  0  0  0  0
   -6.0390   30.1180   13.0520 C   0  0  0  0  0
   -5.7960   30.9000   14.1400 O   0  0  0  0  0
   -7.5020   29.8350   13.2300 C   0  0  0  0  0
   -8.3130   31.1130   13.4060 C   0  0  0  0  0
   -9.8070   30.8060   13.3760 C   0  0  0  0  0
  -10.0830   29.8920   14.5570 C   0  0  0  0  0
   -9.1330   28.7570   14.4500 C   0  0  0  0  0
   -7.7740   29.1670   14.4280 N   0  3  0  0  0
   -4.9973   29.0551    6.9263 H   0  0  0  0  0
   -5.3520   27.4682    8.8240 H   0  0  0  0  0
   -5.7131   28.3838   11.1256 H   0  0  0  0  0
   -5.8961   32.7771   12.9211 H   0  0  0  0  0
   -5.4395   29.2127   12.9571 H   0  0  0  0  0
   -5.9655   30.3960   14.9392 H   0  0  0  0  0
   -7.7608   29.2618   12.3397 H   0  0  0  0  0
   -8.0758   31.7979   12.5919 H   0  0  0  0  0
   -8.0629   31.5616   14.3674 H   0  0  0  0  0
  -10.0884   30.3275   12.4380 H   0  0  0  0  0
  -10.3950   31.7212   13.4450 H   0  0  0  0  0
  -11.1138   29.5381   14.5413 H   0  0  0  0  0
   -9.9481   30.4236   15.4990 H   0  0  0  0  0
   -9.3381   28.2412   13.5119 H   0  0  0  0  0
   -9.2735   28.1243   15.3264 H   0  0  0  0  0
   -7.5977   29.7947   15.2124 H   0  0  0  0  0
   -7.1723   28.3467   14.5016 H   0  0  0  0  0
  1  2  1  0  0  0
  2  3  1  0  0  0
  2  4  1  0  0  0
  2  5  1  0  0  0
  5  6  4  0  0  0
  5 10  4  0  0  0
  6  7  4  0  0  0
  7  8  4  0  0  0
  8  9  4  0  0  0
  9 10  4  0  0  0
  9 18  4  0  0  0
 10 11  4  0  0  0
 11 12  4  0  0  0
 12 13  1  0  0  0
 12 17  4  0  0  0
 13 14  1  0  0  0
 13 15  1  0  0  0
 13 16  1  0  0  0
 17 18  4  0  0  0
 18 19  1  0  0  0
 19 20  1  0  0  0
 19 21  1  0  0  0
 21 22  1  0  0  0
 21 26  1  0  0  0
 22 23  1  0  0  0
 23 24  1  0  0  0
 24 25  1  0  0  0
 25 26  1  0  0  0
  6 27  1  0  0  0
  7 28  1  0  0  0
  8 29  1  0  0  0
 17 30  1  0  0  0
 19 31  1  0  0  0
 20 32  1  0  0  0
 21 33  1  0  0  0
 22 34  1  0  0  0
 22 35  1  0  0  0
 23 36  1  0  0  0
 23 37  1  0  0  0
 24 38  1  0  0  0
 24 39  1  0  0  0
 25 40  1  0  0  0
 25 41  1  0  0  0
 26 42  1  0  0  0
 26 43  1  0  0  0
M  END
$$$$
