5n9n_ligand
  -I-interpret- 

 42 45  0  0  0  0  0  0  0  0999 V2000
  -16.8340   24.2070   43.5340 C   0  0  0  0  0
  -16.7340   18.2510   46.6140 C   0  0  0  0  0
  -17.4240   15.7180   49.0710 C   0  0  0  0  0
  -16.6740   20.5960   45.3840 C   0  0  0  0  0
  -17.1390   21.6390   47.5070 C   0  0  0  0  0
  -16.7260   21.8420   44.7640 C   0  0  0  0  0
  -17.1830   22.8790   46.8890 C   0  0  0  0  0
  -16.5750   14.6570   48.4840 C   0  0  0  0  0
  -16.4030   14.0440   43.7300 C   0  0  0  0  0
  -17.0520   16.9680   48.6560 C   0  0  0  0  0
  -16.3070   12.6740   43.5930 C   0  0  0  0  0
  -16.8450   20.5050   46.7640 C   0  0  0  0  0
  -16.3080   11.9260   44.7510 C   0  0  0  0  0
  -16.9890   22.9860   45.5170 C   0  0  0  0  0
  -16.4050   12.5140   45.9980 C   0  0  0  0  0
  -16.7720   17.0410   47.2880 C   0  0  0  0  0
  -16.4930   14.5780   44.9440 C   0  0  0  0  0
  -16.6490   14.7060   47.0870 C   0  0  0  0  0
  -16.6420   15.9360   46.5560 C   0  0  0  0  0
  -16.4940   13.8460   46.0720 C   0  0  0  0  0
  -16.8760   19.3330   47.3740 N   0  0  0  0  0
  -17.2810   17.9760   49.3250 O   0  0  0  0  0
  -16.2160   10.5740   44.6630 O   0  0  0  0  0
  -17.0440   24.2260   44.9500 O   0  0  0  0  0
  -16.5890   15.8320   45.2760 O   0  0  0  0  0
  -16.1780   11.9500   42.0630 Cl  0  0  0  0  0
  -16.4050   11.5180   47.3960 Cl  0  0  0  0  0
  -15.8505   23.7889   43.3194 H   0  0  0  0  0
  -17.6017   23.5937   43.0623 H   0  0  0  0  0
  -16.8904   25.2240   43.1459 H   0  0  0  0  0
  -16.5970   18.3119   45.5344 H   0  0  0  0  0
  -17.3181   15.6755   50.1550 H   0  0  0  0  0
  -18.4513   15.5462   48.7498 H   0  0  0  0  0
  -16.5005   19.6968   44.7930 H   0  0  0  0  0
  -17.3352   21.5550   48.5759 H   0  0  0  0  0
  -16.5610   21.9231   43.6896 H   0  0  0  0  0
  -17.3706   23.7742   47.4818 H   0  0  0  0  0
  -16.9256   13.6842   48.8287 H   0  0  0  0  0
  -15.5416   14.8104   48.7949 H   0  0  0  0  0
  -16.4050   14.6843   42.8479 H   0  0  0  0  0
  -17.0033   19.2615   48.3835 H   0  0  0  0  0
  -16.2292   10.1954   45.5451 H   0  0  0  0  0
 24  1  1  0  0  0
 16  2  2  0  0  0
  2 21  1  0  0  0
  8  3  1  0  0  0
  3 10  1  0  0  0
  4  6  4  0  0  0
 12  4  4  0  0  0
  5  7  4  0  0  0
 12  5  4  0  0  0
  6 14  4  0  0  0
  7 14  4  0  0  0
 18  8  1  0  0  0
  9 11  4  0  0  0
 17  9  4  0  0  0
 16 10  1  0  0  0
 10 22  2  0  0  0
 13 11  4  0  0  0
 11 26  1  0  0  0
 21 12  1  0  0  0
 15 13  4  0  0  0
 13 23  1  0  0  0
 14 24  1  0  0  0
 20 15  4  0  0  0
 15 27  1  0  0  0
 19 16  1  0  0  0
 20 17  4  0  0  0
 17 25  4  0  0  0
 18 19  4  0  0  0
 18 20  4  0  0  0
 19 25  4  0  0  0
  1 28  1  0  0  0
  1 29  1  0  0  0
  1 30  1  0  0  0
  2 31  1  0  0  0
  3 32  1  0  0  0
  3 33  1  0  0  0
  4 34  1  0  0  0
  5 35  1  0  0  0
  6 36  1  0  0  0
  7 37  1  0  0  0
  8 38  1  0  0  0
  8 39  1  0  0  0
  9 40  1  0  0  0
 21 41  1  0  0  0
 23 42  1  0  0  0
M  END
$$$$
