4uuq_ligand
  -I-interpret- 

 37 38  0  0  0  0  0  0  0  0999 V2000
   28.4460   53.2410    7.3600 C   0  0  0  0  0
   29.0870   54.3000    9.4250 C   0  0  0  0  0
   29.0030   54.2850    6.6620 C   0  0  0  0  0
   29.6450   55.3370    8.7170 C   0  0  0  0  0
   28.4970   53.2730    8.7320 C   0  0  0  0  0
   29.5980   55.3220    7.3430 C   0  0  0  0  0
   20.7190   52.5670   12.1020 C   0  0  0  0  0
   23.6470   53.8430   10.4050 C   0  0  0  0  0
   23.5020   51.4240   10.1070 C   0  0  0  0  0
   22.1650   53.9190   10.6810 C   0  0  0  0  0
   22.0190   51.4390   10.3800 C   0  0  0  0  0
   23.8810   52.7180    9.4330 C   0  0  0  0  0
   25.3020   52.6940    8.9160 C   0  0  0  0  0
   21.6270   52.6390   11.0740 N   0  0  0  0  0
   26.2430   52.5600   10.0400 N   0  0  0  0  0
   20.1790   53.4910   12.6940 O   0  0  0  0  0
   27.6610   50.8290    8.7200 O   0  0  0  0  0
   28.5790   51.8320   10.8620 O   0  0  0  0  0
   27.7910   51.9340    9.6500 S   0  0  0  0  0
   30.2970   56.6310    6.4680 Cl  0  0  0  0  0
   27.9753   52.4080    6.8378 H   0  0  0  0  0
   29.1125   54.2933   10.5147 H   0  0  0  0  0
   28.9737   54.2918    5.5724 H   0  0  0  0  0
   30.1215   56.1656    9.2409 H   0  0  0  0  0
   20.4464   51.5640   12.4303 H   0  0  0  0  0
   24.1939   53.6616   11.3302 H   0  0  0  0  0
   24.0008   54.7843    9.9844 H   0  0  0  0  0
   23.7516   50.5824    9.4608 H   0  0  0  0  0
   24.0503   51.3191   11.0432 H   0  0  0  0  0
   21.6621   54.2362    9.7675 H   0  0  0  0  0
   22.0041   54.6235   11.4970 H   0  0  0  0  0
   21.7723   50.5805   11.0046 H   0  0  0  0  0
   21.4903   51.4004    9.4276 H   0  0  0  0  0
   23.2563   52.8667    8.5522 H   0  0  0  0  0
   25.5067   53.6237    8.3851 H   0  0  0  0  0
   25.4246   51.8462    8.2420 H   0  0  0  0  0
   25.9898   52.8233   10.9923 H   0  0  0  0  0
  1  3  4  0  0  0
  5  1  4  0  0  0
  2  4  4  0  0  0
  5  2  4  0  0  0
  3  6  4  0  0  0
  4  6  4  0  0  0
 19  5  1  0  0  0
  6 20  1  0  0  0
 14  7  1  0  0  0
  7 16  2  0  0  0
  8 10  1  0  0  0
 12  8  1  0  0  0
  9 11  1  0  0  0
 12  9  1  0  0  0
 10 14  1  0  0  0
 11 14  1  0  0  0
 13 12  1  0  0  0
 15 13  1  0  0  0
 15 19  1  0  0  0
 19 17  2  0  0  0
 19 18  2  0  0  0
  1 21  1  0  0  0
  2 22  1  0  0  0
  3 23  1  0  0  0
  4 24  1  0  0  0
  7 25  1  0  0  0
  8 26  1  0  0  0
  8 27  1  0  0  0
  9 28  1  0  0  0
  9 29  1  0  0  0
 10 30  1  0  0  0
 10 31  1  0  0  0
 11 32  1  0  0  0
 11 33  1  0  0  0
 12 34  1  0  0  0
 13 35  1  0  0  0
 13 36  1  0  0  0
 15 37  1  0  0  0
M  END
$$$$
