2bok_ligand
  -I-interpret- 

 62 65  0  0  0  0  0  0  0  0999 V2000
   -5.0950   11.6340   18.9560 O   0  0  0  0  0
   -4.7060   11.2860   20.0560 C   0  0  0  0  0
   -5.5700   10.9600   21.1340 N   0  0  0  0  0
   -6.9190   10.4250   20.7890 C   0  0  0  0  0
   -6.9610    9.0710   20.0690 C   0  0  0  0  0
   -8.2440    8.3320   20.4420 C   0  0  0  0  0
   -8.6360    7.1990   19.5760 N   0  3  0  0  0
   -8.5760    7.5310   18.1440 C   0  0  0  0  0
  -10.0290    6.8680   19.9030 C   0  0  0  0  0
   -7.7950    6.0180   19.8160 C   0  0  0  0  0
   -3.2560   11.1790   20.4060 C   0  0  0  0  0
   -3.2540   10.2160   21.5820 C   0  0  0  0  0
   -4.7240   10.1280   21.9190 C   0  0  0  0  0
   -5.1790    9.4220   22.7910 O   0  0  0  0  0
   -2.7990   12.5270   20.9470 C   0  0  0  0  0
   -1.5130   13.0570   20.3090 C   0  0  0  0  0
   -0.6510   13.5580   21.4600 C   0  0  0  0  0
   -1.3590   13.1400   22.7500 C   0  0  0  0  0
   -2.5680   12.3630   22.4020 N   0  3  0  0  0
   -2.3620   10.9120   22.6250 C   0  0  0  0  0
   -2.5200   10.4520   24.0380 C   0  0  0  0  0
   -3.4080   11.0590   24.9360 C   0  0  0  0  0
   -3.5220   10.5950   26.2500 C   0  0  0  0  0
   -2.7430    9.5130   26.6800 C   0  0  0  0  0
   -2.8860    9.0100   28.0880 C   0  0  0  0  0
   -2.3120    7.9490   28.5070 N   0  0  0  0  0
   -3.6760    9.6910   28.9020 N   0  0  0  0  0
   -1.8580    8.9050   25.7830 C   0  0  0  0  0
   -1.7380    9.3760   24.4740 C   0  0  0  0  0
   -7.3598   11.1450   20.0995 H   0  0  0  0  0
   -7.4342   10.2761   21.7380 H   0  0  0  0  0
   -6.0993    8.4746   20.3688 H   0  0  0  0  0
   -6.9366    9.2330   18.9914 H   0  0  0  0  0
   -9.0467    9.0646   20.3584 H   0  0  0  0  0
   -8.0683    7.9069   21.4302 H   0  0  0  0  0
   -8.9085    6.6733   17.5593 H   0  0  0  0  0
   -9.2249    8.3833   17.9425 H   0  0  0  0  0
   -7.5503    7.7815   17.8731 H   0  0  0  0  0
  -10.6654    7.7260   19.6864 H   0  0  0  0  0
  -10.3491    6.0160   19.3032 H   0  0  0  0  0
  -10.1027    6.6172   20.9612 H   0  0  0  0  0
   -8.1671    5.1821   19.2236 H   0  0  0  0  0
   -6.7676    6.2405   19.5276 H   0  0  0  0  0
   -7.8286    5.7585   20.8741 H   0  0  0  0  0
   -2.6296   10.8760   19.5670 H   0  0  0  0  0
   -2.8658    9.2052   21.4569 H   0  0  0  0  0
   -3.5773   13.2533   20.7129 H   0  0  0  0  0
   -1.7245   13.8548   19.5971 H   0  0  0  0  0
   -1.0025   12.2781   19.7426 H   0  0  0  0  0
   -0.5316   14.6405   21.4145 H   0  0  0  0  0
    0.3511   13.1320   21.4102 H   0  0  0  0  0
   -1.6411   14.0257   23.3193 H   0  0  0  0  0
   -0.6901   12.5293   23.3564 H   0  0  0  0  0
   -3.3420   12.6942   22.9779 H   0  0  0  0  0
   -1.3183   10.6351   22.4765 H   0  0  0  0  0
   -4.0161   11.9016   24.6068 H   0  0  0  0  0
   -4.2166   11.0749   26.9394 H   0  0  0  0  0
   -1.7258    7.4029   27.8756 H   0  0  0  0  0
   -3.8236    9.3678   29.8581 H   0  0  0  0  0
   -4.1374   10.5393   28.5735 H   0  0  0  0  0
   -1.2569    8.0561   26.1089 H   0  0  0  0  0
   -1.0331    8.9043   23.7894 H   0  0  0  0  0
  1  2  2  0  0  0
  2  3  1  0  0  0
  2 11  1  0  0  0
  3  4  1  0  0  0
  3 13  1  0  0  0
  4  5  1  0  0  0
  5  6  1  0  0  0
  6  7  1  0  0  0
  7  8  1  0  0  0
  7  9  1  0  0  0
  7 10  1  0  0  0
 11 12  1  0  0  0
 11 15  1  0  0  0
 12 13  1  0  0  0
 12 20  1  0  0  0
 13 14  2  0  0  0
 15 16  1  0  0  0
 15 19  1  0  0  0
 16 17  1  0  0  0
 17 18  1  0  0  0
 18 19  1  0  0  0
 19 20  1  0  0  0
 20 21  1  0  0  0
 21 22  4  0  0  0
 21 29  4  0  0  0
 22 23  4  0  0  0
 23 24  4  0  0  0
 24 25  1  0  0  0
 24 28  4  0  0  0
 25 26  2  0  0  0
 25 27  1  0  0  0
 28 29  4  0  0  0
  4 30  1  0  0  0
  4 31  1  0  0  0
  5 32  1  0  0  0
  5 33  1  0  0  0
  6 34  1  0  0  0
  6 35  1  0  0  0
  8 36  1  0  0  0
  8 37  1  0  0  0
  8 38  1  0  0  0
  9 39  1  0  0  0
  9 40  1  0  0  0
  9 41  1  0  0  0
 10 42  1  0  0  0
 10 43  1  0  0  0
 10 44  1  0  0  0
 11 45  1  0  0  0
 12 46  1  0  0  0
 15 47  1  0  0  0
 16 48  1  0  0  0
 16 49  1  0  0  0
 17 50  1  0  0  0
 17 51  1  0  0  0
 18 52  1  0  0  0
 18 53  1  0  0  0
 19 54  1  0  0  0
 20 55  1  0  0  0
 22 56  1  0  0  0
 23 57  1  0  0  0
 26 58  1  0  0  0
 27 59  1  0  0  0
 27 60  1  0  0  0
 28 61  1  0  0  0
 29 62  1  0  0  0
M  END
$$$$
