3lnk_ligand
  -I-interpret- 

 88 91  0  0  0  0  0  0  0  0999 V2000
   18.4900   13.3590   25.2480 C   0  0  0  0  0
   26.8380   10.8410   18.9120 F   0  0  0  0  0
   18.9890   12.1110   25.4530 N   0  0  0  0  0
   18.7770   14.0810   24.2960 O   0  0  0  0  0
   26.8970   14.3080   23.5050 C   0  0  0  0  0
   22.9970   13.3960   18.3660 F   0  0  0  0  0
   23.5040   11.7310   23.2950 N   0  0  0  0  0
   29.0280   13.7420   24.1420 O   0  0  0  0  0
   28.2720   13.8600   23.1470 C   0  0  0  0  0
   20.8220    9.9890   26.3000 N   0  3  0  0  0
   22.2150   13.5840   23.2130 O   0  0  0  0  0
   23.3010   13.0360   23.3900 C   0  0  0  0  0
   28.6280   13.5430   21.8730 N   0  0  0  0  0
   20.9410    8.9940   23.6350 O   0  0  0  0  0
   21.1780   10.8440   25.1400 C   0  0  0  0  0
   22.4520   10.7620   22.9250 C   0  0  0  0  0
   24.4740   13.8830   23.7000 C   0  0  0  0  0
   21.9070    9.9500   24.1180 C   0  0  0  0  0
   19.9420   11.5450   24.4770 C   0  0  0  0  0
   25.7670   13.4920   23.2220 C   0  0  0  0  0
   23.6990   10.6490   20.6760 C   0  0  0  0  0
   23.0310    9.8550   21.8090 C   0  0  0  0  0
   26.7270   15.5280   24.2230 C   0  0  0  0  0
   24.3090   15.1110   24.4430 C   0  0  0  0  0
   17.5390   13.9210   26.2380 C   0  0  0  0  0
   24.9680   12.1010   18.5590 C   0  0  0  0  0
   25.6270   11.0870   19.2590 C   0  0  0  0  0
   23.6460   12.4000   18.9710 C   0  0  0  0  0
   25.4670   15.9380   24.6970 C   0  0  0  0  0
   25.0450   10.3560   20.3280 C   0  0  0  0  0
   22.9880   11.6850   19.9960 C   0  0  0  0  0
   18.6520   11.1650   26.5710 C   0  0  0  0  0
   19.9690   10.6970   27.2830 C   0  0  0  0  0
   29.9450   12.9110   21.6220 C   0  0  0  0  0
   27.7720   13.9130   20.6930 C   0  0  0  0  0
   18.0740   14.6240   27.3720 C   0  0  0  0  0
   16.1270   13.7510   26.0570 C   0  0  0  0  0
   25.3310   17.2760   25.4790 C   0  0  0  0  0
   29.8600   11.4460   21.1230 C   0  0  0  0  0
   28.4620   14.9440   19.7640 C   0  0  0  0  0
   28.9420   10.5950   22.0150 C   0  0  0  0  0
   28.9060   16.2260   20.5150 C   0  0  0  0  0
   15.2220   14.2920   27.0130 C   0  0  0  0  0
   17.1700   15.1640   28.3300 C   0  0  0  0  0
   15.7550   14.9850   28.1420 C   0  0  0  0  0
   24.4399   11.3745   23.4883 H   0  0  0  0  0
   21.6862    9.7182   26.7694 H   0  0  0  0  0
   20.3005    9.1849   25.9510 H   0  0  0  0  0
   21.3585    8.4155   22.9926 H   0  0  0  0  0
   21.8145   11.6570   25.4892 H   0  0  0  0  0
   21.5791   11.3050   22.5627 H   0  0  0  0  0
   22.7598    9.4707   24.5988 H   0  0  0  0  0
   20.3195   12.3700   23.8728 H   0  0  0  0  0
   19.4087   10.7896   23.8999 H   0  0  0  0  0
   25.8839   12.5747   22.6450 H   0  0  0  0  0
   22.2041    9.2916   21.3767 H   0  0  0  0  0
   23.7911    9.2174   22.2604 H   0  0  0  0  0
   27.5956   16.1595   24.4096 H   0  0  0  0  0
   23.3258   15.4095   24.8067 H   0  0  0  0  0
   25.4467   12.6347   17.7379 H   0  0  0  0  0
   25.6122    9.5950   20.8641 H   0  0  0  0  0
   21.9575   11.9191   20.2631 H   0  0  0  0  0
   18.1326   10.2968   26.1654 H   0  0  0  0  0
   18.0118   11.6722   27.2928 H   0  0  0  0  0
   20.5019   11.5625   27.6768 H   0  0  0  0  0
   19.7237   10.0272   28.1072 H   0  0  0  0  0
   30.4820   12.8977   22.5705 H   0  0  0  0  0
   30.4363   13.4898   20.8399 H   0  0  0  0  0
   26.8525   14.3607   21.0701 H   0  0  0  0  0
   27.5859   13.0084   20.1141 H   0  0  0  0  0
   19.1506   14.7413   27.4959 H   0  0  0  0  0
   15.7479   13.2094   25.1904 H   0  0  0  0  0
   25.9514   17.2368   26.3743 H   0  0  0  0  0
   25.6573   18.1006   24.8452 H   0  0  0  0  0
   24.2894   17.4248   25.7635 H   0  0  0  0  0
   30.8609   11.0151   21.1496 H   0  0  0  0  0
   29.4503   11.4501   20.1129 H   0  0  0  0  0
   27.7435   15.2372   18.9985 H   0  0  0  0  0
   29.3536   14.4747   19.3482 H   0  0  0  0  0
   29.3304   10.5896   23.0334 H   0  0  0  0  0
   27.9379   11.0190   22.0100 H   0  0  0  0  0
   28.9090    9.5751   21.6319 H   0  0  0  0  0
   28.0336   16.7068   20.9576 H   0  0  0  0  0
   29.6129   15.9589   21.3006 H   0  0  0  0  0
   29.3825   16.9102   19.8129 H   0  0  0  0  0
   14.1453   14.1797   26.8861 H   0  0  0  0  0
   17.5460   15.7074   29.1969 H   0  0  0  0  0
   15.0682   15.3911   28.8846 H   0  0  0  0  0
  3  1  1  0  0  0
  1  4  2  0  0  0
  1 25  1  0  0  0
 27  2  1  0  0  0
 19  3  1  0  0  0
  3 32  1  0  0  0
  5  9  1  0  0  0
 20  5  4  0  0  0
  5 23  4  0  0  0
 28  6  1  0  0  0
  7 12  1  0  0  0
 16  7  1  0  0  0
  9  8  2  0  0  0
  9 13  1  0  0  0
 15 10  1  0  0  0
 10 33  1  0  0  0
 12 11  2  0  0  0
 12 17  1  0  0  0
 13 34  1  0  0  0
 13 35  1  0  0  0
 18 14  1  0  0  0
 18 15  1  0  0  0
 15 19  1  0  0  0
 16 18  1  0  0  0
 22 16  1  0  0  0
 17 20  4  0  0  0
 17 24  4  0  0  0
 21 22  1  0  0  0
 30 21  4  0  0  0
 21 31  4  0  0  0
 29 23  4  0  0  0
 24 29  4  0  0  0
 25 36  4  0  0  0
 25 37  4  0  0  0
 27 26  4  0  0  0
 26 28  4  0  0  0
 27 30  4  0  0  0
 28 31  4  0  0  0
 29 38  1  0  0  0
 32 33  1  0  0  0
 34 39  1  0  0  0
 35 40  1  0  0  0
 36 44  4  0  0  0
 37 43  4  0  0  0
 39 41  1  0  0  0
 40 42  1  0  0  0
 43 45  4  0  0  0
 44 45  4  0  0  0
  7 46  1  0  0  0
 10 47  1  0  0  0
 10 48  1  0  0  0
 14 49  1  0  0  0
 15 50  1  0  0  0
 16 51  1  0  0  0
 18 52  1  0  0  0
 19 53  1  0  0  0
 19 54  1  0  0  0
 20 55  1  0  0  0
 22 56  1  0  0  0
 22 57  1  0  0  0
 23 58  1  0  0  0
 24 59  1  0  0  0
 26 60  1  0  0  0
 30 61  1  0  0  0
 31 62  1  0  0  0
 32 63  1  0  0  0
 32 64  1  0  0  0
 33 65  1  0  0  0
 33 66  1  0  0  0
 34 67  1  0  0  0
 34 68  1  0  0  0
 35 69  1  0  0  0
 35 70  1  0  0  0
 36 71  1  0  0  0
 37 72  1  0  0  0
 38 73  1  0  0  0
 38 74  1  0  0  0
 38 75  1  0  0  0
 39 76  1  0  0  0
 39 77  1  0  0  0
 40 78  1  0  0  0
 40 79  1  0  0  0
 41 80  1  0  0  0
 41 81  1  0  0  0
 41 82  1  0  0  0
 42 83  1  0  0  0
 42 84  1  0  0  0
 42 85  1  0  0  0
 43 86  1  0  0  0
 44 87  1  0  0  0
 45 88  1  0  0  0
M  END
$$$$
