1m2r_ligand
  -I-interpret- 

 30 32  0  0  0  0  0  0  0  0999 V2000
   21.5130    7.6720   21.5810 C   0  0  0  0  0
   22.0260    7.7570   20.2360 C   0  0  0  0  0
   23.0010    6.7960   19.7840 C   0  0  0  0  0
   23.4540    5.7800   20.6920 C   0  0  0  0  0
   22.9340    5.7210   22.0060 C   0  0  0  0  0
   21.9770    6.6620   22.4480 C   0  0  0  0  0
   23.5400    6.8830   18.3890 C   0  0  0  0  0
   23.0600    7.9470   17.4510 C   0  0  0  0  0
   22.0770    8.9050   17.9020 C   0  0  0  0  0
   21.5390    8.8170   19.2950 C   0  0  0  0  0
   21.6190    9.9200   16.9970 C   0  0  0  0  0
   22.1450    9.9810   15.6890 C   0  0  0  0  0
   23.1090    9.0530   15.2480 C   0  0  0  0  0
   23.5750    8.0420   16.1080 C   0  0  0  0  0
   20.6980    9.6380   19.6810 O   0  0  0  0  0
   24.3850    6.0580   17.9990 O   0  0  0  0  0
   20.5630    8.5850   22.0650 O   0  0  0  0  0
   20.6610   10.8750   17.3780 N   0  0  0  0  0
   24.5640    7.1190   15.6050 N   0  0  0  0  0
   24.4300    4.7990   20.2930 O   0  0  0  0  0
   23.2755    4.9404   22.6858 H   0  0  0  0  0
   21.5946    6.6065   23.4672 H   0  0  0  0  0
   21.7997   10.7592   15.0084 H   0  0  0  0  0
   23.4971    9.1190   14.2316 H   0  0  0  0  0
   20.3460    8.3674   22.9745 H   0  0  0  0  0
   20.2715   10.8587   18.3206 H   0  0  0  0  0
   20.3552   11.5844   16.7120 H   0  0  0  0  0
   24.9177    6.3737   16.2048 H   0  0  0  0  0
   24.9092    7.2120   14.6497 H   0  0  0  0  0
   24.6065    4.2075   21.0282 H   0  0  0  0  0
  1  2  4  0  0  0
  1  6  4  0  0  0
  1 17  1  0  0  0
  2  3  4  0  0  0
  2 10  1  0  0  0
  3  4  4  0  0  0
  3  7  1  0  0  0
  4  5  4  0  0  0
  4 20  1  0  0  0
  5  6  4  0  0  0
  7  8  1  0  0  0
  7 16  2  0  0  0
  8  9  4  0  0  0
  8 14  4  0  0  0
  9 10  1  0  0  0
  9 11  4  0  0  0
 10 15  2  0  0  0
 11 12  4  0  0  0
 11 18  1  0  0  0
 12 13  4  0  0  0
 13 14  4  0  0  0
 14 19  1  0  0  0
  5 21  1  0  0  0
  6 22  1  0  0  0
 12 23  1  0  0  0
 13 24  1  0  0  0
 17 25  1  0  0  0
 18 26  1  0  0  0
 18 27  1  0  0  0
 19 28  1  0  0  0
 19 29  1  0  0  0
 20 30  1  0  0  0
M  END
$$$$
