3ivh_ligand
  -I-interpret- 

 73 75  0  0  0  0  0  0  0  0999 V2000
   13.2080   -4.5360   18.2520 C   0  0  0  0  0
   15.6830   -5.5280   16.0490 C   0  0  0  0  0
   13.4220   -6.5450   15.4070 C   0  0  0  0  0
   10.9310   -6.0910   15.2820 C   0  0  0  0  0
   10.4510   -7.6790   17.5070 C   0  0  0  0  0
   16.4400   -4.7730   17.1580 C   0  0  0  0  0
   18.8230   -4.4490   18.0190 C   0  0  0  0  0
   18.3630   -3.1590   18.7120 C   0  0  0  0  0
   19.3990   -2.5060   19.6350 C   0  0  0  0  0
   18.8690   -5.6940   18.8930 C   0  0  0  0  0
   18.9560   -8.0430   20.4340 C   0  0  0  0  0
   19.3470   -6.8890   18.3550 C   0  0  0  0  0
   10.2280   -8.4380   18.5820 F   0  0  0  0  0
   11.7510   -7.5270   17.0260 C   0  0  0  0  0
    9.3910   -7.0440   16.8750 C   0  0  0  0  0
    9.6320   -6.2580   15.7550 C   0  0  0  0  0
    8.6070   -5.6230   15.1510 F   0  0  0  0  0
   11.9990   -6.7290   15.9100 C   0  0  0  0  0
   14.2690   -5.9030   16.5060 C   0  0  0  0  0
   13.5850   -4.7050   16.9810 N   0  0  0  0  0
   13.4770   -5.3380   19.1160 O   0  0  0  0  0
   12.4310   -3.2930   18.5710 C   0  0  0  0  0
   16.4000   -6.6910   15.6900 O   0  0  0  0  0
   17.8760   -4.7100   16.9280 N   0  3  0  0  0
   20.7780   -2.3900   18.9880 C   0  0  0  0  0
   21.2150   -3.7330   18.4190 C   0  0  0  0  0
   20.1930   -4.2100   17.3920 C   0  0  0  0  0
   18.4330   -5.7000   20.2190 C   0  0  0  0  0
   19.4110   -8.0750   19.1090 C   0  0  0  0  0
   18.4810   -6.8700   20.9810 C   0  0  0  0  0
   19.9210   -9.3560   18.4800 C   0  0  0  0  0
   21.0730   -9.0790   17.5150 C   0  0  0  0  0
   20.4570  -10.3410   19.5220 C   0  0  0  0  0
   18.7590   -9.9850   17.7150 C   0  0  0  0  0
   15.5964   -4.8725   15.1824 H   0  0  0  0  0
   13.4172   -5.9009   14.5277 H   0  0  0  0  0
   13.8431   -7.5149   15.1422 H   0  0  0  0  0
   11.1137   -5.4568   14.4145 H   0  0  0  0  0
   16.2776   -5.3084   18.0935 H   0  0  0  0  0
   16.0628   -3.7506   17.1795 H   0  0  0  0  0
   17.5121   -3.4273   19.3382 H   0  0  0  0  0
   18.1508   -2.4387   17.9219 H   0  0  0  0  0
   19.4978   -3.1320   20.5218 H   0  0  0  0  0
   19.0526   -1.4986   19.8659 H   0  0  0  0  0
   18.9778   -8.9514   21.0361 H   0  0  0  0  0
   19.6815   -6.9043   17.3177 H   0  0  0  0  0
   12.5769   -8.0343   17.5247 H   0  0  0  0  0
    8.3761   -7.1612   17.2549 H   0  0  0  0  0
   14.3838   -6.6429   17.2981 H   0  0  0  0  0
   13.3852   -3.9617   16.3117 H   0  0  0  0  0
   11.4573   -3.5686   18.9760 H   0  0  0  0  0
   12.9780   -2.7028   19.3063 H   0  0  0  0  0
   12.2952   -2.7076   17.6616 H   0  0  0  0  0
   17.2835   -6.4458   15.4055 H   0  0  0  0  0
   17.9870   -3.9032   16.3138 H   0  0  0  0  0
   18.1133   -5.6540   16.6230 H   0  0  0  0  0
   21.4979   -2.0743   19.7431 H   0  0  0  0  0
   20.7292   -1.6616   18.1786 H   0  0  0  0  0
   21.2857   -4.4626   19.2257 H   0  0  0  0  0
   22.1874   -3.6240   17.9388 H   0  0  0  0  0
   20.0893   -3.4378   16.6297 H   0  0  0  0  0
   20.5453   -5.1523   16.9724 H   0  0  0  0  0
   18.0509   -4.7817   20.6649 H   0  0  0  0  0
   18.1402   -6.8553   22.0162 H   0  0  0  0  0
   20.7292   -8.4150   16.7219 H   0  0  0  0  0
   21.8930   -8.6068   18.0561 H   0  0  0  0  0
   21.4156  -10.0184   17.0811 H   0  0  0  0  0
   21.2812   -9.8797   20.0660 H   0  0  0  0  0
   19.6599  -10.6002   20.2189 H   0  0  0  0  0
   20.8102  -11.2420   19.0205 H   0  0  0  0  0
   17.9433  -10.1975   18.4061 H   0  0  0  0  0
   18.4147   -9.2930   16.9464 H   0  0  0  0  0
   19.0923  -10.9119   17.2483 H   0  0  0  0  0
 20  1  1  0  0  0
  1 21  2  0  0  0
  1 22  1  0  0  0
  2  6  1  0  0  0
 19  2  1  0  0  0
  2 23  1  0  0  0
  3 18  1  0  0  0
 19  3  1  0  0  0
  4 16  4  0  0  0
 18  4  4  0  0  0
  5 13  1  0  0  0
 14  5  4  0  0  0
  5 15  4  0  0  0
  6 24  1  0  0  0
  7  8  1  0  0  0
  7 10  1  0  0  0
 24  7  1  0  0  0
  7 27  1  0  0  0
  8  9  1  0  0  0
  9 25  1  0  0  0
 10 12  4  0  0  0
 10 28  4  0  0  0
 29 11  4  0  0  0
 11 30  4  0  0  0
 12 29  4  0  0  0
 18 14  4  0  0  0
 16 15  4  0  0  0
 16 17  1  0  0  0
 19 20  1  0  0  0
 25 26  1  0  0  0
 26 27  1  0  0  0
 28 30  4  0  0  0
 29 31  1  0  0  0
 31 32  1  0  0  0
 31 33  1  0  0  0
 31 34  1  0  0  0
  2 35  1  0  0  0
  3 36  1  0  0  0
  3 37  1  0  0  0
  4 38  1  0  0  0
  6 39  1  0  0  0
  6 40  1  0  0  0
  8 41  1  0  0  0
  8 42  1  0  0  0
  9 43  1  0  0  0
  9 44  1  0  0  0
 11 45  1  0  0  0
 12 46  1  0  0  0
 14 47  1  0  0  0
 15 48  1  0  0  0
 19 49  1  0  0  0
 20 50  1  0  0  0
 22 51  1  0  0  0
 22 52  1  0  0  0
 22 53  1  0  0  0
 23 54  1  0  0  0
 24 55  1  0  0  0
 24 56  1  0  0  0
 25 57  1  0  0  0
 25 58  1  0  0  0
 26 59  1  0  0  0
 26 60  1  0  0  0
 27 61  1  0  0  0
 27 62  1  0  0  0
 28 63  1  0  0  0
 30 64  1  0  0  0
 32 65  1  0  0  0
 32 66  1  0  0  0
 32 67  1  0  0  0
 33 68  1  0  0  0
 33 69  1  0  0  0
 33 70  1  0  0  0
 34 71  1  0  0  0
 34 72  1  0  0  0
 34 73  1  0  0  0
M  END
$$$$
