### 
### Created by X-TOOL on Mon Sep 10 21:13:33 2018
### 

@<TRIPOS>MOLECULE
5jpt_ligand
   39    40     1     0     0
SMALL
GAST_HUCK


@<TRIPOS>ATOM
      1 O3B       -14.3330  -26.5300   30.7120 O.co2     1 CDP        -0.5891
      2 PB        -14.3290  -26.1570   29.2350 P.3       1 CDP         0.2069
      3 O1B       -13.4900  -27.1650   28.4620 O.co2     1 CDP        -0.5891
      4 O2B       -15.7530  -26.1780   28.7050 O.co2     1 CDP        -0.5891
      5 O3A       -13.7190  -24.6900   29.0520 O.3       1 CDP        -0.1548
      6 PA        -12.7860  -23.9760   30.1610 P.3       1 CDP         0.3276
      7 O1A       -11.5900  -24.8350   30.4120 O.co2     1 CDP        -0.5556
      8 O2A       -13.5510  -23.7770   31.4440 O.co2     1 CDP        -0.5556
      9 O5'       -12.3220  -22.5760   29.6150 O.3       1 CDP        -0.2436
     10 C5'       -11.5190  -22.5530   28.4550 C.3       1 CDP         0.1131
     11 C4'       -10.7110  -21.2750   28.4470 C.3       1 CDP         0.1181
     12 O4'        -9.8980  -21.1580   29.8290 O.3       1 CDP        -0.3431
     13 C3'        -9.8660  -21.2920   27.4720 C.3       1 CDP         0.1141
     14 O3'        -9.8530  -19.9640   26.7940 O.3       1 CDP        -0.3864
     15 C2'        -8.4800  -21.5720   28.0950 C.3       1 CDP         0.1309
     16 O2'        -7.5280  -20.7500   27.5380 O.3       1 CDP        -0.3844
     17 C1'        -8.6160  -21.2530   29.5700 C.3       1 CDP         0.1753
     18 N1         -8.0120  -22.3510   30.3630 N.am      1 CDP        -0.2274
     19 C2         -6.6530  -22.2440   30.8790 C.2       1 CDP         0.2929
     20 O2         -5.9890  -21.2430   30.6690 O.2       1 CDP        -0.3905
     21 N3         -6.0780  -23.3540   31.6610 N.am      1 CDP        -0.2085
     22 C4         -6.8400  -24.5270   31.9150 C.2       1 CDP         0.1080
     23 N4         -6.2860  -25.5820   32.6630 N.pl3     1 CDP        -0.3235
     24 C5         -8.2080  -24.6400   31.3970 C.2       1 CDP        -0.0745
     25 C6         -8.7850  -23.5310   30.6140 C.3       1 CDP         0.0272
     26 H1        -12.1592  -22.5912   27.5613 H         1 CDP         0.0648
     27 H2        -10.8409  -23.4191   28.4575 H         1 CDP         0.0648
     28 H3        -11.3858  -20.4134   28.3366 H         1 CDP         0.0651
     29 H4        -10.1287  -22.0781   26.7488 H         1 CDP         0.0648
     30 H5         -9.2297  -19.9817   26.0773 H         1 CDP         0.2100
     31 H6         -8.1967  -22.6247   27.9483 H         1 CDP         0.0668
     32 H7         -7.4842  -20.9069   26.6021 H         1 CDP         0.2101
     33 H8         -8.1111  -20.3043   29.8044 H         1 CDP         0.0896
     34 H9         -5.1456  -23.2812   32.0151 H         1 CDP         0.2267
     35 H10        -6.8405  -26.4306   32.8454 H         1 CDP         0.1728
     36 H11        -5.3259  -25.5057   33.0282 H         1 CDP         0.1728
     37 H12        -8.7941  -25.5374   31.5895 H         1 CDP        -0.0093
     38 H13        -9.0597  -23.9450   29.6326 H         1 CDP         0.0511
     39 H14        -9.6937  -23.2083   31.1432 H         1 CDP         0.0511
@<TRIPOS>BOND
     1    1    2 ar 
     2    2    3 ar 
     3    2    4 ar 
     4    2    5 1  
     5    5    6 1  
     6    6    7 ar 
     7    6    8 ar 
     8    6    9 1  
     9    9   10 1  
    10   10   11 1  
    11   11   12 1  
    12   11   13 1  
    13   12   17 1  
    14   13   14 1  
    15   13   15 1  
    16   15   16 1  
    17   15   17 1  
    18   17   18 1  
    19   18   19 am 
    20   18   25 1  
    21   19   20 2  
    22   19   21 am 
    23   21   22 1  
    24   22   23 1  
    25   22   24 2  
    26   24   25 1  
    27   10   26 1  
    28   10   27 1  
    29   11   28 1  
    30   13   29 1  
    31   14   30 1  
    32   15   31 1  
    33   16   32 1  
    34   17   33 1  
    35   21   34 1  
    36   23   35 1  
    37   23   36 1  
    38   24   37 1  
    39   25   38 1  
    40   25   39 1  
@<TRIPOS>SUBSTRUCTURE
     1 CDP         1

