5jpt_ligand
  -I-interpret- 

 42 43  0  0  0  0  0  0  0  0999 V2000
  -14.3330  -26.5300   30.7120 O   0  0  0  0  0
  -14.3290  -26.1570   29.2350 P   0  0  0  0  0
  -13.4900  -27.1650   28.4620 O   0  0  0  0  0
  -15.7530  -26.1780   28.7050 O   0  0  0  0  0
  -13.7190  -24.6900   29.0520 O   0  0  0  0  0
  -12.7860  -23.9760   30.1610 P   0  0  0  0  0
  -11.5900  -24.8350   30.4120 O   0  0  0  0  0
  -13.5510  -23.7770   31.4440 O   0  0  0  0  0
  -12.3220  -22.5760   29.6150 O   0  0  0  0  0
  -11.5190  -22.5530   28.4550 C   0  0  0  0  0
  -10.7110  -21.2750   28.4470 C   0  0  0  0  0
   -9.8980  -21.1580   29.8290 O   0  0  0  0  0
   -9.8660  -21.2920   27.4720 C   0  0  0  0  0
   -9.8530  -19.9640   26.7940 O   0  0  0  0  0
   -8.4800  -21.5720   28.0950 C   0  0  0  0  0
   -7.5280  -20.7500   27.5380 O   0  0  0  0  0
   -8.6160  -21.2530   29.5700 C   0  0  0  0  0
   -8.0120  -22.3510   30.3630 N   0  0  0  0  0
   -6.6530  -22.2440   30.8790 C   0  0  0  0  0
   -5.9890  -21.2430   30.6690 O   0  0  0  0  0
   -6.0780  -23.3540   31.6610 N   0  0  0  0  0
   -6.8400  -24.5270   31.9150 C   0  0  0  0  0
   -6.2860  -25.5820   32.6630 N   0  0  0  0  0
   -8.2080  -24.6400   31.3970 C   0  0  0  0  0
   -8.7850  -23.5310   30.6140 C   0  0  0  0  0
  -13.4333  -26.5167   31.0467 H   0  0  0  0  0
  -12.5899  -27.1531   28.7955 H   0  0  0  0  0
  -14.3178  -23.2245   31.2756 H   0  0  0  0  0
  -12.1505  -22.5963   27.5677 H   0  0  0  0  0
  -10.8496  -23.4132   28.4520 H   0  0  0  0  0
  -11.3864  -20.4276   28.3291 H   0  0  0  0  0
  -10.1290  -22.0496   26.7338 H   0  0  0  0  0
   -9.2231  -19.9819   26.0698 H   0  0  0  0  0
   -8.1728  -22.6035   27.9226 H   0  0  0  0  0
   -6.6741  -20.9362   27.9352 H   0  0  0  0  0
   -8.1074  -20.3233   29.8253 H   0  0  0  0  0
   -5.1270  -23.2797   32.0222 H   0  0  0  0  0
   -6.8352  -26.4223   32.8438 H   0  0  0  0  0
   -5.3352  -25.5065   33.0245 H   0  0  0  0  0
   -8.7946  -25.5383   31.5896 H   0  0  0  0  0
   -8.9589  -23.9574   29.6260 H   0  0  0  0  0
   -9.6255  -23.1828   31.2143 H   0  0  0  0  0
  1  2  1  0  0  0
  2  3  1  0  0  0
  2  4  2  0  0  0
  2  5  1  0  0  0
  5  6  1  0  0  0
  6  7  2  0  0  0
  6  8  1  0  0  0
  6  9  1  0  0  0
  9 10  1  0  0  0
 10 11  1  0  0  0
 11 12  1  0  0  0
 11 13  1  0  0  0
 12 17  1  0  0  0
 13 14  1  0  0  0
 13 15  1  0  0  0
 15 16  1  0  0  0
 15 17  1  0  0  0
 17 18  1  0  0  0
 18 19  1  0  0  0
 18 25  1  0  0  0
 19 20  2  0  0  0
 19 21  1  0  0  0
 21 22  1  0  0  0
 22 23  1  0  0  0
 22 24  2  0  0  0
 24 25  1  0  0  0
  1 26  1  0  0  0
  3 27  1  0  0  0
  8 28  1  0  0  0
 10 29  1  0  0  0
 10 30  1  0  0  0
 11 31  1  0  0  0
 13 32  1  0  0  0
 14 33  1  0  0  0
 15 34  1  0  0  0
 16 35  1  0  0  0
 17 36  1  0  0  0
 21 37  1  0  0  0
 23 38  1  0  0  0
 23 39  1  0  0  0
 24 40  1  0  0  0
 25 41  1  0  0  0
 25 42  1  0  0  0
M  END
$$$$
