3l4w_ligand
  -I-interpret- 

 32 32  0  0  0  0  0  0  0  0999 V2000
   42.5010   89.4750   34.0700 O   0  0  0  0  0
   43.5400   94.0540   36.2930 O   0  0  0  0  0
   47.3420   92.1970   32.1470 O   0  0  0  0  0
   48.4860   93.7590   34.4000 O   0  0  0  0  0
   47.2460   93.4380   36.8280 O   0  0  0  0  0
   43.2230   90.2150   35.0500 C   0  0  0  0  0
   44.2640   92.9360   36.8730 C   0  0  0  0  0
   43.2040   91.6700   34.5750 C   0  0  0  0  0
   45.3800   91.6950   33.4780 C   0  0  0  0  0
   46.5700   92.6560   33.2520 C   0  0  0  0  0
   47.3930   92.8210   34.5360 C   0  0  0  0  0
   46.4630   93.3330   35.6540 C   0  0  0  0  0
   45.2510   92.3900   35.8350 C   0  0  0  0  0
   44.5500   92.2830   34.5170 N   0  3  0  0  0
   42.4818   88.5484   34.3203 H   0  0  0  0  0
   42.9196   94.4012   36.9381 H   0  0  0  0  0
   48.0814   92.7926   32.0052 H   0  0  0  0  0
   48.9607   93.8184   35.2323 H   0  0  0  0  0
   46.6980   93.7556   37.5494 H   0  0  0  0  0
   44.2433   89.8455   35.1524 H   0  0  0  0  0
   42.7686   90.1146   36.0357 H   0  0  0  0  0
   43.5626   92.1531   37.1614 H   0  0  0  0  0
   44.8068   93.2683   37.7579 H   0  0  0  0  0
   42.6112   92.2423   35.2885 H   0  0  0  0  0
   42.7920   91.6823   33.5659 H   0  0  0  0  0
   45.7328   90.7084   33.7785 H   0  0  0  0  0
   44.8105   91.5633   32.5580 H   0  0  0  0  0
   46.2020   93.6519   33.0053 H   0  0  0  0  0
   47.8222   91.8458   34.7660 H   0  0  0  0  0
   46.0442   94.3080   35.4051 H   0  0  0  0  0
   45.6071   91.4202   36.1825 H   0  0  0  0  0
   44.3814   93.2530   34.2505 H   0  0  0  0  0
  6  1  1  0  0  0
  7  2  1  0  0  0
 10  3  1  0  0  0
 11  4  1  0  0  0
 12  5  1  0  0  0
  8  6  1  0  0  0
 13  7  1  0  0  0
 14  8  1  0  0  0
 10  9  1  0  0  0
  9 14  1  0  0  0
 11 10  1  0  0  0
 12 11  1  0  0  0
 12 13  1  0  0  0
 13 14  1  0  0  0
  1 15  1  0  0  0
  2 16  1  0  0  0
  3 17  1  0  0  0
  4 18  1  0  0  0
  5 19  1  0  0  0
  6 20  1  0  0  0
  6 21  1  0  0  0
  7 22  1  0  0  0
  7 23  1  0  0  0
  8 24  1  0  0  0
  8 25  1  0  0  0
  9 26  1  0  0  0
  9 27  1  0  0  0
 10 28  1  0  0  0
 11 29  1  0  0  0
 12 30  1  0  0  0
 13 31  1  0  0  0
 14 32  1  0  0  0
M  END
$$$$
