5lsc_ligand
  -I-interpret- 

 40 43  0  0  0  0  0  0  0  0999 V2000
  -32.7430   -5.6260    9.3850 C   0  0  0  0  0
  -32.9140  -10.5760   11.3680 C   0  0  0  0  0
  -35.3350  -10.7050   10.8890 C   0  0  0  0  0
  -36.9630  -11.7490    9.2500 C   0  0  0  0  0
  -38.9090  -11.0960   10.5580 C   0  0  0  0  0
  -39.1770  -12.2900    8.4810 C   0  0  0  0  0
  -30.9910   -7.7470   10.6600 N   0  0  0  0  0
  -30.1890   -8.8270   10.6030 C   0  0  0  0  0
  -29.4160   -8.7300    9.5320 N   0  0  0  0  0
  -29.7210   -7.5830    8.8940 N   0  0  0  0  0
  -30.6860   -6.9930    9.5870 C   0  0  0  0  0
  -31.3620   -5.6850    9.2870 C   0  0  0  0  0
  -31.2870   -3.3690    8.7330 C   0  0  0  0  0
  -32.6650   -3.3060    8.7920 C   0  0  0  0  0
  -33.3980   -4.4380    9.1320 C   0  0  0  0  0
  -30.6270   -4.5610    8.9780 C   0  0  0  0  0
  -29.1290   -4.5950    8.8900 C   0  0  0  0  0
  -28.5510   -5.2580    7.9930 O   0  0  0  0  0
  -28.4690   -3.9000    9.7120 O   0  0  0  0  0
  -30.1880  -10.1100   11.8090 S   0  0  0  0  0
  -31.8640  -10.1440   12.3900 C   0  0  0  0  0
  -34.2550  -10.2860   11.6920 N   0  0  0  0  0
  -32.6320  -11.1120   10.3000 O   0  0  0  0  0
  -35.2660  -11.5590    9.4260 S   0  0  0  0  0
  -36.6010  -10.5870   11.2680 N   0  0  0  0  0
  -37.5210  -11.1290   10.3810 C   0  0  0  0  0
  -37.7920  -12.3250    8.3040 C   0  0  0  0  0
  -39.7360  -11.6800    9.6110 C   0  0  0  0  0
  -33.3101   -6.5150    9.6610 H   0  0  0  0  0
  -39.3377  -10.6134   11.4363 H   0  0  0  0  0
  -39.8287  -12.7415    7.7330 H   0  0  0  0  0
  -30.7145   -2.4734    8.4917 H   0  0  0  0  0
  -33.1780   -2.3697    8.5723 H   0  0  0  0  0
  -34.4848   -4.3871    9.1983 H   0  0  0  0  0
  -29.0725   -3.4664   10.3197 H   0  0  0  0  0
  -31.8961  -10.8797   13.1937 H   0  0  0  0  0
  -32.1124   -9.1210   12.6725 H   0  0  0  0  0
  -34.4511   -9.7530   12.5393 H   0  0  0  0  0
  -37.3655  -12.8048    7.4231 H   0  0  0  0  0
  -40.8176  -11.6645    9.7454 H   0  0  0  0  0
 12  1  4  0  0  0
  1 15  4  0  0  0
 21  2  1  0  0  0
  2 22  1  0  0  0
  2 23  2  0  0  0
 22  3  1  0  0  0
  3 24  4  0  0  0
  3 25  4  0  0  0
 24  4  4  0  0  0
  4 26  4  0  0  0
  4 27  4  0  0  0
 26  5  4  0  0  0
  5 28  4  0  0  0
 27  6  4  0  0  0
  6 28  4  0  0  0
  8  7  4  0  0  0
  7 11  4  0  0  0
  8  9  4  0  0  0
 20  8  1  0  0  0
  9 10  4  0  0  0
 10 11  4  0  0  0
 11 12  1  0  0  0
 12 16  4  0  0  0
 13 14  4  0  0  0
 16 13  4  0  0  0
 15 14  4  0  0  0
 16 17  1  0  0  0
 17 18  2  0  0  0
 17 19  1  0  0  0
 20 21  1  0  0  0
 25 26  4  0  0  0
  1 29  1  0  0  0
  5 30  1  0  0  0
  6 31  1  0  0  0
 13 32  1  0  0  0
 14 33  1  0  0  0
 15 34  1  0  0  0
 19 35  1  0  0  0
 21 36  1  0  0  0
 21 37  1  0  0  0
 22 38  1  0  0  0
 27 39  1  0  0  0
 28 40  1  0  0  0
M  END
$$$$
