3vv7_ligand
  -I-interpret- 

 47 50  0  0  0  0  0  0  0  0999 V2000
  -15.9190  -42.5680  -10.5060 O   0  0  0  0  0
  -15.9080  -41.5710   -9.7390 C   0  0  0  0  0
  -15.5030  -41.7340   -8.3890 N   0  0  0  0  0
  -15.1220  -43.0760   -7.9240 C   0  0  0  0  0
  -15.4950  -40.5980   -7.5260 C   0  0  0  0  0
  -15.1090  -40.7460   -6.2170 N   0  0  0  0  0
  -15.8760  -39.3700   -8.0190 N   0  0  0  0  0
  -16.2780  -39.2020   -9.3200 C   0  0  0  0  0
  -16.2890  -40.3040  -10.1980 C   0  0  0  0  0
  -16.6700  -37.8580   -9.8340 C   0  0  0  0  0
  -17.5800  -37.9910  -11.0690 C   0  0  0  0  0
  -18.1540  -37.4340   -9.7690 C   0  0  0  0  0
  -19.1790  -38.3200   -9.1240 C   0  0  0  0  0
  -20.2210  -38.8950   -9.8730 C   0  0  0  0  0
  -21.1950  -39.6960   -9.2640 C   0  0  0  0  0
  -21.1530  -39.9140   -7.8880 C   0  0  0  0  0
  -20.1290  -39.3320   -7.1310 C   0  0  0  0  0
  -19.1610  -38.5300   -7.7390 C   0  0  0  0  0
  -20.0920  -39.5630   -5.6630 C   0  0  0  0  0
  -19.5490  -38.6110   -4.7940 C   0  0  0  0  0
  -19.5410  -38.8580   -3.4200 C   0  0  0  0  0
  -20.1000  -40.0390   -2.9260 C   0  0  0  0  0
  -20.6420  -40.9900   -3.7890 C   0  0  0  0  0
  -20.6380  -40.7370   -5.1580 C   0  0  0  0  0
  -21.1810  -42.1640   -3.2940 O   0  0  0  0  0
  -21.3380  -43.3460   -4.0910 C   0  0  0  0  0
  -14.0942  -43.0554   -7.5617 H   0  0  0  0  0
  -15.7872  -43.3817   -7.1164 H   0  0  0  0  0
  -15.2032  -43.7821   -8.7504 H   0  0  0  0  0
  -15.1014  -39.9390   -5.5932 H   0  0  0  0  0
  -17.3365  -40.4194  -10.4763 H   0  0  0  0  0
  -15.5465  -40.0549  -10.9562 H   0  0  0  0  0
  -15.7520  -37.3501   -9.5382 H   0  0  0  0  0
  -17.8354  -38.7448  -11.8137 H   0  0  0  0  0
  -17.5589  -37.7291  -12.1269 H   0  0  0  0  0
  -18.6393  -36.5208   -9.4245 H   0  0  0  0  0
  -20.2715  -38.7140  -10.9467 H   0  0  0  0  0
  -21.9842  -40.1480   -9.8648 H   0  0  0  0  0
  -21.9104  -40.5319   -7.4057 H   0  0  0  0  0
  -18.3854  -38.0638   -7.1313 H   0  0  0  0  0
  -19.1349  -37.6825   -5.1869 H   0  0  0  0  0
  -19.1006  -38.1327   -2.7359 H   0  0  0  0  0
  -20.1125  -40.2193   -1.8511 H   0  0  0  0  0
  -21.0683  -41.4685   -5.8420 H   0  0  0  0  0
  -21.9883  -43.1278   -4.9381 H   0  0  0  0  0
  -20.3627  -43.6700   -4.4541 H   0  0  0  0  0
  -21.7819  -44.1354   -3.4844 H   0  0  0  0  0
  1  2  2  0  0  0
  2  3  1  0  0  0
  2  9  1  0  0  0
  3  4  1  0  0  0
  3  5  1  0  0  0
  5  6  2  0  0  0
  5  7  1  0  0  0
  7  8  2  0  0  0
  8  9  1  0  0  0
  8 10  1  0  0  0
 10 11  1  0  0  0
 10 12  1  0  0  0
 11 12  1  0  0  0
 12 13  1  0  0  0
 13 14  4  0  0  0
 13 18  4  0  0  0
 14 15  4  0  0  0
 15 16  4  0  0  0
 16 17  4  0  0  0
 17 18  4  0  0  0
 17 19  1  0  0  0
 19 20  4  0  0  0
 19 24  4  0  0  0
 20 21  4  0  0  0
 21 22  4  0  0  0
 22 23  4  0  0  0
 23 24  4  0  0  0
 23 25  1  0  0  0
 25 26  1  0  0  0
  4 27  1  0  0  0
  4 28  1  0  0  0
  4 29  1  0  0  0
  6 30  1  0  0  0
  9 31  1  0  0  0
  9 32  1  0  0  0
 10 33  1  0  0  0
 11 34  1  0  0  0
 11 35  1  0  0  0
 12 36  1  0  0  0
 14 37  1  0  0  0
 15 38  1  0  0  0
 16 39  1  0  0  0
 18 40  1  0  0  0
 20 41  1  0  0  0
 21 42  1  0  0  0
 22 43  1  0  0  0
 24 44  1  0  0  0
 26 45  1  0  0  0
 26 46  1  0  0  0
 26 47  1  0  0  0
M  END
$$$$
