### 
### Created by X-TOOL on Mon Sep 10 21:13:11 2018
### 

@<TRIPOS>MOLECULE
3vv7_ligand
   47    50     1     0     0
SMALL
GAST_HUCK


@<TRIPOS>ATOM
      1 O1        -15.9190  -42.5680  -10.5060 O.2       1 0B1        -0.3763
      2 C1        -15.9080  -41.5710   -9.7390 C.2       1 0B1         0.2415
      3 N2        -15.5030  -41.7340   -8.3890 N.am      1 0B1        -0.1847
      4 C5        -15.1220  -43.0760   -7.9240 C.3       1 0B1         0.0551
      5 C4        -15.4950  -40.5980   -7.5260 C.2       1 0B1         0.1652
      6 N3        -15.1090  -40.7460   -6.2170 N.2       1 0B1        -0.3964
      7 N1        -15.8760  -39.3700   -8.0190 N.2       1 0B1        -0.2513
      8 C3        -16.2780  -39.2020   -9.3200 C.2       1 0B1         0.0707
      9 C2        -16.2890  -40.3040  -10.1980 C.3       1 0B1         0.1190
     10 C6        -16.6700  -37.8580   -9.8340 C.3       1 0B1         0.0498
     11 C21       -17.5800  -37.9910  -11.0690 C.3       1 0B1        -0.0109
     12 C7        -18.1540  -37.4340   -9.7690 C.3       1 0B1         0.0201
     13 C8        -19.1790  -38.3200   -9.1240 C.ar      1 0B1        -0.0354
     14 C13       -20.2210  -38.8950   -9.8730 C.ar      1 0B1        -0.0596
     15 C12       -21.1950  -39.6960   -9.2640 C.ar      1 0B1        -0.0677
     16 C11       -21.1530  -39.9140   -7.8880 C.ar      1 0B1        -0.0610
     17 C10       -20.1290  -39.3320   -7.1310 C.ar      1 0B1        -0.0274
     18 C9        -19.1610  -38.5300   -7.7390 C.ar      1 0B1        -0.0525
     19 C14       -20.0920  -39.5630   -5.6630 C.ar      1 0B1        -0.0286
     20 C20       -19.5490  -38.6110   -4.7940 C.ar      1 0B1        -0.0651
     21 C19       -19.5410  -38.8580   -3.4200 C.ar      1 0B1        -0.0697
     22 C18       -20.1000  -40.0390   -2.9260 C.ar      1 0B1        -0.0329
     23 C16       -20.6420  -40.9900   -3.7890 C.ar      1 0B1         0.0911
     24 C15       -20.6380  -40.7370   -5.1580 C.ar      1 0B1        -0.0260
     25 O2        -21.1810  -42.1640   -3.2940 O.3       1 0B1        -0.3214
     26 C17       -21.3380  -43.3460   -4.0910 C.3       1 0B1         0.0593
     27 H         -14.0942  -43.0554   -7.5617 H         1 0B1         0.0572
     28 H         -15.7872  -43.3817   -7.1164 H         1 0B1         0.0572
     29 H         -15.2032  -43.7821   -8.7504 H         1 0B1         0.0572
     30 H         -15.1014  -39.9390   -5.5932 H         1 0B1         0.0506
     31 H         -17.3365  -40.4194  -10.4763 H         1 0B1         0.0835
     32 H         -15.5465  -40.0549  -10.9562 H         1 0B1         0.0835
     33 H         -15.7520  -37.3501   -9.5382 H         1 0B1         0.0651
     34 H         -17.8354  -38.7448  -11.8137 H         1 0B1         0.0336
     35 H         -17.5589  -37.7291  -12.1269 H         1 0B1         0.0336
     36 H         -18.6393  -36.5208   -9.4245 H         1 0B1         0.0506
     37 H         -20.2715  -38.7140  -10.9467 H         1 0B1         0.0559
     38 H         -21.9842  -40.1480   -9.8648 H         1 0B1         0.0600
     39 H         -21.9104  -40.5319   -7.4057 H         1 0B1         0.0567
     40 H         -18.3854  -38.0638   -7.1313 H         1 0B1         0.0560
     41 H         -19.1349  -37.6825   -5.1869 H         1 0B1         0.0532
     42 H         -19.1006  -38.1327   -2.7359 H         1 0B1         0.0590
     43 H         -20.1125  -40.2193   -1.8511 H         1 0B1         0.0545
     44 H         -21.0683  -41.4685   -5.8420 H         1 0B1         0.0544
     45 H         -21.9883  -43.1278   -4.9381 H         1 0B1         0.0577
     46 H         -20.3627  -43.6700   -4.4541 H         1 0B1         0.0577
     47 H         -21.7819  -44.1354   -3.4844 H         1 0B1         0.0577
@<TRIPOS>BOND
     1    1    2 2  
     2    2    3 am 
     3    2    9 1  
     4    3    4 1  
     5    3    5 1  
     6    5    6 2  
     7    5    7 1  
     8    7    8 2  
     9    8    9 1  
    10    8   10 1  
    11   10   11 1  
    12   10   12 1  
    13   11   12 1  
    14   12   13 1  
    15   13   14 ar 
    16   13   18 ar 
    17   14   15 ar 
    18   15   16 ar 
    19   16   17 ar 
    20   17   18 ar 
    21   17   19 1  
    22   19   20 ar 
    23   19   24 ar 
    24   20   21 ar 
    25   21   22 ar 
    26   22   23 ar 
    27   23   24 ar 
    28   23   25 1  
    29   25   26 1  
    30    4   27 1  
    31    4   28 1  
    32    4   29 1  
    33    6   30 1  
    34    9   31 1  
    35    9   32 1  
    36   10   33 1  
    37   11   34 1  
    38   11   35 1  
    39   12   36 1  
    40   14   37 1  
    41   15   38 1  
    42   16   39 1  
    43   18   40 1  
    44   20   41 1  
    45   21   42 1  
    46   22   43 1  
    47   24   44 1  
    48   26   45 1  
    49   26   46 1  
    50   26   47 1  
@<TRIPOS>SUBSTRUCTURE
     1 0B1         1

