5g1c_ligand
  -I-interpret- 

 39 40  0  0  0  0  0  0  0  0999 V2000
    9.2760   63.1930   24.4950 C   0  0  0  0  0
   10.3800   62.4010   23.9050 C   0  0  0  0  0
   11.4400   58.9390   23.9360 C   0  0  0  0  0
   12.6490   58.2780   23.8110 C   0  0  0  0  0
   12.6960   56.8980   23.6140 C   0  0  0  0  0
   11.5150   56.1320   23.5160 C   0  0  0  0  0
   11.5120   54.6500   23.2880 C   0  0  0  0  0
   12.6560   53.9810   23.1640 C   0  0  0  0  0
   12.7810   52.5430   22.8820 C   0  0  0  0  0
   10.2980   56.8010   23.6390 C   0  0  0  0  0
   10.2590   58.1840   23.8320 C   0  0  0  0  0
   11.3790   63.3020   23.2900 C   0  0  0  0  0
    8.0310   62.7580   25.2150 C   0  0  0  0  0
   12.6490   62.9470   22.5650 C   0  0  0  0  0
   11.8820   51.7280   22.8620 O   0  0  0  0  0
   13.9720   52.1850   22.4870 N   0  0  0  0  0
   14.1600   51.1310   21.6710 O   0  0  0  0  0
   11.4550   60.3460   24.1160 N   0  0  0  0  0
   10.4560   61.0350   23.8290 N   0  0  0  0  0
   10.8960   64.5480   23.5430 N   0  0  0  0  0
    9.6720   64.4500   24.2490 N   0  0  0  0  0
    9.0660   65.7670   24.5690 C   0  0  0  0  0
   13.5787   58.8442   23.8673 H   0  0  0  0  0
   13.6633   56.4019   23.5342 H   0  0  0  0  0
   10.5642   54.1156   23.2232 H   0  0  0  0  0
   13.5797   54.5477   23.2816 H   0  0  0  0  0
    9.3661   56.2383   23.5839 H   0  0  0  0  0
    9.2947   58.6870   23.9033 H   0  0  0  0  0
    7.4323   62.1296   24.5556 H   0  0  0  0  0
    8.3065   62.1934   26.1057 H   0  0  0  0  0
    7.4543   63.6366   25.5041 H   0  0  0  0  0
   13.3052   62.3915   23.2350 H   0  0  0  0  0
   12.4106   62.3332   21.6964 H   0  0  0  0  0
   13.1479   63.8601   22.2403 H   0  0  0  0  0
   14.7817   52.7177   22.8048 H   0  0  0  0  0
   15.0980   51.0275   21.4947 H   0  0  0  0  0
    8.0846   65.8375   24.1000 H   0  0  0  0  0
    8.9615   65.8645   25.6496 H   0  0  0  0  0
    9.7085   66.5625   24.1915 H   0  0  0  0  0
  2  1  4  0  0  0
  1 13  1  0  0  0
  1 21  4  0  0  0
  2 12  4  0  0  0
 19  2  1  0  0  0
  3  4  4  0  0  0
  3 11  4  0  0  0
 18  3  1  0  0  0
  4  5  4  0  0  0
  5  6  4  0  0  0
  6  7  1  0  0  0
 10  6  4  0  0  0
  7  8  2  0  0  0
  8  9  1  0  0  0
  9 15  2  0  0  0
  9 16  1  0  0  0
 11 10  4  0  0  0
 12 14  1  0  0  0
 12 20  4  0  0  0
 16 17  1  0  0  0
 18 19  2  0  0  0
 20 21  4  0  0  0
 21 22  1  0  0  0
  4 23  1  0  0  0
  5 24  1  0  0  0
  7 25  1  0  0  0
  8 26  1  0  0  0
 10 27  1  0  0  0
 11 28  1  0  0  0
 13 29  1  0  0  0
 13 30  1  0  0  0
 13 31  1  0  0  0
 14 32  1  0  0  0
 14 33  1  0  0  0
 14 34  1  0  0  0
 16 35  1  0  0  0
 17 36  1  0  0  0
 22 37  1  0  0  0
 22 38  1  0  0  0
 22 39  1  0  0  0
M  END
$$$$
