4i12_ligand
  -I-interpret- 

 64 68  0  0  0  0  0  0  0  0999 V2000
    9.9810  -11.2150    4.3850 Cl  0  0  0  0  0
   10.2980  -12.6850    5.3870 C   0  0  0  0  0
    9.6420  -13.9080    5.1110 C   0  0  0  0  0
    9.8880  -15.0330    5.9210 C   0  0  0  0  0
   10.7580  -14.8680    6.9950 C   0  0  0  0  0
   11.0070  -16.0470    7.8810 C   0  0  0  0  0
   11.5550  -15.8350    8.9990 N   0  0  0  0  0
   11.5380  -14.4460    9.3660 C   0  0  0  0  0
   12.6600  -14.5370   10.4690 C   0  0  0  0  0
   10.5110  -13.8740   10.3470 C   0  0  0  0  0
   12.2820  -13.5050    8.4920 C   0  0  0  0  0
   11.4090  -13.6440    7.2660 C   0  0  0  0  0
   11.1660  -12.5230    6.4850 C   0  0  0  0  0
   10.7190  -17.2650    7.4280 N   0  0  0  0  0
   10.7420  -18.4690    8.1950 C   0  0  0  0  0
    9.2860  -18.8990    8.4760 C   0  0  0  0  0
    8.7080  -17.9920    9.5580 C   0  0  0  0  0
    7.7700  -16.8010    9.4450 C   0  0  0  0  0
    7.3830  -16.0800   10.5430 C   0  0  0  0  0
    8.1410  -16.8760   11.8430 S   0  0  0  0  0
    9.0280  -18.1320   10.9810 C   0  0  0  0  0
    9.8940  -19.1720   11.6710 C   0  0  0  0  0
   10.0040  -19.1470   13.1910 C   0  0  0  0  0
   10.6750  -20.4550   13.6360 C   0  0  0  0  0
    7.2890  -16.3070    8.1490 C   0  0  0  0  0
    7.0330  -14.9680    7.8930 C   0  0  0  0  0
    6.6640  -14.9400    6.5680 N   0  0  0  0  0
    6.7280  -16.2800    6.0800 N   0  0  0  0  0
    7.1060  -17.1290    7.0600 C   0  0  0  0  0
   11.3810  -19.5060    7.2930 C   0  0  0  0  0
   11.3200  -20.8030    7.6050 N   0  0  0  0  0
   11.8500  -21.7740    6.7930 C   0  0  0  0  0
   12.4210  -21.4130    5.5590 C   0  0  0  0  0
   12.4600  -20.0450    5.2410 C   0  0  0  0  0
   11.9160  -19.1420    6.1140 N   0  0  0  0  0
   11.7880  -22.9690    7.1580 O   0  0  0  0  0
    8.9480  -13.9789    4.2735 H   0  0  0  0  0
    9.4164  -15.9940    5.7155 H   0  0  0  0  0
   11.9643  -16.5687    9.5774 H   0  0  0  0  0
   12.3464  -15.2320   11.2479 H   0  0  0  0  0
   13.5857  -14.8912   10.0154 H   0  0  0  0  0
   12.8211  -13.5505   10.9038 H   0  0  0  0  0
    9.5070  -14.0328    9.9536 H   0  0  0  0  0
   10.6096  -14.3774   11.3088 H   0  0  0  0  0
   10.6879  -12.8060   10.4746 H   0  0  0  0  0
   13.3396  -13.7263    8.3487 H   0  0  0  0  0
   12.4003  -12.4924    8.8776 H   0  0  0  0  0
   11.6257  -11.5608    6.7107 H   0  0  0  0  0
   11.2755  -18.3505    9.1381 H   0  0  0  0  0
    9.2644  -19.9358    8.8117 H   0  0  0  0  0
    8.6926  -18.8138    7.5657 H   0  0  0  0  0
    6.7394  -15.2010   10.5768 H   0  0  0  0  0
   10.9051  -18.9799   11.3121 H   0  0  0  0  0
    9.4256  -20.1283   11.4380 H   0  0  0  0  0
    9.0148  -19.0578   13.6401 H   0  0  0  0  0
   10.5956  -18.2901   13.5131 H   0  0  0  0  0
   10.0677  -21.3011   13.3145 H   0  0  0  0  0
   11.6653  -20.5252   13.1861 H   0  0  0  0  0
   10.7665  -20.4637   14.7221 H   0  0  0  0  0
    7.1073  -14.1287    8.5845 H   0  0  0  0  0
    7.2356  -18.2097    7.0023 H   0  0  0  0  0
   12.8175  -22.1648    4.8766 H   0  0  0  0  0
   12.9175  -19.7072    4.3111 H   0  0  0  0  0
   11.9164  -18.1540    5.8604 H   0  0  0  0  0
  1  2  1  0  0  0
  2  3  4  0  0  0
  2 13  4  0  0  0
  3  4  4  0  0  0
  4  5  4  0  0  0
  5  6  1  0  0  0
  5 12  4  0  0  0
  6  7  1  0  0  0
  6 14  2  0  0  0
  7  8  1  0  0  0
  8  9  1  0  0  0
  8 10  1  0  0  0
  8 11  1  0  0  0
 11 12  1  0  0  0
 12 13  4  0  0  0
 14 15  1  0  0  0
 15 16  1  0  0  0
 15 30  1  0  0  0
 16 17  1  0  0  0
 17 18  4  0  0  0
 17 21  4  0  0  0
 18 19  4  0  0  0
 18 25  1  0  0  0
 19 20  4  0  0  0
 20 21  4  0  0  0
 21 22  1  0  0  0
 22 23  1  0  0  0
 23 24  1  0  0  0
 25 26  4  0  0  0
 25 29  4  0  0  0
 26 27  4  0  0  0
 27 28  4  0  0  0
 28 29  4  0  0  0
 30 31  2  0  0  0
 30 35  1  0  0  0
 31 32  1  0  0  0
 32 33  1  0  0  0
 32 36  2  0  0  0
 33 34  2  0  0  0
 34 35  1  0  0  0
  3 37  1  0  0  0
  4 38  1  0  0  0
  7 39  1  0  0  0
  9 40  1  0  0  0
  9 41  1  0  0  0
  9 42  1  0  0  0
 10 43  1  0  0  0
 10 44  1  0  0  0
 10 45  1  0  0  0
 11 46  1  0  0  0
 11 47  1  0  0  0
 13 48  1  0  0  0
 15 49  1  0  0  0
 16 50  1  0  0  0
 16 51  1  0  0  0
 19 52  1  0  0  0
 22 53  1  0  0  0
 22 54  1  0  0  0
 23 55  1  0  0  0
 23 56  1  0  0  0
 24 57  1  0  0  0
 24 58  1  0  0  0
 24 59  1  0  0  0
 26 60  1  0  0  0
 29 61  1  0  0  0
 33 62  1  0  0  0
 34 63  1  0  0  0
 35 64  1  0  0  0
M  END
$$$$
