6hmt_ligand
  -I-interpret- 

 83 84  0  0  0  0  0  0  0  0999 V2000
   12.8920    8.0390   14.3070 N   0  3  0  0  0
   13.7790    9.1980   14.3470 C   0  0  0  0  0
   13.1090   10.4210   13.7220 C   0  0  0  0  0
   12.2730   10.2840   12.8270 O   0  0  0  0  0
   15.1040    8.8900   13.6370 C   0  0  0  0  0
   14.9390    8.2920   12.2660 C   0  0  0  0  0
   14.7970    9.1030   11.1500 C   0  0  0  0  0
   14.9350    6.9160   12.0920 C   0  0  0  0  0
   14.6470    8.5510    9.8880 C   0  0  0  0  0
   14.7850    6.3600   10.8350 C   0  0  0  0  0
   14.6420    7.1760    9.7320 C   0  0  0  0  0
   13.4670   11.6120   14.1920 N   0  0  0  0  0
   12.9050   12.8350   13.6140 C   0  0  0  0  0
   13.5320   13.1460   12.2620 C   0  0  0  0  0
   14.5940   12.6380   11.9010 O   0  0  0  0  0
   13.2840   13.9020   14.6450 C   0  0  0  0  0
   14.5740   13.4030   15.2160 C   0  0  0  0  0
   14.4330   11.9010   15.2680 C   0  0  0  0  0
   12.8500   14.0090   11.5090 N   0  0  0  0  0
   13.2800   14.3570   10.1610 C   0  0  0  0  0
   14.4140   15.3800   10.1570 C   0  0  0  0  0
   14.3610   16.3630   10.9020 O   0  0  0  0  0
   12.1020   14.8890    9.3610 C   0  0  0  0  0
   15.4150   15.1410    9.3120 N   0  0  0  0  0
   16.4890   16.0980    9.0320 C   0  0  0  0  0
   17.7750   15.7340    9.7960 C   0  0  0  0  0
   17.5810   15.9300   11.2980 C   0  0  0  0  0
   18.0200   14.3550    9.4700 O   0  0  0  0  0
   19.4350   13.6980    9.8890 P   0  0  0  0  0
   19.5240   12.3980    8.9920 O   0  0  0  0  0
   19.4690   13.3730   11.3370 O   0  0  0  0  0
   20.5820   14.7340    9.5260 O   0  0  0  0  0
   16.7490   16.1180    7.5240 C   0  0  0  0  0
   16.4380   15.1470    6.8250 O   0  0  0  0  0
   17.3090   17.2080    7.0140 N   0  0  0  0  0
   17.6070   17.3260    5.5850 C   0  0  0  0  0
   19.0530   17.7030    5.3430 C   0  0  0  0  0
   19.8130   17.9970    6.2750 O   0  0  0  0  0
   16.6760   18.3290    4.8610 C   0  0  0  0  0
   15.2410   17.8950    4.9530 C   0  0  0  0  0
   16.8650   19.7340    5.4170 C   0  0  0  0  0
   19.4800   17.7270    4.1810 O   0  0  0  0  0
   12.0186    8.2642   14.7834 H   0  0  0  0  0
   12.6978    7.7943   13.3360 H   0  0  0  0  0
   13.3421    7.2516   14.7738 H   0  0  0  0  0
   13.9911    9.4238   15.3921 H   0  0  0  0  0
   15.6354    8.1593   14.2467 H   0  0  0  0  0
   15.6334    9.8351   13.5160 H   0  0  0  0  0
   14.8035   10.1867   11.2670 H   0  0  0  0  0
   15.0517    6.2642   12.9578 H   0  0  0  0  0
   14.5331    9.1991    9.0190 H   0  0  0  0  0
   14.7797    5.2766   10.7156 H   0  0  0  0  0
   14.5254    6.7389    8.7403 H   0  0  0  0  0
   11.8329   12.7670   13.4292 H   0  0  0  0  0
   12.5161   14.0344   15.4071 H   0  0  0  0  0
   13.3820   14.8925   14.2008 H   0  0  0  0  0
   14.7638   13.8223   16.2041 H   0  0  0  0  0
   15.4256   13.7048   14.6063 H   0  0  0  0  0
   15.3832   11.3858   15.1276 H   0  0  0  0  0
   14.0950   11.5453   16.2413 H   0  0  0  0  0
   12.0047   14.4371   11.8865 H   0  0  0  0  0
   13.6619   13.4466    9.6991 H   0  0  0  0  0
   11.3275   14.1241    9.3049 H   0  0  0  0  0
   11.7028   15.7769    9.8513 H   0  0  0  0  0
   12.4340   15.1461    8.3551 H   0  0  0  0  0
   15.4354   14.2410    8.8325 H   0  0  0  0  0
   16.1813   17.0880    9.3687 H   0  0  0  0  0
   18.6182   16.3666    9.5186 H   0  0  0  0  0
   17.3335   16.9725   11.4981 H   0  0  0  0  0
   16.7700   15.2897   11.6449 H   0  0  0  0  0
   18.5015   15.6672   11.8193 H   0  0  0  0  0
   19.4992   12.6477    8.0654 H   0  0  0  0  0
   20.5463   14.9334    8.5876 H   0  0  0  0  0
   17.5380   17.9846    7.6343 H   0  0  0  0  0
   17.4249   16.3375    5.1633 H   0  0  0  0  0
   16.9475   18.3457    3.8055 H   0  0  0  0  0
   15.1286   16.9153    4.4887 H   0  0  0  0  0
   14.9465   17.8378    6.0009 H   0  0  0  0  0
   14.6102   18.6181    4.4359 H   0  0  0  0  0
   16.6287   19.7371    6.4811 H   0  0  0  0  0
   17.8998   20.0444    5.2724 H   0  0  0  0  0
   16.2013   20.4226    4.8941 H   0  0  0  0  0
   18.7766   17.4766    3.5776 H   0  0  0  0  0
  1  2  1  0  0  0
  2  3  1  0  0  0
  2  5  1  0  0  0
  3  4  2  0  0  0
  3 12  1  0  0  0
  5  6  1  0  0  0
  6  7  4  0  0  0
  6  8  4  0  0  0
  7  9  4  0  0  0
  8 10  4  0  0  0
  9 11  4  0  0  0
 10 11  4  0  0  0
 12 13  1  0  0  0
 12 18  1  0  0  0
 13 14  1  0  0  0
 13 16  1  0  0  0
 14 15  2  0  0  0
 14 19  1  0  0  0
 16 17  1  0  0  0
 17 18  1  0  0  0
 19 20  1  0  0  0
 20 21  1  0  0  0
 20 23  1  0  0  0
 21 22  2  0  0  0
 21 24  1  0  0  0
 24 25  1  0  0  0
 25 26  1  0  0  0
 25 33  1  0  0  0
 26 27  1  0  0  0
 26 28  1  0  0  0
 28 29  1  0  0  0
 29 30  1  0  0  0
 29 31  2  0  0  0
 29 32  1  0  0  0
 33 34  2  0  0  0
 33 35  1  0  0  0
 35 36  1  0  0  0
 36 37  1  0  0  0
 36 39  1  0  0  0
 37 38  2  0  0  0
 37 42  1  0  0  0
 39 40  1  0  0  0
 39 41  1  0  0  0
  1 43  1  0  0  0
  1 44  1  0  0  0
  1 45  1  0  0  0
  2 46  1  0  0  0
  5 47  1  0  0  0
  5 48  1  0  0  0
  7 49  1  0  0  0
  8 50  1  0  0  0
  9 51  1  0  0  0
 10 52  1  0  0  0
 11 53  1  0  0  0
 13 54  1  0  0  0
 16 55  1  0  0  0
 16 56  1  0  0  0
 17 57  1  0  0  0
 17 58  1  0  0  0
 18 59  1  0  0  0
 18 60  1  0  0  0
 19 61  1  0  0  0
 20 62  1  0  0  0
 23 63  1  0  0  0
 23 64  1  0  0  0
 23 65  1  0  0  0
 24 66  1  0  0  0
 25 67  1  0  0  0
 26 68  1  0  0  0
 27 69  1  0  0  0
 27 70  1  0  0  0
 27 71  1  0  0  0
 30 72  1  0  0  0
 32 73  1  0  0  0
 35 74  1  0  0  0
 36 75  1  0  0  0
 39 76  1  0  0  0
 40 77  1  0  0  0
 40 78  1  0  0  0
 40 79  1  0  0  0
 41 80  1  0  0  0
 41 81  1  0  0  0
 41 82  1  0  0  0
 42 83  1  0  0  0
M  END
$$$$
