### 
### Created by X-TOOL on Mon Aug  2 16:11:37 2021
### 

@<TRIPOS>MOLECULE
6hmt_ligand
   80    81     1     0     0
SMALL
GAST_HUCK


@<TRIPOS>ATOM
      1 N          12.8920    8.0390   14.3070 N.4       1 PHE         0.2394
      2 CA         13.7790    9.1980   14.3470 C.3       1 PHE         0.0746
      3 C          13.1090   10.4210   13.7220 C.2       1 PHE         0.2313
      4 O          12.2730   10.2840   12.8270 O.2       1 PHE        -0.3903
      5 CB         15.1040    8.8900   13.6370 C.3       1 PHE         0.0416
      6 CG         14.9390    8.2920   12.2660 C.ar      1 PHE        -0.0353
      7 CD1        14.7970    9.1030   11.1500 C.ar      1 PHE        -0.0600
      8 CD2        14.9350    6.9160   12.0920 C.ar      1 PHE        -0.0600
      9 CE1        14.6470    8.5510    9.8880 C.ar      1 PHE        -0.0686
     10 CE2        14.7850    6.3600   10.8350 C.ar      1 PHE        -0.0686
     11 CZ         14.6420    7.1760    9.7320 C.ar      1 PHE        -0.0687
     12 N          13.4670   11.6120   14.1920 N.am      1 PHE        -0.2470
     13 CA         12.9050   12.8350   13.6140 C.3       1 PHE         0.1339
     14 C          13.5320   13.1460   12.2620 C.2       1 PHE         0.2041
     15 O          14.5940   12.6380   11.9010 O.2       1 PHE        -0.3944
     16 CB         13.2840   13.9020   14.6450 C.3       1 PHE        -0.0104
     17 CG         14.5740   13.4030   15.2160 C.3       1 PHE        -0.0281
     18 CD         14.4330   11.9010   15.2680 C.3       1 PHE         0.0371
     19 N          12.8500   14.0090   11.5090 N.am      1 PHE        -0.2640
     20 CA         13.2800   14.3570   10.1610 C.3       1 PHE         0.1282
     21 C          14.4140   15.3800   10.1570 C.2       1 PHE         0.2037
     22 O          14.3610   16.3630   10.9020 O.2       1 PHE        -0.3944
     23 CB         12.1020   14.8890    9.3610 C.3       1 PHE        -0.0244
     24 N          15.4150   15.1410    9.3120 N.am      1 PHE        -0.2611
     25 CA         16.4890   16.0980    9.0320 C.3       1 PHE         0.1611
     26 CB         17.7750   15.7340    9.7960 C.3       1 PHE         0.1262
     27 CG2        17.5810   15.9300   11.2980 C.3       1 PHE        -0.0298
     28 OG1        18.0200   14.3550    9.4700 O.3       1 PHE        -0.2685
     29 P          19.4350   13.6980    9.8890 P.3       1 PHE         0.2014
     30 O1P        19.5240   12.3980    8.9920 O.co2     1 PHE        -0.5537
     31 O2P        19.4690   13.3730   11.3370 O.co2     1 PHE        -0.5537
     32 O3P        20.5820   14.7340    9.5260 O.co2     1 PHE        -0.5537
     33 C          16.7490   16.1180    7.5240 C.2       1 PHE         0.2063
     34 O          16.4380   15.1470    6.8250 O.2       1 PHE        -0.3943
     35 N          17.3090   17.2080    7.0140 N.am      1 PHE        -0.2691
     36 CA         17.6070   17.3260    5.5850 C.3       1 PHE         0.0967
     37 C          19.0530   17.7030    5.3430 C.2       1 PHE         0.0603
     38 O          19.8130   17.9970    6.2750 O.co2     1 PHE        -0.5666
     39 CB         16.6760   18.3290    4.8610 C.3       1 PHE        -0.0118
     40 CG1        15.2410   17.8950    4.9530 C.3       1 PHE        -0.0590
     41 CG2        16.8650   19.7340    5.4170 C.3       1 PHE        -0.0590
     42 OXT        19.4800   17.7270    4.1810 O.co2     1 PHE        -0.5666
     43 H1         13.3553    7.2468   14.7240 H         1 PHE         0.2017
     44 H2         12.6597    7.8266   13.3494 H         1 PHE         0.2017
     45 H3         12.0487    8.2434   14.8200 H         1 PHE         0.2017
     46 H4         13.9975    9.4267   15.4005 H         1 PHE         0.1123
     47 H5         15.6723    8.1813   14.2573 H         1 PHE         0.0507
     48 H6         15.6703    9.8279   13.5394 H         1 PHE         0.0507
     49 H7         14.8034   10.1807   11.2663 H         1 PHE         0.0557
     50 H8         15.0510    6.2678   12.9531 H         1 PHE         0.0557
     51 H9         14.5337    9.1955    9.0238 H         1 PHE         0.0599
     52 H10        14.7798    5.2825   10.7162 H         1 PHE         0.0599
     53 H11        14.5260    6.7413    8.7458 H         1 PHE         0.0559
     54 H12        11.8133   12.7565   13.5045 H         1 PHE         0.0802
     55 H13        12.5144   13.9826   15.4268 H         1 PHE         0.0313
     56 H14        13.4214   14.8813   14.1633 H         1 PHE         0.0313
     57 H15        14.7314   13.8102   16.2256 H         1 PHE         0.0287
     58 H16        15.4172   13.6885   14.5699 H         1 PHE         0.0287
     59 H17        15.3971   11.4081   15.0745 H         1 PHE         0.0524
     60 H18        14.0442   11.5756   16.2442 H         1 PHE         0.0524
     61 H19        12.0212   14.4287   11.8791 H         1 PHE         0.1883
     62 H20        13.6467   13.4411    9.6746 H         1 PHE         0.0797
     63 H21        12.4358   15.1489    8.3456 H         1 PHE         0.0277
     64 H22        11.6982   15.7852    9.8548 H         1 PHE         0.0277
     65 H23        11.3196   14.1180    9.3036 H         1 PHE         0.0277
     66 H24        15.4350   14.2586    8.8419 H         1 PHE         0.1884
     67 H25        16.1648   17.0991    9.3524 H         1 PHE         0.0830
     68 H26        18.6135   16.3598    9.4566 H         1 PHE         0.0695
     69 H27        18.5094   15.6651   11.8252 H         1 PHE         0.0260
     70 H28        16.7628   15.2843   11.6494 H         1 PHE         0.0260
     71 H29        17.3312   16.9818   11.5013 H         1 PHE         0.0260
     72 H30        17.5336   17.9694    7.6221 H         1 PHE         0.1875
     73 H31        17.4397   16.3358    5.1362 H         1 PHE         0.0729
     74 H32        16.9559   18.3453    3.7973 H         1 PHE         0.0336
     75 H33        14.6033   18.6240    4.4315 H         1 PHE         0.0234
     76 H34        14.9425   17.8369    6.0101 H         1 PHE         0.0234
     77 H35        15.1262   16.9063    4.4847 H         1 PHE         0.0234
     78 H36        17.9237   20.0213    5.3353 H         1 PHE         0.0234
     79 H37        16.5601   19.7543    6.4737 H         1 PHE         0.0234
     80 H38        16.2478   20.4414    4.8436 H         1 PHE         0.0234
@<TRIPOS>BOND
     1    1    2 1  
     2    2    3 1  
     3    2    5 1  
     4    3    4 2  
     5    3   12 am 
     6    5    6 1  
     7    6    7 ar 
     8    6    8 ar 
     9    7    9 ar 
    10    8   10 ar 
    11    9   11 ar 
    12   10   11 ar 
    13   12   13 1  
    14   12   18 1  
    15   13   14 1  
    16   13   16 1  
    17   14   15 2  
    18   14   19 am 
    19   16   17 1  
    20   17   18 1  
    21   19   20 1  
    22   20   21 1  
    23   20   23 1  
    24   21   22 2  
    25   21   24 am 
    26   24   25 1  
    27   25   26 1  
    28   25   33 1  
    29   26   27 1  
    30   26   28 1  
    31   28   29 1  
    32   29   30 ar 
    33   29   31 ar 
    34   29   32 ar 
    35   33   34 2  
    36   33   35 am 
    37   35   36 1  
    38   36   37 1  
    39   36   39 1  
    40   37   38 ar 
    41   37   42 ar 
    42   39   40 1  
    43   39   41 1  
    44    1   43 1  
    45    1   44 1  
    46    1   45 1  
    47    2   46 1  
    48    5   47 1  
    49    5   48 1  
    50    7   49 1  
    51    8   50 1  
    52    9   51 1  
    53   10   52 1  
    54   11   53 1  
    55   13   54 1  
    56   16   55 1  
    57   16   56 1  
    58   17   57 1  
    59   17   58 1  
    60   18   59 1  
    61   18   60 1  
    62   19   61 1  
    63   20   62 1  
    64   23   63 1  
    65   23   64 1  
    66   23   65 1  
    67   24   66 1  
    68   25   67 1  
    69   26   68 1  
    70   27   69 1  
    71   27   70 1  
    72   27   71 1  
    73   35   72 1  
    74   36   73 1  
    75   39   74 1  
    76   40   75 1  
    77   40   76 1  
    78   40   77 1  
    79   41   78 1  
    80   41   79 1  
    81   41   80 1  
@<TRIPOS>SUBSTRUCTURE
     1 PHE         1

