6e3g_ligand
  -I-interpret- 

 61 64  0  0  0  0  0  0  0  0999 V2000
    7.1820   61.4870   -5.9120 N   0  0  0  0  0
    3.9180   57.6830   -7.1610 N   0  0  0  0  0
    6.5590   52.5630   -3.4110 C   0  0  0  0  0
    3.1330   56.1370   -5.5420 C   0  0  0  0  0
    4.9950   55.4650   -6.8900 C   0  0  0  0  0
    8.2330   50.4440   -3.9760 C   0  0  0  0  0
    3.1720   54.9240   -4.8950 C   0  0  0  0  0
    5.2840   61.0760   -4.5090 C   0  0  0  0  0
    4.0430   56.4120   -6.5440 C   0  0  0  0  0
    7.0190   50.5570   -4.6320 C   0  0  0  0  0
    6.5680   61.5390   -4.7180 C   0  0  0  0  0
    7.2080   60.8770   -8.2530 C   0  0  0  0  0
    6.1960   61.1300   -9.3630 C   0  0  0  0  0
    4.5590   59.8220   -8.0100 C   0  0  0  0  0
    7.6920   48.9820   -6.2390 C   0  0  0  0  0
    4.8550   51.7430   -5.0560 C   0  0  0  0  0
    7.7720   52.4590   -2.7620 C   0  0  0  0  0
    8.6090   51.3950   -3.0380 C   0  0  0  0  0
    4.6120   60.5230   -5.5820 C   0  0  0  0  0
    5.0420   54.2440   -6.2390 C   0  0  0  0  0
    5.2260   60.4470   -6.8210 C   0  0  0  0  0
    6.1730   51.6170   -4.3450 C   0  0  0  0  0
    4.1200   53.9770   -5.2420 C   0  0  0  0  0
    6.5130   60.9370   -6.9330 C   0  0  0  0  0
    4.9020   58.3610   -7.8440 C   0  0  0  0  0
    4.5240   59.6530  -10.5100 C   0  0  0  0  0
    5.0470   60.2080  -11.8100 C   0  0  0  0  0
    8.4540   61.4100   -3.4010 C   0  0  0  0  0
    5.0610   60.2070   -9.3300 N   0  0  0  0  0
    5.9370   57.8670   -8.2630 O   0  0  0  0  0
    3.6870   58.7630  -10.5700 O   0  0  0  0  0
    6.5970   49.6180   -5.5780 O   0  0  0  0  0
    4.0560   52.7880   -4.5080 O   0  0  0  0  0
    7.2410   62.1100   -3.6400 O   0  0  0  0  0
    3.0087   58.1399   -7.0917 H   0  0  0  0  0
    5.8972   53.3993   -3.1858 H   0  0  0  0  0
    2.3853   56.8800   -5.2645 H   0  0  0  0  0
    5.7123   55.6837   -7.6811 H   0  0  0  0  0
    8.8947   49.6064   -4.1968 H   0  0  0  0  0
    2.4528   54.7073   -4.1051 H   0  0  0  0  0
    4.8150   61.1447   -3.5275 H   0  0  0  0  0
    7.9894   61.6360   -8.2901 H   0  0  0  0  0
    7.6581   59.8931   -8.3853 H   0  0  0  0  0
    6.7081   60.9898  -10.3150 H   0  0  0  0  0
    5.8052   62.1388   -9.2299 H   0  0  0  0  0
    3.5104   60.1195   -8.0110 H   0  0  0  0  0
    8.2904   49.7339   -6.7535 H   0  0  0  0  0
    8.3088   48.4660   -5.5032 H   0  0  0  0  0
    7.3094   48.2625   -6.9630 H   0  0  0  0  0
    4.3140   50.8034   -4.9440 H   0  0  0  0  0
    5.0512   51.9747   -6.1029 H   0  0  0  0  0
    8.0690   53.2138   -2.0339 H   0  0  0  0  0
    9.5634   51.3027   -2.5196 H   0  0  0  0  0
    3.5974   60.1461   -5.4532 H   0  0  0  0  0
    5.7949   53.5031   -6.5080 H   0  0  0  0  0
    5.5176   59.4082  -12.3819 H   0  0  0  0  0
    4.2204   60.6282  -12.3829 H   0  0  0  0  0
    5.7800   60.9875  -11.6021 H   0  0  0  0  0
    8.2317   60.3671   -3.1750 H   0  0  0  0  0
    9.0843   61.4644   -4.2886 H   0  0  0  0  0
    8.9733   61.8633   -2.5567 H   0  0  0  0  0
  1 11  4  0  0  0
 24  1  4  0  0  0
  2  9  1  0  0  0
 25  2  1  0  0  0
  3 17  4  0  0  0
 22  3  4  0  0  0
  4  7  4  0  0  0
  9  4  4  0  0  0
  9  5  4  0  0  0
  5 20  4  0  0  0
 10  6  4  0  0  0
  6 18  4  0  0  0
  7 23  4  0  0  0
  8 11  4  0  0  0
 19  8  4  0  0  0
 22 10  4  0  0  0
 10 32  1  0  0  0
 11 34  1  0  0  0
 13 12  1  0  0  0
 12 24  1  0  0  0
 29 13  1  0  0  0
 14 21  1  0  0  0
 14 25  1  0  0  0
 29 14  1  0  0  0
 32 15  1  0  0  0
 16 22  1  0  0  0
 33 16  1  0  0  0
 17 18  4  0  0  0
 21 19  4  0  0  0
 20 23  4  0  0  0
 21 24  4  0  0  0
 23 33  1  0  0  0
 25 30  2  0  0  0
 26 27  1  0  0  0
 26 29  1  0  0  0
 26 31  2  0  0  0
 34 28  1  0  0  0
  2 35  1  0  0  0
  3 36  1  0  0  0
  4 37  1  0  0  0
  5 38  1  0  0  0
  6 39  1  0  0  0
  7 40  1  0  0  0
  8 41  1  0  0  0
 12 42  1  0  0  0
 12 43  1  0  0  0
 13 44  1  0  0  0
 13 45  1  0  0  0
 14 46  1  0  0  0
 15 47  1  0  0  0
 15 48  1  0  0  0
 15 49  1  0  0  0
 16 50  1  0  0  0
 16 51  1  0  0  0
 17 52  1  0  0  0
 18 53  1  0  0  0
 19 54  1  0  0  0
 20 55  1  0  0  0
 27 56  1  0  0  0
 27 57  1  0  0  0
 27 58  1  0  0  0
 28 59  1  0  0  0
 28 60  1  0  0  0
 28 61  1  0  0  0
M  END
$$$$
