3t4p_ligand
  -I-interpret- 

 70 71  0  0  0  0  0  0  0  0999 V2000
  -20.2060   -0.2040   13.0130 N   0  3  0  0  0
  -20.6690   -0.0310   11.5950 C   0  0  0  0  0
  -19.6890    0.9030   10.8080 C   0  0  0  0  0
  -18.4360    0.8270   10.9610 O   0  0  0  0  0
  -22.1190    0.5660   11.5530 C   0  0  0  0  0
  -22.9120    0.1590   10.2830 C   0  0  0  0  0
  -22.3780    0.1710    9.1500 O   0  0  0  0  0
  -24.0920   -0.1970   10.4150 O   0  0  0  0  0
  -20.2680    1.7820    9.9710 N   0  0  0  0  0
  -19.7180    1.8400    8.6190 C   0  0  0  0  0
  -18.5530    2.7490    8.4690 C   0  0  0  0  0
  -18.3730    3.7290    9.2360 O   0  0  0  0  0
  -20.7520    1.9940    7.5130 C   0  0  0  0  0
  -21.5630    3.1130    7.7690 C   0  0  0  0  0
  -22.6790    3.1800    8.6210 C   0  0  0  0  0
  -21.3330    4.4180    7.2910 C   0  0  0  0  0
  -23.1570    4.4610    8.6360 N   0  0  0  0  0
  -22.3540    5.2440    7.8330 C   0  0  0  0  0
  -20.3870    4.9770    6.4190 C   0  0  0  0  0
  -22.4350    6.5980    7.5510 C   0  0  0  0  0
  -20.4700    6.3090    6.1440 C   0  0  0  0  0
  -21.4950    7.1120    6.6900 C   0  0  0  0  0
  -17.7020    2.3240    7.5440 N   0  0  0  0  0
  -16.4540    2.9560    7.3910 C   0  0  0  0  0
  -16.2440    3.0210    5.8820 C   0  0  0  0  0
  -15.9120    1.9950    5.2580 O   0  0  0  0  0
  -15.3660    2.1130    8.0410 C   0  0  0  0  0
  -14.1560    2.8130    7.9080 O   0  0  0  0  0
  -16.5130    4.1920    5.3140 N   0  0  0  0  0
  -16.5600    4.2950    3.8020 C   0  0  0  0  0
  -15.8560    5.6430    3.3970 C   0  0  0  0  0
  -16.3460    6.7480    3.8180 O   0  0  0  0  0
  -18.0570    4.2330    3.2670 C   0  0  0  0  0
  -18.6850    2.8400    3.5400 C   0  0  0  0  0
  -18.0840    4.5690    1.6980 C   0  0  0  0  0
  -20.2490    2.7180    3.1590 C   0  0  0  0  0
  -14.8440    5.5730    2.6160 O   0  0  0  0  0
  -19.2629   -0.5926   13.0165 H   0  0  0  0  0
  -20.2034    0.7020   13.4815 H   0  0  0  0  0
  -20.8383   -0.8385   13.5008 H   0  0  0  0  0
  -20.6802   -1.0131   11.1222 H   0  0  0  0  0
  -22.0287    1.6523   11.5517 H   0  0  0  0  0
  -22.6597    0.1805   12.4173 H   0  0  0  0  0
  -21.4693    0.4703    9.2289 H   0  0  0  0  0
  -21.0458    2.3737   10.2632 H   0  0  0  0  0
  -19.3140    0.8381    8.4735 H   0  0  0  0  0
  -21.3743    1.0999    7.4755 H   0  0  0  0  0
  -20.2413    2.1306    6.5598 H   0  0  0  0  0
  -23.0971    2.3435    9.1809 H   0  0  0  0  0
  -19.6057    4.3617    5.9729 H   0  0  0  0  0
  -23.2086    7.2268    7.9917 H   0  0  0  0  0
  -19.7285    6.7648    5.4878 H   0  0  0  0  0
  -21.5421    8.1674    6.4216 H   0  0  0  0  0
  -17.9526    1.5386    6.9434 H   0  0  0  0  0
  -16.4188    3.9410    7.8565 H   0  0  0  0  0
  -15.2983    1.1383    7.5578 H   0  0  0  0  0
  -15.5938    1.9407    9.0929 H   0  0  0  0  0
  -13.4477    2.3047    8.3100 H   0  0  0  0  0
  -16.6865    5.0152    5.8908 H   0  0  0  0  0
  -16.0396    3.4517    3.3480 H   0  0  0  0  0
  -18.6513    4.9755    3.7995 H   0  0  0  0  0
  -18.6050    2.6608    4.6122 H   0  0  0  0  0
  -18.1500    2.1234    2.9168 H   0  0  0  0  0
  -17.6821    5.5690    1.5349 H   0  0  0  0  0
  -17.4769    3.8401    1.1611 H   0  0  0  0  0
  -19.1112    4.5254    1.3360 H   0  0  0  0  0
  -20.8208    3.4413    3.7404 H   0  0  0  0  0
  -20.3795    2.9200    2.0959 H   0  0  0  0  0
  -20.5990    1.7106    3.3844 H   0  0  0  0  0
  -14.6487    4.6519    2.4290 H   0  0  0  0  0
  1  2  1  0  0  0
  2  3  1  0  0  0
  2  5  1  0  0  0
  3  4  2  0  0  0
  3  9  1  0  0  0
  5  6  1  0  0  0
  6  7  1  0  0  0
  6  8  2  0  0  0
  9 10  1  0  0  0
 10 11  1  0  0  0
 10 13  1  0  0  0
 11 12  2  0  0  0
 11 23  1  0  0  0
 13 14  1  0  0  0
 14 15  4  0  0  0
 14 16  4  0  0  0
 15 17  4  0  0  0
 16 18  4  0  0  0
 16 19  4  0  0  0
 17 18  4  0  0  0
 18 20  4  0  0  0
 19 21  4  0  0  0
 20 22  4  0  0  0
 21 22  4  0  0  0
 23 24  1  0  0  0
 24 25  1  0  0  0
 24 27  1  0  0  0
 25 26  2  0  0  0
 25 29  1  0  0  0
 27 28  1  0  0  0
 29 30  1  0  0  0
 30 31  1  0  0  0
 30 33  1  0  0  0
 31 32  2  0  0  0
 31 37  1  0  0  0
 33 34  1  0  0  0
 33 35  1  0  0  0
 34 36  1  0  0  0
  1 38  1  0  0  0
  1 39  1  0  0  0
  1 40  1  0  0  0
  2 41  1  0  0  0
  5 42  1  0  0  0
  5 43  1  0  0  0
  7 44  1  0  0  0
  9 45  1  0  0  0
 10 46  1  0  0  0
 13 47  1  0  0  0
 13 48  1  0  0  0
 15 49  1  0  0  0
 19 50  1  0  0  0
 20 51  1  0  0  0
 21 52  1  0  0  0
 22 53  1  0  0  0
 23 54  1  0  0  0
 24 55  1  0  0  0
 27 56  1  0  0  0
 27 57  1  0  0  0
 28 58  1  0  0  0
 29 59  1  0  0  0
 30 60  1  0  0  0
 33 61  1  0  0  0
 34 62  1  0  0  0
 34 63  1  0  0  0
 35 64  1  0  0  0
 35 65  1  0  0  0
 35 66  1  0  0  0
 36 67  1  0  0  0
 36 68  1  0  0  0
 36 69  1  0  0  0
 37 70  1  0  0  0
M  END
$$$$
