1hvy_ligand
  -I-interpret- 

 54 56  0  0  0  0  0  0  0  0999 V2000
   -0.3080    6.6200   19.3640 N   0  0  0  0  0
   -1.6030    6.6600   18.9260 C   0  0  0  0  0
   -2.6410    5.8470   19.5660 C   0  0  0  0  0
   -1.9470    7.4590   17.8800 N   0  0  0  0  0
   -1.0230    8.2410   17.2540 C   0  0  0  0  0
   -1.4230    9.0040   16.1900 O   0  0  0  0  0
    0.3250    8.2490   17.6810 C   0  0  0  0  0
    1.3180    9.0650   17.0900 C   0  0  0  0  0
    2.6760    9.0370   17.5790 C   0  0  0  0  0
    3.0090    8.1690   18.6550 C   0  0  0  0  0
    2.0100    7.3490   19.2550 C   0  0  0  0  0
    0.6580    7.3820   18.7820 C   0  0  0  0  0
    3.7660    9.9050   17.0090 C   0  0  0  0  0
    3.3900   10.8370   15.9090 N   0  0  0  0  0
    1.0690   13.7040   17.0850 C   0  0  0  0  0
    1.8900   12.3420   17.6620 S   0  0  0  0  0
    2.5740   11.9240   16.1210 C   0  0  0  0  0
    2.1710   12.8340   15.1590 C   0  0  0  0  0
    1.2730   13.8930   15.7400 C   0  0  0  0  0
    0.2530   14.5550   17.9120 C   0  0  0  0  0
    0.1360   14.2850   19.1140 O   0  0  0  0  0
   -0.3490   15.6000   17.3470 N   0  0  0  0  0
   -1.2180   16.5590   18.0520 C   0  0  0  0  0
   -0.5640   17.8810   18.3990 C   0  0  0  0  0
   -0.6590   18.4840   19.7620 C   0  0  0  0  0
    0.4540   19.5100   19.8900 C   0  0  0  0  0
    1.4720   19.2220   20.5240 O   0  0  0  0  0
    0.3280   20.6200   19.3580 O   0  0  0  0  0
   -2.3990   16.8470   17.1360 C   0  0  0  0  0
   -2.2490   16.7750   15.8980 O   0  0  0  0  0
   -3.4760   17.1360   17.6490 O   0  0  0  0  0
    3.9310   10.5450   14.5740 C   0  0  0  0  0
   -2.3770    4.7926   19.4839 H   0  0  0  0  0
   -2.7194    6.1224   20.6177 H   0  0  0  0  0
   -3.5958    6.0235   19.0707 H   0  0  0  0  0
   -2.9148    7.4730   17.5582 H   0  0  0  0  0
    1.0558    9.7199   16.2591 H   0  0  0  0  0
    4.0343    8.1307   19.0229 H   0  0  0  0  0
    2.2769    6.6905   20.0816 H   0  0  0  0  0
    4.4957    9.2190   16.5789 H   0  0  0  0  0
    4.1005   10.5376   17.8312 H   0  0  0  0  0
    2.4672   12.7892   14.1110 H   0  0  0  0  0
    0.8379   14.7097   15.1640 H   0  0  0  0  0
   -0.1969   15.7480   16.3493 H   0  0  0  0  0
   -1.4919   16.1003   19.0021 H   0  0  0  0  0
   -1.0886   18.5976   17.7670 H   0  0  0  0  0
    0.5004   17.6753   18.2858 H   0  0  0  0  0
   -0.5553   17.7137   20.5262 H   0  0  0  0  0
   -1.6306   18.9582   19.9007 H   0  0  0  0  0
   -0.5207   20.6652   18.9117 H   0  0  0  0  0
   -1.3401   16.5375   15.7002 H   0  0  0  0  0
    5.0202   10.5608   14.6133 H   0  0  0  0  0
    3.5920    9.5599   14.2535 H   0  0  0  0  0
    3.5807   11.2985   13.8686 H   0  0  0  0  0
  1  2  2  0  0  0
 12  1  1  0  0  0
  2  3  1  0  0  0
  4  2  1  0  0  0
  5  4  1  0  0  0
  5  6  2  0  0  0
  7  5  1  0  0  0
  8  7  4  0  0  0
  7 12  4  0  0  0
  9  8  4  0  0  0
  9 10  4  0  0  0
 13  9  1  0  0  0
 10 11  4  0  0  0
 11 12  4  0  0  0
 14 13  1  0  0  0
 17 14  1  0  0  0
 14 32  1  0  0  0
 16 15  4  0  0  0
 15 19  4  0  0  0
 15 20  1  0  0  0
 16 17  4  0  0  0
 17 18  4  0  0  0
 18 19  4  0  0  0
 20 21  2  0  0  0
 20 22  1  0  0  0
 22 23  1  0  0  0
 23 24  1  0  0  0
 23 29  1  0  0  0
 24 25  1  0  0  0
 25 26  1  0  0  0
 26 27  2  0  0  0
 26 28  1  0  0  0
 29 30  1  0  0  0
 29 31  2  0  0  0
  3 33  1  0  0  0
  3 34  1  0  0  0
  3 35  1  0  0  0
  4 36  1  0  0  0
  8 37  1  0  0  0
 10 38  1  0  0  0
 11 39  1  0  0  0
 13 40  1  0  0  0
 13 41  1  0  0  0
 18 42  1  0  0  0
 19 43  1  0  0  0
 22 44  1  0  0  0
 23 45  1  0  0  0
 24 46  1  0  0  0
 24 47  1  0  0  0
 25 48  1  0  0  0
 25 49  1  0  0  0
 28 50  1  0  0  0
 30 51  1  0  0  0
 32 52  1  0  0  0
 32 53  1  0  0  0
 32 54  1  0  0  0
M  END
$$$$
