5a8y_ligand
  -I-interpret- 

 51 54  0  0  0  0  0  0  0  0999 V2000
   -7.2990   35.2910   -5.7260 C   0  0  0  0  0
   -8.3730   35.1500   -6.6390 C   0  0  0  0  0
   -8.0990   35.2620   -7.9930 C   0  0  0  0  0
   -9.1650   35.1530   -8.9370 C   0  0  0  0  0
  -10.0570   35.0600   -9.6430 N   0  0  0  0  0
   -6.7770   35.5180   -8.4290 C   0  0  0  0  0
   -5.7300   35.6340   -7.5100 C   0  0  0  0  0
   -5.9720   35.5400   -6.1400 C   0  0  0  0  0
   -4.7980   35.7500   -5.1400 C   0  0  0  0  0
   -4.6410   34.5320   -4.2720 C   0  0  0  0  0
   -5.1500   34.4750   -2.9790 C   0  0  0  0  0
   -4.9890   33.2090   -2.1350 C   0  0  0  0  0
   -3.9430   33.4530   -4.8890 C   0  0  0  0  0
   -3.3960   32.5590   -5.3440 N   0  0  0  0  0
   -5.3280   36.9100   -4.3850 N   0  0  0  0  0
   -5.4850   38.0940   -4.7650 N   0  0  0  0  0
   -6.0780   38.7650   -3.7620 C   0  0  0  0  0
   -6.4430   40.0510   -3.7160 N   0  0  0  0  0
   -6.4030   40.9160   -4.7590 C   0  0  0  0  0
   -5.9600   40.6620   -5.8910 O   0  0  0  0  0
   -6.8370   42.1570   -4.4670 O   0  0  0  0  0
   -7.3040   42.9500   -5.6180 C   0  0  0  0  0
   -6.3190   37.9380   -2.7350 N   0  0  0  0  0
   -5.9220   36.7430   -3.1380 C   0  0  0  0  0
   -5.8390   35.5750   -2.4130 N   0  0  0  0  0
   -6.4670   35.5420   -1.1160 C   0  0  0  0  0
   -7.7290   34.9040   -1.1260 C   0  0  0  0  0
   -5.9990   36.0200    0.1000 C   0  0  0  0  0
   -6.7400   35.8880    1.2540 C   0  0  0  0  0
   -7.9960   35.2510    1.2370 C   0  0  0  0  0
   -8.5060   34.7940    0.0280 C   0  0  0  0  0
   -9.8860   34.1480   -0.0030 C   0  0  0  0  0
  -10.7560   35.1080    0.0060 F   0  0  0  0  0
  -10.1150   33.4120   -1.0960 F   0  0  0  0  0
  -10.0790   33.4570    1.0750 F   0  0  0  0  0
   -7.5055   35.2036   -4.6593 H   0  0  0  0  0
   -9.3865   34.9588   -6.2865 H   0  0  0  0  0
   -6.5728   35.6260   -9.4942 H   0  0  0  0  0
   -4.7139   35.7996   -7.8681 H   0  0  0  0  0
   -3.8112   35.9088   -5.5749 H   0  0  0  0  0
   -5.4725   32.3730   -2.6404 H   0  0  0  0  0
   -3.9286   32.9927   -2.0053 H   0  0  0  0  0
   -5.4517   33.3625   -1.1601 H   0  0  0  0  0
   -6.7791   40.4104   -2.8226 H   0  0  0  0  0
   -6.4884   43.0675   -6.3315 H   0  0  0  0  0
   -8.1369   42.4360   -6.0977 H   0  0  0  0  0
   -7.6309   43.9310   -5.2731 H   0  0  0  0  0
   -8.1050   34.4869   -2.0602 H   0  0  0  0  0
   -5.0260   36.5095    0.1429 H   0  0  0  0  0
   -6.3491   36.2817    2.1923 H   0  0  0  0  0
   -8.5605   35.1183    2.1600 H   0  0  0  0  0
  1  2  4  0  0  0
  1  8  4  0  0  0
  2  3  4  0  0  0
  3  4  1  0  0  0
  3  6  4  0  0  0
  4  5  3  0  0  0
  6  7  4  0  0  0
  7  8  4  0  0  0
  8  9  1  0  0  0
  9 10  1  0  0  0
  9 15  1  0  0  0
 10 11  2  0  0  0
 10 13  1  0  0  0
 11 12  1  0  0  0
 11 25  1  0  0  0
 13 14  3  0  0  0
 15 16  4  0  0  0
 15 24  4  0  0  0
 16 17  4  0  0  0
 17 18  1  0  0  0
 17 23  4  0  0  0
 18 19  1  0  0  0
 19 20  2  0  0  0
 19 21  1  0  0  0
 21 22  1  0  0  0
 23 24  4  0  0  0
 24 25  1  0  0  0
 25 26  1  0  0  0
 26 27  4  0  0  0
 26 28  4  0  0  0
 27 31  4  0  0  0
 28 29  4  0  0  0
 29 30  4  0  0  0
 30 31  4  0  0  0
 31 32  1  0  0  0
 32 33  1  0  0  0
 32 34  1  0  0  0
 32 35  1  0  0  0
  1 36  1  0  0  0
  2 37  1  0  0  0
  6 38  1  0  0  0
  7 39  1  0  0  0
  9 40  1  0  0  0
 12 41  1  0  0  0
 12 42  1  0  0  0
 12 43  1  0  0  0
 18 44  1  0  0  0
 22 45  1  0  0  0
 22 46  1  0  0  0
 22 47  1  0  0  0
 27 48  1  0  0  0
 28 49  1  0  0  0
 29 50  1  0  0  0
 30 51  1  0  0  0
M  END
$$$$
