2qve_ligand
  -I-interpret- 

 25 25  0  0  0  0  0  0  0  0999 V2000
  -25.2590    9.2650   30.3930 C   0  0  0  0  0
  -25.4720    7.9670   30.8480 C   0  0  0  0  0
  -25.4800    7.7010   32.2120 C   0  0  0  0  0
  -25.7420    6.4440   32.6590 O   0  0  0  0  0
  -25.2650    8.7320   33.1190 C   0  0  0  0  0
  -25.0520   10.0290   32.6660 C   0  0  0  0  0
  -25.0550   10.2980   31.3010 C   0  0  0  0  0
  -24.9050   11.7420   30.8130 C   0  0  0  0  0
  -23.4830   12.1130   30.8180 N   0  3  0  0  0
  -25.4670   11.8740   29.3950 C   0  0  0  0  0
  -25.7040   13.3360   29.0150 C   0  0  0  0  0
  -25.4550   14.2020   29.8800 O   0  0  0  0  0
  -26.1410   13.5580   27.8640 O   0  0  0  0  0
  -26.4140   11.3360   29.3390 F   0  0  0  0  0
  -24.7620   11.4340   28.6910 F   0  0  0  0  0
  -25.2521    9.4721   29.3229 H   0  0  0  0  0
  -25.6326    7.1589   30.1343 H   0  0  0  0  0
  -25.7085    6.4333   33.6184 H   0  0  0  0  0
  -25.2634    8.5230   34.1888 H   0  0  0  0  0
  -24.8827   10.8349   33.3801 H   0  0  0  0  0
  -25.4577   12.4063   31.4773 H   0  0  0  0  0
  -23.3826   13.0746   30.4931 H   0  0  0  0  0
  -23.1153   12.0331   31.7661 H   0  0  0  0  0
  -22.9676   11.4879   30.1983 H   0  0  0  0  0
  -26.2473   12.7259   27.3973 H   0  0  0  0  0
  1  2  4  0  0  0
  1  7  4  0  0  0
  2  3  4  0  0  0
  3  4  1  0  0  0
  3  5  4  0  0  0
  5  6  4  0  0  0
  6  7  4  0  0  0
  7  8  1  0  0  0
  8  9  1  0  0  0
  8 10  1  0  0  0
 10 11  1  0  0  0
 10 14  1  0  0  0
 10 15  1  0  0  0
 11 12  2  0  0  0
 11 13  1  0  0  0
  1 16  1  0  0  0
  2 17  1  0  0  0
  4 18  1  0  0  0
  5 19  1  0  0  0
  6 20  1  0  0  0
  8 21  1  0  0  0
  9 22  1  0  0  0
  9 23  1  0  0  0
  9 24  1  0  0  0
 13 25  1  0  0  0
M  END
$$$$
