1fw0_ligand
  -I-interpret- 

 31 31  0  0  0  0  0  0  0  0999 V2000
   14.3510   -1.8980   16.0370 N   0  3  0  0  0
   15.6050   -1.2130   15.5700 C   0  0  0  0  0
   18.2910   -1.0880   14.4340 C   0  0  0  0  0
   19.1920   -3.1290   15.5420 C   0  0  0  0  0
   14.6010   -3.3280   16.0990 C   0  0  0  0  0
   15.9500   -3.6860   15.4710 C   0  0  0  0  0
   16.0730   -3.9080   13.8710 C   0  0  0  0  0
   16.6900   -2.3860   15.7120 C   0  0  0  0  0
   15.7190   -5.3410   13.4220 C   0  0  0  0  0
   18.1350   -2.1320   15.1890 C   0  0  0  0  0
   14.5070   -3.8180   17.5860 C   0  0  0  0  0
   14.1850   -2.9580   18.4350 O   0  0  0  0  0
   15.3840   -5.4570   12.2380 O   0  0  0  0  0
   15.8400   -6.2770   14.2380 O   0  0  0  0  0
   14.7720   -5.0250   17.8170 O   0  0  0  0  0
   13.5877   -1.7062   15.3881 H   0  0  0  0  0
   14.0879   -1.5507   16.9593 H   0  0  0  0  0
   15.8524   -0.3209   16.1454 H   0  0  0  0  0
   15.5297   -0.8114   14.5595 H   0  0  0  0  0
   17.4376   -0.4508   14.2019 H   0  0  0  0  0
   19.2754   -0.8484   14.0319 H   0  0  0  0  0
   19.5710   -3.5927   14.6312 H   0  0  0  0  0
   20.0071   -2.6242   16.0605 H   0  0  0  0  0
   18.7657   -3.8943   16.1906 H   0  0  0  0  0
   13.8370   -3.8431   15.5166 H   0  0  0  0  0
   16.2672   -4.6412   15.8894 H   0  0  0  0  0
   17.1105   -3.7234   13.5926 H   0  0  0  0  0
   15.3683   -3.2296   13.3901 H   0  0  0  0  0
   17.0997   -2.4487   16.7201 H   0  0  0  0  0
   16.1099   -5.9249   15.0893 H   0  0  0  0  0
   14.9885   -5.4673   16.9929 H   0  0  0  0  0
  2  1  1  0  0  0
  5  1  1  0  0  0
  8  2  1  0  0  0
 10  3  2  0  0  0
 10  4  1  0  0  0
  6  5  1  0  0  0
  5 11  1  0  0  0
  6  7  1  0  0  0
  8  6  1  0  0  0
  7  9  1  0  0  0
  8 10  1  0  0  0
  9 13  2  0  0  0
  9 14  1  0  0  0
 11 12  2  0  0  0
 11 15  1  0  0  0
  1 16  1  0  0  0
  1 17  1  0  0  0
  2 18  1  0  0  0
  2 19  1  0  0  0
  3 20  1  0  0  0
  3 21  1  0  0  0
  4 22  1  0  0  0
  4 23  1  0  0  0
  4 24  1  0  0  0
  5 25  1  0  0  0
  6 26  1  0  0  0
  7 27  1  0  0  0
  7 28  1  0  0  0
  8 29  1  0  0  0
 14 30  1  0  0  0
 15 31  1  0  0  0
M  END
$$$$
