3uqf_ligand
  -I-interpret- 

 47 50  0  0  0  0  0  0  0  0999 V2000
  -11.1040  -35.5510    6.7100 N   0  0  0  0  0
  -11.6440  -36.4310    5.8630 C   0  0  0  0  0
  -10.9050  -37.3660    5.2830 N   0  0  0  0  0
   -9.5940  -37.4390    5.5450 C   0  0  0  0  0
   -8.9990  -36.5570    6.4290 C   0  0  0  0  0
   -9.8020  -35.5770    7.0230 C   0  0  0  0  0
    0.0360  -34.6750   12.2290 C   0  0  0  0  0
   -8.1180  -40.6190    4.6140 C   0  0  0  0  0
   -8.4350  -38.9180    2.7560 C   0  0  0  0  0
   -9.3200  -34.6630    7.8640 N   0  0  0  0  0
   -4.4740  -35.2600   11.3640 C   0  0  0  0  0
   -5.4400  -36.0870    6.5020 C   0  0  0  0  0
   -5.5870  -35.7420   10.6590 C   0  0  0  0  0
   -4.3340  -35.6080    7.2080 C   0  0  0  0  0
   -3.2750  -35.0030    9.2860 C   0  0  0  0  0
   -6.6520  -36.3460    8.5610 C   0  0  0  0  0
   -1.2350  -35.3880   11.7420 C   0  0  0  0  0
   -7.5480  -37.9940    5.6310 N   0  0  0  0  0
   -2.2250  -34.4060   11.3630 O   0  0  0  0  0
   -3.3110  -34.8920   10.6800 C   0  0  0  0  0
   -6.6040  -36.4370    7.1680 C   0  0  0  0  0
   -7.6590  -36.9530    6.4420 C   0  0  0  0  0
   -4.3870  -35.4900    8.5910 C   0  0  0  0  0
   -5.5460  -35.8620    9.2700 C   0  0  0  0  0
   -8.8710  -39.3560    4.1680 C   0  0  0  0  0
   -8.6380  -38.2570    5.1280 N   0  0  0  0  0
  -12.7107  -36.3795    5.6449 H   0  0  0  0  0
    0.4312  -34.0515   11.4271 H   0  0  0  0  0
   -0.2058  -34.0518   13.0900 H   0  0  0  0  0
    0.7811  -35.4177   12.5142 H   0  0  0  0  0
   -8.3273  -41.4304    3.9169 H   0  0  0  0  0
   -7.0471  -40.4165    4.6268 H   0  0  0  0  0
   -8.4474  -40.9029    5.6135 H   0  0  0  0  0
   -7.3661  -38.7047    2.7570 H   0  0  0  0  0
   -8.6463  -39.7186    2.0472 H   0  0  0  0  0
   -8.9853  -38.0220    2.4688 H   0  0  0  0  0
   -9.9403  -33.9566    8.2597 H   0  0  0  0  0
   -8.3307  -34.6696    8.1121 H   0  0  0  0  0
   -4.5159  -35.1719   12.4496 H   0  0  0  0  0
   -5.3872  -36.1864    5.4178 H   0  0  0  0  0
   -6.4899  -36.0246   11.2004 H   0  0  0  0  0
   -3.4274  -35.3262    6.6725 H   0  0  0  0  0
   -2.3784  -34.7093    8.7401 H   0  0  0  0  0
   -7.5509  -36.6519    9.0963 H   0  0  0  0  0
   -1.6309  -36.0114   12.5437 H   0  0  0  0  0
   -0.9939  -36.0111   10.8807 H   0  0  0  0  0
   -9.9349  -39.5914    4.1408 H   0  0  0  0  0
  2  1  4  0  0  0
  6  1  4  0  0  0
  3  2  4  0  0  0
  4  3  4  0  0  0
  4  5  4  0  0  0
 26  4  4  0  0  0
  5  6  4  0  0  0
 22  5  4  0  0  0
  6 10  1  0  0  0
 17  7  1  0  0  0
 25  8  1  0  0  0
 25  9  1  0  0  0
 13 11  4  0  0  0
 11 20  4  0  0  0
 12 14  4  0  0  0
 21 12  4  0  0  0
 24 13  4  0  0  0
 14 23  4  0  0  0
 15 20  4  0  0  0
 23 15  4  0  0  0
 21 16  4  0  0  0
 16 24  4  0  0  0
 19 17  1  0  0  0
 18 22  4  0  0  0
 26 18  4  0  0  0
 20 19  1  0  0  0
 22 21  1  0  0  0
 24 23  4  0  0  0
 25 26  1  0  0  0
  2 27  1  0  0  0
  7 28  1  0  0  0
  7 29  1  0  0  0
  7 30  1  0  0  0
  8 31  1  0  0  0
  8 32  1  0  0  0
  8 33  1  0  0  0
  9 34  1  0  0  0
  9 35  1  0  0  0
  9 36  1  0  0  0
 10 37  1  0  0  0
 10 38  1  0  0  0
 11 39  1  0  0  0
 12 40  1  0  0  0
 13 41  1  0  0  0
 14 42  1  0  0  0
 15 43  1  0  0  0
 16 44  1  0  0  0
 17 45  1  0  0  0
 17 46  1  0  0  0
 25 47  1  0  0  0
M  END
$$$$
