2c6i_ligand
  -I-interpret- 

 50 53  0  0  0  0  0  0  0  0999 V2000
    7.8650   26.0800    8.2840 O   0  0  0  0  0
    6.6910   25.5750    7.5540 S   0  0  0  0  0
    7.1400   25.2340    6.2070 O   0  0  0  0  0
    6.0630   24.3420    8.3670 N   0  0  0  0  0
    5.5300   26.8220    7.3390 C   0  0  0  0  0
    5.3050   27.3410    6.0700 C   0  0  0  0  0
    4.8320   27.2350    8.4800 C   0  0  0  0  0
    3.9010   28.2530    8.2970 C   0  0  0  0  0
    4.3590   28.3610    5.8990 C   0  0  0  0  0
    3.6510   28.8130    7.0250 C   0  0  0  0  0
    2.7320   29.8180    6.8610 N   0  0  0  0  0
    1.6300   30.0300    7.6560 C   0  0  0  0  0
    1.0380   31.2550    7.7170 N   0  0  0  0  0
   -0.0430   31.5170    8.4690 C   0  0  0  0  0
   -0.6290   30.5620    9.2090 N   0  0  0  0  0
   -0.3670   32.8210    8.3680 N   0  0  0  0  0
    0.5600   33.3420    7.5250 C   0  0  0  0  0
    1.4030   32.3730    7.1160 N   0  0  0  0  0
    1.0180   28.9900    8.3690 C   0  0  0  0  0
   -0.0980   29.2930    9.1560 C   0  0  0  0  0
   -0.3950   28.4590   11.2650 C   0  0  0  0  0
   -0.6940   28.3000    9.8760 O   0  0  0  0  0
   -0.6000   27.1080   11.9700 C   0  0  0  0  0
   -1.7920   26.2940   11.4500 C   0  0  0  0  0
   -1.8410   24.9440   12.1760 C   0  0  0  0  0
   -1.9490   25.1650   13.6910 C   0  0  0  0  0
   -0.7450   25.9710   14.1840 C   0  0  0  0  0
   -0.7370   27.3270   13.4790 C   0  0  0  0  0
    6.4898   24.0378    9.2421 H   0  0  0  0  0
    5.2371   23.8626    8.0087 H   0  0  0  0  0
    5.8600   26.9578    5.2137 H   0  0  0  0  0
    5.0078   26.7845    9.4569 H   0  0  0  0  0
    3.3497   28.6284    9.1591 H   0  0  0  0  0
    4.1769   28.7935    4.9152 H   0  0  0  0  0
    2.8783   30.4624    6.0840 H   0  0  0  0  0
    0.6148   34.3881    7.2236 H   0  0  0  0  0
    1.4018   27.9714    8.3117 H   0  0  0  0  0
   -1.0538   29.2091   11.7025 H   0  0  0  0  0
    0.6371   28.7878   11.3867 H   0  0  0  0  0
    0.2856   26.5147   11.7426 H   0  0  0  0  0
   -1.6800   26.1277   10.3786 H   0  0  0  0  0
   -2.7160   26.8415   11.6360 H   0  0  0  0  0
   -0.9292   24.3875   11.9593 H   0  0  0  0  0
   -2.7109   24.3841   11.8328 H   0  0  0  0  0
   -1.9675   24.1991   14.1959 H   0  0  0  0  0
   -2.8647   25.7138   13.9109 H   0  0  0  0  0
    0.1761   25.4330   13.9598 H   0  0  0  0  0
   -0.8143   26.1159   15.2621 H   0  0  0  0  0
   -1.6673   27.8545   13.6894 H   0  0  0  0  0
    0.1015   27.9225   13.8402 H   0  0  0  0  0
  1  2  2  0  0  0
  2  3  2  0  0  0
  2  4  1  0  0  0
  2  5  1  0  0  0
  5  6  4  0  0  0
  5  7  4  0  0  0
  6  9  4  0  0  0
  7  8  4  0  0  0
  8 10  4  0  0  0
  9 10  4  0  0  0
 10 11  1  0  0  0
 11 12  1  0  0  0
 12 13  4  0  0  0
 12 19  4  0  0  0
 13 14  4  0  0  0
 13 18  4  0  0  0
 14 15  4  0  0  0
 14 16  4  0  0  0
 15 20  4  0  0  0
 16 17  4  0  0  0
 17 18  4  0  0  0
 19 20  4  0  0  0
 20 22  1  0  0  0
 22 21  1  0  0  0
 21 23  1  0  0  0
 23 24  1  0  0  0
 23 28  1  0  0  0
 24 25  1  0  0  0
 25 26  1  0  0  0
 26 27  1  0  0  0
 27 28  1  0  0  0
  4 29  1  0  0  0
  4 30  1  0  0  0
  6 31  1  0  0  0
  7 32  1  0  0  0
  8 33  1  0  0  0
  9 34  1  0  0  0
 11 35  1  0  0  0
 17 36  1  0  0  0
 19 37  1  0  0  0
 21 38  1  0  0  0
 21 39  1  0  0  0
 23 40  1  0  0  0
 24 41  1  0  0  0
 24 42  1  0  0  0
 25 43  1  0  0  0
 25 44  1  0  0  0
 26 45  1  0  0  0
 26 46  1  0  0  0
 27 47  1  0  0  0
 27 48  1  0  0  0
 28 49  1  0  0  0
 28 50  1  0  0  0
M  END
$$$$
