4lp0_ligand
  -I-interpret- 

 44 46  0  0  0  0  0  0  0  0999 V2000
   19.3560   33.8070    1.5980 C   0  0  0  0  0
   19.0640   32.3320    1.9600 C   0  0  0  0  0
   17.9520   30.5260    3.7400 O   0  0  0  0  0
   16.0100   31.6720    3.9670 N   0  0  0  0  0
   15.3470   30.9040    4.8690 C   0  0  0  0  0
   15.7810   29.6270    5.2890 C   0  0  0  0  0
   14.9560   28.9750    6.2430 C   0  0  0  0  0
   13.7930   29.5990    6.7600 C   0  0  0  0  0
   13.4450   30.8690    6.2880 C   0  0  0  0  0
   12.8580   28.9840    7.7140 C   0  0  0  0  0
   12.4400   27.6600    7.4910 C   0  0  0  0  0
   11.4910   27.1420    8.4100 C   0  0  0  0  0
   11.0050   27.9400    9.4520 C   0  0  0  0  0
   10.9880   25.7460    8.3020 C   0  0  0  0  0
   15.3850   27.6740    6.7180 C   0  0  0  0  0
   15.2010   27.1180    7.9120 N   0  0  0  0  0
   15.7470   25.9310    8.1180 C   0  0  0  0  0
   15.4780   25.2390    9.4230 C   0  0  0  0  0
   17.7130   32.4000    2.5620 N   0  0  0  0  0
   17.2550   31.4710    3.4420 C   0  0  0  0  0
   14.2540   31.4630    5.3970 N   0  0  0  0  0
   11.3870   29.2040    9.6180 N   0  0  0  0  0
   12.2850   29.7240    8.7740 C   0  0  0  0  0
   11.1780   25.0130    7.3330 O   0  0  0  0  0
   10.2600   25.2380    9.3120 O   0  0  0  0  0
   16.5340   25.3130    7.1790 C   0  0  0  0  0
   16.4820   26.5590    5.8610 S   0  0  0  0  0
   15.5820   26.0580   10.5490 F   0  0  0  0  0
   14.1870   24.7600    9.4130 F   0  0  0  0  0
   16.3070   24.1310    9.4620 F   0  0  0  0  0
   18.6013   34.1640    0.8972 H   0  0  0  0  0
   19.3294   34.4140    2.5030 H   0  0  0  0  0
   20.3423   33.8789    1.1396 H   0  0  0  0  0
   19.8070   31.9069    2.6348 H   0  0  0  0  0
   19.1098   31.6675    1.0972 H   0  0  0  0  0
   15.5169   32.5030    3.6405 H   0  0  0  0  0
   16.6930   29.1704    4.9044 H   0  0  0  0  0
   12.5384   31.3644    6.6356 H   0  0  0  0  0
   12.8226   27.0664    6.6608 H   0  0  0  0  0
   10.2883   27.5111   10.1523 H   0  0  0  0  0
   17.1015   33.1752    2.3060 H   0  0  0  0  0
   12.5880   30.7623    8.9091 H   0  0  0  0  0
   10.1779   25.8945   10.0076 H   0  0  0  0  0
   17.0439   24.3503    7.2146 H   0  0  0  0  0
  2  1  1  0  0  0
 19  2  1  0  0  0
 20  3  2  0  0  0
  4  5  1  0  0  0
 20  4  1  0  0  0
  5  6  4  0  0  0
  5 21  4  0  0  0
  6  7  4  0  0  0
  7  8  4  0  0  0
  7 15  1  0  0  0
  9  8  4  0  0  0
  8 10  1  0  0  0
 21  9  4  0  0  0
 10 11  4  0  0  0
 10 23  4  0  0  0
 11 12  4  0  0  0
 12 13  4  0  0  0
 12 14  1  0  0  0
 13 22  4  0  0  0
 14 24  2  0  0  0
 14 25  1  0  0  0
 15 16  4  0  0  0
 15 27  4  0  0  0
 16 17  4  0  0  0
 17 18  1  0  0  0
 17 26  4  0  0  0
 18 28  1  0  0  0
 18 29  1  0  0  0
 18 30  1  0  0  0
 19 20  1  0  0  0
 22 23  4  0  0  0
 26 27  4  0  0  0
  1 31  1  0  0  0
  1 32  1  0  0  0
  1 33  1  0  0  0
  2 34  1  0  0  0
  2 35  1  0  0  0
  4 36  1  0  0  0
  6 37  1  0  0  0
  9 38  1  0  0  0
 11 39  1  0  0  0
 13 40  1  0  0  0
 19 41  1  0  0  0
 23 42  1  0  0  0
 25 43  1  0  0  0
 26 44  1  0  0  0
M  END
$$$$
