5gid_ligand
  -I-interpret- 

 95 99  0  0  0  0  0  0  0  0999 V2000
  -11.7260   -1.9740   -8.1420 O   0  0  0  0  0
  -11.9800   -0.8840   -7.6510 C   0  0  0  0  0
  -11.4190   -0.4480   -6.3330 C   0  0  0  0  0
  -11.7560   -1.3970   -5.3190 O   0  0  0  0  0
   -9.9080   -0.2820   -6.4480 C   0  0  0  0  0
  -12.0950    0.8880   -6.0650 C   0  0  0  0  0
  -12.8120    1.2980   -7.3520 C   0  0  0  0  0
  -12.7620    0.0700   -8.1500 N   0  0  0  0  0
  -13.5500    0.0830   -9.3750 C   0  0  0  0  0
  -12.5390   -0.0500  -10.5120 C   0  0  0  0  0
  -11.9720    1.3130  -10.9000 C   0  0  0  0  0
  -10.4430    1.3530  -10.9150 C   0  0  0  0  0
  -10.0290    2.8020  -11.0650 C   0  0  0  0  0
  -10.0110    3.3980  -12.3220 C   0  0  0  0  0
   -9.6440    4.7330  -12.4630 C   0  0  0  0  0
   -9.2990    5.4790  -11.3420 C   0  0  0  0  0
   -9.3230    4.8880  -10.0820 C   0  0  0  0  0
   -9.6900    3.5520   -9.9430 C   0  0  0  0  0
  -14.2400    1.7440   -7.0170 C   0  0  0  0  0
  -14.1280    3.1930   -6.5260 C   0  0  0  0  0
  -13.2540    3.9450   -7.5370 C   0  0  0  0  0
  -15.4710    3.8580   -6.1560 C   0  0  0  0  0
  -15.4340    5.3310   -5.7160 C   0  0  0  0  0
  -14.2930    5.5650   -4.7220 C   0  0  0  0  0
  -16.7530    5.4920   -4.9750 C   0  0  0  0  0
  -16.8410    4.2350   -4.1150 C   0  0  0  0  0
  -16.2060    3.1540   -5.0070 C   0  0  0  0  0
  -15.3940    6.3540   -6.8560 C   0  0  0  0  0
  -15.6040    7.7860   -6.3660 C   0  0  0  0  0
  -16.8660    7.9340   -5.5250 C   0  0  0  0  0
  -16.8140    6.9060   -4.4310 C   0  0  0  0  0
  -16.8190    7.4050   -3.1760 C   0  0  0  0  0
  -16.7580    6.7060   -1.9020 C   0  0  0  0  0
  -16.7490    7.4010   -0.7480 C   0  0  0  0  0
  -16.7980    8.9180   -0.7140 C   0  0  0  0  0
  -17.1070    9.4910    0.6800 C   0  0  0  0  0
  -18.5210    9.5360    0.9230 O   0  0  0  0  0
  -16.4590    8.6670    1.7870 C   0  0  0  0  0
  -17.0710    7.2770    1.7780 C   0  0  0  0  0
  -16.5910    6.4910    2.8720 O   0  0  0  0  0
  -16.6700    6.6450    0.4890 C   0  0  0  0  0
  -16.2210    5.4120    0.4610 C   0  0  0  0  0
  -11.3203   -2.2318   -5.5060 H   0  0  0  0  0
   -9.6799    0.3971   -7.2695 H   0  0  0  0  0
   -9.5169    0.1279   -5.5168 H   0  0  0  0  0
   -9.4507   -1.2527   -6.6396 H   0  0  0  0  0
  -11.3595    1.6399   -5.7791 H   0  0  0  0  0
  -12.8039    0.8012   -5.2416 H   0  0  0  0  0
  -12.3695    2.1399   -7.8844 H   0  0  0  0  0
  -14.1337    0.9992   -9.4647 H   0  0  0  0  0
  -14.2775   -0.7285   -9.3905 H   0  0  0  0  0
  -13.0411   -0.4800  -11.3786 H   0  0  0  0  0
  -11.7202   -0.6882  -10.1798 H   0  0  0  0  0
  -12.3122    2.0340  -10.1567 H   0  0  0  0  0
  -12.3164    1.5368  -11.9096 H   0  0  0  0  0
  -10.0535    0.7571  -11.7404 H   0  0  0  0  0
  -10.0409    0.9345   -9.9923 H   0  0  0  0  0
  -10.2860    2.8159  -13.2016 H   0  0  0  0  0
   -9.6271    5.1930  -13.4511 H   0  0  0  0  0
   -9.0103    6.5246  -11.4494 H   0  0  0  0  0
   -9.0539    5.4723   -9.2021 H   0  0  0  0  0
   -9.7118    3.0933   -8.9545 H   0  0  0  0  0
  -14.6848    1.1031   -6.2557 H   0  0  0  0  0
  -14.8901    1.6724   -7.8890 H   0  0  0  0  0
  -13.6373    3.2237   -5.5532 H   0  0  0  0  0
  -12.2706    3.4773   -7.5839 H   0  0  0  0  0
  -13.7231    3.9068   -8.5201 H   0  0  0  0  0
  -13.1492    4.9835   -7.2231 H   0  0  0  0  0
  -15.9742    3.7751   -7.1193 H   0  0  0  0  0
  -14.4428    4.9362   -3.8443 H   0  0  0  0  0
  -13.3438    5.3118   -5.1942 H   0  0  0  0  0
  -14.2831    6.6130   -4.4223 H   0  0  0  0  0
  -17.7015    5.4886   -5.5121 H   0  0  0  0  0
  -17.8639    3.9941   -3.8257 H   0  0  0  0  0
  -16.3308    4.3436   -3.1579 H   0  0  0  0  0
  -15.5077    2.5502   -4.4274 H   0  0  0  0  0
  -16.9764    2.4921   -5.4025 H   0  0  0  0  0
  -16.1995    6.1150   -7.5503 H   0  0  0  0  0
  -14.4102    6.2993   -7.3222 H   0  0  0  0  0
  -15.7040    8.4298   -7.2398 H   0  0  0  0  0
  -14.7510    8.0578   -5.7442 H   0  0  0  0  0
  -17.7514    7.7838   -6.1427 H   0  0  0  0  0
  -16.9211    8.9360   -5.0995 H   0  0  0  0  0
  -16.8773    8.4913   -3.1079 H   0  0  0  0  0
  -16.7195    5.6169   -1.8809 H   0  0  0  0  0
  -17.5979    9.2350   -1.3832 H   0  0  0  0  0
  -15.8144    9.2842   -1.0080 H   0  0  0  0  0
  -16.6957   10.5004    0.6922 H   0  0  0  0  0
  -18.6829    9.8969    1.7977 H   0  0  0  0  0
  -16.6314    9.1422    2.7527 H   0  0  0  0  0
  -15.3841    8.6003    1.6192 H   0  0  0  0  0
  -18.1545    7.3398    1.8789 H   0  0  0  0  0
  -16.9941    5.6203    2.8401 H   0  0  0  0  0
  -15.9121    4.9658   -0.4843 H   0  0  0  0  0
  -16.1570    4.8342    1.3831 H   0  0  0  0  0
  1  2  2  0  0  0
  2  3  1  0  0  0
  2  8  1  0  0  0
  3  4  1  0  0  0
  3  5  1  0  0  0
  3  6  1  0  0  0
  6  7  1  0  0  0
  7  8  1  0  0  0
  7 19  1  0  0  0
  8  9  1  0  0  0
  9 10  1  0  0  0
 10 11  1  0  0  0
 11 12  1  0  0  0
 12 13  1  0  0  0
 13 14  4  0  0  0
 13 18  4  0  0  0
 14 15  4  0  0  0
 15 16  4  0  0  0
 16 17  4  0  0  0
 17 18  4  0  0  0
 19 20  1  0  0  0
 20 21  1  0  0  0
 20 22  1  0  0  0
 22 23  1  0  0  0
 22 27  1  0  0  0
 23 24  1  0  0  0
 23 25  1  0  0  0
 23 28  1  0  0  0
 25 26  1  0  0  0
 25 31  1  0  0  0
 26 27  1  0  0  0
 28 29  1  0  0  0
 29 30  1  0  0  0
 30 31  1  0  0  0
 31 32  2  0  0  0
 32 33  1  0  0  0
 33 34  2  0  0  0
 34 35  1  0  0  0
 34 41  1  0  0  0
 35 36  1  0  0  0
 36 37  1  0  0  0
 36 38  1  0  0  0
 38 39  1  0  0  0
 39 40  1  0  0  0
 39 41  1  0  0  0
 41 42  2  0  0  0
  4 43  1  0  0  0
  5 44  1  0  0  0
  5 45  1  0  0  0
  5 46  1  0  0  0
  6 47  1  0  0  0
  6 48  1  0  0  0
  7 49  1  0  0  0
  9 50  1  0  0  0
  9 51  1  0  0  0
 10 52  1  0  0  0
 10 53  1  0  0  0
 11 54  1  0  0  0
 11 55  1  0  0  0
 12 56  1  0  0  0
 12 57  1  0  0  0
 14 58  1  0  0  0
 15 59  1  0  0  0
 16 60  1  0  0  0
 17 61  1  0  0  0
 18 62  1  0  0  0
 19 63  1  0  0  0
 19 64  1  0  0  0
 20 65  1  0  0  0
 21 66  1  0  0  0
 21 67  1  0  0  0
 21 68  1  0  0  0
 22 69  1  0  0  0
 24 70  1  0  0  0
 24 71  1  0  0  0
 24 72  1  0  0  0
 25 73  1  0  0  0
 26 74  1  0  0  0
 26 75  1  0  0  0
 27 76  1  0  0  0
 27 77  1  0  0  0
 28 78  1  0  0  0
 28 79  1  0  0  0
 29 80  1  0  0  0
 29 81  1  0  0  0
 30 82  1  0  0  0
 30 83  1  0  0  0
 32 84  1  0  0  0
 33 85  1  0  0  0
 35 86  1  0  0  0
 35 87  1  0  0  0
 36 88  1  0  0  0
 37 89  1  0  0  0
 38 90  1  0  0  0
 38 91  1  0  0  0
 39 92  1  0  0  0
 40 93  1  0  0  0
 42 94  1  0  0  0
 42 95  1  0  0  0
M  END
$$$$
