6p5w_ligand
  -I-interpret- 

 62 66  0  0  0  0  0  0  0  0999 V2000
   16.5710  -11.4330   -9.8250 C   0  0  0  0  0
   16.2780  -10.8910   -2.6020 C   0  0  0  0  0
   15.3580  -10.7970   -9.6300 C   0  0  0  0  0
   14.1900  -11.5310   -9.5490 C   0  0  0  0  0
   16.2230   -9.9650   -5.2370 C   0  0  0  0  0
   14.2300  -12.9130   -9.6350 C   0  0  0  0  0
   15.3350   -9.2750   -9.5670 C   0  0  0  0  0
   14.5210   -8.7090   -8.4070 C   0  0  0  0  0
   16.1210   -9.4290   -6.6560 C   0  0  0  0  0
   17.2000   -9.4890   -4.3730 C   0  0  0  0  0
   17.2200   -9.9750   -3.0690 C   0  0  0  0  0
   14.7670   -9.2840   -7.0940 N   0  0  0  0  0
   12.5260   -8.3560   -9.8850 N   0  0  0  0  0
   16.6120  -12.8130   -9.9190 C   0  0  0  0  0
   14.3590   -8.0080  -12.9950 N   0  0  0  0  0
   15.5140  -15.0860   -9.9120 C   0  0  0  0  0
   15.2790  -11.3220   -3.4830 C   0  0  0  0  0
   14.2120  -12.3270   -3.0280 C   0  0  0  0  0
   15.2470  -10.8390   -4.7930 C   0  0  0  0  0
   13.0790   -8.2430   -8.5600 C   0  0  0  0  0
   13.4330   -8.2930  -11.0290 C   0  0  0  0  0
   15.4450  -13.5540   -9.8140 C   0  0  0  0  0
   14.7970   -8.7270  -10.9260 C   0  0  0  0  0
   15.3460   -8.5160  -12.2220 C   0  0  0  0  0
   16.7900   -8.8120  -12.6340 C   0  0  0  0  0
   11.9720   -7.3830  -12.7800 C   0  0  0  0  0
   10.8970   -8.2550  -12.8870 C   0  0  0  0  0
    9.6920   -7.7970  -13.3760 C   0  0  0  0  0
    9.5800   -6.4680  -13.7480 C   0  0  0  0  0
   10.6570   -5.6000  -13.6350 C   0  0  0  0  0
   11.8670   -6.0530  -13.1560 C   0  0  0  0  0
   13.2320   -7.8810  -12.2770 N   0  0  0  0  0
   17.0480   -9.1060   -7.3280 O   0  0  0  0  0
   12.2290   -8.8990   -7.6350 O   0  0  0  0  0
   17.4889  -10.8506   -9.9041 H   0  0  0  0  0
   16.3184  -11.2617   -1.5778 H   0  0  0  0  0
   13.2354  -11.0216   -9.4172 H   0  0  0  0  0
   13.3101  -13.4932   -9.5622 H   0  0  0  0  0
   16.3586   -8.9464   -9.3870 H   0  0  0  0  0
   15.0301   -7.7492   -8.4950 H   0  0  0  0  0
   17.9322   -8.7539   -4.7072 H   0  0  0  0  0
   17.9985   -9.6278   -2.3897 H   0  0  0  0  0
   13.9920   -9.5771   -6.4992 H   0  0  0  0  0
   11.5226   -8.4774  -10.0220 H   0  0  0  0  0
   17.5646  -13.3189  -10.0761 H   0  0  0  0  0
   15.1229  -15.5255   -8.9944 H   0  0  0  0  0
   14.9174  -15.4218  -10.7602 H   0  0  0  0  0
   16.5505  -15.3936  -10.0506 H   0  0  0  0  0
   14.6960  -13.2525   -2.7160 H   0  0  0  0  0
   13.6531  -11.9078   -2.1913 H   0  0  0  0  0
   13.5318  -12.5320   -3.8547 H   0  0  0  0  0
   14.4503  -11.1518   -5.4679 H   0  0  0  0  0
   13.1257   -7.1745   -8.3496 H   0  0  0  0  0
   16.7930   -9.5393  -13.4459 H   0  0  0  0  0
   17.2673   -7.8907  -12.9680 H   0  0  0  0  0
   17.3344   -9.2160  -11.7805 H   0  0  0  0  0
   11.0052   -9.2970  -12.5858 H   0  0  0  0  0
    8.8403   -8.4710  -13.4684 H   0  0  0  0  0
    8.6310   -6.0977  -14.1357 H   0  0  0  0  0
   10.5453   -4.5556  -13.9264 H   0  0  0  0  0
   12.7215   -5.3812  -13.0747 H   0  0  0  0  0
   11.3286   -8.5875   -7.7529 H   0  0  0  0  0
  3  1  4  0  0  0
  1 14  4  0  0  0
 11  2  4  0  0  0
 17  2  4  0  0  0
  3  4  4  0  0  0
  7  3  1  0  0  0
  4  6  4  0  0  0
  9  5  1  0  0  0
  5 10  4  0  0  0
  5 19  4  0  0  0
  6 22  4  0  0  0
  7  8  1  0  0  0
 23  7  1  0  0  0
  8 12  1  0  0  0
 20  8  1  0  0  0
 12  9  1  0  0  0
  9 33  2  0  0  0
 10 11  4  0  0  0
 13 20  1  0  0  0
 21 13  1  0  0  0
 14 22  4  0  0  0
 15 24  4  0  0  0
 32 15  4  0  0  0
 22 16  1  0  0  0
 17 18  1  0  0  0
 19 17  4  0  0  0
 20 34  1  0  0  0
 21 23  4  0  0  0
 32 21  4  0  0  0
 23 24  4  0  0  0
 24 25  1  0  0  0
 26 27  4  0  0  0
 26 31  4  0  0  0
 26 32  1  0  0  0
 27 28  4  0  0  0
 28 29  4  0  0  0
 29 30  4  0  0  0
 30 31  4  0  0  0
  1 35  1  0  0  0
  2 36  1  0  0  0
  4 37  1  0  0  0
  6 38  1  0  0  0
  7 39  1  0  0  0
  8 40  1  0  0  0
 10 41  1  0  0  0
 11 42  1  0  0  0
 12 43  1  0  0  0
 13 44  1  0  0  0
 14 45  1  0  0  0
 16 46  1  0  0  0
 16 47  1  0  0  0
 16 48  1  0  0  0
 18 49  1  0  0  0
 18 50  1  0  0  0
 18 51  1  0  0  0
 19 52  1  0  0  0
 20 53  1  0  0  0
 25 54  1  0  0  0
 25 55  1  0  0  0
 25 56  1  0  0  0
 27 57  1  0  0  0
 28 58  1  0  0  0
 29 59  1  0  0  0
 30 60  1  0  0  0
 31 61  1  0  0  0
 34 62  1  0  0  0
M  END
$$$$
