2yjx_ligand
  -I-interpret- 

 36 40  0  0  0  0  0  0  0  0999 V2000
    8.5930   10.3540  -26.1000 C   0  0  0  0  0
    7.4600    9.7000  -26.6960 C   0  0  0  0  0
    8.5970   11.5500  -25.3120 C   0  0  0  0  0
    6.2220   10.3510  -26.5000 C   0  0  0  0  0
   12.3170   14.3420  -23.9350 C   0  0  0  0  0
   13.3010   14.5510  -22.9340 C   0  0  0  0  0
   11.6170   14.7500  -21.1430 C   0  0  0  0  0
    7.3230   12.2160  -25.1160 C   0  0  0  0  0
    6.1160   11.5930  -25.7120 C   0  0  0  0  0
   10.9060   14.3590  -23.4610 C   0  0  0  0  0
   10.6260   14.5770  -22.0740 C   0  0  0  0  0
    8.8370   14.3080  -23.2510 C   0  0  0  0  0
    6.8490   13.3440  -24.3510 C   0  0  0  0  0
    4.9360   12.3660  -25.3640 C   0  0  0  0  0
    7.4370   14.2420  -23.5200 C   0  0  0  0  0
    6.5130   15.2610  -22.7520 C   0  0  0  0  0
    5.2180   15.6320  -23.4950 C   0  0  0  0  0
    4.4790   14.4090  -24.0040 C   0  0  0  0  0
   12.9900   14.7400  -21.5420 N   0  0  0  0  0
    9.7730   14.2050  -24.2000 N   0  0  0  0  0
    9.2760   14.5380  -21.9430 N   0  0  0  0  0
    5.4220   13.3660  -24.5740 N   0  0  0  0  0
    3.7100   12.2050  -25.6800 O   0  0  0  0  0
    9.5625    9.8848  -26.2674 H   0  0  0  0  0
    7.5497    8.7702  -27.2578 H   0  0  0  0  0
    9.5168   11.9426  -24.8786 H   0  0  0  0  0
    5.3218    9.9244  -26.9425 H   0  0  0  0  0
   12.5770   14.1799  -24.9810 H   0  0  0  0  0
   14.3482   14.5693  -23.2358 H   0  0  0  0  0
   11.3574   14.8958  -20.0944 H   0  0  0  0  0
    7.0851   16.1806  -22.6290 H   0  0  0  0  0
    6.2191   14.7836  -21.8172 H   0  0  0  0  0
    5.4843   16.2489  -24.3533 H   0  0  0  0  0
    4.5652   16.1568  -22.7974 H   0  0  0  0  0
    3.8042   14.7268  -24.7988 H   0  0  0  0  0
    3.9453   13.9617  -23.1654 H   0  0  0  0  0
  1  2  4  0  0  0
  3  1  4  0  0  0
  4  2  4  0  0  0
  8  3  4  0  0  0
  9  4  4  0  0  0
  5  6  4  0  0  0
 10  5  4  0  0  0
 19  6  4  0  0  0
 11  7  4  0  0  0
  7 19  4  0  0  0
  8  9  4  0  0  0
 13  8  1  0  0  0
  9 14  1  0  0  0
 11 10  4  0  0  0
 20 10  4  0  0  0
 21 11  4  0  0  0
 15 12  1  0  0  0
 12 20  4  0  0  0
 12 21  4  0  0  0
 13 15  2  0  0  0
 13 22  1  0  0  0
 14 22  1  0  0  0
 14 23  2  0  0  0
 15 16  1  0  0  0
 16 17  1  0  0  0
 17 18  1  0  0  0
 18 22  1  0  0  0
  1 24  1  0  0  0
  2 25  1  0  0  0
  3 26  1  0  0  0
  4 27  1  0  0  0
  5 28  1  0  0  0
  6 29  1  0  0  0
  7 30  1  0  0  0
 16 31  1  0  0  0
 16 32  1  0  0  0
 17 33  1  0  0  0
 17 34  1  0  0  0
 18 35  1  0  0  0
 18 36  1  0  0  0
M  END
$$$$
