4mbc_ligand
  -I-interpret- 

 56 59  0  0  0  0  0  0  0  0999 V2000
   19.1340   34.6860    1.8490 C   0  0  0  0  0
   19.6590   33.5670    1.3240 C   0  0  0  0  0
   19.0560   32.2220    1.5370 C   0  0  0  0  0
   15.6100   30.9350    4.7280 C   0  0  0  0  0
   14.1850   30.3800    6.3300 C   0  0  0  0  0
   13.0980   30.4640    7.1810 C   0  0  0  0  0
   12.9680   29.4170    8.0810 C   0  0  0  0  0
   13.9050   28.3780    8.0700 C   0  0  0  0  0
   15.0580   29.3040    6.4120 C   0  0  0  0  0
   13.7440   27.3420    9.0020 O   0  0  0  0  0
   13.8320   25.0160    8.7430 C   0  0  0  0  0
   12.0730   25.4280   10.3510 C   0  0  0  0  0
   11.6840   25.1510   11.7910 C   0  0  0  0  0
   12.4230   22.9410   11.4560 C   0  0  0  0  0
   10.9940   28.3290    9.1000 C   0  0  0  0  0
   11.5570   30.4830    9.8410 C   0  0  0  0  0
    9.9580   28.3490   10.0190 C   0  0  0  0  0
    9.7780   29.4620   10.8140 C   0  0  0  0  0
   11.8430   29.4210    9.0150 C   0  0  0  0  0
   17.3290   31.4290    3.1260 C   0  0  0  0  0
   12.8200   23.2740   10.0260 C   0  0  0  0  0
   14.6820   26.2720    8.8660 C   0  0  0  0  0
   10.5560   30.5600   10.7420 N   0  0  0  0  0
   14.5340   31.2930    5.3570 N   0  0  0  0  0
   14.9630   28.2610    7.2640 N   0  0  0  0  0
   13.2750   24.6580   10.0490 N   0  3  0  0  0
   16.1020   31.7310    3.7070 N   0  0  0  0  0
   17.6870   32.2540    2.1220 N   0  0  0  0  0
   18.0450   30.5200    3.4960 O   0  0  0  0  0
   11.3190   23.7600   11.8730 O   0  0  0  0  0
   16.3240   29.4320    5.2530 S   0  0  0  0  0
   18.2317   34.6310    2.4580 H   0  0  0  0  0
   19.6102   35.6493    1.6661 H   0  0  0  0  0
   20.5617   33.6462    0.7183 H   0  0  0  0  0
   19.6952   31.6904    2.2420 H   0  0  0  0  0
   18.9776   31.7457    0.5597 H   0  0  0  0  0
   12.3931   31.2947    7.1467 H   0  0  0  0  0
   14.4533   24.1966    8.3815 H   0  0  0  0  0
   13.0164   25.2021    8.0442 H   0  0  0  0  0
   12.2641   26.4921   10.2119 H   0  0  0  0  0
   11.2634   25.1382    9.6811 H   0  0  0  0  0
   10.8503   25.7852   12.0924 H   0  0  0  0  0
   12.5144   25.3704   12.4621 H   0  0  0  0  0
   13.2722   23.1287   12.1130 H   0  0  0  0  0
   12.1270   21.8932   11.5074 H   0  0  0  0  0
   11.1398   27.4650    8.4516 H   0  0  0  0  0
   12.2075   31.3538    9.7589 H   0  0  0  0  0
    9.2905   27.4925   10.1133 H   0  0  0  0  0
    8.9637   29.4528   11.5385 H   0  0  0  0  0
   11.9808   23.1451    9.3425 H   0  0  0  0  0
   13.6034   22.6062    9.6675 H   0  0  0  0  0
   15.3602   26.2188    9.7176 H   0  0  0  0  0
   15.3280   26.4090    7.9988 H   0  0  0  0  0
   14.0121   24.8313   10.7325 H   0  0  0  0  0
   15.5663   32.5360    3.3823 H   0  0  0  0  0
   17.0038   32.9161    1.7541 H   0  0  0  0  0
  2  1  2  0  0  0
  3  2  1  0  0  0
 28  3  1  0  0  0
  4 24  4  0  0  0
 27  4  1  0  0  0
  4 31  4  0  0  0
  5  6  4  0  0  0
  9  5  4  0  0  0
 24  5  4  0  0  0
  6  7  4  0  0  0
  8  7  4  0  0  0
  7 19  1  0  0  0
  8 10  1  0  0  0
 25  8  4  0  0  0
  9 25  4  0  0  0
 31  9  4  0  0  0
 10 22  1  0  0  0
 22 11  1  0  0  0
 11 26  1  0  0  0
 12 13  1  0  0  0
 26 12  1  0  0  0
 13 30  1  0  0  0
 14 21  1  0  0  0
 30 14  1  0  0  0
 15 17  4  0  0  0
 19 15  4  0  0  0
 19 16  4  0  0  0
 16 23  4  0  0  0
 17 18  4  0  0  0
 23 18  4  0  0  0
 20 27  1  0  0  0
 20 28  1  0  0  0
 20 29  2  0  0  0
 21 26  1  0  0  0
  1 32  1  0  0  0
  1 33  1  0  0  0
  2 34  1  0  0  0
  3 35  1  0  0  0
  3 36  1  0  0  0
  6 37  1  0  0  0
 11 38  1  0  0  0
 11 39  1  0  0  0
 12 40  1  0  0  0
 12 41  1  0  0  0
 13 42  1  0  0  0
 13 43  1  0  0  0
 14 44  1  0  0  0
 14 45  1  0  0  0
 15 46  1  0  0  0
 16 47  1  0  0  0
 17 48  1  0  0  0
 18 49  1  0  0  0
 21 50  1  0  0  0
 21 51  1  0  0  0
 22 52  1  0  0  0
 22 53  1  0  0  0
 26 54  1  0  0  0
 27 55  1  0  0  0
 28 56  1  0  0  0
M  END
$$$$
