6fmn_ligand
  -I-interpret- 

 39 42  0  0  0  0  0  0  0  0999 V2000
   18.7320   19.7910   12.7470 C   0  0  0  0  0
   17.0170   19.3720   14.3150 C   0  0  0  0  0
   17.2020   18.1340   15.1720 C   0  0  0  0  0
   17.8070   17.9500   17.5460 C   0  0  0  0  0
   20.0100   19.2370   12.6420 O   0  0  0  0  0
   16.7320   17.2260   19.2790 C   0  0  0  0  0
   15.7800   16.7640   20.1960 C   0  0  0  0  0
   16.0720   16.7990   21.5650 C   0  0  0  0  0
   15.3180   16.5710   23.7690 C   0  0  0  0  0
   17.5700   17.3990   23.4410 C   0  0  0  0  0
   18.3290   19.9300   14.0970 O   0  0  0  0  0
   18.6220   17.8150   23.9150 O   0  0  0  0  0
   17.3210   17.2710   21.9980 C   0  0  0  0  0
   18.1090   18.3180   16.2940 N   0  0  0  0  0
   18.2880   17.6870   21.0810 C   0  0  0  0  0
   17.9740   17.6760   19.7300 C   0  0  0  0  0
   16.4640   19.1300   12.9190 C   0  0  0  0  0
   15.0690   16.4270   22.4700 N   0  0  0  0  0
   14.3840   16.2560   24.6660 N   0  0  0  0  0
   16.5120   17.0440   24.2450 N   0  0  0  0  0
   16.6500   17.4070   17.8950 N   0  0  0  0  0
   18.6440   18.1170   18.5970 N   0  0  0  0  0
   17.7330   18.8180   12.1310 C   0  0  0  0  0
   17.5650   19.0670   10.7450 O   0  0  0  0  0
   15.8520   20.3230   12.4470 O   0  0  0  0  0
   18.7580   20.7631   12.2547 H   0  0  0  0  0
   16.3052   19.9989   14.8521 H   0  0  0  0  0
   17.6312   17.3615   14.5339 H   0  0  0  0  0
   16.2260   17.8791   15.5850 H   0  0  0  0  0
   20.2483   19.1583   11.7154 H   0  0  0  0  0
   14.8209   16.3808   19.8475 H   0  0  0  0  0
   19.0176   18.7474   16.1193 H   0  0  0  0  0
   19.2709   18.0142   21.4202 H   0  0  0  0  0
   15.7094   18.3465   12.8505 H   0  0  0  0  0
   14.1762   16.0575   22.1432 H   0  0  0  0  0
   14.5736   16.3710   25.6616 H   0  0  0  0  0
   18.0357   17.7725   12.1894 H   0  0  0  0  0
   18.3806   18.8603   10.2827 H   0  0  0  0  0
   15.0578   20.4974   12.9573 H   0  0  0  0  0
  1  5  1  0  0  0
 11  1  1  0  0  0
  1 23  1  0  0  0
  3  2  1  0  0  0
  2 11  1  0  0  0
  2 17  1  0  0  0
 14  3  1  0  0  0
  4 14  1  0  0  0
 21  4  4  0  0  0
  4 22  4  0  0  0
  7  6  4  0  0  0
  6 16  4  0  0  0
  6 21  4  0  0  0
  8  7  4  0  0  0
 13  8  4  0  0  0
  8 18  1  0  0  0
 18  9  1  0  0  0
  9 19  2  0  0  0
  9 20  4  0  0  0
 10 12  2  0  0  0
 10 13  1  0  0  0
 10 20  1  0  0  0
 13 15  4  0  0  0
 15 16  4  0  0  0
 16 22  4  0  0  0
 17 23  1  0  0  0
 17 25  1  0  0  0
 23 24  1  0  0  0
  1 26  1  0  0  0
  2 27  1  0  0  0
  3 28  1  0  0  0
  3 29  1  0  0  0
  5 30  1  0  0  0
  7 31  1  0  0  0
 14 32  1  0  0  0
 15 33  1  0  0  0
 17 34  1  0  0  0
 18 35  1  0  0  0
 19 36  1  0  0  0
 23 37  1  0  0  0
 24 38  1  0  0  0
 25 39  1  0  0  0
M  END
$$$$
