### 
### Created by X-TOOL on Mon Sep 10 21:12:52 2018
### 

@<TRIPOS>MOLECULE
1ro7_ligand
   70    72     1     0     0
SMALL
GAST_HUCK


@<TRIPOS>ATOM
      1 C5A        22.0770   -5.5180   11.4770 C.3       1 CSF         0.0992
      2 C4A        21.9970   -4.0220   11.1880 C.3       1 CSF         0.1165
      3 C2A        20.7490   -3.7580   13.4930 C.3       1 CSF         0.2837
      4 O6A        21.4410   -4.9830   13.8350 O.3       1 CSF        -0.3326
      5 C6A        22.4110   -5.6590   12.9880 C.3       1 CSF         0.1148
      6 C3A        20.8810   -3.2790   12.0160 C.3       1 CSF         0.1928
      7 O4A        21.6900   -3.9200    9.7810 O.3       1 CSF        -0.3865
      8 N5A        23.0680   -6.2430   10.7660 N.am      1 CSF        -0.2789
      9 C7A        22.3910   -7.0410   13.6690 C.3       1 CSF         0.1114
     10 C8A        22.6710   -7.1910   15.1290 C.3       1 CSF         0.1065
     11 C9A        22.8830   -8.6310   15.6290 C.3       1 CSF         0.0727
     12 O9A        22.9140   -8.6710   17.0250 O.3       1 CSF        -0.3924
     13 O8A        23.8720   -6.5210   15.5430 O.3       1 CSF        -0.3869
     14 O7A        21.0900   -7.6480   13.3690 O.3       1 CSF        -0.3865
     15 C1A        19.7750   -3.1080   14.3550 C.2       1 CSF         0.1124
     16 OBA        19.3490   -1.8470   14.1000 O.co2     1 CSF        -0.5423
     17 OAA        19.3480   -3.7510   15.2650 O.co2     1 CSF        -0.5423
     18 O1A        21.8640   -2.8540   13.9650 O.3       1 CSF        -0.2130
     19 O2A        24.4260   -2.9000   13.2690 O.co2     1 CSF        -0.6177
     20 N1         24.5280    2.3840   13.5730 N.am      1 CSF        -0.1649
     21 C2         24.4510    3.4810   12.6140 C.2       1 CSF         0.2512
     22 N3         25.5060    3.5440   11.5960 N.2       1 CSF        -0.2774
     23 C4         26.5470    2.5950   11.5370 C.2       1 CSF         0.0850
     24 C5         26.6330    1.4460   12.5320 C.2       1 CSF         0.0083
     25 C6         25.6160    1.4120   13.4910 C.2       1 CSF         0.0795
     26 C26        21.7910    0.5380   14.6540 C.3       1 CSF         0.1152
     27 C27        22.0020    1.9640   14.2310 C.3       1 CSF         0.1409
     28 C28        23.4190    2.3110   14.6620 C.3       1 CSF         0.2119
     29 O29        23.7820    1.3490   15.6830 O.3       1 CSF        -0.3345
     30 C30        22.6850    0.4400   15.9070 C.3       1 CSF         0.1191
     31 PA         23.4590   -2.6900   14.3770 P.3       1 CSF         0.2585
     32 O32        24.0280   -1.3670   15.0100 O.3       1 CSF        -0.2514
     33 C33        23.2440   -0.8980   16.1270 C.3       1 CSF         0.1124
     34 O34        20.4400    0.2870   15.0540 O.3       1 CSF        -0.3864
     35 O35        21.1320    2.8850   14.9200 O.3       1 CSF        -0.3834
     36 N4         27.4470    2.7140   10.6070 N.pl3     1 CSF        -0.3156
     37 O2         23.5180    4.3690   12.6300 O.2       1 CSF        -0.4066
     38 O3A        23.8200   -3.6330   15.3510 O.co2     1 CSF        -0.6177
     39 C10        23.0150   -7.5000   10.2800 C.2       1 CSF         0.1733
     40 O10        22.0080   -8.2010   10.4260 O.2       1 CSF        -0.3974
     41 C11        24.2340   -8.0200    9.5510 C.3       1 CSF         0.0257
     42 F3A        19.6540   -3.7120   11.5910 F         1 CSF        -0.2374
     43 H1         21.0967   -5.9669   11.2589 H         1 CSF         0.0609
     44 H2         22.9687   -3.5537   11.4037 H         1 CSF         0.0647
     45 H3         23.4093   -5.2168   13.1216 H         1 CSF         0.0646
     46 H4         21.0149   -2.1899   11.9391 H         1 CSF         0.0730
     47 H5         22.3609   -4.3670    9.2784 H         1 CSF         0.2100
     48 H6         23.9248   -5.7540   10.6025 H         1 CSF         0.1856
     49 H7         23.1689   -7.6317   13.1630 H         1 CSF         0.0647
     50 H8         21.8123   -6.7571   15.6622 H         1 CSF         0.0643
     51 H9         23.8368   -9.0127   15.2359 H         1 CSF         0.0584
     52 H10        22.0584   -9.2633   15.2682 H         1 CSF         0.0584
     53 H11        23.6271   -8.1283   17.3405 H         1 CSF         0.2095
     54 H12        23.8339   -5.6105   15.2746 H         1 CSF         0.2100
     55 H13        20.9053   -7.5562   12.4417 H         1 CSF         0.2100
     56 H14        27.4293    0.7039   12.4992 H         1 CSF         0.0373
     57 H15        25.6361    0.6080   14.2253 H         1 CSF         0.1328
     58 H16        22.0942   -0.1666   13.8656 H         1 CSF         0.0648
     59 H17        21.8732    2.0627   13.1430 H         1 CSF         0.0678
     60 H18        23.3767    3.3093   15.1220 H         1 CSF         0.1026
     61 H19        22.1078    0.7394   16.7942 H         1 CSF         0.0651
     62 H20        22.4155   -1.6018   16.2950 H         1 CSF         0.0647
     63 H21        23.8865   -0.8682   17.0194 H         1 CSF         0.0647
     64 H22        20.3795   -0.5817   15.4337 H         1 CSF         0.2100
     65 H23        20.2301    2.7061   14.6809 H         1 CSF         0.2101
     66 H24        28.2166    2.0323   10.5448 H         1 CSF         0.1833
     67 H25        27.3907    3.4901    9.9321 H         1 CSF         0.1833
     68 H26        24.0476   -9.0502    9.2135 H         1 CSF         0.0467
     69 H27        25.1000   -8.0074   10.2292 H         1 CSF         0.0467
     70 H28        24.4409   -7.3807    8.6801 H         1 CSF         0.0467
@<TRIPOS>BOND
     1    2    1 1  
     2    5    1 1  
     3    1    8 1  
     4    6    2 1  
     5    2    7 1  
     6    3    4 1  
     7    3    6 1  
     8    3   15 1  
     9   18    3 1  
    10    4    5 1  
    11    5    9 1  
    12    6   42 1  
    13    8   39 am 
    14    9   10 1  
    15    9   14 1  
    16   10   11 1  
    17   10   13 1  
    18   11   12 1  
    19   15   16 ar 
    20   15   17 ar 
    21   31   18 1  
    22   31   19 ar 
    23   20   21 am 
    24   20   25 am 
    25   28   20 1  
    26   21   22 1  
    27   21   37 2  
    28   22   23 2  
    29   24   23 1  
    30   23   36 1  
    31   25   24 2  
    32   26   27 1  
    33   30   26 1  
    34   26   34 1  
    35   28   27 1  
    36   27   35 1  
    37   29   28 1  
    38   30   29 1  
    39   33   30 1  
    40   32   31 1  
    41   31   38 ar 
    42   32   33 1  
    43   39   40 2  
    44   39   41 1  
    45    1   43 1  
    46    2   44 1  
    47    5   45 1  
    48    6   46 1  
    49    7   47 1  
    50    8   48 1  
    51    9   49 1  
    52   10   50 1  
    53   11   51 1  
    54   11   52 1  
    55   12   53 1  
    56   13   54 1  
    57   14   55 1  
    58   24   56 1  
    59   25   57 1  
    60   26   58 1  
    61   27   59 1  
    62   28   60 1  
    63   30   61 1  
    64   33   62 1  
    65   33   63 1  
    66   34   64 1  
    67   35   65 1  
    68   36   66 1  
    69   36   67 1  
    70   41   68 1  
    71   41   69 1  
    72   41   70 1  
@<TRIPOS>SUBSTRUCTURE
     1 CSF         1

