6ezq_ligand
  -I-interpret- 

 53 54  0  0  0  0  0  0  0  0999 V2000
  -25.7890   13.6580   29.8060 C   0  0  0  0  0
  -26.3310   14.2800   31.0360 C   0  0  0  0  0
  -24.5160   14.0530   29.3240 C   0  0  0  0  0
  -27.5340   13.7060   31.3030 N   0  0  0  0  0
  -23.8040   15.0320   30.0190 C   0  0  0  0  0
  -24.3040   15.6600   31.1460 C   0  0  0  0  0
  -24.4440   12.4240   27.3360 C   0  0  0  0  0
  -23.4360   11.2800   27.3040 C   0  0  0  0  0
  -23.7870   10.1640   26.3250 C   0  0  0  0  0
  -22.7010    9.1890   22.6800 C   0  0  0  0  0
  -22.8920   10.3820   21.7320 C   0  0  0  0  0
  -24.2610   10.5070   21.0620 C   0  0  0  0  0
  -24.5800   11.8870   20.4930 C   0  0  0  0  0
  -26.1840   12.9730   22.1370 C   0  0  0  0  0
  -26.7370   12.7420   29.4600 N   0  0  0  0  0
  -25.5490   15.3230   31.6480 C   0  0  0  0  0
  -23.9600   13.5220   28.1580 N   0  0  0  0  0
  -27.7570   12.7900   30.3460 O   0  0  0  0  0
  -25.9590   15.9670   32.8920 N   0  0  0  0  0
  -27.1120   15.8170   33.2730 O   0  0  0  0  0
  -25.1250   16.6110   33.5120 O   0  0  0  0  0
  -23.0350   10.2280   25.0000 C   0  0  0  0  0
  -23.5020    9.2100   23.9700 C   0  0  0  0  0
  -24.7960   12.9970   21.5200 C   0  0  0  0  0
  -26.2210   12.8710   23.6350 C   0  0  0  0  0
  -26.8180   13.8850   24.1970 O   0  0  0  0  0
  -25.7760   11.9220   24.2590 O   0  0  0  0  0
  -22.8142   15.3131   29.6594 H   0  0  0  0  0
  -23.7115   16.4278   31.6434 H   0  0  0  0  0
  -25.3782   12.0553   27.7596 H   0  0  0  0  0
  -24.5930   12.7875   26.3192 H   0  0  0  0  0
  -23.4181   10.8394   28.3008 H   0  0  0  0  0
  -22.4827   11.7004   26.9839 H   0  0  0  0  0
  -24.8480   10.2621   26.0954 H   0  0  0  0  0
  -23.5143    9.2227   26.8022 H   0  0  0  0  0
  -21.6523    9.2055   22.9768 H   0  0  0  0  0
  -23.0392    8.3107   22.1302 H   0  0  0  0  0
  -22.1719   10.2454   20.9252 H   0  0  0  0  0
  -22.7719   11.2763   22.3435 H   0  0  0  0  0
  -25.0064   10.3048   21.8312 H   0  0  0  0  0
  -24.2636    9.8129   20.2216 H   0  0  0  0  0
  -25.5185   11.7854   19.9481 H   0  0  0  0  0
  -23.7151   12.1820   19.8988 H   0  0  0  0  0
  -26.6806   12.0824   21.7519 H   0  0  0  0  0
  -26.6565   13.9204   21.8776 H   0  0  0  0  0
  -23.0976   13.9641   27.8398 H   0  0  0  0  0
  -21.9878   10.0136   25.2132 H   0  0  0  0  0
  -23.2102   11.2174   24.5775 H   0  0  0  0  0
  -23.3899    8.2264   24.4262 H   0  0  0  0  0
  -24.5236    9.4794   23.7019 H   0  0  0  0  0
  -24.6770   13.9515   21.0073 H   0  0  0  0  0
  -24.0732   12.8518   22.3229 H   0  0  0  0  0
  -27.0859   14.5119   23.5211 H   0  0  0  0  0
  1  2  4  0  0  0
  3  1  4  0  0  0
  1 15  4  0  0  0
  2  4  4  0  0  0
  2 16  4  0  0  0
  3  5  4  0  0  0
 17  3  1  0  0  0
 18  4  4  0  0  0
  5  6  4  0  0  0
  6 16  4  0  0  0
  8  7  1  0  0  0
  7 17  1  0  0  0
  9  8  1  0  0  0
 22  9  1  0  0  0
 10 11  1  0  0  0
 23 10  1  0  0  0
 11 12  1  0  0  0
 12 13  1  0  0  0
 13 24  1  0  0  0
 24 14  1  0  0  0
 14 25  1  0  0  0
 15 18  4  0  0  0
 16 19  1  0  0  0
 19 20  2  0  0  0
 19 21  2  0  0  0
 22 23  1  0  0  0
 25 26  1  0  0  0
 25 27  2  0  0  0
  5 28  1  0  0  0
  6 29  1  0  0  0
  7 30  1  0  0  0
  7 31  1  0  0  0
  8 32  1  0  0  0
  8 33  1  0  0  0
  9 34  1  0  0  0
  9 35  1  0  0  0
 10 36  1  0  0  0
 10 37  1  0  0  0
 11 38  1  0  0  0
 11 39  1  0  0  0
 12 40  1  0  0  0
 12 41  1  0  0  0
 13 42  1  0  0  0
 13 43  1  0  0  0
 14 44  1  0  0  0
 14 45  1  0  0  0
 17 46  1  0  0  0
 22 47  1  0  0  0
 22 48  1  0  0  0
 23 49  1  0  0  0
 23 50  1  0  0  0
 24 51  1  0  0  0
 24 52  1  0  0  0
 26 53  1  0  0  0
M  END
$$$$
