### 
### Created by X-TOOL on Mon Sep 10 21:13:23 2018
### 

@<TRIPOS>MOLECULE
4yef_ligand
  147   154     1     0     0
SMALL
GAST_HUCK


@<TRIPOS>ATOM
      1 O64       -11.8790   -9.0110    9.7020 O.3       1 4CQ        -0.3924
      2 C64       -10.5400   -8.6570    9.2700 C.3       1 4CQ         0.0730
      3 C54        -9.6810   -9.8660    9.0930 C.3       1 4CQ         0.1134
      4 C44        -8.1630   -9.5360    9.0100 C.3       1 4CQ         0.1184
      5 O44        -7.6720   -9.0820   10.2720 O.3       1 4CQ        -0.3401
      6 C15        -7.0290   -7.8250   10.3510 C.3       1 4CQ         0.1884
      7 C25        -5.7580   -8.0570   11.1720 C.3       1 4CQ         0.1341
      8 O25        -4.9770   -9.1110   10.5970 O.3       1 4CQ        -0.3841
      9 C35        -6.1190   -8.4200   12.6020 C.3       1 4CQ         0.1144
     10 O35        -4.9440   -8.5840   13.4200 O.3       1 4CQ        -0.3864
     11 O55        -7.8350   -6.8570   11.0010 O.3       1 4CQ        -0.3405
     12 C55        -8.2780   -7.1810   12.3140 C.3       1 4CQ         0.1134
     13 C65        -9.1960   -6.0480   12.7200 C.3       1 4CQ         0.0730
     14 O65       -10.4360   -6.2190   11.9700 O.3       1 4CQ        -0.3924
     15 C45        -7.0430   -7.3440   13.1930 C.3       1 4CQ         0.1184
     16 O45        -7.4120   -7.7580   14.5040 O.3       1 4CQ        -0.3401
     17 C16        -7.2650   -6.8520   15.5880 C.3       1 4CQ         0.1884
     18 C26        -6.4670   -7.5530   16.6820 C.3       1 4CQ         0.1341
     19 O26        -5.1780   -7.9550   16.1840 O.3       1 4CQ        -0.3841
     20 C36        -7.1980   -8.7860   17.1880 C.3       1 4CQ         0.1144
     21 O36        -6.4540   -9.3280   18.2860 O.3       1 4CQ        -0.3864
     22 O56        -8.6050   -6.5530   16.0680 O.3       1 4CQ        -0.3405
     23 C56        -9.3120   -7.7780   16.3270 C.3       1 4CQ         0.1134
     24 C66       -10.8150   -7.5050   16.4760 C.3       1 4CQ         0.0730
     25 O66       -10.9190   -6.6580   17.6070 O.3       1 4CQ        -0.3924
     26 C46        -8.6400   -8.4230   17.5730 C.3       1 4CQ         0.1184
     27 O46        -9.2780   -9.6450   17.9340 O.3       1 4CQ        -0.3401
     28 C17        -9.9940   -9.6350   19.1880 C.3       1 4CQ         0.1884
     29 C27        -9.4390  -10.7290   20.0920 C.3       1 4CQ         0.1341
     30 O27        -8.0390  -10.5150   20.2370 O.3       1 4CQ        -0.3841
     31 C37        -9.7360  -12.0830   19.4640 C.3       1 4CQ         0.1144
     32 O37        -9.3470  -13.1660   20.3100 O.3       1 4CQ        -0.3864
     33 O57       -11.3780   -9.8320   18.9190 O.3       1 4CQ        -0.3405
     34 C57       -11.7130  -11.0490   18.2710 C.3       1 4CQ         0.1134
     35 C67       -13.1990  -11.0590   18.0040 C.3       1 4CQ         0.0730
     36 O67       -13.4670   -9.9070   17.1870 O.3       1 4CQ        -0.3924
     37 O54       -10.0720  -10.5250    7.8900 O.3       1 4CQ        -0.3405
     38 C14        -9.4280  -11.7280    7.5620 C.3       1 4CQ         0.1884
     39 C24        -7.9320  -11.4300    7.3760 C.3       1 4CQ         0.1341
     40 O24        -7.2500  -12.6450    7.1390 O.3       1 4CQ        -0.3841
     41 C34        -7.3630  -10.7420    8.6060 C.3       1 4CQ         0.1144
     42 O34        -5.9730  -10.3360    8.3790 O.3       1 4CQ        -0.3864
     43 O43        -9.5830  -12.5750    8.6600 O.3       1 4CQ        -0.3401
     44 C43       -10.2710  -13.8000    8.3010 C.3       1 4CQ         0.1184
     45 C53       -11.7200  -13.7090    8.6960 C.3       1 4CQ         0.1134
     46 C63       -12.6010  -12.9060    7.7250 C.3       1 4CQ         0.0730
     47 O63       -13.4480  -12.1730    8.6180 O.3       1 4CQ        -0.3924
     48 O53       -12.3910  -14.9590    9.0200 O.3       1 4CQ        -0.3405
     49 C13       -11.6330  -16.0730    9.5060 C.3       1 4CQ         0.1884
     50 C23       -10.3370  -16.2600    8.7480 C.3       1 4CQ         0.1341
     51 O23        -9.5380  -17.3620    9.2510 O.3       1 4CQ        -0.3841
     52 C33        -9.5240  -14.9850    8.8510 C.3       1 4CQ         0.1144
     53 O33        -8.3940  -15.1620    8.0260 O.3       1 4CQ        -0.3864
     54 O42       -11.3880  -15.8280   10.8830 O.3       1 4CQ        -0.3401
     55 C42       -12.1200  -16.6420   11.8110 C.3       1 4CQ         0.1184
     56 C52       -13.1590  -15.8640   12.6340 C.3       1 4CQ         0.1134
     57 C62       -14.3090  -15.3260   11.8050 C.3       1 4CQ         0.0730
     58 O62       -14.7790  -16.3810   10.9540 O.3       1 4CQ        -0.3924
     59 O52       -13.7500  -16.7410   13.6000 O.3       1 4CQ        -0.3405
     60 C12       -12.8620  -17.3140   14.5450 C.3       1 4CQ         0.1884
     61 C22       -11.8440  -18.1400   13.7730 C.3       1 4CQ         0.1341
     62 O22       -10.8670  -18.7020   14.6400 O.3       1 4CQ        -0.3841
     63 C32       -11.1100  -17.2830   12.7530 C.3       1 4CQ         0.1144
     64 O32       -10.1920  -18.1010   12.0220 O.3       1 4CQ        -0.3864
     65 O41       -12.1940  -16.2890   15.2590 O.3       1 4CQ        -0.3401
     66 C41       -12.5340  -16.0400   16.6160 C.3       1 4CQ         0.1184
     67 C51       -13.2270  -14.6830   16.7950 C.3       1 4CQ         0.1134
     68 O51       -13.4190  -14.3970   18.1810 O.3       1 4CQ        -0.3405
     69 C61       -14.5840  -14.6330   16.1570 C.3       1 4CQ         0.0730
     70 O61       -15.3550  -15.6550   16.7880 O.3       1 4CQ        -0.3924
     71 C31       -11.2360  -16.0430   17.3870 C.3       1 4CQ         0.1144
     72 O31       -10.5400  -17.2930   17.2710 O.3       1 4CQ        -0.3864
     73 C21       -11.5110  -15.7080   18.8440 C.3       1 4CQ         0.1341
     74 O21       -10.2390  -15.6680   19.4860 O.3       1 4CQ        -0.3841
     75 C11       -12.2070  -14.3570   18.9240 C.3       1 4CQ         0.1884
     76 O47       -11.2900  -13.4080   18.3670 O.3       1 4CQ        -0.3401
     77 C47       -11.1860  -12.2170   19.1080 C.3       1 4CQ         0.1184
     78 H1        -11.8317   -9.4698   10.5325 H         1 4CQ         0.2095
     79 H2        -10.0826   -8.0019   10.0261 H         1 4CQ         0.0584
     80 H3        -10.6042   -8.1215    8.3113 H         1 4CQ         0.0584
     81 H4         -9.8446  -10.5384    9.9480 H         1 4CQ         0.0647
     82 H5         -8.0192   -8.7432    8.2611 H         1 4CQ         0.0651
     83 H6         -6.7762   -7.4685    9.3416 H         1 4CQ         0.0938
     84 H7         -5.1633   -7.1316   11.1755 H         1 4CQ         0.0671
     85 H8         -5.4881   -9.9117   10.5844 H         1 4CQ         0.2101
     86 H9         -6.6622   -9.3764   12.5884 H         1 4CQ         0.0648
     87 H10        -5.2047   -8.8099   14.3052 H         1 4CQ         0.2100
     88 H11        -8.8424   -8.1252   12.3136 H         1 4CQ         0.0647
     89 H12        -8.7349   -5.0803   12.4732 H         1 4CQ         0.0584
     90 H13        -9.3979   -6.0931   13.8004 H         1 4CQ         0.0584
     91 H14       -10.8220   -7.0598   12.1859 H         1 4CQ         0.2095
     92 H15        -6.5084   -6.3841   13.2464 H         1 4CQ         0.0651
     93 H16        -6.7528   -5.9326   15.2683 H         1 4CQ         0.0938
     94 H17        -6.3272   -6.8522   17.5182 H         1 4CQ         0.0671
     95 H18        -5.2938   -8.5520   15.4542 H         1 4CQ         0.2101
     96 H19        -7.2353   -9.5370   16.3852 H         1 4CQ         0.0648
     97 H20        -5.5820   -9.5628   17.9910 H         1 4CQ         0.2100
     98 H21        -9.1812   -8.4588   15.4730 H         1 4CQ         0.0647
     99 H22       -11.3645   -8.4432   16.6428 H         1 4CQ         0.0584
    100 H23       -11.2085   -7.0040   15.5793 H         1 4CQ         0.0584
    101 H24       -10.4296   -5.8592   17.4491 H         1 4CQ         0.2095
    102 H25        -8.6584   -7.7190   18.4180 H         1 4CQ         0.0651
    103 H26        -9.8585   -8.6613   19.6814 H         1 4CQ         0.0938
    104 H27        -9.9192  -10.6764   21.0803 H         1 4CQ         0.0671
    105 H28        -7.6239  -10.5531   19.3834 H         1 4CQ         0.2101
    106 H29        -9.1503  -12.1528   18.5356 H         1 4CQ         0.0648
    107 H30        -9.5492  -13.9894   19.8816 H         1 4CQ         0.2100
    108 H31       -11.2022  -11.0847   17.2975 H         1 4CQ         0.0647
    109 H32       -13.7569  -10.9939   18.9498 H         1 4CQ         0.0584
    110 H33       -13.4848  -11.9785   17.4722 H         1 4CQ         0.0584
    111 H34       -14.3957   -9.8687   16.9904 H         1 4CQ         0.2095
    112 H35        -9.8549  -12.1751    6.6521 H         1 4CQ         0.0938
    113 H36        -7.8029  -10.7675    6.5074 H         1 4CQ         0.0671
    114 H37        -7.3728  -13.2257    7.8808 H         1 4CQ         0.2101
    115 H38        -7.3854  -11.4633    9.4362 H         1 4CQ         0.0648
    116 H39        -5.6377   -9.9090    9.1585 H         1 4CQ         0.2100
    117 H40       -10.2469  -13.8913    7.2051 H         1 4CQ         0.0651
    118 H41       -11.7089  -13.1339    9.6336 H         1 4CQ         0.0647
    119 H42       -13.1881  -13.5721    7.0757 H         1 4CQ         0.0584
    120 H43       -11.9955  -12.2291    7.1044 H         1 4CQ         0.0584
    121 H44       -14.0449  -11.6323    8.1142 H         1 4CQ         0.2095
    122 H45       -12.2307  -16.9902    9.3989 H         1 4CQ         0.0938
    123 H46       -10.5759  -16.4557    7.6923 H         1 4CQ         0.0671
    124 H47        -8.7401  -17.4322    8.7402 H         1 4CQ         0.2101
    125 H48        -9.2330  -14.8015    9.8958 H         1 4CQ         0.0648
    126 H49        -7.8939  -15.9095    8.3320 H         1 4CQ         0.2100
    127 H50       -12.6459  -17.4273   11.2482 H         1 4CQ         0.0651
    128 H51       -12.6530  -15.0284   13.1396 H         1 4CQ         0.0647
    129 H52       -13.9632  -14.4799   11.1930 H         1 4CQ         0.0584
    130 H53       -15.1213  -14.9918   12.4672 H         1 4CQ         0.0584
    131 H54       -15.0732  -17.1097   11.4879 H         1 4CQ         0.2095
    132 H55       -13.4171  -17.9541   15.2465 H         1 4CQ         0.0938
    133 H56       -12.3746  -18.9506   13.2521 H         1 4CQ         0.0671
    134 H57       -10.4085  -18.0042   15.0932 H         1 4CQ         0.2101
    135 H58       -10.5516  -16.4921   13.2752 H         1 4CQ         0.0648
    136 H59        -9.7326  -17.5674   11.3844 H         1 4CQ         0.2100
    137 H60       -13.1981  -16.8357   16.9845 H         1 4CQ         0.0651
    138 H61       -12.5895  -13.9080   16.3445 H         1 4CQ         0.0647
    139 H62       -14.5056  -14.8258   15.0769 H         1 4CQ         0.0584
    140 H63       -15.0472  -13.6489   16.3212 H         1 4CQ         0.0584
    141 H64       -15.4074  -15.4805   17.7203 H         1 4CQ         0.2095
    142 H65       -10.5889  -15.2582   16.9683 H         1 4CQ         0.0648
    143 H66       -10.3416  -17.4601   16.3571 H         1 4CQ         0.2100
    144 H67       -12.1461  -16.4785   19.3055 H         1 4CQ         0.0671
    145 H68        -9.6996  -15.0018   19.0764 H         1 4CQ         0.2101
    146 H69       -12.4283  -14.1004   19.9705 H         1 4CQ         0.0938
    147 H70       -11.7835  -12.2892   20.0288 H         1 4CQ         0.0651
@<TRIPOS>BOND
     1    1    2 1  
     2    2    3 1  
     3    3    4 1  
     4    3   37 1  
     5    4    5 1  
     6    4   41 1  
     7    5    6 1  
     8    6    7 1  
     9    6   11 1  
    10    7    8 1  
    11    7    9 1  
    12    9   10 1  
    13    9   15 1  
    14   11   12 1  
    15   12   13 1  
    16   12   15 1  
    17   13   14 1  
    18   15   16 1  
    19   16   17 1  
    20   17   18 1  
    21   17   22 1  
    22   18   19 1  
    23   18   20 1  
    24   20   21 1  
    25   20   26 1  
    26   22   23 1  
    27   23   24 1  
    28   23   26 1  
    29   24   25 1  
    30   26   27 1  
    31   27   28 1  
    32   28   29 1  
    33   28   33 1  
    34   29   30 1  
    35   29   31 1  
    36   31   32 1  
    37   31   77 1  
    38   33   34 1  
    39   34   35 1  
    40   34   77 1  
    41   35   36 1  
    42   37   38 1  
    43   38   39 1  
    44   38   43 1  
    45   39   40 1  
    46   39   41 1  
    47   41   42 1  
    48   43   44 1  
    49   44   45 1  
    50   44   52 1  
    51   45   46 1  
    52   45   48 1  
    53   46   47 1  
    54   48   49 1  
    55   49   50 1  
    56   49   54 1  
    57   50   51 1  
    58   50   52 1  
    59   52   53 1  
    60   54   55 1  
    61   55   56 1  
    62   55   63 1  
    63   56   57 1  
    64   56   59 1  
    65   57   58 1  
    66   59   60 1  
    67   60   61 1  
    68   60   65 1  
    69   61   62 1  
    70   61   63 1  
    71   63   64 1  
    72   65   66 1  
    73   66   67 1  
    74   66   71 1  
    75   67   68 1  
    76   67   69 1  
    77   68   75 1  
    78   69   70 1  
    79   71   72 1  
    80   71   73 1  
    81   73   74 1  
    82   73   75 1  
    83   75   76 1  
    84   76   77 1  
    85    1   78 1  
    86    2   79 1  
    87    2   80 1  
    88    3   81 1  
    89    4   82 1  
    90    6   83 1  
    91    7   84 1  
    92    8   85 1  
    93    9   86 1  
    94   10   87 1  
    95   12   88 1  
    96   13   89 1  
    97   13   90 1  
    98   14   91 1  
    99   15   92 1  
   100   17   93 1  
   101   18   94 1  
   102   19   95 1  
   103   20   96 1  
   104   21   97 1  
   105   23   98 1  
   106   24   99 1  
   107   24  100 1  
   108   25  101 1  
   109   26  102 1  
   110   28  103 1  
   111   29  104 1  
   112   30  105 1  
   113   31  106 1  
   114   32  107 1  
   115   34  108 1  
   116   35  109 1  
   117   35  110 1  
   118   36  111 1  
   119   38  112 1  
   120   39  113 1  
   121   40  114 1  
   122   41  115 1  
   123   42  116 1  
   124   44  117 1  
   125   45  118 1  
   126   46  119 1  
   127   46  120 1  
   128   47  121 1  
   129   49  122 1  
   130   50  123 1  
   131   51  124 1  
   132   52  125 1  
   133   53  126 1  
   134   55  127 1  
   135   56  128 1  
   136   57  129 1  
   137   57  130 1  
   138   58  131 1  
   139   60  132 1  
   140   61  133 1  
   141   62  134 1  
   142   63  135 1  
   143   64  136 1  
   144   66  137 1  
   145   67  138 1  
   146   69  139 1  
   147   69  140 1  
   148   70  141 1  
   149   71  142 1  
   150   72  143 1  
   151   73  144 1  
   152   74  145 1  
   153   75  146 1  
   154   77  147 1  
@<TRIPOS>SUBSTRUCTURE
     1 4CQ         1

