4yef_ligand
  -I-interpret- 

147154  0  0  0  0  0  0  0  0999 V2000
  -11.8790   -9.0110    9.7020 O   0  0  0  0  0
  -10.5400   -8.6570    9.2700 C   0  0  0  0  0
   -9.6810   -9.8660    9.0930 C   0  0  0  0  0
   -8.1630   -9.5360    9.0100 C   0  0  0  0  0
   -7.6720   -9.0820   10.2720 O   0  0  0  0  0
   -7.0290   -7.8250   10.3510 C   0  0  0  0  0
   -5.7580   -8.0570   11.1720 C   0  0  0  0  0
   -4.9770   -9.1110   10.5970 O   0  0  0  0  0
   -6.1190   -8.4200   12.6020 C   0  0  0  0  0
   -4.9440   -8.5840   13.4200 O   0  0  0  0  0
   -7.8350   -6.8570   11.0010 O   0  0  0  0  0
   -8.2780   -7.1810   12.3140 C   0  0  0  0  0
   -9.1960   -6.0480   12.7200 C   0  0  0  0  0
  -10.4360   -6.2190   11.9700 O   0  0  0  0  0
   -7.0430   -7.3440   13.1930 C   0  0  0  0  0
   -7.4120   -7.7580   14.5040 O   0  0  0  0  0
   -7.2650   -6.8520   15.5880 C   0  0  0  0  0
   -6.4670   -7.5530   16.6820 C   0  0  0  0  0
   -5.1780   -7.9550   16.1840 O   0  0  0  0  0
   -7.1980   -8.7860   17.1880 C   0  0  0  0  0
   -6.4540   -9.3280   18.2860 O   0  0  0  0  0
   -8.6050   -6.5530   16.0680 O   0  0  0  0  0
   -9.3120   -7.7780   16.3270 C   0  0  0  0  0
  -10.8150   -7.5050   16.4760 C   0  0  0  0  0
  -10.9190   -6.6580   17.6070 O   0  0  0  0  0
   -8.6400   -8.4230   17.5730 C   0  0  0  0  0
   -9.2780   -9.6450   17.9340 O   0  0  0  0  0
   -9.9940   -9.6350   19.1880 C   0  0  0  0  0
   -9.4390  -10.7290   20.0920 C   0  0  0  0  0
   -8.0390  -10.5150   20.2370 O   0  0  0  0  0
   -9.7360  -12.0830   19.4640 C   0  0  0  0  0
   -9.3470  -13.1660   20.3100 O   0  0  0  0  0
  -11.3780   -9.8320   18.9190 O   0  0  0  0  0
  -11.7130  -11.0490   18.2710 C   0  0  0  0  0
  -13.1990  -11.0590   18.0040 C   0  0  0  0  0
  -13.4670   -9.9070   17.1870 O   0  0  0  0  0
  -10.0720  -10.5250    7.8900 O   0  0  0  0  0
   -9.4280  -11.7280    7.5620 C   0  0  0  0  0
   -7.9320  -11.4300    7.3760 C   0  0  0  0  0
   -7.2500  -12.6450    7.1390 O   0  0  0  0  0
   -7.3630  -10.7420    8.6060 C   0  0  0  0  0
   -5.9730  -10.3360    8.3790 O   0  0  0  0  0
   -9.5830  -12.5750    8.6600 O   0  0  0  0  0
  -10.2710  -13.8000    8.3010 C   0  0  0  0  0
  -11.7200  -13.7090    8.6960 C   0  0  0  0  0
  -12.6010  -12.9060    7.7250 C   0  0  0  0  0
  -13.4480  -12.1730    8.6180 O   0  0  0  0  0
  -12.3910  -14.9590    9.0200 O   0  0  0  0  0
  -11.6330  -16.0730    9.5060 C   0  0  0  0  0
  -10.3370  -16.2600    8.7480 C   0  0  0  0  0
   -9.5380  -17.3620    9.2510 O   0  0  0  0  0
   -9.5240  -14.9850    8.8510 C   0  0  0  0  0
   -8.3940  -15.1620    8.0260 O   0  0  0  0  0
  -11.3880  -15.8280   10.8830 O   0  0  0  0  0
  -12.1200  -16.6420   11.8110 C   0  0  0  0  0
  -13.1590  -15.8640   12.6340 C   0  0  0  0  0
  -14.3090  -15.3260   11.8050 C   0  0  0  0  0
  -14.7790  -16.3810   10.9540 O   0  0  0  0  0
  -13.7500  -16.7410   13.6000 O   0  0  0  0  0
  -12.8620  -17.3140   14.5450 C   0  0  0  0  0
  -11.8440  -18.1400   13.7730 C   0  0  0  0  0
  -10.8670  -18.7020   14.6400 O   0  0  0  0  0
  -11.1100  -17.2830   12.7530 C   0  0  0  0  0
  -10.1920  -18.1010   12.0220 O   0  0  0  0  0
  -12.1940  -16.2890   15.2590 O   0  0  0  0  0
  -12.5340  -16.0400   16.6160 C   0  0  0  0  0
  -13.2270  -14.6830   16.7950 C   0  0  0  0  0
  -13.4190  -14.3970   18.1810 O   0  0  0  0  0
  -14.5840  -14.6330   16.1570 C   0  0  0  0  0
  -15.3550  -15.6550   16.7880 O   0  0  0  0  0
  -11.2360  -16.0430   17.3870 C   0  0  0  0  0
  -10.5400  -17.2930   17.2710 O   0  0  0  0  0
  -11.5110  -15.7080   18.8440 C   0  0  0  0  0
  -10.2390  -15.6680   19.4860 O   0  0  0  0  0
  -12.2070  -14.3570   18.9240 C   0  0  0  0  0
  -11.2900  -13.4080   18.3670 O   0  0  0  0  0
  -11.1860  -12.2170   19.1080 C   0  0  0  0  0
  -12.4022   -8.2128    9.8055 H   0  0  0  0  0
  -10.0886   -8.0229   10.0330 H   0  0  0  0  0
  -10.6123   -8.1429    8.3116 H   0  0  0  0  0
   -9.8237  -10.4968    9.9704 H   0  0  0  0  0
   -8.0512   -8.7533    8.2597 H   0  0  0  0  0
   -6.8234   -7.4441    9.3506 H   0  0  0  0  0
   -5.1738   -7.1368   11.1679 H   0  0  0  0  0
   -4.7486   -8.8820    9.6931 H   0  0  0  0  0
   -6.6422   -9.3762   12.5895 H   0  0  0  0  0
   -5.2075   -8.8122   14.3145 H   0  0  0  0  0
   -8.8318   -8.1161   12.3978 H   0  0  0  0  0
   -8.7403   -5.0827   12.4996 H   0  0  0  0  0
   -9.3865   -6.0697   13.7930 H   0  0  0  0  0
  -11.0478   -5.5161   12.2008 H   0  0  0  0  0
   -6.5336   -6.3814   13.2368 H   0  0  0  0  0
   -6.7503   -5.9365   15.2962 H   0  0  0  0  0
   -6.3452   -6.8452   17.5019 H   0  0  0  0  0
   -4.6887   -8.3941   16.8835 H   0  0  0  0  0
   -7.2678   -9.5466   16.4104 H   0  0  0  0  0
   -6.9013  -10.1092   18.6196 H   0  0  0  0  0
   -9.2480   -8.4860   15.5008 H   0  0  0  0  0
  -11.3837   -8.4259   16.6052 H   0  0  0  0  0
  -11.2337   -7.0419   15.5825 H   0  0  0  0  0
  -11.8420   -6.4440   17.7613 H   0  0  0  0  0
   -8.7014   -7.7177   18.4018 H   0  0  0  0  0
   -9.8701   -8.6812   19.7008 H   0  0  0  0  0
   -9.9017  -10.7055   21.0786 H   0  0  0  0  0
   -7.6695  -11.1955   20.8045 H   0  0  0  0  0
   -9.1419  -12.1330   18.5515 H   0  0  0  0  0
   -9.5514  -13.9981   19.8771 H   0  0  0  0  0
  -11.2368  -11.1527   17.2960 H   0  0  0  0  0
  -13.7658  -11.0216   18.9343 H   0  0  0  0  0
  -13.5018  -11.9771   17.5005 H   0  0  0  0  0
  -14.4054   -9.8683   16.9884 H   0  0  0  0  0
   -9.8348  -12.1757    6.6552 H   0  0  0  0  0
   -7.8020  -10.7602    6.5260 H   0  0  0  0  0
   -6.3139  -12.4676    7.0216 H   0  0  0  0  0
   -7.4113  -11.4712    9.4147 H   0  0  0  0  0
   -5.6341   -9.9045    9.1668 H   0  0  0  0  0
  -10.2806  -13.9453    7.2208 H   0  0  0  0  0
  -11.6211  -13.1564    9.6303 H   0  0  0  0  0
  -13.1545  -13.5347    7.0275 H   0  0  0  0  0
  -12.0277  -12.2657    7.0546 H   0  0  0  0  0
  -14.0512  -11.6266    8.1089 H   0  0  0  0  0
  -12.1921  -16.9974    9.3612 H   0  0  0  0  0
  -10.5969  -16.4917    7.7151 H   0  0  0  0  0
   -8.7317  -17.4329    8.7348 H   0  0  0  0  0
   -9.2859  -14.8006    9.8986 H   0  0  0  0  0
   -7.8838  -15.9119    8.3406 H   0  0  0  0  0
  -12.6820  -17.3792   11.2375 H   0  0  0  0  0
  -12.6180  -15.0293   13.0797 H   0  0  0  0  0
  -13.9747  -14.4803   11.2041 H   0  0  0  0  0
  -15.1129  -14.9834   12.4565 H   0  0  0  0  0
  -15.5089  -16.0588   10.4201 H   0  0  0  0  0
  -13.4077  -17.9345   15.2558 H   0  0  0  0  0
  -12.4021  -18.9329   13.2751 H   0  0  0  0  0
  -10.2410  -19.2158   14.1245 H   0  0  0  0  0
  -10.5535  -16.4946   13.2598 H   0  0  0  0  0
   -9.5634  -18.4967   12.6302 H   0  0  0  0  0
  -13.2304  -16.8009   16.9685 H   0  0  0  0  0
  -12.5711  -13.9559   16.3163 H   0  0  0  0  0
  -14.5199  -14.7952   15.0810 H   0  0  0  0  0
  -15.0451  -13.6540   16.2876 H   0  0  0  0  0
  -16.2387  -15.6652   16.4130 H   0  0  0  0  0
  -10.5843  -15.2826   16.9567 H   0  0  0  0  0
   -9.7236  -17.2513   17.7744 H   0  0  0  0  0
  -12.1599  -16.4406   19.3239 H   0  0  0  0  0
  -10.3573  -15.4587   20.4154 H   0  0  0  0  0
  -12.4675  -14.0880   19.9476 H   0  0  0  0  0
  -11.7842  -12.2233   20.0192 H   0  0  0  0  0
  1  2  1  0  0  0
  2  3  1  0  0  0
  3  4  1  0  0  0
  3 37  1  0  0  0
  4  5  1  0  0  0
  4 41  1  0  0  0
  5  6  1  0  0  0
  6  7  1  0  0  0
  6 11  1  0  0  0
  7  8  1  0  0  0
  7  9  1  0  0  0
  9 10  1  0  0  0
  9 15  1  0  0  0
 11 12  1  0  0  0
 12 13  1  0  0  0
 12 15  1  0  0  0
 13 14  1  0  0  0
 15 16  1  0  0  0
 16 17  1  0  0  0
 17 18  1  0  0  0
 17 22  1  0  0  0
 18 19  1  0  0  0
 18 20  1  0  0  0
 20 21  1  0  0  0
 20 26  1  0  0  0
 22 23  1  0  0  0
 23 24  1  0  0  0
 23 26  1  0  0  0
 24 25  1  0  0  0
 26 27  1  0  0  0
 27 28  1  0  0  0
 28 29  1  0  0  0
 28 33  1  0  0  0
 29 30  1  0  0  0
 29 31  1  0  0  0
 31 32  1  0  0  0
 31 77  1  0  0  0
 33 34  1  0  0  0
 34 35  1  0  0  0
 34 77  1  0  0  0
 35 36  1  0  0  0
 37 38  1  0  0  0
 38 39  1  0  0  0
 38 43  1  0  0  0
 39 40  1  0  0  0
 39 41  1  0  0  0
 41 42  1  0  0  0
 43 44  1  0  0  0
 44 45  1  0  0  0
 44 52  1  0  0  0
 45 46  1  0  0  0
 45 48  1  0  0  0
 46 47  1  0  0  0
 48 49  1  0  0  0
 49 50  1  0  0  0
 49 54  1  0  0  0
 50 51  1  0  0  0
 50 52  1  0  0  0
 52 53  1  0  0  0
 54 55  1  0  0  0
 55 56  1  0  0  0
 55 63  1  0  0  0
 56 57  1  0  0  0
 56 59  1  0  0  0
 57 58  1  0  0  0
 59 60  1  0  0  0
 60 61  1  0  0  0
 60 65  1  0  0  0
 61 62  1  0  0  0
 61 63  1  0  0  0
 63 64  1  0  0  0
 65 66  1  0  0  0
 66 67  1  0  0  0
 66 71  1  0  0  0
 67 68  1  0  0  0
 67 69  1  0  0  0
 68 75  1  0  0  0
 69 70  1  0  0  0
 71 72  1  0  0  0
 71 73  1  0  0  0
 73 74  1  0  0  0
 73 75  1  0  0  0
 75 76  1  0  0  0
 76 77  1  0  0  0
  1 78  1  0  0  0
  2 79  1  0  0  0
  2 80  1  0  0  0
  3 81  1  0  0  0
  4 82  1  0  0  0
  6 83  1  0  0  0
  7 84  1  0  0  0
  8 85  1  0  0  0
  9 86  1  0  0  0
 10 87  1  0  0  0
 12 88  1  0  0  0
 13 89  1  0  0  0
 13 90  1  0  0  0
 14 91  1  0  0  0
 15 92  1  0  0  0
 17 93  1  0  0  0
 18 94  1  0  0  0
 19 95  1  0  0  0
 20 96  1  0  0  0
 21 97  1  0  0  0
 23 98  1  0  0  0
 24 99  1  0  0  0
 24100  1  0  0  0
 25101  1  0  0  0
 26102  1  0  0  0
 28103  1  0  0  0
 29104  1  0  0  0
 30105  1  0  0  0
 31106  1  0  0  0
 32107  1  0  0  0
 34108  1  0  0  0
 35109  1  0  0  0
 35110  1  0  0  0
 36111  1  0  0  0
 38112  1  0  0  0
 39113  1  0  0  0
 40114  1  0  0  0
 41115  1  0  0  0
 42116  1  0  0  0
 44117  1  0  0  0
 45118  1  0  0  0
 46119  1  0  0  0
 46120  1  0  0  0
 47121  1  0  0  0
 49122  1  0  0  0
 50123  1  0  0  0
 51124  1  0  0  0
 52125  1  0  0  0
 53126  1  0  0  0
 55127  1  0  0  0
 56128  1  0  0  0
 57129  1  0  0  0
 57130  1  0  0  0
 58131  1  0  0  0
 60132  1  0  0  0
 61133  1  0  0  0
 62134  1  0  0  0
 63135  1  0  0  0
 64136  1  0  0  0
 66137  1  0  0  0
 67138  1  0  0  0
 69139  1  0  0  0
 69140  1  0  0  0
 70141  1  0  0  0
 71142  1  0  0  0
 72143  1  0  0  0
 73144  1  0  0  0
 74145  1  0  0  0
 75146  1  0  0  0
 77147  1  0  0  0
M  END
$$$$
