5lmk_ligand
  -I-interpret- 

 52 56  0  0  0  0  0  0  0  0999 V2000
    2.6020   20.9700  -15.9470 O   0  0  0  0  0
    2.6020   21.8890  -16.7510 C   0  0  0  0  0
    3.5550   22.8200  -16.7270 N   0  0  0  0  0
    1.4900   21.9780  -17.7660 C   0  0  0  0  0
    1.7090   22.4240  -19.0860 C   0  0  0  0  0
    0.6440   22.4950  -20.0040 C   0  0  0  0  0
    0.2060   21.6010  -17.3640 C   0  0  0  0  0
   -0.8450   21.6730  -18.2750 C   0  0  0  0  0
   -0.6370   22.0950  -19.5930 C   0  0  0  0  0
   -1.8640   22.1550  -20.4330 C   0  0  0  0  0
   -2.3580   23.4300  -20.7290 C   0  0  0  0  0
   -3.5290   23.5690  -21.4690 C   0  0  0  0  0
   -2.5710   21.0140  -20.8450 C   0  0  0  0  0
   -3.7510   21.1510  -21.5940 C   0  0  0  0  0
   -4.2190   22.4350  -21.9210 C   0  0  0  0  0
   -5.4890   22.6610  -22.6710 C   0  0  0  0  0
   -6.5510   21.8310  -22.4730 N   0  0  0  0  0
   -7.6920   22.1210  -23.1490 C   0  0  0  0  0
   -9.0140   21.4670  -23.2080 C   0  0  0  0  0
   -9.5400   19.8150  -22.2080 Br  0  0  0  0  0
   -5.6360   23.7820  -23.5010 C   0  0  0  0  0
   -6.8420   24.0240  -24.1760 C   0  0  0  0  0
   -7.8570   23.1600  -23.9650 N   0  0  0  0  0
   -9.1400   23.2310  -24.5360 N   0  0  0  0  0
   -9.8630   22.1730  -24.0530 C   0  0  0  0  0
   -6.9820   25.0950  -25.0180 N   0  0  0  0  0
   -5.9320   26.0840  -25.2750 C   0  0  0  0  0
   -5.2530   25.9370  -26.6140 C   0  0  0  0  0
   -5.9940   25.8010  -27.7950 C   0  0  0  0  0
   -5.3180   25.6680  -29.0110 C   0  0  0  0  0
   -3.9180   25.6900  -29.0100 C   0  0  0  0  0
   -3.2300   25.8330  -27.8550 N   0  0  0  0  0
   -3.8550   25.9610  -26.6700 C   0  0  0  0  0
    4.2983   22.7711  -16.0302 H   0  0  0  0  0
    3.5412   23.5816  -17.4054 H   0  0  0  0  0
    2.7116   22.7163  -19.3981 H   0  0  0  0  0
    0.8118   22.8553  -21.0190 H   0  0  0  0  0
    0.0285   21.2536  -16.3462 H   0  0  0  0  0
   -1.8493   21.3952  -17.9551 H   0  0  0  0  0
   -1.8258   24.3149  -20.3801 H   0  0  0  0  0
   -3.9112   24.5638  -21.6981 H   0  0  0  0  0
   -2.2039   20.0216  -20.5834 H   0  0  0  0  0
   -4.3001   20.2674  -21.9195 H   0  0  0  0  0
   -4.8027   24.4740  -23.6232 H   0  0  0  0  0
  -10.9003   21.9317  -24.2853 H   0  0  0  0  0
   -7.8749   25.2117  -25.4971 H   0  0  0  0  0
   -5.1671   25.9447  -24.5111 H   0  0  0  0  0
   -6.4064   27.0653  -25.2626 H   0  0  0  0  0
   -7.0836   25.7989  -27.7660 H   0  0  0  0  0
   -5.8705   25.5493  -29.9431 H   0  0  0  0  0
   -3.3768   25.5907  -29.9509 H   0  0  0  0  0
   -3.2736   26.0831  -25.7561 H   0  0  0  0  0
  1  2  2  0  0  0
  2  3  1  0  0  0
  2  4  1  0  0  0
  4  5  4  0  0  0
  4  7  4  0  0  0
  5  6  4  0  0  0
  6  9  4  0  0  0
  7  8  4  0  0  0
  8  9  4  0  0  0
  9 10  1  0  0  0
 10 11  4  0  0  0
 10 13  4  0  0  0
 11 12  4  0  0  0
 12 15  4  0  0  0
 13 14  4  0  0  0
 14 15  4  0  0  0
 15 16  1  0  0  0
 16 17  4  0  0  0
 16 21  4  0  0  0
 17 18  4  0  0  0
 18 19  4  0  0  0
 18 23  4  0  0  0
 19 20  1  0  0  0
 19 25  4  0  0  0
 21 22  4  0  0  0
 22 23  4  0  0  0
 22 26  1  0  0  0
 23 24  4  0  0  0
 24 25  4  0  0  0
 26 27  1  0  0  0
 27 28  1  0  0  0
 28 29  4  0  0  0
 28 33  4  0  0  0
 29 30  4  0  0  0
 30 31  4  0  0  0
 31 32  4  0  0  0
 32 33  4  0  0  0
  3 34  1  0  0  0
  3 35  1  0  0  0
  5 36  1  0  0  0
  6 37  1  0  0  0
  7 38  1  0  0  0
  8 39  1  0  0  0
 11 40  1  0  0  0
 12 41  1  0  0  0
 13 42  1  0  0  0
 14 43  1  0  0  0
 21 44  1  0  0  0
 25 45  1  0  0  0
 26 46  1  0  0  0
 27 47  1  0  0  0
 27 48  1  0  0  0
 29 49  1  0  0  0
 30 50  1  0  0  0
 31 51  1  0  0  0
 33 52  1  0  0  0
M  END
$$$$
