2gg8_ligand
  -I-interpret- 

 60 60  0  0  0  0  0  0  0  0999 V2000
   -5.1170   -6.4560    6.1520 O   0  0  0  0  0
   -4.3440   -5.6440    5.6570 C   0  0  0  0  0
   -3.2140   -6.3070    5.0140 O   0  0  0  0  0
   -3.3390   -7.7360    4.9190 C   0  0  0  0  0
   -4.5550   -4.1400    5.7200 C   0  0  0  0  0
   -5.4910   -3.7020    6.8390 C   0  0  0  0  0
   -6.5400   -2.6540    6.4330 C   0  0  0  0  0
   -6.0620   -1.2400    6.7200 C   0  0  0  0  0
   -7.8660   -2.8200    7.1580 C   0  0  0  0  0
   -3.2950   -3.4130    5.8690 N   0  0  0  0  0
   -2.5900   -3.2890    6.9930 C   0  0  0  0  0
   -2.8700   -3.7810    8.0800 O   0  0  0  0  0
   -1.3100   -2.5010    6.9140 C   0  0  0  0  0
   -0.1770   -3.4410    6.4710 C   0  0  0  0  0
   -1.0270   -1.9100    8.2230 N   0  0  0  0  0
   -0.2910   -0.8300    8.2560 C   0  0  0  0  0
    0.1560   -0.2580    7.2640 O   0  0  0  0  0
    0.0280   -0.2030    9.5970 C   0  0  0  0  0
    1.4540    0.1220    9.4950 O   0  0  0  0  0
   -0.7240    1.1260    9.5910 C   0  0  0  0  0
   -0.3570    2.1110   10.6230 N   0  3  0  0  0
   -2.1910    0.8480    9.7060 C   0  0  0  0  0
   -2.7510    0.3990   10.9100 C   0  0  0  0  0
   -4.1210    0.1110   11.0150 C   0  0  0  0  0
   -4.9740    0.2640    9.9290 C   0  0  0  0  0
   -6.4200   -0.0360   10.0530 C   0  0  0  0  0
   -4.4410    0.7000    8.7120 C   0  0  0  0  0
   -3.0670    0.9870    8.6190 C   0  0  0  0  0
   -3.4290   -8.1589    5.9196 H   0  0  0  0  0
   -4.2268   -7.9839    4.3372 H   0  0  0  0  0
   -2.4557   -8.1449    4.4285 H   0  0  0  0  0
   -5.0187   -3.8940    4.7647 H   0  0  0  0  0
   -4.8697   -3.2445    7.6089 H   0  0  0  0  0
   -6.0384   -4.5891    7.1577 H   0  0  0  0  0
   -6.6833   -2.8142    5.3644 H   0  0  0  0  0
   -6.7991   -0.5268    6.3512 H   0  0  0  0  0
   -5.9364   -1.1115    7.7951 H   0  0  0  0  0
   -5.1089   -1.0713    6.2189 H   0  0  0  0  0
   -7.7155   -2.6696    8.2270 H   0  0  0  0  0
   -8.5781   -2.0849    6.7831 H   0  0  0  0  0
   -8.2517   -3.8241    6.9818 H   0  0  0  0  0
   -2.9212   -2.9589    5.0356 H   0  0  0  0  0
   -1.3982   -1.6937    6.1869 H   0  0  0  0  0
   -0.0711   -4.2475    7.1966 H   0  0  0  0  0
   -0.4152   -3.8594    5.4931 H   0  0  0  0  0
    0.7558   -2.8803    6.4104 H   0  0  0  0  0
   -1.3915   -2.3265    9.0798 H   0  0  0  0  0
   -0.2158   -0.8163   10.4645 H   0  0  0  0  0
    1.7474    0.5299   10.3130 H   0  0  0  0  0
   -0.4370    1.5930    8.6489 H   0  0  0  0  0
   -0.9281    2.9486   10.5103 H   0  0  0  0  0
   -0.5183    1.7099   11.5468 H   0  0  0  0  0
    0.6286    2.3542   10.5240 H   0  0  0  0  0
   -2.1099    0.2709   11.7822 H   0  0  0  0  0
   -4.5228   -0.2390   11.9658 H   0  0  0  0  0
   -6.5501   -1.0805   10.3364 H   0  0  0  0  0
   -6.8588    0.6063   10.8165 H   0  0  0  0  0
   -6.9109    0.1463    9.0970 H   0  0  0  0  0
   -5.0860    0.8167    7.8411 H   0  0  0  0  0
   -2.6673    1.3309    7.6650 H   0  0  0  0  0
  1  2  2  0  0  0
  2  3  1  0  0  0
  2  5  1  0  0  0
  3  4  1  0  0  0
  5  6  1  0  0  0
  5 10  1  0  0  0
  6  7  1  0  0  0
  7  8  1  0  0  0
  7  9  1  0  0  0
 10 11  1  0  0  0
 11 12  2  0  0  0
 11 13  1  0  0  0
 13 14  1  0  0  0
 13 15  1  0  0  0
 15 16  1  0  0  0
 16 17  2  0  0  0
 16 18  1  0  0  0
 18 19  1  0  0  0
 18 20  1  0  0  0
 20 21  1  0  0  0
 20 22  1  0  0  0
 22 23  4  0  0  0
 22 28  4  0  0  0
 23 24  4  0  0  0
 24 25  4  0  0  0
 25 26  1  0  0  0
 25 27  4  0  0  0
 27 28  4  0  0  0
  4 29  1  0  0  0
  4 30  1  0  0  0
  4 31  1  0  0  0
  5 32  1  0  0  0
  6 33  1  0  0  0
  6 34  1  0  0  0
  7 35  1  0  0  0
  8 36  1  0  0  0
  8 37  1  0  0  0
  8 38  1  0  0  0
  9 39  1  0  0  0
  9 40  1  0  0  0
  9 41  1  0  0  0
 10 42  1  0  0  0
 13 43  1  0  0  0
 14 44  1  0  0  0
 14 45  1  0  0  0
 14 46  1  0  0  0
 15 47  1  0  0  0
 18 48  1  0  0  0
 19 49  1  0  0  0
 20 50  1  0  0  0
 21 51  1  0  0  0
 21 52  1  0  0  0
 21 53  1  0  0  0
 23 54  1  0  0  0
 24 55  1  0  0  0
 26 56  1  0  0  0
 26 57  1  0  0  0
 26 58  1  0  0  0
 27 59  1  0  0  0
 28 60  1  0  0  0
M  END
$$$$
