5dxu_ligand
  -I-interpret- 

 50 53  0  0  0  0  0  0  0  0999 V2000
   41.0870   15.4630   35.6970 C   0  0  0  0  0
   40.8670   16.6280   34.7660 C   0  0  0  0  0
   41.6150   17.8390   35.3320 C   0  0  0  0  0
   38.4550   16.2430   34.1970 C   0  0  0  0  0
   33.7500   16.5550   33.9040 C   0  0  0  0  0
   33.0070   13.4050   32.0910 C   0  0  0  0  0
   33.8840   12.3790   31.9860 C   0  0  0  0  0
   35.0080   14.0860   32.7460 C   0  0  0  0  0
   36.1750   14.8670   33.2520 C   0  0  0  0  0
   38.5170   14.8730   33.9150 C   0  0  0  0  0
   32.4420    9.2650   30.9490 C   0  0  0  0  0
   35.9290   10.1710   30.9730 C   0  0  0  0  0
   40.5010   15.4760   36.9050 N   0  0  0  0  0
   41.7690   14.5150   35.3520 O   0  0  0  0  0
   39.4850   17.0090   34.6710 O   0  0  0  0  0
   37.2480   16.9090   34.0060 C   0  0  0  0  0
   36.1200   16.2560   33.5440 C   0  0  0  0  0
   34.9950   16.9700   33.3730 O   0  0  0  0  0
   33.0590   15.7760   32.8050 C   0  0  0  0  0
   33.6830   14.4790   32.5670 N   0  0  0  0  0
   35.0720   12.8370   32.3990 N   0  0  0  0  0
   37.3960   14.2030   33.4500 C   0  0  0  0  0
   33.5820   11.0180   31.5080 C   0  0  0  0  0
   32.3720   10.5050   31.4190 N   0  0  0  0  0
   33.6910    8.9650   30.7260 N   0  0  0  0  0
   34.4640   10.0840   31.0750 N   0  0  0  0  0
   36.5550    9.3230   32.0800 C   0  0  0  0  0
   36.3900    9.6710   29.6030 C   0  0  0  0  0
   41.2180   16.3249   33.7795 H   0  0  0  0  0
   41.4901   18.6882   34.6601 H   0  0  0  0  0
   41.2109   18.0879   36.3133 H   0  0  0  0  0
   42.6744   17.5996   35.4240 H   0  0  0  0  0
   33.1509   17.4110   34.2146 H   0  0  0  0  0
   33.8880   15.9403   34.7935 H   0  0  0  0  0
   31.9472   13.3731   31.8381 H   0  0  0  0  0
   39.4511   14.3307   34.0618 H   0  0  0  0  0
   31.5921    8.6044   30.7773 H   0  0  0  0  0
   36.2432   11.2086   31.0857 H   0  0  0  0  0
   40.6256   14.6882   37.5408 H   0  0  0  0  0
   39.9312   16.2737   37.1869 H   0  0  0  0  0
   37.1902   17.9749   34.2267 H   0  0  0  0  0
   33.1270   16.3571   31.8853 H   0  0  0  0  0
   32.0273   15.6031   33.1112 H   0  0  0  0  0
   37.4641   13.1369   33.2333 H   0  0  0  0  0
   36.2302    9.6977   33.0507 H   0  0  0  0  0
   36.2384    8.2864   31.9648 H   0  0  0  0  0
   37.6412    9.3823   32.0111 H   0  0  0  0  0
   36.0824    8.6333   29.4740 H   0  0  0  0  0
   35.9390   10.2846   28.8231 H   0  0  0  0  0
   37.4759    9.7401   29.5390 H   0  0  0  0  0
  2  1  1  0  0  0
  1 13  1  0  0  0
  1 14  2  0  0  0
  2  3  1  0  0  0
 15  2  1  0  0  0
 10  4  4  0  0  0
  4 15  1  0  0  0
 16  4  4  0  0  0
  5 18  1  0  0  0
 19  5  1  0  0  0
  7  6  4  0  0  0
  6 20  4  0  0  0
  7 21  4  0  0  0
 23  7  1  0  0  0
  8  9  1  0  0  0
  8 20  4  0  0  0
 21  8  4  0  0  0
  9 17  4  0  0  0
  9 22  4  0  0  0
 22 10  4  0  0  0
 24 11  4  0  0  0
 11 25  4  0  0  0
 26 12  1  0  0  0
 12 27  1  0  0  0
 12 28  1  0  0  0
 17 16  4  0  0  0
 17 18  1  0  0  0
 20 19  1  0  0  0
 23 24  4  0  0  0
 23 26  4  0  0  0
 25 26  4  0  0  0
  2 29  1  0  0  0
  3 30  1  0  0  0
  3 31  1  0  0  0
  3 32  1  0  0  0
  5 33  1  0  0  0
  5 34  1  0  0  0
  6 35  1  0  0  0
 10 36  1  0  0  0
 11 37  1  0  0  0
 12 38  1  0  0  0
 13 39  1  0  0  0
 13 40  1  0  0  0
 16 41  1  0  0  0
 19 42  1  0  0  0
 19 43  1  0  0  0
 22 44  1  0  0  0
 27 45  1  0  0  0
 27 46  1  0  0  0
 27 47  1  0  0  0
 28 48  1  0  0  0
 28 49  1  0  0  0
 28 50  1  0  0  0
M  END
$$$$
