5i7y_ligand
  -I-interpret- 

 45 47  0  0  0  0  0  0  0  0999 V2000
  -19.2420    3.2350    9.7250 C   0  0  0  0  0
  -19.1040    4.7130   11.6390 C   0  0  0  0  0
  -17.3190    4.6930   10.0650 C   0  0  0  0  0
  -16.5930    5.6240   10.7410 C   0  0  0  0  0
  -17.1710    6.1580   11.9860 C   0  0  0  0  0
  -16.7530    7.1080   12.9380 C   0  0  0  0  0
  -17.7210    7.1880   13.8750 C   0  0  0  0  0
  -18.4290    5.6840   12.4000 C   0  0  0  0  0
  -20.1120    3.8940    8.6800 C   0  0  0  0  0
  -21.1290    5.8340    7.5980 C   0  0  0  0  0
  -20.2530    5.1960    8.6440 C   0  0  0  0  0
  -18.5320    4.2440   10.5090 N   0  0  0  0  0
  -18.7380    6.3370   13.5700 N   0  0  0  0  0
  -20.1970    4.2910   12.0020 O   0  0  0  0  0
  -15.2800    6.1050   10.2160 C   0  0  0  0  0
  -14.3730    5.1960    9.6670 C   0  0  0  0  0
  -13.1560    5.6440    9.1770 C   0  0  0  0  0
  -12.8340    6.9870    9.2060 C   0  0  0  0  0
  -13.7260    7.9130    9.7490 C   0  0  0  0  0
  -14.9550    7.4620   10.2400 C   0  0  0  0  0
  -13.3750    9.3570    9.7970 C   0  0  0  0  0
  -13.1680    9.9830    8.7760 O   0  0  0  0  0
  -13.2570    9.9970   10.9810 N   0  0  0  0  0
  -12.9010   11.4170   11.0000 C   0  0  0  0  0
  -13.4790    9.2970   12.2500 C   0  0  0  0  0
  -18.5132    2.5952    9.2274 H   0  0  0  0  0
  -19.8726    2.6470   10.3918 H   0  0  0  0  0
  -16.9189    4.2899    9.1347 H   0  0  0  0  0
  -15.8212    7.6733   12.9212 H   0  0  0  0  0
  -17.6923    7.8393   14.7486 H   0  0  0  0  0
  -20.6298    3.2772    7.9455 H   0  0  0  0  0
  -20.7506    5.5835    6.6070 H   0  0  0  0  0
  -22.1483    5.4625    7.7037 H   0  0  0  0  0
  -21.1199    6.9161    7.7290 H   0  0  0  0  0
  -19.7350    5.8192    9.3730 H   0  0  0  0  0
  -14.6216    4.1356    9.6238 H   0  0  0  0  0
  -12.4451    4.9283    8.7641 H   0  0  0  0  0
  -11.8792    7.3250    8.8031 H   0  0  0  0  0
  -15.6681    8.1792   10.6466 H   0  0  0  0  0
  -11.9309   11.5535   10.5222 H   0  0  0  0  0
  -13.6569   11.9870   10.4598 H   0  0  0  0  0
  -12.8511   11.7640   12.0321 H   0  0  0  0  0
  -14.4966    8.9072   12.2752 H   0  0  0  0  0
  -12.7707    8.4732   12.3378 H   0  0  0  0  0
  -13.3342    9.9921   13.0771 H   0  0  0  0  0
  1  9  1  0  0  0
 12  1  1  0  0  0
  2  8  1  0  0  0
 12  2  1  0  0  0
  2 14  2  0  0  0
  3  4  2  0  0  0
  3 12  1  0  0  0
  4  5  1  0  0  0
  4 15  1  0  0  0
  5  6  4  0  0  0
  5  8  4  0  0  0
  6  7  4  0  0  0
  7 13  4  0  0  0
  8 13  4  0  0  0
  9 11  2  0  0  0
 11 10  1  0  0  0
 15 16  4  0  0  0
 15 20  4  0  0  0
 16 17  4  0  0  0
 17 18  4  0  0  0
 18 19  4  0  0  0
 19 20  4  0  0  0
 19 21  1  0  0  0
 21 22  2  0  0  0
 21 23  1  0  0  0
 23 24  1  0  0  0
 23 25  1  0  0  0
  1 26  1  0  0  0
  1 27  1  0  0  0
  3 28  1  0  0  0
  6 29  1  0  0  0
  7 30  1  0  0  0
  9 31  1  0  0  0
 10 32  1  0  0  0
 10 33  1  0  0  0
 10 34  1  0  0  0
 11 35  1  0  0  0
 16 36  1  0  0  0
 17 37  1  0  0  0
 18 38  1  0  0  0
 20 39  1  0  0  0
 24 40  1  0  0  0
 24 41  1  0  0  0
 24 42  1  0  0  0
 25 43  1  0  0  0
 25 44  1  0  0  0
 25 45  1  0  0  0
M  END
$$$$
