3qcq_ligand
  -I-interpret- 

 34 36  0  0  0  0  0  0  0  0999 V2000
  -40.6490   16.4720   12.7400 C   0  0  0  0  0
  -41.8220   17.1280   12.4460 C   0  0  0  0  0
  -42.9400   15.1320   11.7670 C   0  0  0  0  0
  -44.4240   18.5120   12.0030 C   0  0  0  0  0
  -40.6310   15.0970   12.5430 C   0  0  0  0  0
  -42.9450   16.4960   11.9600 C   0  0  0  0  0
  -41.7720   14.4790   12.0740 C   0  0  0  0  0
  -44.1550   17.2140   11.6230 C   0  0  0  0  0
  -45.6480   19.0320   11.6260 C   0  0  0  0  0
  -39.6760   14.0500   12.7090 C   0  0  0  0  0
  -46.1940   17.0560   10.6050 C   0  0  0  0  0
  -45.0440   20.8470   14.1490 C   0  0  0  0  0
  -44.8700   20.9790   12.6560 C   0  0  0  0  0
  -45.0280   16.4850   10.9230 N   0  0  0  0  0
  -46.5350   18.3100   10.9300 N   0  0  0  0  0
  -40.1960   12.8660   12.3590 N   0  0  0  0  0
  -41.4570   13.1520   11.9840 N   0  0  0  0  0
  -38.4090   14.2590   13.1660 N   0  0  0  0  0
  -47.0980   16.2830    9.8740 N   0  0  0  0  0
  -45.9880   20.3460   11.9780 N   0  0  0  0  0
  -39.7742   17.0064   13.1104 H   0  0  0  0  0
  -41.8648   18.2053   12.6062 H   0  0  0  0  0
  -43.8146   14.6008   11.3915 H   0  0  0  0  0
  -43.7054   19.1002   12.5737 H   0  0  0  0  0
  -45.9727   21.3321   14.4496 H   0  0  0  0  0
  -45.0807   19.7912   14.4173 H   0  0  0  0  0
  -44.2039   21.3228   14.6549 H   0  0  0  0  0
  -43.9416   20.4936   12.3550 H   0  0  0  0  0
  -44.8338   22.0347   12.3872 H   0  0  0  0  0
  -38.1033   15.2014   13.4084 H   0  0  0  0  0
  -37.7666   13.4730   13.2656 H   0  0  0  0  0
  -46.8545   15.3289    9.6077 H   0  0  0  0  0
  -48.0020   16.6723    9.6062 H   0  0  0  0  0
  -46.8858   20.7907   11.7867 H   0  0  0  0  0
  2  1  4  0  0  0
  1  5  4  0  0  0
  6  2  4  0  0  0
  6  3  4  0  0  0
  3  7  4  0  0  0
  4  8  4  0  0  0
  9  4  4  0  0  0
  7  5  4  0  0  0
  5 10  4  0  0  0
  8  6  1  0  0  0
  7 17  4  0  0  0
  8 14  4  0  0  0
  9 15  4  0  0  0
 20  9  1  0  0  0
 10 16  4  0  0  0
 10 18  1  0  0  0
 11 14  4  0  0  0
 15 11  4  0  0  0
 11 19  1  0  0  0
 13 12  1  0  0  0
 13 20  1  0  0  0
 16 17  4  0  0  0
  1 21  1  0  0  0
  2 22  1  0  0  0
  3 23  1  0  0  0
  4 24  1  0  0  0
 12 25  1  0  0  0
 12 26  1  0  0  0
 12 27  1  0  0  0
 13 28  1  0  0  0
 13 29  1  0  0  0
 18 30  1  0  0  0
 18 31  1  0  0  0
 19 32  1  0  0  0
 19 33  1  0  0  0
 20 34  1  0  0  0
M  END
$$$$
