4l23_ligand
  -I-interpret- 

 42 46  0  0  0  0  0  0  0  0999 V2000
   35.2160   48.7030   43.9310 N   0  0  0  0  0
   36.1900   49.1380   43.1080 C   0  0  0  0  0
   36.2790   48.8060   41.7450 C   0  0  0  0  0
   35.3470   47.9690   41.1260 C   0  0  0  0  0
   34.3520   47.5210   41.9750 C   0  0  0  0  0
   34.2820   47.8910   43.4020 C   0  0  0  0  0
   33.2250   47.3270   44.0080 O   0  0  0  0  0
   32.5490   46.5860   43.1060 C   0  0  0  0  0
   33.1850   46.6450   41.7820 C   0  0  0  0  0
   32.6810   45.9770   40.7210 N   0  0  0  0  0
   31.3150   45.7740   43.2540 C   0  0  0  0  0
   30.6330   45.6180   44.4880 N   0  0  0  0  0
   29.2840   45.0540   44.3740 C   0  0  0  0  0
   28.9610   44.5000   45.7630 C   0  0  0  0  0
   29.0970   45.5070   46.7810 O   0  0  0  0  0
   30.2880   46.3120   46.7300 C   0  0  0  0  0
   30.5560   46.8240   45.3180 C   0  0  0  0  0
   30.9120   45.1370   42.1210 N   0  0  0  0  0
   31.5430   45.2350   40.9030 C   0  0  0  0  0
   30.9510   44.4620   39.7640 C   0  0  0  0  0
   31.1910   44.7810   38.4340 C   0  0  0  0  0
   30.6410   44.0300   37.4060 C   0  0  0  0  0
   29.8420   42.9350   37.7090 C   0  0  0  0  0
   29.6050   42.6040   39.0310 C   0  0  0  0  0
   28.8270   41.5300   39.3310 O   0  0  0  0  0
   30.1590   43.3570   40.0500 C   0  0  0  0  0
   36.9580   49.7889   43.5258 H   0  0  0  0  0
   37.0990   49.2134   41.1537 H   0  0  0  0  0
   35.3995   47.6949   40.0723 H   0  0  0  0  0
   29.2365   44.2773   43.6107 H   0  0  0  0  0
   28.5591   45.8062   44.0630 H   0  0  0  0  0
   29.6599   43.6928   45.9823 H   0  0  0  0  0
   27.9289   44.1494   45.7619 H   0  0  0  0  0
   31.1334   45.6983   47.0413 H   0  0  0  0  0
   30.1537   47.1699   47.3889 H   0  0  0  0  0
   29.7724   47.5007   44.9772 H   0  0  0  0  0
   31.4738   47.4098   45.2671 H   0  0  0  0  0
   31.8225   45.6363   38.1939 H   0  0  0  0  0
   30.8345   44.2973   36.3671 H   0  0  0  0  0
   29.4036   42.3391   36.9085 H   0  0  0  0  0
   28.7631   41.4389   40.2845 H   0  0  0  0  0
   29.9725   43.0809   41.0878 H   0  0  0  0  0
  1  2  4  0  0  0
  1  6  4  0  0  0
  2  3  4  0  0  0
  3  4  4  0  0  0
  4  5  4  0  0  0
  5  6  4  0  0  0
  5  9  4  0  0  0
  6  7  4  0  0  0
  7  8  4  0  0  0
  8  9  4  0  0  0
  8 11  4  0  0  0
  9 10  4  0  0  0
 10 19  4  0  0  0
 11 12  1  0  0  0
 11 18  4  0  0  0
 12 13  1  0  0  0
 12 17  1  0  0  0
 13 14  1  0  0  0
 14 15  1  0  0  0
 15 16  1  0  0  0
 16 17  1  0  0  0
 18 19  4  0  0  0
 19 20  1  0  0  0
 20 21  4  0  0  0
 20 26  4  0  0  0
 21 22  4  0  0  0
 22 23  4  0  0  0
 23 24  4  0  0  0
 24 25  1  0  0  0
 24 26  4  0  0  0
  2 27  1  0  0  0
  3 28  1  0  0  0
  4 29  1  0  0  0
 13 30  1  0  0  0
 13 31  1  0  0  0
 14 32  1  0  0  0
 14 33  1  0  0  0
 16 34  1  0  0  0
 16 35  1  0  0  0
 17 36  1  0  0  0
 17 37  1  0  0  0
 21 38  1  0  0  0
 22 39  1  0  0  0
 23 40  1  0  0  0
 25 41  1  0  0  0
 26 42  1  0  0  0
M  END
$$$$
