### 
### Created by X-TOOL on Mon Aug  2 16:11:41 2021
### 

@<TRIPOS>MOLECULE
5zk5_ligand
  246   247     1     0     0
SMALL
GAST_HUCK


@<TRIPOS>ATOM
      1 N          58.0850   75.5060   92.8340 N.4       1 LYS         0.2377
      2 CA         57.1160   76.5390   92.3350 C.3       1 LYS         0.0621
      3 C          55.6670   76.0960   92.5690 C.2       1 LYS         0.2264
      4 O          55.2180   75.1100   91.9800 O.2       1 LYS        -0.3907
      5 CB         57.3470   76.8430   90.8400 C.3       1 LYS        -0.0040
      6 N          54.9660   76.8160   93.4470 N.am      1 LYS        -0.2610
      7 CA         53.5650   76.5370   93.8030 C.3       1 LYS         0.1312
      8 C          52.7150   77.7950   93.6830 C.2       1 LYS         0.2040
      9 O          53.1770   78.8930   93.9450 O.2       1 LYS        -0.3944
     10 CB         53.4550   75.9900   95.2320 C.3       1 LYS        -0.0092
     11 CG         54.0210   74.5810   95.3980 C.3       1 LYS        -0.0156
     12 CD         55.4070   74.5560   96.0290 C.3       1 LYS         0.0627
     13 NE         55.3470   74.4400   97.4900 N.pl3     1 LYS        -0.2723
     14 CZ         56.4070   74.3330   98.2970 C.cat     1 LYS         0.2882
     15 NH1        57.6500   74.3360   97.8090 N.pl3     1 LYS        -0.2849
     16 NH2        56.2250   74.2320   99.6120 N.pl3     1 LYS        -0.2849
     17 N          51.4700   77.6160   93.2730 N.am      1 LYS        -0.2621
     18 CA         50.5180   78.7110   93.1560 C.3       1 LYS         0.1390
     19 C          49.2300   78.2320   93.7730 C.2       1 LYS         0.2058
     20 O          48.8050   77.1060   93.4910 O.2       1 LYS        -0.3942
     21 CB         50.2450   79.0360   91.6860 C.3       1 LYS         0.0163
     22 CG         51.4330   79.5320   90.8970 C.ar      1 LYS        -0.0493
     23 CD1        51.7440   80.8890   90.8250 C.ar      1 LYS        -0.0685
     24 CD2        52.2350   78.6430   90.1950 C.ar      1 LYS        -0.0685
     25 CE1        52.8320   81.3410   90.0790 C.ar      1 LYS        -0.0398
     26 CE2        53.3300   79.0730   89.4650 C.ar      1 LYS        -0.0398
     27 CZ         53.6230   80.4240   89.3960 C.ar      1 LYS         0.0805
     28 OH         54.7160   80.8240   88.6630 O.3       1 LYS        -0.3376
     29 N          48.5920   79.0730   94.5830 N.am      1 LYS        -0.2614
     30 CA         47.2480   78.7600   95.0810 C.3       1 LYS         0.1539
     31 C          46.2280   78.9000   93.9550 C.2       1 LYS         0.2062
     32 O          46.5320   79.4970   92.8950 O.2       1 LYS        -0.3943
     33 CB         46.8700   79.6690   96.2590 C.3       1 LYS         0.0843
     34 OG         46.8640   81.0340   95.8680 O.3       1 LYS        -0.3903
     35 N          45.0310   78.3540   94.2030 N.am      1 LYS        -0.2637
     36 CA         43.8550   78.4990   93.3220 C.3       1 LYS         0.1311
     37 C          43.6160   79.9480   92.9540 C.2       1 LYS         0.2039
     38 O          43.3770   80.2710   91.8030 O.2       1 LYS        -0.3944
     39 CB         42.5650   77.9650   93.9960 C.3       1 LYS        -0.0092
     40 CG         41.3860   77.7850   93.0270 C.3       1 LYS        -0.0156
     41 CD         39.9860   77.9560   93.6290 C.3       1 LYS         0.0627
     42 NE         39.4980   76.7290   94.2480 N.pl3     1 LYS        -0.2723
     43 CZ         39.6860   76.3720   95.5290 C.cat     1 LYS         0.2882
     44 NH1        39.2100   75.2010   95.9570 N.pl3     1 LYS        -0.2849
     45 NH2        40.3240   77.1690   96.4010 N.pl3     1 LYS        -0.2849
     46 N          43.6760   80.8090   93.9590 N.am      1 LYS        -0.2636
     47 CA         43.3380   82.2180   93.8120 C.3       1 LYS         0.1325
     48 C          44.3850   82.9470   92.9700 C.2       1 LYS         0.2040
     49 O          44.0220   83.7350   92.1250 O.2       1 LYS        -0.3944
     50 CB         43.1570   82.8910   95.1900 C.3       1 LYS        -0.0008
     51 CG         41.8270   82.5600   95.8840 C.3       1 LYS         0.0044
     52 CD         41.6790   81.0940   96.3030 C.2       1 LYS         0.0350
     53 OE1        42.6240   80.5340   96.9050 O.co2     1 LYS        -0.5690
     54 OE2        40.6150   80.4980   96.0200 O.co2     1 LYS        -0.5690
     55 N          45.6720   82.6690   93.1930 N.am      1 LYS        -0.2636
     56 CA         46.7480   83.2560   92.3700 C.3       1 LYS         0.1330
     57 C          46.6700   82.8150   90.8980 C.2       1 LYS         0.2040
     58 O          46.9310   83.6140   90.0000 O.2       1 LYS        -0.3944
     59 CB         48.1230   82.9070   92.9350 C.3       1 LYS         0.0045
     60 CG         48.4050   83.5030   94.3150 C.3       1 LYS         0.0412
     61 CD         49.6290   82.9030   95.0080 C.2       1 LYS         0.1737
     62 OE1        50.1120   81.8230   94.6550 O.2       1 LYS        -0.3973
     63 NE2        50.1360   83.6170   96.0040 N.am      1 LYS        -0.3009
     64 N          46.3140   81.5500   90.6560 N.am      1 LYS        -0.2637
     65 CA         46.1280   81.0590   89.2870 C.3       1 LYS         0.1312
     66 C          44.9020   81.7180   88.6390 C.2       1 LYS         0.2039
     67 O          44.9840   82.2300   87.5170 O.2       1 LYS        -0.3944
     68 CB         46.0240   79.5300   89.2350 C.3       1 LYS        -0.0101
     69 CG         47.3090   78.7590   89.5850 C.3       1 LYS        -0.0425
     70 CD1        47.0130   77.2710   89.6830 C.3       1 LYS        -0.0625
     71 CD2        48.4310   79.0070   88.5820 C.3       1 LYS        -0.0625
     72 N          43.7880   81.7440   89.3630 N.am      1 LYS        -0.2637
     73 CA         42.5330   82.3390   88.8420 C.3       1 LYS         0.1309
     74 C          42.6270   83.8470   88.5290 C.2       1 LYS         0.2010
     75 O          41.9500   84.3160   87.6400 O.2       1 LYS        -0.3947
     76 CB         41.3750   82.0550   89.7980 C.3       1 LYS        -0.0101
     77 CG         40.8100   80.6320   89.7200 C.3       1 LYS        -0.0425
     78 CD1        39.8470   80.4010   90.8700 C.3       1 LYS        -0.0625
     79 CD2        40.1340   80.3530   88.3760 C.3       1 LYS        -0.0625
     80 C          44.3320   86.3020   87.7030 C.2       1 LYS         0.2264
     81 N          43.4930   84.5940   89.2360 N.am      1 LYS        -0.2743
     82 O          43.9140   87.3240   87.1170 O.2       1 LYS        -0.3419
     83 CA         43.7870   86.0180   89.1140 C.3       1 LYS         0.1302
     84 CB         44.7860   86.2820   90.2540 C.3       1 LYS        -0.0201
     85 CD         45.6870   88.6120   90.0910 C.3       1 LYS        -0.0560
     86 CE         46.7840   89.4670   89.4920 C.3       1 LYS        -0.0653
     87 CG         46.0140   87.1370   89.9740 C.3       1 LYS        -0.0518
     88 CB1        42.4960   86.8000   89.4130 C.3       1 LYS        -0.0320
     89 N          45.1790   85.4830   87.1740 N.am      1 LYS        -0.2611
     90 CA         45.7590   85.6550   85.8380 C.3       1 LYS         0.1406
     91 C          44.7600   85.4410   84.7140 C.2       1 LYS         0.2061
     92 O          44.8630   86.0850   83.6770 O.2       1 LYS        -0.3942
     93 CB         46.9580   84.7140   85.6910 C.3       1 LYS         0.0216
     94 CG         48.1520   85.1300   86.5050 C.ar      1 LYS        -0.0385
     95 CD1        48.8690   86.2840   86.1760 C.ar      1 LYS        -0.0601
     96 CD2        48.5610   84.3840   87.6010 C.ar      1 LYS        -0.0601
     97 CE1        49.9650   86.6800   86.9320 C.ar      1 LYS        -0.0686
     98 CE2        49.6620   84.7690   88.3590 C.ar      1 LYS        -0.0686
     99 CZ         50.3650   85.9220   88.0250 C.ar      1 LYS        -0.0687
    100 N          43.7900   84.5530   84.9030 N.am      1 LYS        -0.2634
    101 CA         42.6770   84.4610   83.9520 C.3       1 LYS         0.1330
    102 C          42.0040   85.8160   83.7990 C.2       1 LYS         0.2041
    103 O          41.7930   86.2850   82.6820 O.2       1 LYS        -0.3944
    104 CB         41.6310   83.4400   84.3820 C.3       1 LYS         0.0045
    105 CG         40.6200   83.1040   83.2860 C.3       1 LYS         0.0412
    106 CD         39.5470   82.1430   83.7580 C.2       1 LYS         0.1737
    107 OE1        39.3510   81.9520   84.9620 O.2       1 LYS        -0.3973
    108 NE2        38.8380   81.5320   82.8080 N.am      1 LYS        -0.3009
    109 N          41.6950   86.4340   84.9380 N.am      1 LYS        -0.2650
    110 CA         41.1050   87.7720   84.9800 C.3       1 LYS         0.1129
    111 C          42.0510   88.8620   84.4060 C.2       1 LYS         0.1245
    112 O          41.6760   89.4830   83.4290 O.2       1 LYS        -0.3725
    113 CB         40.6580   88.0990   86.4210 C.3       1 LYS        -0.0105
    114 CG         39.9280   89.4170   86.5920 C.3       1 LYS        -0.0155
    115 CD         38.4850   89.3010   86.1480 C.3       1 LYS         0.0627
    116 NE         37.8880   90.5950   85.8550 N.pl3     1 LYS        -0.2723
    117 CZ         36.5990   90.7800   85.5870 C.cat     1 LYS         0.2882
    118 NH1        36.1670   92.0110   85.3200 N.pl3     1 LYS        -0.2849
    119 NH2        35.7330   89.7540   85.5940 N.pl3     1 LYS        -0.2849
    120 H1         59.0278   75.8218   92.6681 H         1 LYS         0.2015
    121 H2         57.9310   74.6374   92.3463 H         1 LYS         0.2015
    122 H3         57.9468   75.3654   93.8225 H         1 LYS         0.2015
    123 H4         57.2863   77.4657   92.9027 H         1 LYS         0.1095
    124 H5         56.6242   77.6011   90.5041 H         1 LYS         0.0310
    125 H6         57.2119   75.9223   90.2534 H         1 LYS         0.0310
    126 H7         58.3695   77.2224   90.6967 H         1 LYS         0.0310
    127 H8         55.4188   77.5904   93.8890 H         1 LYS         0.1884
    128 H9         53.1755   75.7803   93.1061 H         1 LYS         0.0800
    129 H10        52.3924   75.9725   95.5158 H         1 LYS         0.0313
    130 H11        54.0033   76.6655   95.9051 H         1 LYS         0.0313
    131 H12        54.0813   74.1103   94.4056 H         1 LYS         0.0301
    132 H13        53.3367   74.0034   96.0368 H         1 LYS         0.0301
    133 H14        55.9320   75.4869   95.7686 H         1 LYS         0.0689
    134 H15        55.9638   73.6964   95.6277 H         1 LYS         0.0689
    135 H16        54.4149   74.4411   97.9283 H         1 LYS         0.2642
    136 H17        58.4541   74.2525   98.4473 H         1 LYS         0.2615
    137 H18        57.8047   74.4218   96.7943 H         1 LYS         0.2615
    138 H19        55.2714   74.2285  100.0012 H         1 LYS         0.2615
    139 H20        57.0378   74.1574  100.2402 H         1 LYS         0.2615
    140 H21        51.1711   76.6921   93.0341 H         1 LYS         0.1885
    141 H22        50.8951   79.6034   93.6769 H         1 LYS         0.0821
    142 H23        49.4665   79.8123   91.6497 H         1 LYS         0.0453
    143 H24        49.8739   78.1215   91.2003 H         1 LYS         0.0453
    144 H25        51.1294   81.6053   91.3582 H         1 LYS         0.0530
    145 H26        51.9981   77.5855   90.2189 H         1 LYS         0.0530
    146 H27        53.0594   82.3998   90.0319 H         1 LYS         0.0525
    147 H28        53.9559   78.3539   88.9491 H         1 LYS         0.0525
    148 H29        54.6059   80.5534   87.7590 H         1 LYS         0.2458
    149 H30        49.0335   79.9279   94.8553 H         1 LYS         0.1884
    150 H31        47.2414   77.7175   95.4319 H         1 LYS         0.0823
    151 H32        47.6010   79.5303   97.0692 H         1 LYS         0.0606
    152 H33        45.8675   79.3936   96.6185 H         1 LYS         0.0606
    153 H34        46.6277   81.5745   96.6127 H         1 LYS         0.2097
    154 H35        44.9268   77.8136   95.0380 H         1 LYS         0.1883
    155 H36        44.0415   77.9232   92.4035 H         1 LYS         0.0800
    156 H37        42.2639   78.6756   94.7798 H         1 LYS         0.0313
    157 H38        42.7906   76.9898   94.4522 H         1 LYS         0.0313
    158 H39        41.4490   76.7709   92.6056 H         1 LYS         0.0301
    159 H40        41.4977   78.5248   92.2206 H         1 LYS         0.0301
    160 H41        39.2902   78.2501   92.8294 H         1 LYS         0.0689
    161 H42        40.0230   78.7472   94.3923 H         1 LYS         0.0689
    162 H43        38.9636   76.0809   93.6519 H         1 LYS         0.2642
    163 H44        39.3479   74.9163   96.9372 H         1 LYS         0.2615
    164 H45        38.7047   74.5819   95.3071 H         1 LYS         0.2615
    165 H46        40.6986   78.0767   96.0902 H         1 LYS         0.2615
    166 H47        40.4388   76.8727   97.3808 H         1 LYS         0.2615
    167 H48        43.9657   80.4774   94.8568 H         1 LYS         0.1883
    168 H49        42.3773   82.2799   93.2799 H         1 LYS         0.0801
    169 H50        43.2115   83.9808   95.0512 H         1 LYS         0.0330
    170 H51        43.9782   82.5631   95.8443 H         1 LYS         0.0330
    171 H52        41.0077   82.8042   95.1918 H         1 LYS         0.0433
    172 H53        41.7443   83.1853   96.7852 H         1 LYS         0.0433
    173 H54        45.9134   82.0465   93.9375 H         1 LYS         0.1883
    174 H55        46.6317   84.3494   92.4016 H         1 LYS         0.0801
    175 H56        48.8872   83.2785   92.2364 H         1 LYS         0.0337
    176 H57        48.1968   81.8121   93.0108 H         1 LYS         0.0337
    177 H58        47.5259   83.3308   94.9534 H         1 LYS         0.0504
    178 H59        48.5677   84.5847   94.1990 H         1 LYS         0.0504
    179 H60        50.9370   83.2835   96.5011 H         1 LYS         0.1814
    180 H61        49.7173   84.4889   96.2579 H         1 LYS         0.1814
    181 H62        46.1716   80.9256   91.4240 H         1 LYS         0.1883
    182 H63        47.0144   81.3511   88.7047 H         1 LYS         0.0800
    183 H64        45.7277   79.2464   88.2143 H         1 LYS         0.0315
    184 H65        45.2414   79.2207   89.9433 H         1 LYS         0.0315
    185 H66        47.6542   79.1083   90.5693 H         1 LYS         0.0298
    186 H67        47.9369   76.7291   89.9333 H         1 LYS         0.0232
    187 H68        46.6259   76.9098   88.7188 H         1 LYS         0.0232
    188 H69        46.2621   77.0974   90.4678 H         1 LYS         0.0232
    189 H70        48.6356   80.0860   88.5202 H         1 LYS         0.0232
    190 H71        48.1275   78.6341   87.5927 H         1 LYS         0.0232
    191 H72        49.3391   78.4798   88.9098 H         1 LYS         0.0232
    192 H73        43.7959   81.3522   90.2830 H         1 LYS         0.1883
    193 H74        42.3103   81.8315   87.8918 H         1 LYS         0.0800
    194 H75        40.5615   82.7590   89.5686 H         1 LYS         0.0315
    195 H76        41.7295   82.2264   90.8251 H         1 LYS         0.0315
    196 H77        41.6480   79.9274   89.8262 H         1 LYS         0.0298
    197 H78        39.4437   79.3793   90.8109 H         1 LYS         0.0232
    198 H79        39.0214   81.1252   90.8080 H         1 LYS         0.0232
    199 H80        40.3779   80.5309   91.8246 H         1 LYS         0.0232
    200 H81        40.8521   80.5276   87.5612 H         1 LYS         0.0232
    201 H82        39.2706   81.0234   88.2537 H         1 LYS         0.0232
    202 H83        39.7935   79.3075   88.3469 H         1 LYS         0.0232
    203 H84        44.0061   84.1067   89.9426 H         1 LYS         0.1839
    204 H85        45.1471   85.3022   90.5999 H         1 LYS         0.0277
    205 H86        44.2282   86.7742   91.0643 H         1 LYS         0.0277
    206 H87        44.7450   88.8135   89.5599 H         1 LYS         0.0263
    207 H88        45.5712   88.8703   91.1540 H         1 LYS         0.0263
    208 H89        46.5170   90.5294   89.5926 H         1 LYS         0.0230
    209 H90        46.9028   89.2180   88.4272 H         1 LYS         0.0230
    210 H91        47.7290   89.2748   90.0212 H         1 LYS         0.0230
    211 H92        46.3733   86.9279   88.9556 H         1 LYS         0.0264
    212 H93        46.8012   86.8845   90.6996 H         1 LYS         0.0264
    213 H94        42.6926   87.8789   89.3271 H         1 LYS         0.0242
    214 H95        42.1556   86.5694   90.4333 H         1 LYS         0.0242
    215 H96        41.7169   86.5109   88.6923 H         1 LYS         0.0242
    216 H97        45.4559   84.6837   87.7073 H         1 LYS         0.1891
    217 H98        46.1226   86.6903   85.7612 H         1 LYS         0.0825
    218 H99        47.2516   84.6875   84.6313 H         1 LYS         0.0474
    219 H100       46.6517   83.7074   86.0120 H         1 LYS         0.0474
    220 H101       48.5661   86.8770   85.3206 H         1 LYS         0.0557
    221 H102       48.0143   83.4876   87.8707 H         1 LYS         0.0557
    222 H103       50.5081   87.5805   86.6690 H         1 LYS         0.0599
    223 H104       49.9717   84.1714   89.2087 H         1 LYS         0.0599
    224 H105       51.2213   86.2276   88.6152 H         1 LYS         0.0559
    225 H106       43.8188   83.9451   85.6965 H         1 LYS         0.1883
    226 H107       43.0834   84.1534   82.9772 H         1 LYS         0.0801
    227 H108       41.0850   83.8442   85.2472 H         1 LYS         0.0337
    228 H109       42.1479   82.5141   84.6745 H         1 LYS         0.0337
    229 H110       41.1554   82.6468   82.4408 H         1 LYS         0.0504
    230 H111       40.1377   84.0352   82.9540 H         1 LYS         0.0504
    231 H112       38.1164   80.8870   83.0595 H         1 LYS         0.1814
    232 H113       39.0280   81.7189   81.8441 H         1 LYS         0.1814
    233 H114       41.8741   85.9629   85.8017 H         1 LYS         0.1884
    234 H115       40.2059   87.7577   84.3464 H         1 LYS         0.0790
    235 H116       43.0186   89.0640   84.8631 H         1 LYS         0.1373
    236 H117       41.5548   88.1227   87.0575 H         1 LYS         0.0314
    237 H118       39.9891   87.2941   86.7598 H         1 LYS         0.0314
    238 H119       40.4294   90.1868   85.9871 H         1 LYS         0.0301
    239 H120       39.9555   89.7083   87.6524 H         1 LYS         0.0301
    240 H121       37.9066   88.8188   86.9498 H         1 LYS         0.0689
    241 H122       38.4435   88.6796   85.2413 H         1 LYS         0.0689
    242 H123       38.5035   91.4209   85.8552 H         1 LYS         0.2642
    243 H124       35.1718   92.1733   85.1101 H         1 LYS         0.2615
    244 H125       36.8281   92.8008   85.3234 H         1 LYS         0.2615
    245 H126       36.0652   88.8011   85.8003 H         1 LYS         0.2615
    246 H127       34.7365   89.9198   85.3931 H         1 LYS         0.2615
@<TRIPOS>BOND
     1    2    1 1  
     2    3    2 1  
     3    2    5 1  
     4    3    4 2  
     5    6    3 am 
     6    7    6 1  
     7    8    7 1  
     8    7   10 1  
     9    8    9 2  
    10   17    8 am 
    11   10   11 1  
    12   11   12 1  
    13   12   13 1  
    14   13   14 ar 
    15   14   15 ar 
    16   14   16 ar 
    17   18   17 1  
    18   19   18 1  
    19   18   21 1  
    20   19   20 2  
    21   29   19 am 
    22   21   22 1  
    23   22   23 ar 
    24   22   24 ar 
    25   23   25 ar 
    26   24   26 ar 
    27   25   27 ar 
    28   26   27 ar 
    29   27   28 1  
    30   30   29 1  
    31   31   30 1  
    32   30   33 1  
    33   31   32 2  
    34   35   31 am 
    35   33   34 1  
    36   36   35 1  
    37   37   36 1  
    38   36   39 1  
    39   37   38 2  
    40   46   37 am 
    41   39   40 1  
    42   40   41 1  
    43   41   42 1  
    44   42   43 ar 
    45   43   44 ar 
    46   43   45 ar 
    47   47   46 1  
    48   48   47 1  
    49   47   50 1  
    50   48   49 2  
    51   55   48 am 
    52   50   51 1  
    53   51   52 1  
    54   52   53 ar 
    55   52   54 ar 
    56   56   55 1  
    57   57   56 1  
    58   56   59 1  
    59   57   58 2  
    60   64   57 am 
    61   59   60 1  
    62   60   61 1  
    63   61   62 2  
    64   61   63 am 
    65   65   64 1  
    66   66   65 1  
    67   65   68 1  
    68   66   67 2  
    69   72   66 am 
    70   68   69 1  
    71   69   70 1  
    72   69   71 1  
    73   73   72 1  
    74   74   73 1  
    75   73   76 1  
    76   74   75 2  
    77   81   74 am 
    78   76   77 1  
    79   77   78 1  
    80   77   79 1  
    81   80   82 2  
    82   83   80 1  
    83   80   89 am 
    84   83   81 1  
    85   84   83 1  
    86   83   88 1  
    87   87   84 1  
    88   85   86 1  
    89   85   87 1  
    90   89   90 1  
    91   90   91 1  
    92   90   93 1  
    93   91   92 2  
    94   91  100 am 
    95   93   94 1  
    96   94   95 ar 
    97   94   96 ar 
    98   95   97 ar 
    99   96   98 ar 
   100   97   99 ar 
   101   98   99 ar 
   102  100  101 1  
   103  101  102 1  
   104  101  104 1  
   105  102  103 2  
   106  102  109 am 
   107  104  105 1  
   108  105  106 1  
   109  106  107 2  
   110  106  108 am 
   111  109  110 1  
   112  110  111 1  
   113  110  113 1  
   114  111  112 2  
   115  113  114 1  
   116  114  115 1  
   117  115  116 1  
   118  116  117 ar 
   119  117  118 ar 
   120  117  119 ar 
   121    1  120 1  
   122    1  121 1  
   123    1  122 1  
   124    2  123 1  
   125    5  124 1  
   126    5  125 1  
   127    5  126 1  
   128    6  127 1  
   129    7  128 1  
   130   10  129 1  
   131   10  130 1  
   132   11  131 1  
   133   11  132 1  
   134   12  133 1  
   135   12  134 1  
   136   13  135 1  
   137   15  136 1  
   138   15  137 1  
   139   16  138 1  
   140   16  139 1  
   141   17  140 1  
   142   18  141 1  
   143   21  142 1  
   144   21  143 1  
   145   23  144 1  
   146   24  145 1  
   147   25  146 1  
   148   26  147 1  
   149   28  148 1  
   150   29  149 1  
   151   30  150 1  
   152   33  151 1  
   153   33  152 1  
   154   34  153 1  
   155   35  154 1  
   156   36  155 1  
   157   39  156 1  
   158   39  157 1  
   159   40  158 1  
   160   40  159 1  
   161   41  160 1  
   162   41  161 1  
   163   42  162 1  
   164   44  163 1  
   165   44  164 1  
   166   45  165 1  
   167   45  166 1  
   168   46  167 1  
   169   47  168 1  
   170   50  169 1  
   171   50  170 1  
   172   51  171 1  
   173   51  172 1  
   174   55  173 1  
   175   56  174 1  
   176   59  175 1  
   177   59  176 1  
   178   60  177 1  
   179   60  178 1  
   180   63  179 1  
   181   63  180 1  
   182   64  181 1  
   183   65  182 1  
   184   68  183 1  
   185   68  184 1  
   186   69  185 1  
   187   70  186 1  
   188   70  187 1  
   189   70  188 1  
   190   71  189 1  
   191   71  190 1  
   192   71  191 1  
   193   72  192 1  
   194   73  193 1  
   195   76  194 1  
   196   76  195 1  
   197   77  196 1  
   198   78  197 1  
   199   78  198 1  
   200   78  199 1  
   201   79  200 1  
   202   79  201 1  
   203   79  202 1  
   204   81  203 1  
   205   84  204 1  
   206   84  205 1  
   207   85  206 1  
   208   85  207 1  
   209   86  208 1  
   210   86  209 1  
   211   86  210 1  
   212   87  211 1  
   213   87  212 1  
   214   88  213 1  
   215   88  214 1  
   216   88  215 1  
   217   89  216 1  
   218   90  217 1  
   219   93  218 1  
   220   93  219 1  
   221   95  220 1  
   222   96  221 1  
   223   97  222 1  
   224   98  223 1  
   225   99  224 1  
   226  100  225 1  
   227  101  226 1  
   228  104  227 1  
   229  104  228 1  
   230  105  229 1  
   231  105  230 1  
   232  108  231 1  
   233  108  232 1  
   234  109  233 1  
   235  110  234 1  
   236  111  235 1  
   237  113  236 1  
   238  113  237 1  
   239  114  238 1  
   240  114  239 1  
   241  115  240 1  
   242  115  241 1  
   243  116  242 1  
   244  118  243 1  
   245  118  244 1  
   246  119  245 1  
   247  119  246 1  
@<TRIPOS>SUBSTRUCTURE
     1 LYS         1

