5zk5_ligand
  -I-interpret- 

244245  0  0  0  0  0  0  0  0999 V2000
   58.0850   75.5060   92.8340 N   0  3  0  0  0
   57.1160   76.5390   92.3350 C   0  0  0  0  0
   55.6670   76.0960   92.5690 C   0  0  0  0  0
   55.2180   75.1100   91.9800 O   0  0  0  0  0
   57.3470   76.8430   90.8400 C   0  0  0  0  0
   54.9660   76.8160   93.4470 N   0  0  0  0  0
   53.5650   76.5370   93.8030 C   0  0  0  0  0
   52.7150   77.7950   93.6830 C   0  0  0  0  0
   53.1770   78.8930   93.9450 O   0  0  0  0  0
   53.4550   75.9900   95.2320 C   0  0  0  0  0
   54.0210   74.5810   95.3980 C   0  0  0  0  0
   55.4070   74.5560   96.0290 C   0  0  0  0  0
   55.3470   74.4400   97.4900 N   0  0  0  0  0
   56.4070   74.3330   98.2970 C   0  0  0  0  0
   57.6500   74.3360   97.8090 N   0  0  0  0  0
   56.2250   74.2320   99.6120 N   0  0  0  0  0
   51.4700   77.6160   93.2730 N   0  0  0  0  0
   50.5180   78.7110   93.1560 C   0  0  0  0  0
   49.2300   78.2320   93.7730 C   0  0  0  0  0
   48.8050   77.1060   93.4910 O   0  0  0  0  0
   50.2450   79.0360   91.6860 C   0  0  0  0  0
   51.4330   79.5320   90.8970 C   0  0  0  0  0
   51.7440   80.8890   90.8250 C   0  0  0  0  0
   52.2350   78.6430   90.1950 C   0  0  0  0  0
   52.8320   81.3410   90.0790 C   0  0  0  0  0
   53.3300   79.0730   89.4650 C   0  0  0  0  0
   53.6230   80.4240   89.3960 C   0  0  0  0  0
   54.7160   80.8240   88.6630 O   0  0  0  0  0
   48.5920   79.0730   94.5830 N   0  0  0  0  0
   47.2480   78.7600   95.0810 C   0  0  0  0  0
   46.2280   78.9000   93.9550 C   0  0  0  0  0
   46.5320   79.4970   92.8950 O   0  0  0  0  0
   46.8700   79.6690   96.2590 C   0  0  0  0  0
   46.8640   81.0340   95.8680 O   0  0  0  0  0
   45.0310   78.3540   94.2030 N   0  0  0  0  0
   43.8550   78.4990   93.3220 C   0  0  0  0  0
   43.6160   79.9480   92.9540 C   0  0  0  0  0
   43.3770   80.2710   91.8030 O   0  0  0  0  0
   42.5650   77.9650   93.9960 C   0  0  0  0  0
   41.3860   77.7850   93.0270 C   0  0  0  0  0
   39.9860   77.9560   93.6290 C   0  0  0  0  0
   39.4980   76.7290   94.2480 N   0  0  0  0  0
   39.6860   76.3720   95.5290 C   0  0  0  0  0
   39.2100   75.2010   95.9570 N   0  0  0  0  0
   40.3240   77.1690   96.4010 N   0  0  0  0  0
   43.6760   80.8090   93.9590 N   0  0  0  0  0
   43.3380   82.2180   93.8120 C   0  0  0  0  0
   44.3850   82.9470   92.9700 C   0  0  0  0  0
   44.0220   83.7350   92.1250 O   0  0  0  0  0
   43.1570   82.8910   95.1900 C   0  0  0  0  0
   41.8270   82.5600   95.8840 C   0  0  0  0  0
   41.6790   81.0940   96.3030 C   0  0  0  0  0
   42.6240   80.5340   96.9050 O   0  0  0  0  0
   40.6150   80.4980   96.0200 O   0  0  0  0  0
   45.6720   82.6690   93.1930 N   0  0  0  0  0
   46.7480   83.2560   92.3700 C   0  0  0  0  0
   46.6700   82.8150   90.8980 C   0  0  0  0  0
   46.9310   83.6140   90.0000 O   0  0  0  0  0
   48.1230   82.9070   92.9350 C   0  0  0  0  0
   48.4050   83.5030   94.3150 C   0  0  0  0  0
   49.6290   82.9030   95.0080 C   0  0  0  0  0
   50.1120   81.8230   94.6550 O   0  0  0  0  0
   50.1360   83.6170   96.0040 N   0  0  0  0  0
   46.3140   81.5500   90.6560 N   0  0  0  0  0
   46.1280   81.0590   89.2870 C   0  0  0  0  0
   44.9020   81.7180   88.6390 C   0  0  0  0  0
   44.9840   82.2300   87.5170 O   0  0  0  0  0
   46.0240   79.5300   89.2350 C   0  0  0  0  0
   47.3090   78.7590   89.5850 C   0  0  0  0  0
   47.0130   77.2710   89.6830 C   0  0  0  0  0
   48.4310   79.0070   88.5820 C   0  0  0  0  0
   43.7880   81.7440   89.3630 N   0  0  0  0  0
   42.5330   82.3390   88.8420 C   0  0  0  0  0
   42.6270   83.8470   88.5290 C   0  0  0  0  0
   41.9500   84.3160   87.6400 O   0  0  0  0  0
   41.3750   82.0550   89.7980 C   0  0  0  0  0
   40.8100   80.6320   89.7200 C   0  0  0  0  0
   39.8470   80.4010   90.8700 C   0  0  0  0  0
   40.1340   80.3530   88.3760 C   0  0  0  0  0
   44.3320   86.3020   87.7030 C   0  0  0  0  0
   43.4930   84.5940   89.2360 N   0  0  0  0  0
   43.9140   87.3240   87.1170 O   0  0  0  0  0
   43.7870   86.0180   89.1140 C   0  0  0  0  0
   44.7860   86.2820   90.2540 C   0  0  0  0  0
   45.6870   88.6120   90.0910 C   0  0  0  0  0
   46.7840   89.4670   89.4920 C   0  0  0  0  0
   46.0140   87.1370   89.9740 C   0  0  0  0  0
   42.4960   86.8000   89.4130 C   0  0  0  0  0
   45.1790   85.4830   87.1740 N   0  0  0  0  0
   45.7590   85.6550   85.8380 C   0  0  0  0  0
   44.7600   85.4410   84.7140 C   0  0  0  0  0
   44.8630   86.0850   83.6770 O   0  0  0  0  0
   46.9580   84.7140   85.6910 C   0  0  0  0  0
   48.1520   85.1300   86.5050 C   0  0  0  0  0
   48.8690   86.2840   86.1760 C   0  0  0  0  0
   48.5610   84.3840   87.6010 C   0  0  0  0  0
   49.9650   86.6800   86.9320 C   0  0  0  0  0
   49.6620   84.7690   88.3590 C   0  0  0  0  0
   50.3650   85.9220   88.0250 C   0  0  0  0  0
   43.7900   84.5530   84.9030 N   0  0  0  0  0
   42.6770   84.4610   83.9520 C   0  0  0  0  0
   42.0040   85.8160   83.7990 C   0  0  0  0  0
   41.7930   86.2850   82.6820 O   0  0  0  0  0
   41.6310   83.4400   84.3820 C   0  0  0  0  0
   40.6200   83.1040   83.2860 C   0  0  0  0  0
   39.5470   82.1430   83.7580 C   0  0  0  0  0
   39.3510   81.9520   84.9620 O   0  0  0  0  0
   38.8380   81.5320   82.8080 N   0  0  0  0  0
   41.6950   86.4340   84.9380 N   0  0  0  0  0
   41.1050   87.7720   84.9800 C   0  0  0  0  0
   42.0510   88.8620   84.4060 C   0  0  0  0  0
   41.6760   89.4830   83.4290 O   0  0  0  0  0
   40.6580   88.0990   86.4210 C   0  0  0  0  0
   39.9280   89.4170   86.5920 C   0  0  0  0  0
   38.4850   89.3010   86.1480 C   0  0  0  0  0
   37.8880   90.5950   85.8550 N   0  0  0  0  0
   36.5990   90.7800   85.5870 C   0  0  0  0  0
   36.1670   92.0110   85.3200 N   0  0  0  0  0
   35.7330   89.7540   85.5940 N   0  0  0  0  0
   57.9089   75.3258   93.8224 H   0  0  0  0  0
   57.9640   74.6435   92.3031 H   0  0  0  0  0
   59.0379   75.8495   92.7143 H   0  0  0  0  0
   57.2919   77.4530   92.9023 H   0  0  0  0  0
   57.1489   75.9460   90.2533 H   0  0  0  0  0
   56.6746   77.6408   90.5247 H   0  0  0  0  0
   58.3801   77.1562   90.6897 H   0  0  0  0  0
   55.4278   77.6058   93.8978 H   0  0  0  0  0
   53.1975   75.7845   93.1053 H   0  0  0  0  0
   52.3951   75.9461   95.4826 H   0  0  0  0  0
   54.0328   76.6507   95.8783 H   0  0  0  0  0
   54.1047   74.1414   94.4041 H   0  0  0  0  0
   53.3493   74.0330   96.0588 H   0  0  0  0  0
   55.9092   75.4916   95.7829 H   0  0  0  0  0
   55.9413   73.6887   95.6410 H   0  0  0  0  0
   54.4240   74.4411   97.9241 H   0  0  0  0  0
   58.4465   74.2615   98.4418 H   0  0  0  0  0
   57.8029   74.4128   96.8035 H   0  0  0  0  0
   55.2809   74.2366   99.9980 H   0  0  0  0  0
   51.1652   76.6736   93.0293 H   0  0  0  0  0
   50.9121   79.6019   93.6449 H   0  0  0  0  0
   49.5098   79.8407   91.6779 H   0  0  0  0  0
   49.9281   78.1048   91.2164 H   0  0  0  0  0
   51.1260   81.6092   91.3611 H   0  0  0  0  0
   51.9968   77.5796   90.2190 H   0  0  0  0  0
   53.0607   82.4057   90.0317 H   0  0  0  0  0
   53.9594   78.3499   88.9462 H   0  0  0  0  0
   55.1330   80.0553   88.2669 H   0  0  0  0  0
   49.0424   79.9450   94.8608 H   0  0  0  0  0
   47.2464   77.7298   95.4371 H   0  0  0  0  0
   47.6052   79.5362   97.0527 H   0  0  0  0  0
   45.8711   79.3994   96.6018 H   0  0  0  0  0
   46.6253   81.5802   96.6205 H   0  0  0  0  0
   44.9247   77.8028   95.0547 H   0  0  0  0  0
   44.0745   77.9155   92.4279 H   0  0  0  0  0
   42.2618   78.6984   94.7432 H   0  0  0  0  0
   42.7975   76.9838   94.4100 H   0  0  0  0  0
   41.4404   76.7574   92.6676 H   0  0  0  0  0
   41.4905   78.5634   92.2712 H   0  0  0  0  0
   39.3017   78.2249   92.8243 H   0  0  0  0  0
   40.0399   78.7257   94.3989 H   0  0  0  0  0
   38.9688   76.0872   93.6577 H   0  0  0  0  0
   38.7096   74.5880   95.3134 H   0  0  0  0  0
   40.4377   76.8756   97.3712 H   0  0  0  0  0
   40.6950   78.0679   96.0932 H   0  0  0  0  0
   43.9715   80.4707   94.8748 H   0  0  0  0  0
   42.3859   82.2831   93.2853 H   0  0  0  0  0
   43.1742   83.9684   95.0260 H   0  0  0  0  0
   43.9557   82.5234   95.8343 H   0  0  0  0  0
   41.0321   82.7698   95.1683 H   0  0  0  0  0
   41.7836   83.1585   96.7939 H   0  0  0  0  0
   43.3420   81.1601   97.0239 H   0  0  0  0  0
   45.9182   82.0340   93.9523 H   0  0  0  0  0
   46.6049   84.3360   92.4046 H   0  0  0  0  0
   48.8651   83.3174   92.2502 H   0  0  0  0  0
   48.1614   81.8227   93.0396 H   0  0  0  0  0
   47.5397   83.2918   94.9433 H   0  0  0  0  0
   48.5988   84.5666   94.1763 H   0  0  0  0  0
   50.9548   83.2782   96.5091 H   0  0  0  0  0
   49.7071   84.5049   96.2649 H   0  0  0  0  0
   46.1687   80.9131   91.4394 H   0  0  0  0  0
   47.0131   81.3379   88.7152 H   0  0  0  0  0
   45.7820   79.2728   88.2038 H   0  0  0  0  0
   45.2819   79.2464   89.9813 H   0  0  0  0  0
   47.6549   79.1296   90.5500 H   0  0  0  0  0
   46.2688   77.1004   90.4609 H   0  0  0  0  0
   46.6295   76.9144   88.7270 H   0  0  0  0  0
   47.9292   76.7352   89.9311 H   0  0  0  0  0
   48.1076   78.6888   87.5909 H   0  0  0  0  0
   48.6714   80.0700   88.5632 H   0  0  0  0  0
   49.3130   78.4388   88.8776 H   0  0  0  0  0
   43.7961   81.3444   90.3014 H   0  0  0  0  0
   42.3481   81.8552   87.8829 H   0  0  0  0  0
   40.5657   82.7319   89.5242 H   0  0  0  0  0
   41.7601   82.1873   90.8091 H   0  0  0  0  0
   41.6428   79.9335   89.8021 H   0  0  0  0  0
   40.3742   80.5301   91.8152 H   0  0  0  0  0
   39.0295   81.1192   90.8075 H   0  0  0  0  0
   39.4481   79.3884   90.8103 H   0  0  0  0  0
   39.3114   81.0535   88.2321 H   0  0  0  0  0
   40.8610   80.4744   87.5730 H   0  0  0  0  0
   39.7497   79.3330   88.3688 H   0  0  0  0  0
   44.0164   84.0969   89.9567 H   0  0  0  0  0
   45.1805   85.3001   90.5153 H   0  0  0  0  0
   44.2199   86.8387   91.0008 H   0  0  0  0  0
   44.7608   88.8064   89.5502 H   0  0  0  0  0
   45.5884   88.8632   91.1471 H   0  0  0  0  0
   47.7198   89.2756   90.0172 H   0  0  0  0  0
   46.9007   89.2193   88.4369 H   0  0  0  0  0
   46.5183   90.5194   89.5923 H   0  0  0  0  0
   46.3572   86.9343   88.9595 H   0  0  0  0  0
   46.7852   86.8909   90.7039 H   0  0  0  0  0
   42.6945   87.8691   89.3372 H   0  0  0  0  0
   41.7278   86.5198   88.6922 H   0  0  0  0  0
   42.1544   86.5631   90.4206 H   0  0  0  0  0
   45.4615   84.6677   87.7180 H   0  0  0  0  0
   46.0802   86.6928   85.7489 H   0  0  0  0  0
   47.2565   84.7258   84.6427 H   0  0  0  0  0
   46.6475   83.7308   86.0446 H   0  0  0  0  0
   48.5644   86.8803   85.3159 H   0  0  0  0  0
   48.0113   83.4827   87.8722 H   0  0  0  0  0
   50.5111   87.5855   86.6675 H   0  0  0  0  0
   49.9734   84.1681   89.2134 H   0  0  0  0  0
   51.2261   86.2293   88.6185 H   0  0  0  0  0
   43.8194   83.9330   85.7124 H   0  0  0  0  0
   43.1010   84.1362   83.0018 H   0  0  0  0  0
   41.0779   83.8696   85.2172 H   0  0  0  0  0
   42.1567   82.5196   84.6360 H   0  0  0  0  0
   41.1591   82.6288   82.4664 H   0  0  0  0  0
   40.1315   84.0306   82.9846 H   0  0  0  0  0
   38.0995   80.8768   83.0646 H   0  0  0  0  0
   39.0342   81.7198   81.8248 H   0  0  0  0  0
   41.8777   85.9535   85.8190 H   0  0  0  0  0
   40.2290   87.7732   84.3314 H   0  0  0  0  0
   43.0195   89.0641   84.8635 H   0  0  0  0  0
   41.5656   88.1657   87.0209 H   0  0  0  0  0
   39.9595   87.3158   86.7156 H   0  0  0  0  0
   40.4221   90.1718   85.9803 H   0  0  0  0  0
   39.9479   89.6931   87.6463 H   0  0  0  0  0
   37.9185   88.8447   86.9597 H   0  0  0  0  0
   38.4601   88.7043   85.2362 H   0  0  0  0  0
   38.4976   91.4128   85.8552 H   0  0  0  0  0
   36.8217   92.7932   85.3233 H   0  0  0  0  0
   34.7462   89.9182   85.3950 H   0  0  0  0  0
   36.0619   88.8104   85.7983 H   0  0  0  0  0
  2  1  1  0  0  0
  3  2  1  0  0  0
  2  5  1  0  0  0
  3  4  2  0  0  0
  6  3  1  0  0  0
  7  6  1  0  0  0
  8  7  1  0  0  0
  7 10  1  0  0  0
  8  9  2  0  0  0
 17  8  1  0  0  0
 10 11  1  0  0  0
 11 12  1  0  0  0
 12 13  1  0  0  0
 13 14  1  0  0  0
 14 15  1  0  0  0
 14 16  2  0  0  0
 18 17  1  0  0  0
 19 18  1  0  0  0
 18 21  1  0  0  0
 19 20  2  0  0  0
 29 19  1  0  0  0
 21 22  1  0  0  0
 22 23  4  0  0  0
 22 24  4  0  0  0
 23 25  4  0  0  0
 24 26  4  0  0  0
 25 27  4  0  0  0
 26 27  4  0  0  0
 27 28  1  0  0  0
 30 29  1  0  0  0
 31 30  1  0  0  0
 30 33  1  0  0  0
 31 32  2  0  0  0
 35 31  1  0  0  0
 33 34  1  0  0  0
 36 35  1  0  0  0
 37 36  1  0  0  0
 36 39  1  0  0  0
 37 38  2  0  0  0
 46 37  1  0  0  0
 39 40  1  0  0  0
 40 41  1  0  0  0
 41 42  1  0  0  0
 42 43  1  0  0  0
 43 44  2  0  0  0
 43 45  1  0  0  0
 47 46  1  0  0  0
 48 47  1  0  0  0
 47 50  1  0  0  0
 48 49  2  0  0  0
 55 48  1  0  0  0
 50 51  1  0  0  0
 51 52  1  0  0  0
 52 53  1  0  0  0
 52 54  2  0  0  0
 56 55  1  0  0  0
 57 56  1  0  0  0
 56 59  1  0  0  0
 57 58  2  0  0  0
 64 57  1  0  0  0
 59 60  1  0  0  0
 60 61  1  0  0  0
 61 62  2  0  0  0
 61 63  1  0  0  0
 65 64  1  0  0  0
 66 65  1  0  0  0
 65 68  1  0  0  0
 66 67  2  0  0  0
 72 66  1  0  0  0
 68 69  1  0  0  0
 69 70  1  0  0  0
 69 71  1  0  0  0
 73 72  1  0  0  0
 74 73  1  0  0  0
 73 76  1  0  0  0
 74 75  2  0  0  0
 81 74  1  0  0  0
 76 77  1  0  0  0
 77 78  1  0  0  0
 77 79  1  0  0  0
 80 82  2  0  0  0
 83 80  1  0  0  0
 80 89  1  0  0  0
 83 81  1  0  0  0
 84 83  1  0  0  0
 83 88  1  0  0  0
 87 84  1  0  0  0
 85 86  1  0  0  0
 85 87  1  0  0  0
 89 90  1  0  0  0
 90 91  1  0  0  0
 90 93  1  0  0  0
 91 92  2  0  0  0
 91100  1  0  0  0
 93 94  1  0  0  0
 94 95  4  0  0  0
 94 96  4  0  0  0
 95 97  4  0  0  0
 96 98  4  0  0  0
 97 99  4  0  0  0
 98 99  4  0  0  0
100101  1  0  0  0
101102  1  0  0  0
101104  1  0  0  0
102103  2  0  0  0
102109  1  0  0  0
104105  1  0  0  0
105106  1  0  0  0
106107  2  0  0  0
106108  1  0  0  0
109110  1  0  0  0
110111  1  0  0  0
110113  1  0  0  0
111112  2  0  0  0
113114  1  0  0  0
114115  1  0  0  0
115116  1  0  0  0
116117  1  0  0  0
117118  2  0  0  0
117119  1  0  0  0
  1120  1  0  0  0
  1121  1  0  0  0
  1122  1  0  0  0
  2123  1  0  0  0
  5124  1  0  0  0
  5125  1  0  0  0
  5126  1  0  0  0
  6127  1  0  0  0
  7128  1  0  0  0
 10129  1  0  0  0
 10130  1  0  0  0
 11131  1  0  0  0
 11132  1  0  0  0
 12133  1  0  0  0
 12134  1  0  0  0
 13135  1  0  0  0
 15136  1  0  0  0
 15137  1  0  0  0
 16138  1  0  0  0
 17139  1  0  0  0
 18140  1  0  0  0
 21141  1  0  0  0
 21142  1  0  0  0
 23143  1  0  0  0
 24144  1  0  0  0
 25145  1  0  0  0
 26146  1  0  0  0
 28147  1  0  0  0
 29148  1  0  0  0
 30149  1  0  0  0
 33150  1  0  0  0
 33151  1  0  0  0
 34152  1  0  0  0
 35153  1  0  0  0
 36154  1  0  0  0
 39155  1  0  0  0
 39156  1  0  0  0
 40157  1  0  0  0
 40158  1  0  0  0
 41159  1  0  0  0
 41160  1  0  0  0
 42161  1  0  0  0
 44162  1  0  0  0
 45163  1  0  0  0
 45164  1  0  0  0
 46165  1  0  0  0
 47166  1  0  0  0
 50167  1  0  0  0
 50168  1  0  0  0
 51169  1  0  0  0
 51170  1  0  0  0
 53171  1  0  0  0
 55172  1  0  0  0
 56173  1  0  0  0
 59174  1  0  0  0
 59175  1  0  0  0
 60176  1  0  0  0
 60177  1  0  0  0
 63178  1  0  0  0
 63179  1  0  0  0
 64180  1  0  0  0
 65181  1  0  0  0
 68182  1  0  0  0
 68183  1  0  0  0
 69184  1  0  0  0
 70185  1  0  0  0
 70186  1  0  0  0
 70187  1  0  0  0
 71188  1  0  0  0
 71189  1  0  0  0
 71190  1  0  0  0
 72191  1  0  0  0
 73192  1  0  0  0
 76193  1  0  0  0
 76194  1  0  0  0
 77195  1  0  0  0
 78196  1  0  0  0
 78197  1  0  0  0
 78198  1  0  0  0
 79199  1  0  0  0
 79200  1  0  0  0
 79201  1  0  0  0
 81202  1  0  0  0
 84203  1  0  0  0
 84204  1  0  0  0
 85205  1  0  0  0
 85206  1  0  0  0
 86207  1  0  0  0
 86208  1  0  0  0
 86209  1  0  0  0
 87210  1  0  0  0
 87211  1  0  0  0
 88212  1  0  0  0
 88213  1  0  0  0
 88214  1  0  0  0
 89215  1  0  0  0
 90216  1  0  0  0
 93217  1  0  0  0
 93218  1  0  0  0
 95219  1  0  0  0
 96220  1  0  0  0
 97221  1  0  0  0
 98222  1  0  0  0
 99223  1  0  0  0
100224  1  0  0  0
101225  1  0  0  0
104226  1  0  0  0
104227  1  0  0  0
105228  1  0  0  0
105229  1  0  0  0
108230  1  0  0  0
108231  1  0  0  0
109232  1  0  0  0
110233  1  0  0  0
111234  1  0  0  0
113235  1  0  0  0
113236  1  0  0  0
114237  1  0  0  0
114238  1  0  0  0
115239  1  0  0  0
115240  1  0  0  0
116241  1  0  0  0
118242  1  0  0  0
119243  1  0  0  0
119244  1  0  0  0
M  END
$$$$
