5jid_ligand
  -I-interpret- 

 26 25  0  0  0  0  0  0  0  0999 V2000
   -0.4410    0.0420    7.4380 C   0  0  0  0  0
    0.4630   -0.1310    8.6640 C   0  0  0  0  0
   -0.0920    0.4380    9.9490 C   0  0  0  0  0
    0.3930    0.0530    6.1880 C   0  0  0  0  0
    0.0990    1.9410   10.0210 C   0  0  0  0  0
   -0.9290   -1.2800    4.8070 F   0  0  0  0  0
   -0.4350   -0.0400    4.9240 C   0  0  0  0  0
   -1.4200    0.8590    4.9650 F   0  0  0  0  0
    0.4260    0.2990    3.7280 C   0  0  0  0  0
    1.5770   -0.3690    3.8150 F   0  0  0  0  0
    0.6230    1.6270    3.7050 F   0  0  0  0  0
   -0.2140   -0.1040    2.4230 C   0  0  0  0  0
   -1.3560   -0.6330    2.3930 O   0  0  0  0  0
    0.4300    0.0960    1.3600 O   0  0  0  0  0
    1.1100    1.1840    6.1710 F   0  0  0  0  0
    1.1700   -1.0350    6.2620 F   0  0  0  0  0
   -1.2170   -1.0500    7.3500 F   0  0  0  0  0
   -1.1990    1.1610    7.4450 F   0  0  0  0  0
    1.6990    0.3660    8.5170 F   0  0  0  0  0
    0.5860   -1.4450    8.8630 F   0  0  0  0  0
    0.5710   -0.1370   10.9710 F   0  0  0  0  0
   -1.3870    0.1150   10.0220 F   0  0  0  0  0
   -0.8780    2.4810   10.7460 F   0  0  0  0  0
    0.0980    2.4810    8.7940 F   0  0  0  0  0
    1.2500    2.2110   10.6460 F   0  0  0  0  0
   -1.6961   -0.7083    3.2876 H   0  0  0  0  0
  1  2  1  0  0  0
  1  4  1  0  0  0
  1 17  1  0  0  0
  1 18  1  0  0  0
  2  3  1  0  0  0
  2 19  1  0  0  0
  2 20  1  0  0  0
  3  5  1  0  0  0
  3 21  1  0  0  0
  3 22  1  0  0  0
  4  7  1  0  0  0
  4 15  1  0  0  0
  4 16  1  0  0  0
  5 23  1  0  0  0
  5 24  1  0  0  0
  5 25  1  0  0  0
  7  6  1  0  0  0
  7  8  1  0  0  0
  7  9  1  0  0  0
  9 10  1  0  0  0
  9 11  1  0  0  0
  9 12  1  0  0  0
 12 13  1  0  0  0
 12 14  2  0  0  0
 13 26  1  0  0  0
M  END
$$$$
