3zot_ligand
  -I-interpret- 

 35 36  0  0  0  0  0  0  0  0999 V2000
   -1.6600  -15.5020  -50.5900 O   0  0  0  0  0
   -0.4890  -15.2270  -50.7410 C   0  0  0  0  0
   -0.0780  -13.9400  -51.3350 C   0  0  0  0  0
   -1.0210  -12.9400  -50.8080 C   0  0  0  0  0
   -0.7190  -11.5930  -51.3670 C   0  0  0  0  0
   -1.4650  -11.0550  -52.4230 C   0  0  0  0  0
   -1.1890   -9.7930  -52.9550 C   0  0  0  0  0
   -0.1580   -9.0220  -52.4360 C   0  0  0  0  0
    0.5870   -9.5300  -51.3860 C   0  0  0  0  0
    0.3130  -10.7990  -50.8620 C   0  0  0  0  0
   -0.8400  -12.9240  -49.3740 N   0  0  0  0  0
   -2.0760  -12.7320  -48.6490 C   0  0  0  0  0
   -3.1780  -12.8810  -49.2030 O   0  0  0  0  0
   -1.9860  -12.8380  -47.2780 O   0  0  0  0  0
   -3.0970  -13.1400  -46.5250 C   0  0  0  0  0
   -3.7610  -14.3720  -46.6670 C   0  0  0  0  0
   -4.8860  -14.6650  -45.8960 C   0  0  0  0  0
   -5.3680  -13.7470  -44.9570 C   0  0  0  0  0
   -4.6990  -12.5350  -44.8090 C   0  0  0  0  0
   -3.5830  -12.2240  -45.5720 C   0  0  0  0  0
    0.2733  -15.9425  -50.4328 H   0  0  0  0  0
   -0.1053  -13.9776  -52.4240 H   0  0  0  0  0
    0.9511  -13.6923  -51.0749 H   0  0  0  0  0
   -2.0460  -13.1899  -51.0818 H   0  0  0  0  0
   -2.2851  -11.6380  -52.8422 H   0  0  0  0  0
   -1.7869   -9.4115  -53.7827 H   0  0  0  0  0
    0.0605   -8.0364  -52.8471 H   0  0  0  0  0
    1.3962   -8.9353  -50.9622 H   0  0  0  0  0
    0.9202  -11.1767  -50.0394 H   0  0  0  0  0
    0.0665  -13.0366  -48.9202 H   0  0  0  0  0
   -3.3932  -15.1042  -47.3859 H   0  0  0  0  0
   -5.3951  -15.6199  -46.0267 H   0  0  0  0  0
   -6.2474  -13.9754  -44.3548 H   0  0  0  0  0
   -5.0607  -11.8135  -44.0764 H   0  0  0  0  0
   -3.0802  -11.2669  -45.4334 H   0  0  0  0  0
  1  2  2  0  0  0
  2  3  1  0  0  0
  3  4  1  0  0  0
  4  5  1  0  0  0
  4 11  1  0  0  0
  5  6  4  0  0  0
  5 10  4  0  0  0
  6  7  4  0  0  0
  7  8  4  0  0  0
  8  9  4  0  0  0
  9 10  4  0  0  0
 11 12  1  0  0  0
 12 13  2  0  0  0
 12 14  1  0  0  0
 14 15  1  0  0  0
 15 16  4  0  0  0
 15 20  4  0  0  0
 16 17  4  0  0  0
 17 18  4  0  0  0
 18 19  4  0  0  0
 19 20  4  0  0  0
  2 21  1  0  0  0
  3 22  1  0  0  0
  3 23  1  0  0  0
  4 24  1  0  0  0
  6 25  1  0  0  0
  7 26  1  0  0  0
  8 27  1  0  0  0
  9 28  1  0  0  0
 10 29  1  0  0  0
 11 30  1  0  0  0
 16 31  1  0  0  0
 17 32  1  0  0  0
 18 33  1  0  0  0
 19 34  1  0  0  0
 20 35  1  0  0  0
M  END
$$$$
