5l01_ligand
  -I-interpret- 

 67 71  0  0  0  0  0  0  0  0999 V2000
   47.5360   -0.6190   74.9170 C   0  0  0  0  0
   48.9100    1.0920   75.7500 C   0  0  0  0  0
   48.1370    1.1460   76.8980 C   0  0  0  0  0
   47.0730    0.2460   76.9830 C   0  0  0  0  0
   45.6250   -1.1160   78.3840 C   0  0  0  0  0
   43.6170   -2.4680   76.1170 C   0  0  0  0  0
   44.1860   -3.7130   76.3660 C   0  0  0  0  0
   44.2130   -4.2300   73.9630 C   0  0  0  0  0
   43.6750   -2.9900   73.6710 C   0  0  0  0  0
   47.1090   -1.5140   73.9530 N   0  0  0  0  0
   48.5990    0.1940   74.7660 N   0  0  0  0  0
   50.0310    1.9100   75.6020 N   0  0  0  0  0
   50.3290    3.0010   76.4750 C   0  0  0  0  0
   51.1710    4.0370   75.7520 C   0  0  0  0  0
   52.4470    3.4940   75.1590 C   0  0  0  0  0
   52.0290    2.3390   74.2650 C   0  0  0  0  0
   51.2260    1.2850   75.0060 C   0  0  0  0  0
   53.4500    3.0720   76.2480 C   0  0  0  0  0
   54.6400    3.9160   76.0590 N   0  3  0  0  0
   54.5730    4.2860   74.6200 C   0  0  0  0  0
   55.4470    5.4710   74.2150 C   0  0  0  0  0
   55.5200    5.7660   72.9810 O   0  0  0  0  0
   55.9930    6.0700   75.2030 O   0  0  0  0  0
   53.1250    4.5670   74.3490 C   0  0  0  0  0
   46.3110    0.2040   78.1700 O   0  0  0  0  0
   45.9370   -1.6960   79.7810 C   0  0  0  0  0
   45.1770   -2.8120   79.9210 F   0  0  0  0  0
   47.2330   -2.0660   79.9740 F   0  0  0  0  0
   45.6770   -0.8540   80.8280 F   0  0  0  0  0
   44.1380   -0.8650   78.0950 C   0  0  0  0  0
   43.6380    0.1690   78.8580 C   0  0  0  0  0
   42.3750    0.6400   78.7720 C   0  0  0  0  0
   41.5440    0.0930   77.8700 C   0  0  0  0  0
   39.9880    0.7760   77.8150 Cl  0  0  0  0  0
   41.9980   -0.8970   77.0450 C   0  0  0  0  0
   43.2810   -1.4400   77.1380 C   0  0  0  0  0
   44.4740   -4.5770   75.2980 C   0  0  0  0  0
   43.3890   -2.1460   74.7530 C   0  0  0  0  0
   46.7370   -0.6030   75.9660 N   0  0  0  0  0
   48.3491    1.8569   77.6966 H   0  0  0  0  0
   45.9874   -1.8949   77.7131 H   0  0  0  0  0
   44.4078   -4.0170   77.3890 H   0  0  0  0  0
   44.4333   -4.9343   73.1608 H   0  0  0  0  0
   43.4816   -2.6821   72.6434 H   0  0  0  0  0
   47.6080   -1.5850   73.0662 H   0  0  0  0  0
   46.2951   -2.1031   74.1288 H   0  0  0  0  0
   50.8843    2.6277   77.3355 H   0  0  0  0  0
   49.3966    3.4628   76.7996 H   0  0  0  0  0
   51.4537    4.7907   76.4869 H   0  0  0  0  0
   50.5706    4.4195   74.9266 H   0  0  0  0  0
   52.9343    1.8647   73.8859 H   0  0  0  0  0
   51.4004    2.7413   73.4706 H   0  0  0  0  0
   50.9198    0.5042   74.3098 H   0  0  0  0  0
   51.8391    0.8470   75.7936 H   0  0  0  0  0
   53.7006    2.0146   76.1630 H   0  0  0  0  0
   53.0278    3.2053   77.2441 H   0  0  0  0  0
   55.5057    3.4334   76.3002 H   0  0  0  0  0
   54.6454    4.7300   76.6736 H   0  0  0  0  0
   54.9722    3.4668   74.0220 H   0  0  0  0  0
   55.7595    5.6192   76.0178 H   0  0  0  0  0
   52.8200    5.5765   74.6246 H   0  0  0  0  0
   52.8684    4.5385   73.2900 H   0  0  0  0  0
   44.3072    0.6380   79.5793 H   0  0  0  0  0
   42.0372    1.4476   79.4215 H   0  0  0  0  0
   41.3263   -1.2814   76.2774 H   0  0  0  0  0
   44.9153   -5.5504   75.5124 H   0  0  0  0  0
   42.9594   -1.1692   74.5306 H   0  0  0  0  0
  1 10  1  0  0  0
  1 11  4  0  0  0
 39  1  4  0  0  0
  3  2  4  0  0  0
  2 11  4  0  0  0
  2 12  1  0  0  0
  4  3  4  0  0  0
 25  4  1  0  0  0
  4 39  4  0  0  0
  5 25  1  0  0  0
  5 26  1  0  0  0
 30  5  1  0  0  0
  6  7  4  0  0  0
 36  6  1  0  0  0
  6 38  4  0  0  0
  7 37  4  0  0  0
  9  8  4  0  0  0
 37  8  4  0  0  0
 38  9  4  0  0  0
 12 13  1  0  0  0
 12 17  1  0  0  0
 13 14  1  0  0  0
 14 15  1  0  0  0
 16 15  1  0  0  0
 15 18  1  0  0  0
 15 24  1  0  0  0
 17 16  1  0  0  0
 18 19  1  0  0  0
 20 19  1  0  0  0
 20 21  1  0  0  0
 24 20  1  0  0  0
 21 22  2  0  0  0
 21 23  1  0  0  0
 26 27  1  0  0  0
 26 28  1  0  0  0
 26 29  1  0  0  0
 30 31  4  0  0  0
 30 36  4  0  0  0
 31 32  4  0  0  0
 32 33  4  0  0  0
 33 34  1  0  0  0
 33 35  4  0  0  0
 35 36  4  0  0  0
  3 40  1  0  0  0
  5 41  1  0  0  0
  7 42  1  0  0  0
  8 43  1  0  0  0
  9 44  1  0  0  0
 10 45  1  0  0  0
 10 46  1  0  0  0
 13 47  1  0  0  0
 13 48  1  0  0  0
 14 49  1  0  0  0
 14 50  1  0  0  0
 16 51  1  0  0  0
 16 52  1  0  0  0
 17 53  1  0  0  0
 17 54  1  0  0  0
 18 55  1  0  0  0
 18 56  1  0  0  0
 19 57  1  0  0  0
 19 58  1  0  0  0
 20 59  1  0  0  0
 23 60  1  0  0  0
 24 61  1  0  0  0
 24 62  1  0  0  0
 31 63  1  0  0  0
 32 64  1  0  0  0
 35 65  1  0  0  0
 37 66  1  0  0  0
 38 67  1  0  0  0
M  END
$$$$
