2c6e_ligand
  -I-interpret- 

 71 75  0  0  0  0  0  0  0  0999 V2000
   21.3640   83.8490   79.7510 C   0  0  0  0  0
   21.2040   82.4820   80.4880 C   0  0  0  0  0
   20.0890   81.5940   79.8480 C   0  0  0  0  0
   20.1710   81.5300   78.2860 C   0  0  0  0  0
   20.4030   82.9310   77.6370 C   0  0  0  0  0
   21.5620   83.6780   78.2680 N   0  3  0  0  0
   21.8440   85.0070   77.5900 C   0  0  0  0  0
   22.0910   84.9460   76.0620 C   0  0  0  0  0
   21.7030   86.2170   75.3010 C   0  0  0  0  0
   22.1860   86.1270   73.9300 O   0  0  0  0  0
   22.2940   87.2270   73.0660 C   0  0  0  0  0
   22.7810   87.0730   71.7280 C   0  0  0  0  0
   22.8810   88.1970   70.8700 C   0  0  0  0  0
   22.5060   89.4830   71.3120 C   0  0  0  0  0
   22.0050   89.6510   72.6950 C   0  0  0  0  0
   21.9110   88.5160   73.5370 C   0  0  0  0  0
   21.6340   90.8720   73.1620 N   0  0  0  0  0
   21.7330   91.9110   72.3470 C   0  0  0  0  0
   22.1690   91.8770   71.0880 N   0  0  0  0  0
   22.5600   90.6930   70.5390 C   0  0  0  0  0
   23.0250   90.7040   69.1480 N   0  0  0  0  0
   23.0010   91.7570   68.1800 C   0  0  0  0  0
   24.0610   91.9230   67.2460 C   0  0  0  0  0
   24.0420   92.9330   66.3670 N   0  0  0  0  0
   22.9920   93.7830   66.3940 C   0  0  0  0  0
   21.9550   93.7080   67.2140 N   0  0  0  0  0
   21.9360   92.7240   68.0970 C   0  0  0  0  0
   23.0430   94.8760   65.4670 N   0  0  0  0  0
   23.6960   95.2140   64.3460 C   0  0  0  0  0
   23.3520   96.5850   63.7860 C   0  0  0  0  0
   22.4050   97.4700   64.4110 C   0  0  0  0  0
   22.1220   98.7420   63.8600 C   0  0  0  0  0
   22.7760   99.1530   62.6760 C   0  0  0  0  0
   23.7100   98.3030   62.0420 C   0  0  0  0  0
   23.9980   97.0350   62.5890 C   0  0  0  0  0
   24.5310   94.4480   63.8240 O   0  0  0  0  0
   23.1700   85.8270   71.2400 O   0  0  0  0  0
   22.6790   85.3750   69.9510 C   0  0  0  0  0
   23.4660   84.6770   75.8200 O   0  0  0  0  0
   22.2439   84.3501   80.1544 H   0  0  0  0  0
   20.4525   84.4261   79.9065 H   0  0  0  0  0
   20.9247   82.6846   81.5219 H   0  0  0  0  0
   22.1494   81.9445   80.4151 H   0  0  0  0  0
   19.1264   82.0331   80.1102 H   0  0  0  0  0
   20.2167   80.5800   80.2269 H   0  0  0  0  0
   19.2213   81.1431   77.9165 H   0  0  0  0  0
   21.0158   80.8943   78.0209 H   0  0  0  0  0
   19.5003   83.5238   77.7846 H   0  0  0  0  0
   20.6345   82.7793   76.5827 H   0  0  0  0  0
   22.3899   83.0994   78.1256 H   0  0  0  0  0
   22.7622   85.3906   78.0349 H   0  0  0  0  0
   20.9545   85.6204   77.7335 H   0  0  0  0  0
   21.4439   84.1520   75.6893 H   0  0  0  0  0
   22.1502   87.0835   75.7881 H   0  0  0  0  0
   20.6181   86.3225   75.2983 H   0  0  0  0  0
   23.2531   88.0656   69.8539 H   0  0  0  0  0
   21.5417   88.6298   74.5562 H   0  0  0  0  0
   21.4308   92.8812   72.7412 H   0  0  0  0  0
   23.4274   89.8258   68.8205 H   0  0  0  0  0
   24.8958   91.2221   67.2458 H   0  0  0  0  0
   21.0913   92.6421   68.7810 H   0  0  0  0  0
   22.3917   95.6117   65.7407 H   0  0  0  0  0
   21.8978   97.1555   65.3231 H   0  0  0  0  0
   21.4033   99.4018   64.3460 H   0  0  0  0  0
   22.5584  100.1321   62.2493 H   0  0  0  0  0
   24.2087   98.6276   61.1288 H   0  0  0  0  0
   24.7224   96.3883   62.0939 H   0  0  0  0  0
   21.5904   85.3246   69.9756 H   0  0  0  0  0
   22.9942   86.0754   69.1776 H   0  0  0  0  0
   23.0849   84.3867   69.7352 H   0  0  0  0  0
   23.6216   84.6387   74.8735 H   0  0  0  0  0
  1  2  1  0  0  0
  1  6  1  0  0  0
  2  3  1  0  0  0
  3  4  1  0  0  0
  4  5  1  0  0  0
  5  6  1  0  0  0
  6  7  1  0  0  0
  7  8  1  0  0  0
  8  9  1  0  0  0
  8 39  1  0  0  0
  9 10  1  0  0  0
 10 11  1  0  0  0
 11 12  4  0  0  0
 11 16  4  0  0  0
 12 13  4  0  0  0
 12 37  1  0  0  0
 13 14  4  0  0  0
 14 15  4  0  0  0
 14 20  4  0  0  0
 15 16  4  0  0  0
 15 17  4  0  0  0
 17 18  4  0  0  0
 18 19  4  0  0  0
 19 20  4  0  0  0
 20 21  1  0  0  0
 21 22  1  0  0  0
 22 23  4  0  0  0
 22 27  4  0  0  0
 23 24  4  0  0  0
 24 25  4  0  0  0
 25 26  4  0  0  0
 25 28  1  0  0  0
 26 27  4  0  0  0
 28 29  1  0  0  0
 29 30  1  0  0  0
 29 36  2  0  0  0
 30 31  4  0  0  0
 30 35  4  0  0  0
 31 32  4  0  0  0
 32 33  4  0  0  0
 33 34  4  0  0  0
 34 35  4  0  0  0
 37 38  1  0  0  0
  1 40  1  0  0  0
  1 41  1  0  0  0
  2 42  1  0  0  0
  2 43  1  0  0  0
  3 44  1  0  0  0
  3 45  1  0  0  0
  4 46  1  0  0  0
  4 47  1  0  0  0
  5 48  1  0  0  0
  5 49  1  0  0  0
  6 50  1  0  0  0
  7 51  1  0  0  0
  7 52  1  0  0  0
  8 53  1  0  0  0
  9 54  1  0  0  0
  9 55  1  0  0  0
 13 56  1  0  0  0
 16 57  1  0  0  0
 18 58  1  0  0  0
 21 59  1  0  0  0
 23 60  1  0  0  0
 27 61  1  0  0  0
 28 62  1  0  0  0
 31 63  1  0  0  0
 32 64  1  0  0  0
 33 65  1  0  0  0
 34 66  1  0  0  0
 35 67  1  0  0  0
 38 68  1  0  0  0
 38 69  1  0  0  0
 38 70  1  0  0  0
 39 71  1  0  0  0
M  END
$$$$
