1m5w_ligand
  -I-interpret- 

 24 23  0  0  0  0  0  0  0  0999 V2000
   28.4280    0.8800   36.3340 C   0  0  0  0  0
   29.3490    0.8640   35.0910 C   0  0  0  0  0
   30.1260    2.0340   34.9090 C   0  0  0  0  0
   30.7120    2.9560   35.7270 C   0  0  0  0  0
   32.1430    2.5180   35.8320 C   0  0  0  0  0
   29.3820   -0.0770   34.3100 O   0  0  0  0  0
   29.4470    2.7240   34.0760 O   0  0  0  0  0
   30.8490    4.3520   35.3480 O   0  0  0  0  0
   33.1620    3.4640   36.1130 O   0  0  0  0  0
   34.6060    3.1980   36.2560 P   0  0  0  0  0
   35.2570    4.5790   36.5730 O   0  0  0  0  0
   35.0110    2.5260   34.8630 O   0  0  0  0  0
   34.6210    2.1850   37.5150 O   0  0  0  0  0
   27.3888    0.7967   36.0157 H   0  0  0  0  0
   28.6794    0.0402   36.9817 H   0  0  0  0  0
   28.5691    1.8144   36.8772 H   0  0  0  0  0
   31.0566    1.4768   34.8009 H   0  0  0  0  0
   30.0400    2.9633   36.5852 H   0  0  0  0  0
   32.3858    2.1473   34.8362 H   0  0  0  0  0
   32.1569    1.8436   36.6882 H   0  0  0  0  0
   29.0020    2.1352   33.4621 H   0  0  0  0  0
   29.9776    4.7429   35.2505 H   0  0  0  0  0
   34.5564    1.6855   34.7703 H   0  0  0  0  0
   34.2093    1.3556   37.2618 H   0  0  0  0  0
  1  2  1  0  0  0
  2  3  1  0  0  0
  2  6  2  0  0  0
  3  4  1  0  0  0
  3  7  1  0  0  0
  4  5  1  0  0  0
  4  8  1  0  0  0
  5  9  1  0  0  0
  9 10  1  0  0  0
 10 11  2  0  0  0
 10 12  1  0  0  0
 10 13  1  0  0  0
  1 14  1  0  0  0
  1 15  1  0  0  0
  1 16  1  0  0  0
  3 17  1  0  0  0
  4 18  1  0  0  0
  5 19  1  0  0  0
  5 20  1  0  0  0
  7 21  1  0  0  0
  8 22  1  0  0  0
 12 23  1  0  0  0
 13 24  1  0  0  0
M  END
$$$$
