5yjp_ligand
  -I-interpret- 

 68 70  0  0  0  0  0  0  0  0999 V2000
   -9.4110  -16.6290   -5.9350 C   0  0  0  0  0
   -8.4990  -17.0440   -5.2050 O   0  0  0  0  0
  -14.0700  -15.0780   -0.4570 Cl  0  0  0  0  0
  -12.9950  -14.3770   -1.5660 C   0  0  0  0  0
  -12.9820  -13.0120   -1.7860 C   0  0  0  0  0
  -12.1300  -12.4540   -2.7030 C   0  0  0  0  0
  -11.1860  -13.2770   -3.4230 C   0  0  0  0  0
  -10.2650  -12.8800   -4.3500 O   0  0  0  0  0
  -10.0860  -11.5190   -4.7730 C   0  0  0  0  0
  -12.0860  -15.2040   -2.2130 C   0  0  0  0  0
  -11.1550  -14.6330   -3.1190 C   0  0  0  0  0
  -10.1880  -15.5150   -3.8400 C   0  0  0  0  0
  -10.5280  -15.7800   -5.2800 C   0  0  0  0  0
  -11.8290  -16.6170   -5.4340 C   0  0  0  0  0
  -12.4070  -16.7260   -6.7460 N   0  0  0  0  0
  -11.8900  -16.5300   -8.0050 C   0  0  0  0  0
  -12.6270  -16.7710   -9.0180 N   0  0  0  0  0
  -13.9190  -17.2070   -8.7550 O   0  0  0  0  0
  -14.4750  -17.8140   -9.9360 C   0  0  0  0  0
  -15.8800  -18.3010   -9.6040 C   0  0  0  0  0
  -10.4430  -16.0710   -8.1630 C   0  0  0  0  0
   -9.4170  -16.7740   -7.3220 N   0  0  0  0  0
   -8.4560  -17.4900   -8.0840 C   0  0  0  0  0
   -8.5350  -17.5510   -9.3070 O   0  0  0  0  0
   -7.5220  -18.1960   -7.4070 N   0  0  0  0  0
   -6.3830  -18.9660   -7.9920 C   0  0  0  0  0
   -6.4740  -20.4680   -7.7510 C   0  0  0  0  0
   -7.3840  -21.1560   -8.6850 C   0  0  0  0  0
   -5.2390  -18.2130   -7.2550 C   0  0  0  0  0
   -4.8340  -18.5690   -5.9450 C   0  0  0  0  0
   -3.8640  -17.8270   -5.2570 C   0  0  0  0  0
   -4.6030  -17.1290   -7.8760 C   0  0  0  0  0
   -3.6120  -16.3740   -7.1960 C   0  0  0  0  0
   -3.2390  -16.7040   -5.8700 C   0  0  0  0  0
   -2.1650  -15.9280   -5.1830 C   0  0  0  0  0
   -1.6500  -14.9220   -5.8380 O   0  0  0  0  0
   -1.8520  -16.2520   -3.9740 O   0  0  0  0  0
  -13.6591  -12.3705   -1.2220 H   0  0  0  0  0
  -12.1649  -11.3808   -2.8905 H   0  0  0  0  0
  -11.0147  -11.1500   -5.2083 H   0  0  0  0  0
   -9.8170  -10.9051   -3.9134 H   0  0  0  0  0
   -9.2909  -11.4727   -5.5172 H   0  0  0  0  0
  -12.0877  -16.2780   -2.0272 H   0  0  0  0  0
  -10.1982  -16.4784   -3.3303 H   0  0  0  0  0
   -9.2259  -15.0028   -3.8314 H   0  0  0  0  0
  -10.6469  -14.8027   -5.7479 H   0  0  0  0  0
  -12.5770  -16.1045   -4.8291 H   0  0  0  0  0
  -11.5550  -17.6337   -5.1523 H   0  0  0  0  0
  -13.3890  -17.0016   -6.7421 H   0  0  0  0  0
  -13.8538  -18.6509  -10.2552 H   0  0  0  0  0
  -14.5120  -17.0883  -10.7485 H   0  0  0  0  0
  -15.8288  -19.0304   -8.7957 H   0  0  0  0  0
  -16.4925  -17.4547   -9.2931 H   0  0  0  0  0
  -16.3203  -18.7651  -10.4865 H   0  0  0  0  0
  -10.4233  -15.0270   -7.8503 H   0  0  0  0  0
  -10.1741  -16.2768   -9.1991 H   0  0  0  0  0
   -7.6037  -18.2036   -6.3903 H   0  0  0  0  0
   -6.2913  -18.9807   -9.0780 H   0  0  0  0  0
   -6.8629  -20.6165   -6.7436 H   0  0  0  0  0
   -5.4774  -20.8852   -7.8955 H   0  0  0  0  0
   -8.3883  -20.7453   -8.5806 H   0  0  0  0  0
   -7.0339  -21.0080   -9.7066 H   0  0  0  0  0
   -7.4002  -22.2215   -8.4559 H   0  0  0  0  0
   -5.2852  -19.4363   -5.4630 H   0  0  0  0  0
   -3.5854  -18.1125   -4.2426 H   0  0  0  0  0
   -4.8739  -16.8617   -8.8974 H   0  0  0  0  0
   -3.1339  -15.5331   -7.6984 H   0  0  0  0  0
   -2.0372  -14.8810   -6.7155 H   0  0  0  0  0
  1  2  2  0  0  0
 13  1  1  0  0  0
  1 22  1  0  0  0
  4  3  1  0  0  0
  4  5  4  0  0  0
 10  4  4  0  0  0
  6  5  4  0  0  0
  7  6  4  0  0  0
  7  8  1  0  0  0
 11  7  4  0  0  0
  8  9  1  0  0  0
 11 10  4  0  0  0
 12 11  1  0  0  0
 12 13  1  0  0  0
 13 14  1  0  0  0
 14 15  1  0  0  0
 15 16  1  0  0  0
 16 17  2  0  0  0
 16 21  1  0  0  0
 17 18  1  0  0  0
 18 19  1  0  0  0
 19 20  1  0  0  0
 21 22  1  0  0  0
 22 23  1  0  0  0
 23 24  2  0  0  0
 23 25  1  0  0  0
 25 26  1  0  0  0
 26 27  1  0  0  0
 26 29  1  0  0  0
 27 28  1  0  0  0
 29 30  4  0  0  0
 29 32  4  0  0  0
 30 31  4  0  0  0
 31 34  4  0  0  0
 32 33  4  0  0  0
 33 34  4  0  0  0
 34 35  1  0  0  0
 35 36  1  0  0  0
 35 37  2  0  0  0
  5 38  1  0  0  0
  6 39  1  0  0  0
  9 40  1  0  0  0
  9 41  1  0  0  0
  9 42  1  0  0  0
 10 43  1  0  0  0
 12 44  1  0  0  0
 12 45  1  0  0  0
 13 46  1  0  0  0
 14 47  1  0  0  0
 14 48  1  0  0  0
 15 49  1  0  0  0
 19 50  1  0  0  0
 19 51  1  0  0  0
 20 52  1  0  0  0
 20 53  1  0  0  0
 20 54  1  0  0  0
 21 55  1  0  0  0
 21 56  1  0  0  0
 25 57  1  0  0  0
 26 58  1  0  0  0
 27 59  1  0  0  0
 27 60  1  0  0  0
 28 61  1  0  0  0
 28 62  1  0  0  0
 28 63  1  0  0  0
 30 64  1  0  0  0
 31 65  1  0  0  0
 32 66  1  0  0  0
 33 67  1  0  0  0
 36 68  1  0  0  0
M  END
$$$$
