5i88_ligand
  -I-interpret- 

 45 47  0  0  0  0  0  0  0  0999 V2000
  -10.8300   -6.4110   11.9310 C   0  0  0  0  0
  -12.4950   -7.1240   10.3320 C   0  0  0  0  0
  -12.6100   -4.9090   11.2090 C   0  0  0  0  0
  -13.7080   -4.5990   10.4700 C   0  0  0  0  0
  -14.2520   -5.6250    9.5780 C   0  0  0  0  0
  -15.3270   -5.6770    8.6720 C   0  0  0  0  0
  -15.3320   -6.9040    8.1150 C   0  0  0  0  0
  -13.6220   -6.8770    9.5260 C   0  0  0  0  0
  -11.0700   -6.4010   13.4180 C   0  0  0  0  0
  -10.7200   -5.3090   15.6000 C   0  0  0  0  0
  -10.5430   -5.4040   14.1010 C   0  0  0  0  0
  -12.0400   -6.1510   11.1410 N   0  0  0  0  0
  -14.3030   -7.6470    8.6160 N   0  0  0  0  0
  -11.9310   -8.2210   10.2840 O   0  0  0  0  0
  -14.2530   -3.2330   10.5270 C   0  0  0  0  0
  -14.4210   -2.5590   11.7340 C   0  0  0  0  0
  -14.8980   -1.2660   11.7470 C   0  0  0  0  0
  -15.1930   -0.6130   10.5630 C   0  0  0  0  0
  -15.0010   -1.2710    9.3470 C   0  0  0  0  0
  -14.5300   -2.5830    9.3270 C   0  0  0  0  0
  -15.3310   -0.5620    8.0910 C   0  0  0  0  0
  -16.4080   -0.0150    8.0120 O   0  0  0  0  0
  -14.4830   -0.4920    7.0400 N   0  0  0  0  0
  -14.9090    0.2370    5.8430 C   0  0  0  0  0
  -13.1540   -1.1070    7.0460 C   0  0  0  0  0
  -10.4713   -7.4050   11.6636 H   0  0  0  0  0
  -10.1167   -5.6173   11.7088 H   0  0  0  0  0
  -12.1764   -4.1556   11.8667 H   0  0  0  0  0
  -16.0289   -4.8707    8.4591 H   0  0  0  0  0
  -16.0517   -7.2516    7.3738 H   0  0  0  0  0
  -11.6525   -7.1820   13.9068 H   0  0  0  0  0
  -11.7823   -5.2459   15.8359 H   0  0  0  0  0
  -10.2937   -6.1944   16.0717 H   0  0  0  0  0
  -10.2111   -4.4185   15.9689 H   0  0  0  0  0
   -9.9716   -4.6373   13.5779 H   0  0  0  0  0
  -14.1743   -3.0560   12.6722 H   0  0  0  0  0
  -15.0441   -0.7534   12.6978 H   0  0  0  0  0
  -15.5728    0.4085   10.5799 H   0  0  0  0  0
  -14.3794   -3.0970    8.3777 H   0  0  0  0  0
  -15.8122   -0.2225    5.4415 H   0  0  0  0  0
  -15.1136    1.2751    6.1050 H   0  0  0  0  0
  -14.1171    0.1990    5.0950 H   0  0  0  0  0
  -12.5609   -0.6795    7.8544 H   0  0  0  0  0
  -13.2532   -2.1821    7.1957 H   0  0  0  0  0
  -12.6622   -0.9155    6.0923 H   0  0  0  0  0
  1  9  1  0  0  0
 12  1  1  0  0  0
  2  8  1  0  0  0
 12  2  1  0  0  0
  2 14  2  0  0  0
  3  4  2  0  0  0
  3 12  1  0  0  0
  4  5  1  0  0  0
  4 15  1  0  0  0
  5  6  4  0  0  0
  5  8  4  0  0  0
  6  7  4  0  0  0
  7 13  4  0  0  0
  8 13  4  0  0  0
  9 11  2  0  0  0
 11 10  1  0  0  0
 15 16  4  0  0  0
 15 20  4  0  0  0
 16 17  4  0  0  0
 17 18  4  0  0  0
 18 19  4  0  0  0
 19 20  4  0  0  0
 19 21  1  0  0  0
 21 22  2  0  0  0
 21 23  1  0  0  0
 23 24  1  0  0  0
 23 25  1  0  0  0
  1 26  1  0  0  0
  1 27  1  0  0  0
  3 28  1  0  0  0
  6 29  1  0  0  0
  7 30  1  0  0  0
  9 31  1  0  0  0
 10 32  1  0  0  0
 10 33  1  0  0  0
 10 34  1  0  0  0
 11 35  1  0  0  0
 16 36  1  0  0  0
 17 37  1  0  0  0
 18 38  1  0  0  0
 20 39  1  0  0  0
 24 40  1  0  0  0
 24 41  1  0  0  0
 24 42  1  0  0  0
 25 43  1  0  0  0
 25 44  1  0  0  0
 25 45  1  0  0  0
M  END
$$$$
