5ose_ligand
  -I-interpret- 

 22 22  0  0  0  0  0  0  0  0999 V2000
   -2.3970   30.2350  -24.4400 C   0  0  0  0  0
   -3.1840   32.4970  -24.7900 C   0  0  0  0  0
   -4.4430   34.4520  -25.1590 C   0  0  0  0  0
   -1.0240   28.9250  -22.8140 C   0  0  0  0  0
    0.7800   27.0410  -21.9610 C   0  0  0  0  0
    1.8530   26.7210  -20.9540 C   0  0  0  0  0
   -0.0520   28.5540  -21.4220 S   0  0  0  0  0
   -1.4360   28.2090  -23.8540 N   0  0  0  0  0
   -2.2350   28.9590  -24.7850 N   0  0  0  0  0
   -1.5880   30.5280  -22.9600 S   0  0  0  0  0
   -3.1170   31.1830  -25.1460 N   0  0  0  0  0
   -2.5040   33.0390  -23.9490 O   0  0  0  0  0
   -4.1460   33.0870  -25.5110 O   0  0  0  0  0
   -4.7694   34.4951  -24.1199 H   0  0  0  0  0
   -3.5483   35.0615  -25.2857 H   0  0  0  0  0
   -5.2353   34.8285  -25.8060 H   0  0  0  0  0
    0.0662   26.2199  -22.0268 H   0  0  0  0  0
    1.2185   27.1820  -22.9489 H   0  0  0  0  0
    2.5628   27.5469  -20.9064 H   0  0  0  0  0
    1.3981   26.5743  -19.9744 H   0  0  0  0  0
    2.3721   25.8110  -21.2549 H   0  0  0  0  0
   -3.6250   30.8820  -25.9777 H   0  0  0  0  0
  1  9  4  0  0  0
 10  1  4  0  0  0
  1 11  1  0  0  0
 11  2  1  0  0  0
  2 12  2  0  0  0
  2 13  1  0  0  0
 13  3  1  0  0  0
  7  4  1  0  0  0
  4  8  4  0  0  0
  4 10  4  0  0  0
  5  6  1  0  0  0
  5  7  1  0  0  0
  8  9  4  0  0  0
  3 14  1  0  0  0
  3 15  1  0  0  0
  3 16  1  0  0  0
  5 17  1  0  0  0
  5 18  1  0  0  0
  6 19  1  0  0  0
  6 20  1  0  0  0
  6 21  1  0  0  0
 11 22  1  0  0  0
M  END
$$$$
