4c1c_ligand
  -I-interpret- 

 29 29  0  0  0  0  0  0  0  0999 V2000
   11.0160   10.7790   42.4500 O   0  0  0  0  0
   10.8000   11.7100   41.6010 C   0  0  0  0  0
   10.6250   11.4450   40.4150 O   0  0  0  0  0
   10.7640   13.1150   42.0260 C   0  0  0  0  0
    9.3700   13.4730   42.4670 C   0  0  0  0  0
    9.3930   13.5990   43.9450 C   0  0  0  0  0
   10.8230   13.4710   44.3720 C   0  0  0  0  0
   11.6000   13.2790   43.1750 N   0  0  0  0  0
   13.0410   13.2270   43.1310 C   0  0  0  0  0
   13.6020   13.0540   42.0940 O   0  0  0  0  0
   13.8330   13.3490   44.3950 C   0  0  0  0  0
   14.4860   14.7100   44.5330 C   0  0  0  0  0
   14.8900   12.2780   44.4120 C   0  0  0  0  0
   14.1750   10.6200   44.2060 S   0  0  0  0  0
   11.1294   11.1631   43.3225 H   0  0  0  0  0
   11.0911   13.7384   41.1938 H   0  0  0  0  0
    8.6618   12.7036   42.1594 H   0  0  0  0  0
    9.0519   14.4091   42.0080 H   0  0  0  0  0
    8.7810   12.8250   44.4081 H   0  0  0  0  0
    8.9813   14.5588   44.2571 H   0  0  0  0  0
   10.9495   12.6307   45.0547 H   0  0  0  0  0
   11.1489   14.3635   44.9062 H   0  0  0  0  0
   13.1491   13.2305   45.2354 H   0  0  0  0  0
   15.1607   14.8747   43.6929 H   0  0  0  0  0
   13.7164   15.4819   44.5393 H   0  0  0  0  0
   15.0488   14.7487   45.4657 H   0  0  0  0  0
   15.3988   12.3143   45.3753 H   0  0  0  0  0
   15.5757   12.4604   43.5846 H   0  0  0  0  0
   15.1479    9.7135   44.2281 H   0  0  0  0  0
  1  2  1  0  0  0
  2  3  2  0  0  0
  2  4  1  0  0  0
  4  5  1  0  0  0
  4  8  1  0  0  0
  5  6  1  0  0  0
  6  7  1  0  0  0
  7  8  1  0  0  0
  8  9  1  0  0  0
  9 10  2  0  0  0
  9 11  1  0  0  0
 11 12  1  0  0  0
 11 13  1  0  0  0
 13 14  1  0  0  0
  1 15  1  0  0  0
  4 16  1  0  0  0
  5 17  1  0  0  0
  5 18  1  0  0  0
  6 19  1  0  0  0
  6 20  1  0  0  0
  7 21  1  0  0  0
  7 22  1  0  0  0
 11 23  1  0  0  0
 12 24  1  0  0  0
 12 25  1  0  0  0
 12 26  1  0  0  0
 13 27  1  0  0  0
 13 28  1  0  0  0
 14 29  1  0  0  0
M  END
$$$$
