4qzs_ligand
  -I-interpret- 

 56 59  0  0  0  0  0  0  0  0999 V2000
   11.5710   -3.3840    1.6370 C   0  0  0  0  0
    6.8330   -7.2430    1.3040 C   0  0  0  0  0
    7.2430   -7.4230   -1.7400 C   0  0  0  0  0
   10.3650  -10.8150   -3.5470 C   0  0  0  0  0
   12.4180  -11.0330   -5.0480 C   0  0  0  0  0
   10.7280   -9.1720   -5.4670 C   0  0  0  0  0
   13.5770   -8.2360   -4.8940 O   0  0  0  0  0
    6.4180   -3.7560   -6.7460 Cl  0  0  0  0  0
    7.1220   -4.2780   -4.1930 C   0  0  0  0  0
    8.6120   -5.1170   -5.9260 C   0  0  0  0  0
    7.9820   -4.8430   -3.2280 C   0  0  0  0  0
    9.4590   -5.6880   -4.9540 C   0  0  0  0  0
   13.4810   -7.3400   -2.6990 C   0  0  0  0  0
   11.2620   -6.2630   -2.8600 N   0  0  0  0  0
   13.4520   -4.1880    0.2310 N   0  0  0  0  0
   13.6630   -5.0880   -0.7180 N   0  0  0  0  0
   12.0630   -9.1140   -3.4770 O   0  0  0  0  0
    9.3940   -6.0670    1.3880 S   0  0  0  0  0
   13.0730   -8.2670   -3.7490 C   0  0  0  0  0
   10.0100   -6.1370   -2.5670 C   0  0  0  0  0
    7.4470   -4.4080   -5.5560 C   0  0  0  0  0
   12.1570   -4.2770    0.6050 C   0  0  0  0  0
    9.1640   -5.5660   -3.5700 C   0  0  0  0  0
    8.0180   -6.7670    0.5550 C   0  0  0  0  0
    8.2730   -6.8240   -0.8260 C   0  0  0  0  0
   12.5340   -5.7780   -0.9140 C   0  0  0  0  0
    9.5420   -6.2600   -1.2130 C   0  0  0  0  0
   10.2990   -5.7900   -0.1040 C   0  0  0  0  0
   12.2250   -6.7940   -1.9550 C   0  0  0  0  0
   11.5740   -5.2650   -0.1180 N   0  0  0  0  0
   11.4230  -10.0330   -4.3850 C   0  0  0  0  0
   12.1056   -3.5178    2.5774 H   0  0  0  0  0
   11.6596   -2.3475    1.3115 H   0  0  0  0  0
   10.5192   -3.6336    1.7768 H   0  0  0  0  0
    7.1346   -8.0270    1.9986 H   0  0  0  0  0
    6.3976   -6.4120    1.8589 H   0  0  0  0  0
    6.0974   -7.6392    0.6040 H   0  0  0  0  0
    7.0647   -8.4597   -1.4545 H   0  0  0  0  0
    6.3146   -6.8577   -1.6591 H   0  0  0  0  0
    7.6048   -7.3849   -2.7675 H   0  0  0  0  0
   10.8656  -11.3486   -2.7390 H   0  0  0  0  0
    9.6438  -10.1130   -3.1285 H   0  0  0  0  0
    9.8489  -11.5280   -4.1900 H   0  0  0  0  0
   13.1665  -10.4778   -5.6133 H   0  0  0  0  0
   12.9090  -11.6222   -4.2735 H   0  0  0  0  0
   11.8718  -11.6958   -5.7191 H   0  0  0  0  0
    9.9954   -8.5181   -4.9939 H   0  0  0  0  0
   11.4743   -8.5692   -5.9846 H   0  0  0  0  0
   10.2266   -9.8244   -6.1819 H   0  0  0  0  0
    6.2194   -3.7487   -3.8875 H   0  0  0  0  0
    8.8604   -5.2244   -6.9819 H   0  0  0  0  0
    7.7325   -4.7219   -2.1739 H   0  0  0  0  0
   10.3511   -6.2296   -5.2686 H   0  0  0  0  0
   14.0240   -6.5073   -3.1460 H   0  0  0  0  0
   14.1212   -7.8619   -1.9878 H   0  0  0  0  0
   11.8091   -7.6637   -1.4463 H   0  0  0  0  0
 22  1  1  0  0  0
 24  2  1  0  0  0
 25  3  1  0  0  0
 31  4  1  0  0  0
 31  5  1  0  0  0
 31  6  1  0  0  0
 19  7  2  0  0  0
 21  8  1  0  0  0
 11  9  4  0  0  0
  9 21  4  0  0  0
 12 10  4  0  0  0
 10 21  4  0  0  0
 23 11  4  0  0  0
 23 12  4  0  0  0
 13 19  1  0  0  0
 29 13  1  0  0  0
 14 20  2  0  0  0
 29 14  1  0  0  0
 16 15  4  0  0  0
 15 22  4  0  0  0
 26 16  4  0  0  0
 19 17  1  0  0  0
 17 31  1  0  0  0
 24 18  4  0  0  0
 18 28  4  0  0  0
 20 23  1  0  0  0
 20 27  1  0  0  0
 22 30  4  0  0  0
 25 24  4  0  0  0
 27 25  4  0  0  0
 26 29  1  0  0  0
 26 30  4  0  0  0
 27 28  4  0  0  0
 28 30  1  0  0  0
  1 32  1  0  0  0
  1 33  1  0  0  0
  1 34  1  0  0  0
  2 35  1  0  0  0
  2 36  1  0  0  0
  2 37  1  0  0  0
  3 38  1  0  0  0
  3 39  1  0  0  0
  3 40  1  0  0  0
  4 41  1  0  0  0
  4 42  1  0  0  0
  4 43  1  0  0  0
  5 44  1  0  0  0
  5 45  1  0  0  0
  5 46  1  0  0  0
  6 47  1  0  0  0
  6 48  1  0  0  0
  6 49  1  0  0  0
  9 50  1  0  0  0
 10 51  1  0  0  0
 11 52  1  0  0  0
 12 53  1  0  0  0
 13 54  1  0  0  0
 13 55  1  0  0  0
 29 56  1  0  0  0
M  END
$$$$
