4mzk_ligand
  -I-interpret- 

317319  0  0  0  0  0  0  0  0999 V2000
   14.9220   11.4130   27.7230 C   0  0  0  0  0
   15.5750   10.7460   28.5080 O   0  0  0  0  0
   15.3870   12.7890   27.3130 C   0  0  0  0  0
   13.6770   11.1060   27.3740 N   0  0  0  0  0
   12.9960    9.9340   27.9140 C   0  0  0  0  0
   12.3740    9.0970   26.8010 C   0  0  0  0  0
   12.1410    9.5900   25.6970 O   0  0  0  0  0
   11.9230   10.3540   28.9190 C   0  0  0  0  0
   11.5930    9.2920   29.9550 C   0  0  0  0  0
   10.7400    9.8610   31.0780 C   0  0  0  0  0
    9.9330    8.7720   31.7650 C   0  0  0  0  0
    9.0420    9.3250   32.8230 N   0  3  0  0  0
   12.1070    7.8300   27.0990 N   0  0  0  0  0
   11.5070    6.9170   26.1180 C   0  0  0  0  0
   12.3050    6.8310   24.8160 C   0  0  0  0  0
   11.7330    6.6790   23.7340 O   0  0  0  0  0
   10.0580    7.3210   25.8150 C   0  0  0  0  0
    9.2010    7.4130   27.0640 C   0  0  0  0  0
    9.3850    6.6590   28.0180 O   0  0  0  0  0
    8.2630    8.3520   27.0660 N   0  0  0  0  0
   13.6240    6.9440   24.9170 N   0  0  0  0  0
   14.4740    6.9910   23.7220 C   0  0  0  0  0
   14.3410    5.7790   22.7770 C   0  0  0  0  0
   14.2520    5.9680   21.5580 O   0  0  0  0  0
   15.9570    7.2830   24.0700 C   0  0  0  0  0
   16.0750    8.6020   24.8460 C   0  0  0  0  0
   16.8140    7.3140   22.8080 C   0  0  0  0  0
   15.6770    9.8410   24.0410 C   0  0  0  0  0
   14.3190    4.5410   23.3150 N   0  0  0  0  0
   14.1650    3.4110   22.3840 C   0  0  0  0  0
   12.9280    3.5240   21.4870 C   0  0  0  0  0
   13.0460    3.2690   20.2890 O   0  0  0  0  0
   14.0300    2.2090   23.3200 C   0  0  0  0  0
   14.8240    2.6070   24.5200 C   0  0  0  0  0
   14.5500    4.0750   24.6950 C   0  0  0  0  0
   11.7810    3.9070   22.0470 N   0  0  0  0  0
   10.5600    4.0260   21.2540 C   0  0  0  0  0
   10.6660    5.1750   20.2610 C   0  0  0  0  0
   10.1460    5.0990   19.1370 O   0  0  0  0  0
    9.3420    4.2220   22.1610 C   0  0  0  0  0
    9.1650    3.0800   22.9860 O   0  0  0  0  0
   11.3200    6.2540   20.6710 N   0  0  0  0  0
   11.5530    7.3490   19.7330 C   0  0  0  0  0
   12.4070    6.8970   18.5460 C   0  0  0  0  0
   12.1580    7.3020   17.4110 O   0  0  0  0  0
   12.1860    8.5620   20.4260 C   0  0  0  0  0
   12.5810    9.7470   19.5230 C   0  0  0  0  0
   11.3770   10.3430   18.7530 C   0  0  0  0  0
   13.2780   10.8540   20.3440 C   0  0  0  0  0
   13.4290    6.0840   18.8020 N   0  0  0  0  0
   14.2670    5.6100   17.7090 C   0  0  0  0  0
   13.4390    4.7780   16.7330 C   0  0  0  0  0
   13.6450    4.8640   15.5260 O   0  0  0  0  0
   15.4540    4.7870   18.2200 C   0  0  0  0  0
   16.5210    5.4710   19.0730 C   0  0  0  0  0
   17.6870    4.5210   19.3100 C   0  0  0  0  0
   17.0160    6.7280   18.4120 C   0  0  0  0  0
   12.5120    3.9720   17.2490 N   0  0  0  0  0
   11.6670    3.1580   16.3770 C   0  0  0  0  0
   10.7730    4.0580   15.5310 C   0  0  0  0  0
   10.5890    3.8200   14.3420 O   0  0  0  0  0
   10.8260    2.1470   17.1700 C   0  0  0  0  0
   11.6350    1.1090   17.9850 C   0  0  0  0  0
   12.7440    0.4320   17.1740 C   0  0  0  0  0
   12.2360   -0.0830   15.9120 N   0  0  0  0  0
   12.8890   -0.0150   14.7590 C   0  0  0  0  0
   14.1070    0.5150   14.7160 N   0  0  0  0  0
   12.3230   -0.4820   13.6530 N   0  0  0  0  0
   10.2110    5.0980   16.1350 N   0  0  0  0  0
    9.3950    6.0230   15.3560 C   0  0  0  0  0
   10.2300    6.6900   14.2530 C   0  0  0  0  0
    9.8080    6.7440   13.0870 O   0  0  0  0  0
    8.7220    7.0790   16.2540 C   0  0  0  0  0
    7.6510    7.9450   15.5410 C   0  0  0  0  0
    8.2570    9.1560   14.8360 C   0  0  0  0  0
    7.2050   10.0180   14.1300 C   0  0  0  0  0
   11.3970    7.2170   14.6110 N   0  0  0  0  0
   12.2350    7.8930   13.6250 C   0  0  0  0  0
   12.6300    6.9200   12.5190 C   0  0  0  0  0
   12.7140    7.3000   11.3520 O   0  0  0  0  0
   13.4720    8.5120   14.2880 C   0  0  0  0  0
   13.1270    9.7150   15.1740 C   0  0  0  0  0
   14.2120   10.0390   16.1900 C   0  0  0  0  0
   14.9110    9.1510   16.6700 O   0  0  0  0  0
   14.3360   11.3160   16.5390 N   0  0  0  0  0
   12.8560    5.6650   12.8920 N   0  0  0  0  0
   13.1960    4.6360   11.9150 C   0  0  0  0  0
   12.0430    4.4150   10.9290 C   0  0  0  0  0
   12.2610    4.2820    9.7280 O   0  0  0  0  0
   13.5650    3.3300   12.6190 C   0  0  0  0  0
   10.8130    4.3710   11.4210 N   0  0  0  0  0
    9.6850    4.1900   10.5010 C   0  0  0  0  0
    9.4320    5.4090    9.6170 C   0  0  0  0  0
    8.9770    5.2750    8.4840 O   0  0  0  0  0
    8.4240    3.7600   11.2480 C   0  0  0  0  0
    8.4650    2.3250   11.6770 C   0  0  0  0  0
    8.1140    1.2940   10.8330 N   0  0  0  0  0
    8.8550    1.7540   12.8370 C   0  0  0  0  0
    8.2690    0.1430   11.4670 C   0  0  0  0  0
    8.7110    0.3940   12.6840 N   0  0  0  0  0
    9.7390    6.5960   10.1260 N   0  0  0  0  0
    9.6190    7.8050    9.3180 C   0  0  0  0  0
   10.6280    7.8010    8.1680 C   0  0  0  0  0
   10.2960    8.1820    7.0430 O   0  0  0  0  0
    9.7610    9.0440   10.1960 C   0  0  0  0  0
    8.5050    9.2990   11.0310 C   0  0  0  0  0
    8.7290   10.3040   12.1560 C   0  0  0  0  0
    7.4250   10.5450   12.9220 C   0  0  0  0  0
   11.8400    7.3280    8.4410 N   0  0  0  0  0
   12.8580    7.2280    7.3950 C   0  0  0  0  0
   12.4820    6.1500    6.3790 C   0  0  0  0  0
   12.6950    6.3100    5.1680 O   0  0  0  0  0
   14.2400    6.9680    8.0000 C   0  0  0  0  0
   14.8200    8.2090    8.6760 C   0  0  0  0  0
   16.3140    8.1150    8.9210 C   0  0  0  0  0
   16.8360    9.3880    9.4330 N   0  0  0  0  0
   16.8790    9.7130   10.7260 C   0  0  0  0  0
   16.4420    8.8570   11.6510 N   0  0  0  0  0
   17.3620   10.8920   11.0930 N   0  0  0  0  0
   11.9180    5.0520    6.8780 N   0  0  0  0  0
   11.3940    4.0000    6.0060 C   0  0  0  0  0
   10.3280    4.5560    5.0660 C   0  0  0  0  0
   10.3880    4.3590    3.8450 O   0  0  0  0  0
   10.7840    2.8710    6.8470 C   0  0  0  0  0
   10.1720    1.7230    6.0370 C   0  0  0  0  0
    9.0850    1.0070    6.8490 C   0  0  0  0  0
    7.9180    1.9730    7.1150 C   0  0  0  0  0
    6.9200    1.5330    8.1470 N   0  3  0  0  0
    9.3490    5.2550    5.6320 N   0  0  0  0  0
    8.2230    5.7400    4.8290 C   0  0  0  0  0
    8.6460    6.7600    3.7840 C   0  0  0  0  0
    8.0450    6.8330    2.7120 O   0  0  0  0  0
    7.1120    6.3230    5.7130 C   0  0  0  0  0
    6.3250    5.2720    6.4890 C   0  0  0  0  0
    9.6770    7.5410    4.0940 N   0  0  0  0  0
   10.1470    8.5890    3.1830 C   0  0  0  0  0
   11.0050    8.0210    2.0540 C   0  0  0  0  0
   11.2980    8.7150    1.0780 O   0  0  0  0  0
   10.9160    9.6970    3.9310 C   0  0  0  0  0
   12.3390    9.3110    4.3800 C   0  0  0  0  0
   13.3260   10.5760    5.2550 S   0  0  0  0  0
   14.1150   11.3860    3.8540 C   0  0  0  0  0
   11.4190    6.8170    2.1150 N   0  0  0  0  0
   12.3930    6.2630    1.1790 C   0  0  0  0  0
   11.8090    5.9690   -0.2100 C   0  0  0  0  0
   10.5990    5.7990   -0.3710 O   0  0  0  0  0
   13.0650    5.0040    1.7460 C   0  0  0  0  0
   12.0350    3.8960    1.9650 C   0  0  0  0  0
   14.1340    4.5270    0.8090 C   0  0  0  0  0
   12.5808    5.9002   -1.2036 O   0  0  0  0  0
   15.4586   13.4249   28.1954 H   0  0  0  0  0
   16.3649   12.7139   26.8374 H   0  0  0  0  0
   14.6722   13.2185   26.6111 H   0  0  0  0  0
   13.1847   11.7052   26.7114 H   0  0  0  0  0
   13.7391    9.3223   28.4256 H   0  0  0  0  0
   11.0110   10.5482   28.3546 H   0  0  0  0  0
   12.3068   11.2209   29.4569 H   0  0  0  0  0
   12.5254    8.9218   30.3812 H   0  0  0  0  0
   11.0354    8.4928   29.4668 H   0  0  0  0  0
   10.0490   10.5894   30.6537 H   0  0  0  0  0
   11.3985   10.3216   31.8144 H   0  0  0  0  0
   10.6282    8.0752   32.2333 H   0  0  0  0  0
    9.3109    8.2830   31.0153 H   0  0  0  0  0
    8.5199    8.5643   33.2579 H   0  0  0  0  0
    9.6068    9.7981   33.5284 H   0  0  0  0  0
    8.3914    9.9899   32.4046 H   0  0  0  0  0
   12.3244    7.4827   28.0331 H   0  0  0  0  0
   11.5236    5.9266   26.5728 H   0  0  0  0  0
    9.6261    6.5568   25.1688 H   0  0  0  0  0
   10.0762    8.3061   25.3488 H   0  0  0  0  0
    7.6606    8.4694   27.8807 H   0  0  0  0  0
    8.1445    8.9562   26.2528 H   0  0  0  0  0
   14.0535    6.9990   25.8405 H   0  0  0  0  0
   14.0848    7.8340   23.1511 H   0  0  0  0  0
   16.3267    6.4782   24.7054 H   0  0  0  0  0
   17.1229    8.7204   25.1215 H   0  0  0  0  0
   15.3944    8.5377   25.6949 H   0  0  0  0  0
   16.7539    6.3485   22.3058 H   0  0  0  0  0
   16.4486    8.0951   22.1413 H   0  0  0  0  0
   17.8495    7.5205   23.0785 H   0  0  0  0  0
   16.3203    9.9258   23.1652 H   0  0  0  0  0
   14.6386    9.7480   23.7230 H   0  0  0  0  0
   15.7896   10.7287   24.6634 H   0  0  0  0  0
   15.0013    3.3524   21.6874 H   0  0  0  0  0
   14.3927    1.2859   22.8678 H   0  0  0  0  0
   12.9914    1.9848   23.5632 H   0  0  0  0  0
   15.8871    2.4065   24.3869 H   0  0  0  0  0
   14.5392    2.0339   25.4023 H   0  0  0  0  0
   13.7023    4.2693   25.3521 H   0  0  0  0  0
   15.3698    4.6005   25.1848 H   0  0  0  0  0
   11.7553    4.1202   23.0441 H   0  0  0  0  0
   10.4327    3.0988   20.6952 H   0  0  0  0  0
    8.4537    4.3616   21.5449 H   0  0  0  0  0
    9.4991    5.0986   22.7894 H   0  0  0  0  0
    8.4001    3.2104   23.5513 H   0  0  0  0  0
   11.6567    6.3182   21.6317 H   0  0  0  0  0
   10.5790    7.6542   19.3505 H   0  0  0  0  0
   13.1132    8.2027   20.8725 H   0  0  0  0  0
   11.4294    8.9454   21.1106 H   0  0  0  0  0
   13.2760    9.3499   18.7831 H   0  0  0  0  0
   10.9358    9.5737   18.1193 H   0  0  0  0  0
   10.6328   10.7000   19.4649 H   0  0  0  0  0
   11.7179   11.1734   18.1346 H   0  0  0  0  0
   12.5994   11.2124   21.1180 H   0  0  0  0  0
   14.1779   10.4491   20.8070 H   0  0  0  0  0
   13.5469   11.6790   19.6844 H   0  0  0  0  0
   13.6248    5.7939   19.7601 H   0  0  0  0  0
   14.6637    6.4854   17.1948 H   0  0  0  0  0
   15.9789    4.4650   17.3206 H   0  0  0  0  0
   15.0122    4.0355   18.8743 H   0  0  0  0  0
   16.0709    5.7388   20.0289 H   0  0  0  0  0
   17.3294    3.6311   19.8279 H   0  0  0  0  0
   18.1218    4.2354   18.3521 H   0  0  0  0  0
   18.4416    5.0188   19.9190 H   0  0  0  0  0
   17.4483    6.4811   17.4424 H   0  0  0  0  0
   16.1828    7.4172   18.2748 H   0  0  0  0  0
   17.7744    7.1936   19.0415 H   0  0  0  0  0
   12.3910    3.9225   18.2606 H   0  0  0  0  0
   12.3207    2.5833   15.7208 H   0  0  0  0  0
   10.2431    1.5852   16.4402 H   0  0  0  0  0
   10.2423    2.7221   17.8888 H   0  0  0  0  0
   10.9423    0.3319   18.3081 H   0  0  0  0  0
   12.1082    1.6370   18.8129 H   0  0  0  0  0
   13.1397   -0.4011   17.7549 H   0  0  0  0  0
   13.5182    1.1693   16.9616 H   0  0  0  0  0
   11.3171   -0.5257   15.9136 H   0  0  0  0  0
   14.6108    0.5641   13.8305 H   0  0  0  0  0
   14.5380    0.8726   15.5685 H   0  0  0  0  0
   11.3895   -0.8912   13.6915 H   0  0  0  0  0
   10.3484    5.2489   17.1344 H   0  0  0  0  0
    8.6019    5.4450   14.8816 H   0  0  0  0  0
    9.5065    7.7567   16.5908 H   0  0  0  0  0
    8.2142    6.5396   17.0536 H   0  0  0  0  0
    6.9537    8.3082   16.2959 H   0  0  0  0  0
    7.1630    7.3258   14.7883 H   0  0  0  0  0
    8.9515    8.7898   14.0799 H   0  0  0  0  0
    8.7435    9.7736   15.5910 H   0  0  0  0  0
    6.2528   10.2061   14.6260 H   0  0  0  0  0
   11.7085    7.1486   15.5799 H   0  0  0  0  0
   11.6621    8.7061   13.1792 H   0  0  0  0  0
   14.1382    8.8578   13.4977 H   0  0  0  0  0
   13.9300    7.7509   14.9196 H   0  0  0  0  0
   12.2193    9.4704   15.7256 H   0  0  0  0  0
   13.0121   10.5826   14.5242 H   0  0  0  0  0
   15.0333   11.5901   17.2311 H   0  0  0  0  0
   13.7339   12.0215   16.1146 H   0  0  0  0  0
   12.7906    5.4164   13.8791 H   0  0  0  0  0
   14.0621    4.9774   11.3480 H   0  0  0  0  0
   14.4233    3.4992   13.2692 H   0  0  0  0  0
   12.7185    2.9879   13.2143 H   0  0  0  0  0
   13.8154    2.5751   11.8736 H   0  0  0  0  0
   10.6533    4.4616   12.4243 H   0  0  0  0  0
    9.9651    3.3831    9.8238 H   0  0  0  0  0
    7.5774    3.8827   10.5725 H   0  0  0  0  0
    8.3409    4.3744   12.1445 H   0  0  0  0  0
    9.2154    2.2720   13.7257 H   0  0  0  0  0
    8.0659   -0.8449   11.0536 H   0  0  0  0  0
   10.0619    6.6635   11.0912 H   0  0  0  0  0
    8.6261    7.8274    8.8688 H   0  0  0  0  0
    9.9210    9.9055    9.5477 H   0  0  0  0  0
   10.5975    8.8862   10.8767 H   0  0  0  0  0
    8.2115    8.3528   11.4855 H   0  0  0  0  0
    7.7434    9.7086   10.3674 H   0  0  0  0  0
    9.0694   11.2469   11.7279 H   0  0  0  0  0
    9.4769    9.9079   12.8429 H   0  0  0  0  0
    6.6525   11.1656   12.4678 H   0  0  0  0  0
   12.0629    7.0312    9.3911 H   0  0  0  0  0
   12.9042    8.1814    6.8687 H   0  0  0  0  0
   14.9128    6.6768    7.1934 H   0  0  0  0  0
   14.1373    6.1886    8.7550 H   0  0  0  0  0
   14.3329    8.3144    9.6454 H   0  0  0  0  0
   14.6474    9.0567    8.0129 H   0  0  0  0  0
   16.8119    7.8827    7.9796 H   0  0  0  0  0
   16.5021    7.3346    9.6583 H   0  0  0  0  0
   17.1879   10.0666    8.7576 H   0  0  0  0  0
   16.4798    9.1100   12.6384 H   0  0  0  0  0
   16.0700    7.9495   11.3709 H   0  0  0  0  0
   17.6991   11.5470   10.3875 H   0  0  0  0  0
   11.8497    4.9417    7.8897 H   0  0  0  0  0
   12.2219    3.6104    5.4136 H   0  0  0  0  0
    9.9756    3.3125    7.4298 H   0  0  0  0  0
   11.5943    2.4439    7.4378 H   0  0  0  0  0
   10.9567    1.0078    5.7904 H   0  0  0  0  0
    9.7243    2.1304    5.1305 H   0  0  0  0  0
    9.5031    0.6743    7.7991 H   0  0  0  0  0
    8.7216    0.1464    6.2874 H   0  0  0  0  0
    7.3704    2.0566    6.1763 H   0  0  0  0  0
    8.3631    2.8933    7.4931 H   0  0  0  0  0
    6.1949    2.2440    8.2419 H   0  0  0  0  0
    6.4975    0.6516    7.8556 H   0  0  0  0  0
    7.3921    1.4056    9.0421 H   0  0  0  0  0
    9.3817    5.4551    6.6317 H   0  0  0  0  0
    7.8329    4.8697    4.3013 H   0  0  0  0  0
    6.4091    6.8346    5.0554 H   0  0  0  0  0
    7.5883    6.9766    6.4438 H   0  0  0  0  0
    5.8530    4.5829    5.7886 H   0  0  0  0  0
    7.0023    4.7214    7.1418 H   0  0  0  0  0
    5.5592    5.7632    7.0892 H   0  0  0  0  0
   10.1519    7.4076    4.9868 H   0  0  0  0  0
    9.2554    9.0329    2.7402 H   0  0  0  0  0
   10.3493    9.9184    4.8354 H   0  0  0  0  0
   11.0198   10.5317    3.2377 H   0  0  0  0  0
   12.8866    9.0972    3.4621 H   0  0  0  0  0
   12.2091    8.4973    5.0936 H   0  0  0  0  0
   14.7138   10.6588    3.3055 H   0  0  0  0  0
   13.3499   11.7985    3.1964 H   0  0  0  0  0
   14.7573   12.1893    4.2149 H   0  0  0  0  0
   11.0532    6.2131    2.8512 H   0  0  0  0  0
   13.1446    7.0417    1.0489 H   0  0  0  0  0
   13.5148    5.2558    2.7064 H   0  0  0  0  0
   11.2774    4.2400    2.6692 H   0  0  0  0  0
   11.5631    3.6473    1.0144 H   0  0  0  0  0
   12.5326    3.0134    2.3670 H   0  0  0  0  0
   13.6894    4.2923   -0.1581 H   0  0  0  0  0
   14.8829    5.3093    0.6858 H   0  0  0  0  0
   14.6041    3.6339    1.2206 H   0  0  0  0  0
   13.4840    6.0540   -0.9170 H   0  0  0  0  0
  1  2  2  0  0  0
  1  3  1  0  0  0
  1  4  1  0  0  0
  4  5  1  0  0  0
  5  6  1  0  0  0
  5  8  1  0  0  0
  6  7  2  0  0  0
  6 13  1  0  0  0
  8  9  1  0  0  0
  9 10  1  0  0  0
 10 11  1  0  0  0
 11 12  1  0  0  0
 13 14  1  0  0  0
 14 15  1  0  0  0
 14 17  1  0  0  0
 15 16  2  0  0  0
 15 21  1  0  0  0
 17 18  1  0  0  0
 18 19  2  0  0  0
 18 20  1  0  0  0
 21 22  1  0  0  0
 22 23  1  0  0  0
 22 25  1  0  0  0
 23 24  2  0  0  0
 23 29  1  0  0  0
 25 26  1  0  0  0
 25 27  1  0  0  0
 26 28  1  0  0  0
 29 30  1  0  0  0
 29 35  1  0  0  0
 30 31  1  0  0  0
 30 33  1  0  0  0
 31 32  2  0  0  0
 31 36  1  0  0  0
 33 34  1  0  0  0
 34 35  1  0  0  0
 36 37  1  0  0  0
 37 38  1  0  0  0
 37 40  1  0  0  0
 38 39  2  0  0  0
 38 42  1  0  0  0
 40 41  1  0  0  0
 42 43  1  0  0  0
 43 44  1  0  0  0
 43 46  1  0  0  0
 44 45  2  0  0  0
 44 50  1  0  0  0
 46 47  1  0  0  0
 47 48  1  0  0  0
 47 49  1  0  0  0
 50 51  1  0  0  0
 51 52  1  0  0  0
 51 54  1  0  0  0
 52 53  2  0  0  0
 52 58  1  0  0  0
 54 55  1  0  0  0
 55 56  1  0  0  0
 55 57  1  0  0  0
 58 59  1  0  0  0
 59 60  1  0  0  0
 59 62  1  0  0  0
 60 61  2  0  0  0
 60 69  1  0  0  0
 62 63  1  0  0  0
 63 64  1  0  0  0
 64 65  1  0  0  0
 65 66  1  0  0  0
 66 67  1  0  0  0
 66 68  2  0  0  0
 69 70  1  0  0  0
 70 71  1  0  0  0
 70 73  1  0  0  0
 71 72  2  0  0  0
 71 77  1  0  0  0
 73 74  1  0  0  0
 74 75  1  0  0  0
 75 76  1  0  0  0
 76108  2  0  0  0
 77 78  1  0  0  0
 78 79  1  0  0  0
 78 81  1  0  0  0
 79 80  2  0  0  0
 79 86  1  0  0  0
 81 82  1  0  0  0
 82 83  1  0  0  0
 83 84  2  0  0  0
 83 85  1  0  0  0
 86 87  1  0  0  0
 87 88  1  0  0  0
 87 90  1  0  0  0
 88 89  2  0  0  0
 88 91  1  0  0  0
 91 92  1  0  0  0
 92 93  1  0  0  0
 92 95  1  0  0  0
 93 94  2  0  0  0
 93101  1  0  0  0
 95 96  1  0  0  0
 96 97  4  0  0  0
 96 98  4  0  0  0
 97 99  4  0  0  0
 98100  4  0  0  0
 99100  4  0  0  0
101102  1  0  0  0
102103  1  0  0  0
102105  1  0  0  0
103104  2  0  0  0
103109  1  0  0  0
105106  1  0  0  0
106107  1  0  0  0
107108  1  0  0  0
109110  1  0  0  0
110111  1  0  0  0
110113  1  0  0  0
111112  2  0  0  0
111120  1  0  0  0
113114  1  0  0  0
114115  1  0  0  0
115116  1  0  0  0
116117  1  0  0  0
117118  1  0  0  0
117119  2  0  0  0
120121  1  0  0  0
121122  1  0  0  0
121124  1  0  0  0
122123  2  0  0  0
122129  1  0  0  0
124125  1  0  0  0
125126  1  0  0  0
126127  1  0  0  0
127128  1  0  0  0
129130  1  0  0  0
130131  1  0  0  0
130133  1  0  0  0
131132  2  0  0  0
131135  1  0  0  0
133134  1  0  0  0
135136  1  0  0  0
136137  1  0  0  0
136139  1  0  0  0
137138  2  0  0  0
137143  1  0  0  0
139140  1  0  0  0
140141  1  0  0  0
141142  1  0  0  0
143144  1  0  0  0
144145  1  0  0  0
144147  1  0  0  0
145146  2  0  0  0
147148  1  0  0  0
147149  1  0  0  0
145150  1  0  0  0
  3151  1  0  0  0
  3152  1  0  0  0
  3153  1  0  0  0
  4154  1  0  0  0
  5155  1  0  0  0
  8156  1  0  0  0
  8157  1  0  0  0
  9158  1  0  0  0
  9159  1  0  0  0
 10160  1  0  0  0
 10161  1  0  0  0
 11162  1  0  0  0
 11163  1  0  0  0
 12164  1  0  0  0
 12165  1  0  0  0
 12166  1  0  0  0
 13167  1  0  0  0
 14168  1  0  0  0
 17169  1  0  0  0
 17170  1  0  0  0
 20171  1  0  0  0
 20172  1  0  0  0
 21173  1  0  0  0
 22174  1  0  0  0
 25175  1  0  0  0
 26176  1  0  0  0
 26177  1  0  0  0
 27178  1  0  0  0
 27179  1  0  0  0
 27180  1  0  0  0
 28181  1  0  0  0
 28182  1  0  0  0
 28183  1  0  0  0
 30184  1  0  0  0
 33185  1  0  0  0
 33186  1  0  0  0
 34187  1  0  0  0
 34188  1  0  0  0
 35189  1  0  0  0
 35190  1  0  0  0
 36191  1  0  0  0
 37192  1  0  0  0
 40193  1  0  0  0
 40194  1  0  0  0
 41195  1  0  0  0
 42196  1  0  0  0
 43197  1  0  0  0
 46198  1  0  0  0
 46199  1  0  0  0
 47200  1  0  0  0
 48201  1  0  0  0
 48202  1  0  0  0
 48203  1  0  0  0
 49204  1  0  0  0
 49205  1  0  0  0
 49206  1  0  0  0
 50207  1  0  0  0
 51208  1  0  0  0
 54209  1  0  0  0
 54210  1  0  0  0
 55211  1  0  0  0
 56212  1  0  0  0
 56213  1  0  0  0
 56214  1  0  0  0
 57215  1  0  0  0
 57216  1  0  0  0
 57217  1  0  0  0
 58218  1  0  0  0
 59219  1  0  0  0
 62220  1  0  0  0
 62221  1  0  0  0
 63222  1  0  0  0
 63223  1  0  0  0
 64224  1  0  0  0
 64225  1  0  0  0
 65226  1  0  0  0
 67227  1  0  0  0
 67228  1  0  0  0
 68229  1  0  0  0
 69230  1  0  0  0
 70231  1  0  0  0
 73232  1  0  0  0
 73233  1  0  0  0
 74234  1  0  0  0
 74235  1  0  0  0
 75236  1  0  0  0
 75237  1  0  0  0
 76238  1  0  0  0
 77239  1  0  0  0
 78240  1  0  0  0
 81241  1  0  0  0
 81242  1  0  0  0
 82243  1  0  0  0
 82244  1  0  0  0
 85245  1  0  0  0
 85246  1  0  0  0
 86247  1  0  0  0
 87248  1  0  0  0
 90249  1  0  0  0
 90250  1  0  0  0
 90251  1  0  0  0
 91252  1  0  0  0
 92253  1  0  0  0
 95254  1  0  0  0
 95255  1  0  0  0
 98256  1  0  0  0
 99257  1  0  0  0
101258  1  0  0  0
102259  1  0  0  0
105260  1  0  0  0
105261  1  0  0  0
106262  1  0  0  0
106263  1  0  0  0
107264  1  0  0  0
107265  1  0  0  0
108266  1  0  0  0
109267  1  0  0  0
110268  1  0  0  0
113269  1  0  0  0
113270  1  0  0  0
114271  1  0  0  0
114272  1  0  0  0
115273  1  0  0  0
115274  1  0  0  0
116275  1  0  0  0
118276  1  0  0  0
118277  1  0  0  0
119278  1  0  0  0
120279  1  0  0  0
121280  1  0  0  0
124281  1  0  0  0
124282  1  0  0  0
125283  1  0  0  0
125284  1  0  0  0
126285  1  0  0  0
126286  1  0  0  0
127287  1  0  0  0
127288  1  0  0  0
128289  1  0  0  0
128290  1  0  0  0
128291  1  0  0  0
129292  1  0  0  0
130293  1  0  0  0
133294  1  0  0  0
133295  1  0  0  0
134296  1  0  0  0
134297  1  0  0  0
134298  1  0  0  0
135299  1  0  0  0
136300  1  0  0  0
139301  1  0  0  0
139302  1  0  0  0
140303  1  0  0  0
140304  1  0  0  0
142305  1  0  0  0
142306  1  0  0  0
142307  1  0  0  0
143308  1  0  0  0
144309  1  0  0  0
147310  1  0  0  0
148311  1  0  0  0
148312  1  0  0  0
148313  1  0  0  0
149314  1  0  0  0
149315  1  0  0  0
149316  1  0  0  0
150317  1  0  0  0
M  END
$$$$
