### 
### Created by X-TOOL on Mon Sep 10 21:13:13 2018
### 

@<TRIPOS>MOLECULE
4mzk_ligand
  319   321     1     0     0
SMALL
GAST_HUCK


@<TRIPOS>ATOM
      1 C          14.9220   11.4130   27.7230 C.2       1 ACE         0.1751
      2 O          15.5750   10.7460   28.5080 O.2       1 ACE        -0.3972
      3 CH3        15.3870   12.7890   27.3130 C.3       1 ACE         0.0258
      4 N          13.6770   11.1060   27.3740 N.am      1 LYS        -0.2658
      5 CA         12.9960    9.9340   27.9140 C.3       1 LYS         0.1309
      6 C          12.3740    9.0970   26.8010 C.2       1 LYS         0.2040
      7 O          12.1410    9.5900   25.6970 O.2       1 LYS        -0.3944
      8 CB         11.9230   10.3540   28.9190 C.3       1 LYS        -0.0122
      9 CG         11.5930    9.2920   29.9550 C.3       1 LYS        -0.0440
     10 CD         10.7400    9.8610   31.0780 C.3       1 LYS        -0.0124
     11 CE          9.9330    8.7720   31.7650 C.3       1 LYS        -0.0354
     12 NZ          9.0420    9.3250   32.8230 N.4       1 LYS         0.2185
     13 N          12.1070    7.8300   27.0990 N.am      1 ASN        -0.2616
     14 CA         11.5070    6.9170   26.1180 C.3       1 ASN         0.1476
     15 C          12.3050    6.8310   24.8160 C.2       1 ASN         0.2063
     16 O          11.7330    6.6790   23.7340 O.2       1 ASN        -0.3942
     17 CB         10.0580    7.3210   25.8150 C.3       1 ASN         0.0773
     18 CG          9.2010    7.4130   27.0640 C.2       1 ASN         0.1780
     19 OD1         9.3850    6.6590   28.0180 O.2       1 ASN        -0.3970
     20 ND2         8.2630    8.3520   27.0660 N.am      1 ASN        -0.3007
     21 N          13.6240    6.9440   24.9170 N.am      1 ILE        -0.2633
     22 CA         14.4740    6.9910   23.7220 C.3       1 ILE         0.1337
     23 C          14.3410    5.7790   22.7770 C.2       1 ILE         0.2067
     24 O          14.2520    5.9680   21.5580 O.2       1 ILE        -0.3942
     25 CB         15.9570    7.2830   24.0700 C.3       1 ILE        -0.0037
     26 CG1        16.0750    8.6020   24.8460 C.3       1 ILE        -0.0491
     27 CG2        16.8140    7.3140   22.8080 C.3       1 ILE        -0.0582
     28 CD1        15.6770    9.8410   24.0410 C.3       1 ILE        -0.0648
     29 N          14.3190    4.5410   23.3150 N.am      1 PRO        -0.2498
     30 CA         14.1650    3.4110   22.3840 C.3       1 PRO         0.1338
     31 C          12.9280    3.5240   21.4870 C.2       1 PRO         0.2042
     32 O          13.0460    3.2690   20.2890 O.2       1 PRO        -0.3944
     33 CB         14.0300    2.2090   23.3200 C.3       1 PRO        -0.0104
     34 CG         14.8240    2.6070   24.5200 C.3       1 PRO        -0.0281
     35 CD         14.5500    4.0750   24.6950 C.3       1 PRO         0.0369
     36 N          11.7810    3.9070   22.0470 N.am      1 SER        -0.2616
     37 CA         10.5600    4.0260   21.2540 C.3       1 SER         0.1539
     38 C          10.6660    5.1750   20.2610 C.2       1 SER         0.2062
     39 O          10.1460    5.0990   19.1370 O.2       1 SER        -0.3943
     40 CB          9.3420    4.2220   22.1610 C.3       1 SER         0.0843
     41 OG          9.1650    3.0800   22.9860 O.3       1 SER        -0.3903
     42 N          11.3200    6.2540   20.6710 N.am      1 LEU        -0.2636
     43 CA         11.5530    7.3490   19.7330 C.3       1 LEU         0.1312
     44 C          12.4070    6.8970   18.5460 C.2       1 LEU         0.2039
     45 O          12.1580    7.3020   17.4110 O.2       1 LEU        -0.3944
     46 CB         12.1860    8.5620   20.4260 C.3       1 LEU        -0.0101
     47 CG         12.5810    9.7470   19.5230 C.3       1 LEU        -0.0425
     48 CD1        11.3770   10.3430   18.7530 C.3       1 LEU        -0.0625
     49 CD2        13.2780   10.8540   20.3440 C.3       1 LEU        -0.0625
     50 N          13.4290    6.0840   18.8020 N.am      1 LEU        -0.2637
     51 CA         14.2670    5.6100   17.7090 C.3       1 LEU         0.1312
     52 C          13.4390    4.7780   16.7330 C.2       1 LEU         0.2039
     53 O          13.6450    4.8640   15.5260 O.2       1 LEU        -0.3944
     54 CB         15.4540    4.7870   18.2200 C.3       1 LEU        -0.0101
     55 CG         16.5210    5.4710   19.0730 C.3       1 LEU        -0.0425
     56 CD1        17.6870    4.5210   19.3100 C.3       1 LEU        -0.0625
     57 CD2        17.0160    6.7280   18.4120 C.3       1 LEU        -0.0625
     58 N          12.5120    3.9720   17.2490 N.am      1 ARG        -0.2637
     59 CA         11.6670    3.1580   16.3770 C.3       1 ARG         0.1311
     60 C          10.7730    4.0580   15.5310 C.2       1 ARG         0.2039
     61 O          10.5890    3.8200   14.3420 O.2       1 ARG        -0.3944
     62 CB         10.8260    2.1470   17.1700 C.3       1 ARG        -0.0092
     63 CG         11.6350    1.1090   17.9850 C.3       1 ARG        -0.0156
     64 CD         12.7440    0.4320   17.1740 C.3       1 ARG         0.0627
     65 NE         12.2360   -0.0830   15.9120 N.pl3     1 ARG        -0.2723
     66 CZ         12.8890   -0.0150   14.7590 C.cat     1 ARG         0.2882
     67 NH1        14.1070    0.5150   14.7160 N.pl3     1 ARG        -0.2849
     68 NH2        12.3230   -0.4820   13.6530 N.pl3     1 ARG        -0.2849
     69 N          10.2110    5.0980   16.1350 N.am      1 NLE        -0.2637
     70 CA          9.3950    6.0230   15.3560 C.3       1 NLE         0.1311
     71 C          10.2300    6.6900   14.2530 C.2       1 NLE         0.2039
     72 O           9.8080    6.7440   13.0870 O.2       1 NLE        -0.3944
     73 CB          8.7220    7.0790   16.2540 C.3       1 NLE        -0.0109
     74 CG          7.6510    7.9450   15.5410 C.3       1 NLE        -0.0422
     75 CD          8.2570    9.1560   14.8360 C.3       1 NLE        -0.0362
     76 CE          7.2050   10.0180   14.1300 C.2       1 NLE        -0.0987
     77 N          11.3970    7.2170   14.6110 N.am      1 GLN        -0.2636
     78 CA         12.2350    7.8930   13.6250 C.3       1 GLN         0.1330
     79 C          12.6300    6.9200   12.5190 C.2       1 GLN         0.2040
     80 O          12.7140    7.3000   11.3520 O.2       1 GLN        -0.3944
     81 CB         13.4720    8.5120   14.2880 C.3       1 GLN         0.0045
     82 CG         13.1270    9.7150   15.1740 C.3       1 GLN         0.0412
     83 CD         14.2120   10.0390   16.1900 C.2       1 GLN         0.1737
     84 OE1        14.9110    9.1510   16.6700 O.2       1 GLN        -0.3973
     85 NE2        14.3360   11.3160   16.5390 N.am      1 GLN        -0.3009
     86 N          12.8560    5.6650   12.8920 N.am      1 ALA        -0.2640
     87 CA         13.1960    4.6360   11.9150 C.3       1 ALA         0.1282
     88 C          12.0430    4.4150   10.9290 C.2       1 ALA         0.2037
     89 O          12.2610    4.2820    9.7280 O.2       1 ALA        -0.3944
     90 CB         13.5650    3.3300   12.6190 C.3       1 ALA        -0.0244
     91 N          10.8130    4.3710   11.4210 N.am      1 HIS        -0.2625
     92 CA          9.6850    4.1900   10.5010 C.3       1 HIS         0.1369
     93 C           9.4320    5.4090    9.6170 C.2       1 HIS         0.2054
     94 O           8.9770    5.2750    8.4840 O.2       1 HIS        -0.3942
     95 CB          8.4240    3.7600   11.2480 C.3       1 HIS         0.0145
     96 CG          8.4650    2.3250   11.6770 C.2       1 HIS        -0.0027
     97 ND1         8.1140    1.2940   10.8330 N.2       1 HIS        -0.3252
     98 CD2         8.8550    1.7540   12.8370 C.2       1 HIS         0.0291
     99 CE1         8.2690    0.1430   11.4670 C.2       1 HIS         0.0907
    100 NE2         8.7110    0.3940   12.6840 N.pl3     1 HIS        -0.2752
    101 N           9.7390    6.5960   10.1260 N.am      1 NLE        -0.2636
    102 CA          9.6190    7.8050    9.3180 C.3       1 NLE         0.1311
    103 C          10.6280    7.8010    8.1680 C.2       1 NLE         0.2039
    104 O          10.2960    8.1820    7.0430 O.2       1 NLE        -0.3944
    105 CB          9.7610    9.0440   10.1960 C.3       1 NLE        -0.0109
    106 CG          8.5050    9.2990   11.0310 C.3       1 NLE        -0.0422
    107 CD          8.7290   10.3040   12.1560 C.3       1 NLE        -0.0362
    108 CE          7.4250   10.5450   12.9220 C.2       1 NLE        -0.0987
    109 N          11.8400    7.3280    8.4410 N.am      1 ARG        -0.2637
    110 CA         12.8580    7.2280    7.3950 C.3       1 ARG         0.1311
    111 C          12.4820    6.1500    6.3790 C.2       1 ARG         0.2039
    112 O          12.6950    6.3100    5.1680 O.2       1 ARG        -0.3944
    113 CB         14.2400    6.9680    8.0000 C.3       1 ARG        -0.0092
    114 CG         14.8200    8.2090    8.6760 C.3       1 ARG        -0.0156
    115 CD         16.3140    8.1150    8.9210 C.3       1 ARG         0.0627
    116 NE         16.8360    9.3880    9.4330 N.pl3     1 ARG        -0.2723
    117 CZ         16.8790    9.7130   10.7260 C.cat     1 ARG         0.2882
    118 NH1        16.4420    8.8570   11.6510 N.pl3     1 ARG        -0.2849
    119 NH2        17.3620   10.8920   11.0930 N.pl3     1 ARG        -0.2849
    120 N          11.9180    5.0520    6.8780 N.am      1 LYS        -0.2637
    121 CA         11.3940    4.0000    6.0060 C.3       1 LYS         0.1310
    122 C          10.3280    4.5560    5.0660 C.2       1 LYS         0.2039
    123 O          10.3880    4.3590    3.8450 O.2       1 LYS        -0.3944
    124 CB         10.7840    2.8710    6.8470 C.3       1 LYS        -0.0122
    125 CG         10.1720    1.7230    6.0370 C.3       1 LYS        -0.0440
    126 CD          9.0850    1.0070    6.8490 C.3       1 LYS        -0.0124
    127 CE          7.9180    1.9730    7.1150 C.3       1 LYS        -0.0354
    128 NZ          6.9200    1.5330    8.1470 N.4       1 LYS         0.2185
    129 N           9.3490    5.2550    5.6320 N.am      1 LYS        -0.2637
    130 CA          8.2230    5.7400    4.8290 C.3       1 LYS         0.1307
    131 C           8.6460    6.7600    3.7840 C.2       1 LYS         0.2039
    132 O           8.0450    6.8330    2.7120 O.2       1 LYS        -0.3944
    133 CB          7.1120    6.3230    5.7130 C.3       1 LYS        -0.0152
    134 CG          6.3250    5.2720    6.4890 C.3       1 LYS        -0.0610
    135 N           9.6770    7.5410    4.0940 N.am      1 MET        -0.2637
    136 CA         10.1470    8.5890    3.1830 C.3       1 MET         0.1317
    137 C          11.0050    8.0210    2.0540 C.2       1 MET         0.2034
    138 O          11.2980    8.7150    1.0780 O.2       1 MET        -0.3944
    139 CB         10.9160    9.6970    3.9310 C.3       1 MET        -0.0034
    140 CG         12.3390    9.3110    4.3800 C.3       1 MET        -0.0024
    141 SD         13.3260   10.5760    5.2550 S.3       1 MET        -0.1639
    142 CE         14.1150   11.3860    3.8540 C.3       1 MET        -0.0181
    143 N          11.4190    6.8170    2.1150 N.am      1 VAL        -0.2668
    144 CA         12.3930    6.2630    1.1790 C.3       1 VAL         0.1249
    145 C          11.8090    5.9690   -0.2100 C.2       1 VAL         0.2152
    146 O          10.5990    5.7990   -0.3710 O.co2     1 VAL        -0.4120
    147 CB         13.0650    5.0040    1.7460 C.3       1 VAL        -0.0094
    148 CG1        12.0350    3.8960    1.9650 C.3       1 VAL        -0.0589
    149 CG2        14.1340    4.5270    0.8090 C.3       1 VAL        -0.0589
    150 H          14.6664   13.2236   26.6046 H         1 ACE         0.0467
    151 H          16.3739   12.7146   26.8328 H         1 ACE         0.0467
    152 H          15.4596   13.4318   28.2027 H         1 ACE         0.0467
    153 H          13.1944   11.6935   26.7244 H         1 LYS         0.1882
    154 H          13.7394    9.3149   28.4374 H         1 LYS         0.0800
    155 H          11.0038   10.5921   28.3636 H         1 LYS         0.0312
    156 H          12.2762   11.2526   29.4460 H         1 LYS         0.0312
    157 H          12.5300    8.9020   30.3793 H         1 LYS         0.0269
    158 H          11.0431    8.4739   29.4668 H         1 LYS         0.0269
    159 H          10.0498   10.6086   30.6601 H         1 LYS         0.0317
    160 H          11.3965   10.3414   31.8184 H         1 LYS         0.0317
    161 H          10.6261    8.0519   32.2244 H         1 LYS         0.0813
    162 H           9.3159    8.2585   31.0130 H         1 LYS         0.0813
    163 H           8.5255    8.5741   33.2535 H         1 LYS         0.1994
    164 H           8.3985    9.9822   32.4107 H         1 LYS         0.1994
    165 H           9.5991    9.7928   33.5207 H         1 LYS         0.1994
    166 H          12.3201    7.4895   28.0148 H         1 ASN         0.1885
    167 H          11.4940    5.9130   26.5672 H         1 ASN         0.0826
    168 H           9.6176    6.5717   25.1408 H         1 ASN         0.0551
    169 H          10.0630    8.3027   25.3189 H         1 ASN         0.0551
    170 H           7.6667    8.4613   27.8613 H         1 ASN         0.1814
    171 H           8.1526    8.9501   26.2722 H         1 ASN         0.1814
    172 H          14.0451    6.9980   25.8224 H         1 ILE         0.1883
    173 H          14.1193    7.8568   23.1436 H         1 ILE         0.0803
    174 H          16.3257    6.4711   24.7141 H         1 ILE         0.0345
    175 H          17.1202    8.7207   25.1677 H         1 ILE         0.0267
    176 H          15.4238    8.5414   25.7304 H         1 ILE         0.0267
    177 H          16.7116    6.3591   22.2717 H         1 ILE         0.0235
    178 H          17.8676    7.4683   23.0839 H         1 ILE         0.0235
    179 H          16.4807    8.1368   22.1585 H         1 ILE         0.0235
    180 H          15.7902   10.7376   24.6681 H         1 ILE         0.0230
    181 H          14.6291    9.7484   23.7195 H         1 ILE         0.0230
    182 H          16.3255    9.9277   23.1568 H         1 ILE         0.0230
    183 H          15.0579    3.3164   21.7486 H         1 PRO         0.0802
    184 H          14.4461    1.3021   22.8570 H         1 PRO         0.0313
    185 H          12.9770    2.0348   23.5861 H         1 PRO         0.0313
    186 H          15.8965    2.4310   24.3504 H         1 PRO         0.0287
    187 H          14.4955    2.0436   25.4058 H         1 PRO         0.0287
    188 H          13.6602    4.2384   25.3208 H         1 PRO         0.0524
    189 H          15.4136    4.5866   25.1448 H         1 PRO         0.0524
    190 H          11.7558    4.1160   23.0246 H         1 SER         0.1884
    191 H          10.4245    3.0920   20.6889 H         1 SER         0.0823
    192 H           8.4450    4.3665   21.5410 H         1 SER         0.0606
    193 H           9.4972    5.1084   22.7936 H         1 SER         0.0606
    194 H           8.4081    3.2091   23.5454 H         1 SER         0.2097
    195 H          11.6501    6.3170   21.6128 H         1 LEU         0.1883
    196 H          10.5744    7.6623   19.3405 H         1 LEU         0.0800
    197 H          13.0956    8.2159   20.9386 H         1 LEU         0.0315
    198 H          11.4657    8.9349   21.1690 H         1 LEU         0.0315
    199 H          13.2991    9.3706   18.7796 H         1 LEU         0.0298
    200 H          11.7198   11.1812   18.1285 H         1 LEU         0.0232
    201 H          10.6252   10.7037   19.4704 H         1 LEU         0.0232
    202 H          10.9308    9.5675   18.1130 H         1 LEU         0.0232
    203 H          14.1319   10.4242   20.8883 H         1 LEU         0.0232
    204 H          12.5636   11.2827   21.0623 H         1 LEU         0.0232
    205 H          13.6350   11.6434   19.6663 H         1 LEU         0.0232
    206 H          13.6209    5.7996   19.7413 H         1 LEU         0.1883
    207 H          14.6612    6.4866   17.1740 H         1 LEU         0.0800
    208 H          15.9638    4.3749   17.3367 H         1 LEU         0.0315
    209 H          15.0400    3.9644   18.8215 H         1 LEU         0.0315
    210 H          16.0765    5.7363   20.0436 H         1 LEU         0.0298
    211 H          18.4493    5.0223   19.9246 H         1 LEU         0.0232
    212 H          18.1267    4.2320   18.3440 H         1 LEU         0.0232
    213 H          17.3275    3.6224   19.8327 H         1 LEU         0.0232
    214 H          16.1703    7.4108   18.2430 H         1 LEU         0.0232
    215 H          17.4823    6.4762   17.4481 H         1 LEU         0.0232
    216 H          17.7573    7.2164   19.0615 H         1 LEU         0.0232
    217 H          12.3933    3.9235   18.2408 H         1 ARG         0.1883
    218 H          12.3239    2.5917   15.7004 H         1 ARG         0.0800
    219 H          10.1914    1.5997   16.4575 H         1 ARG         0.0313
    220 H          10.1907    2.7087   17.8706 H         1 ARG         0.0313
    221 H          10.9437    0.3334   18.3462 H         1 ARG         0.0301
    222 H          12.0936    1.6205   18.8441 H         1 ARG         0.0301
    223 H          13.1590   -0.4013   17.7601 H         1 ARG         0.0689
    224 H          13.5368    1.1662   16.9683 H         1 ARG         0.0689
    225 H          11.3080   -0.5300   15.9136 H         1 ARG         0.2642
    226 H          14.6143    0.5680   13.8212 H         1 ARG         0.2615
    227 H          14.5437    0.8728   15.5775 H         1 ARG         0.2615
    228 H          11.3788   -0.8919   13.6912 H         1 ARG         0.2615
    229 H          12.8279   -0.4345   12.7565 H         1 ARG         0.2615
    230 H          10.3457    5.2460   17.1148 H         1 NLE         0.1883
    231 H           8.5984    5.4402   14.8704 H         1 NLE         0.0800
    232 H           9.5038    7.7495   16.6402 H         1 NLE         0.0314
    233 H           8.2385    6.5578   17.0933 H         1 NLE         0.0314
    234 H           6.9265    8.2980   16.2896 H         1 NLE         0.0287
    235 H           7.1340    7.3239   14.7947 H         1 NLE         0.0287
    236 H           8.9810    8.8015   14.0876 H         1 NLE         0.0388
    237 H           8.7752    9.7751   15.5831 H         1 NLE         0.0388
    238 H           6.2536   10.2059   14.6255 H         1 NLE         0.0450
    239 H          11.7024    7.1500   15.5609 H         1 GLN         0.1883
    240 H          11.6480    8.7064   13.1736 H         1 GLN         0.0801
    241 H          14.1657    8.8420   13.5006 H         1 GLN         0.0337
    242 H          13.9595    7.7458   14.9087 H         1 GLN         0.0337
    243 H          12.1950    9.4952   15.7153 H         1 GLN         0.0504
    244 H          12.9780   10.5935   14.5290 H         1 GLN         0.0504
    245 H          15.0326   11.5874   17.2032 H         1 GLN         0.1814
    246 H          13.7327   12.0050   16.1373 H         1 GLN         0.1814
    247 H          12.7919    5.4213   13.8597 H         1 ALA         0.1883
    248 H          14.0724    4.9792   11.3457 H         1 ALA         0.0797
    249 H          13.8179    2.5673   11.8678 H         1 ALA         0.0277
    250 H          12.7114    2.9836   13.2202 H         1 ALA         0.0277
    251 H          14.4312    3.4993   13.2755 H         1 ALA         0.0277
    252 H          10.6564    4.4599   12.4047 H         1 HIS         0.1885
    253 H           9.9561    3.3639    9.8272 H         1 HIS         0.0817
    254 H           7.5570    3.9045   10.5866 H         1 HIS         0.0420
    255 H           8.3125    4.3911   12.1420 H         1 HIS         0.0420
    256 H           9.2151    2.2715   13.7249 H         1 HIS         0.0729
    257 H           8.0661   -0.8440   11.0540 H         1 HIS         0.1199
    258 H           8.9154   -0.3138   13.4038 H         1 HIS         0.2361
    259 H          10.0555    6.6622   11.0723 H         1 NLE         0.1883
    260 H           8.6114    7.8195    8.8770 H         1 NLE         0.0800
    261 H           9.9431    9.9171    9.5521 H         1 NLE         0.0314
    262 H          10.6159    8.9034   10.8737 H         1 NLE         0.0314
    263 H           8.1787    8.3459   11.4727 H         1 NLE         0.0287
    264 H           7.7164    9.6851   10.3684 H         1 NLE         0.0287
    265 H           9.0795   11.2550   11.7284 H         1 NLE         0.0388
    266 H           9.4886    9.9109   12.8477 H         1 NLE         0.0388
    267 H           6.6532   11.1650   12.4682 H         1 NLE         0.0450
    268 H          12.0585    7.0371    9.3725 H         1 ARG         0.1883
    269 H          12.8976    8.1917    6.8662 H         1 ARG         0.0800
    270 H          14.9229    6.6502    7.1984 H         1 ARG         0.0313
    271 H          14.1536    6.1658    8.7477 H         1 ARG         0.0313
    272 H          14.3155    8.3477    9.6436 H         1 ARG         0.0301
    273 H          14.6257    9.0800    8.0330 H         1 ARG         0.0301
    274 H          16.8205    7.8710    7.9755 H         1 ARG         0.0689
    275 H          16.5102    7.3218    9.6574 H         1 ARG         0.0689
    276 H          17.1913   10.0732    8.7510 H         1 ARG         0.2642
    277 H          16.4777    9.1135   12.6479 H         1 ARG         0.2615
    278 H          16.0689    7.9395   11.3683 H         1 ARG         0.2615
    279 H          17.7000   11.5545   10.3804 H         1 ARG         0.2615
    280 H          17.3992   11.1454   12.0907 H         1 ARG         0.2615
    281 H          11.8510    4.9439    7.8699 H         1 LYS         0.1883
    282 H          12.2217    3.5938    5.4062 H         1 LYS         0.0800
    283 H           9.9936    3.3034    7.4781 H         1 LYS         0.0312
    284 H          11.5764    2.4541    7.4859 H         1 LYS         0.0312
    285 H          10.9619    1.0030    5.7771 H         1 LYS         0.0269
    286 H           9.7272    2.1277    5.1159 H         1 LYS         0.0269
    287 H           9.5066    0.6698    7.8074 H         1 LYS         0.0317
    288 H           8.7187    0.1376    6.2834 H         1 LYS         0.0317
    289 H           7.3794    2.1189    6.1671 H         1 LYS         0.0813
    290 H           8.3437    2.9317    7.4462 H         1 LYS         0.0813
    291 H           6.2028    2.2350    8.2416 H         1 LYS         0.1994
    292 H           7.3854    1.4068    9.0322 H         1 LYS         0.1994
    293 H           6.5017    0.6620    7.8600 H         1 LYS         0.1994
    294 H           9.3811    5.4511    6.6121 H         1 LYS         0.1883
    295 H           7.8063    4.8731    4.2954 H         1 LYS         0.0800
    296 H           6.4113    6.8754    5.0697 H         1 LYS         0.0310
    297 H           7.5707    7.0150    6.4346 H         1 LYS         0.0310
    298 H           5.5517    5.7666    7.0952 H         1 LYS         0.0232
    299 H           7.0075    4.7156    7.1482 H         1 LYS         0.0232
    300 H           5.8481    4.5759    5.7833 H         1 LYS         0.0232
    301 H          10.1426    7.4102    4.9693 H         1 MET         0.1883
    302 H           9.2581    9.0494    2.7270 H         1 MET         0.0800
    303 H          10.3377    9.9695    4.8261 H         1 MET         0.0320
    304 H          10.9929   10.5688    3.2647 H         1 MET         0.0320
    305 H          12.9004    9.0212    3.4795 H         1 MET         0.0378
    306 H          12.2481    8.4437    5.0504 H         1 MET         0.0378
    307 H          14.7636   12.1969    4.2170 H         1 MET         0.0340
    308 H          13.3439   11.8028    3.1895 H         1 MET         0.0340
    309 H          14.7197   10.6532    3.2996 H         1 MET         0.0340
    310 H          11.0604    6.2250    2.8367 H         1 VAL         0.1876
    311 H          13.1757    7.0244    1.0462 H         1 VAL         0.0754
    312 O1         12.5808    5.9002   -1.2036 O.co2     1 VAL        -0.4120
    313 H          13.5255    5.2548    2.7130 H         1 VAL         0.0336
    314 H          12.5360    3.0047    2.3708 H         1 VAL         0.0234
    315 H          11.5581    3.6440    1.0064 H         1 VAL         0.0234
    316 H          11.2698    4.2419    2.6755 H         1 VAL         0.0234
    317 H          14.8716    5.3286    0.6557 H         1 VAL         0.0234
    318 H          13.6814    4.2558   -0.1562 H         1 VAL         0.0234
    319 H          14.6334    3.6468    1.2400 H         1 VAL         0.0234
@<TRIPOS>BOND
     1    1    2 2  
     2    1    3 1  
     3    1    4 am 
     4    4    5 1  
     5    5    6 1  
     6    5    8 1  
     7    6    7 2  
     8    6   13 am 
     9    8    9 1  
    10    9   10 1  
    11   10   11 1  
    12   11   12 1  
    13   13   14 1  
    14   14   15 1  
    15   14   17 1  
    16   15   16 2  
    17   15   21 am 
    18   17   18 1  
    19   18   19 2  
    20   18   20 am 
    21   21   22 1  
    22   22   23 1  
    23   22   25 1  
    24   23   24 2  
    25   23   29 am 
    26   25   26 1  
    27   25   27 1  
    28   26   28 1  
    29   29   30 1  
    30   29   35 1  
    31   30   31 1  
    32   30   33 1  
    33   31   32 2  
    34   31   36 am 
    35   33   34 1  
    36   34   35 1  
    37   36   37 1  
    38   37   38 1  
    39   37   40 1  
    40   38   39 2  
    41   38   42 am 
    42   40   41 1  
    43   42   43 1  
    44   43   44 1  
    45   43   46 1  
    46   44   45 2  
    47   44   50 am 
    48   46   47 1  
    49   47   48 1  
    50   47   49 1  
    51   50   51 1  
    52   51   52 1  
    53   51   54 1  
    54   52   53 2  
    55   52   58 am 
    56   54   55 1  
    57   55   56 1  
    58   55   57 1  
    59   58   59 1  
    60   59   60 1  
    61   59   62 1  
    62   60   61 2  
    63   60   69 am 
    64   62   63 1  
    65   63   64 1  
    66   64   65 1  
    67   65   66 ar 
    68   66   67 ar 
    69   66   68 ar 
    70   69   70 1  
    71   70   71 1  
    72   70   73 1  
    73   71   72 2  
    74   71   77 am 
    75   73   74 1  
    76   74   75 1  
    77   75   76 1  
    78   76  108 2  
    79   77   78 1  
    80   78   79 1  
    81   78   81 1  
    82   79   80 2  
    83   79   86 am 
    84   81   82 1  
    85   82   83 1  
    86   83   84 2  
    87   83   85 am 
    88   86   87 1  
    89   87   88 1  
    90   87   90 1  
    91   88   89 2  
    92   88   91 am 
    93   91   92 1  
    94   92   93 1  
    95   92   95 1  
    96   93   94 2  
    97   93  101 am 
    98   95   96 1  
    99   96   97 1  
   100   96   98 2  
   101   97   99 2  
   102   98  100 1  
   103   99  100 1  
   104  101  102 1  
   105  102  103 1  
   106  102  105 1  
   107  103  104 2  
   108  103  109 am 
   109  105  106 1  
   110  106  107 1  
   111  107  108 1  
   112  109  110 1  
   113  110  111 1  
   114  110  113 1  
   115  111  112 2  
   116  111  120 am 
   117  113  114 1  
   118  114  115 1  
   119  115  116 1  
   120  116  117 ar 
   121  117  118 ar 
   122  117  119 ar 
   123  120  121 1  
   124  121  122 1  
   125  121  124 1  
   126  122  123 2  
   127  122  129 am 
   128  124  125 1  
   129  125  126 1  
   130  126  127 1  
   131  127  128 1  
   132  129  130 1  
   133  130  131 1  
   134  130  133 1  
   135  131  132 2  
   136  131  135 am 
   137  133  134 1  
   138  135  136 1  
   139  136  137 1  
   140  136  139 1  
   141  137  138 2  
   142  137  143 am 
   143  139  140 1  
   144  140  141 1  
   145  141  142 1  
   146  143  144 1  
   147  144  145 1  
   148  144  147 1  
   149  145  146 ar 
   150  147  148 1  
   151  147  149 1  
   152    3  150 1  
   153    3  151 1  
   154    3  152 1  
   155    4  153 1  
   156    5  154 1  
   157    8  155 1  
   158    8  156 1  
   159    9  157 1  
   160    9  158 1  
   161   10  159 1  
   162   10  160 1  
   163   11  161 1  
   164   11  162 1  
   165   12  163 1  
   166   12  164 1  
   167   12  165 1  
   168   13  166 1  
   169   14  167 1  
   170   17  168 1  
   171   17  169 1  
   172   20  170 1  
   173   20  171 1  
   174   21  172 1  
   175   22  173 1  
   176   25  174 1  
   177   26  175 1  
   178   26  176 1  
   179   27  177 1  
   180   27  178 1  
   181   27  179 1  
   182   28  180 1  
   183   28  181 1  
   184   28  182 1  
   185   30  183 1  
   186   33  184 1  
   187   33  185 1  
   188   34  186 1  
   189   34  187 1  
   190   35  188 1  
   191   35  189 1  
   192   36  190 1  
   193   37  191 1  
   194   40  192 1  
   195   40  193 1  
   196   41  194 1  
   197   42  195 1  
   198   43  196 1  
   199   46  197 1  
   200   46  198 1  
   201   47  199 1  
   202   48  200 1  
   203   48  201 1  
   204   48  202 1  
   205   49  203 1  
   206   49  204 1  
   207   49  205 1  
   208   50  206 1  
   209   51  207 1  
   210   54  208 1  
   211   54  209 1  
   212   55  210 1  
   213   56  211 1  
   214   56  212 1  
   215   56  213 1  
   216   57  214 1  
   217   57  215 1  
   218   57  216 1  
   219   58  217 1  
   220   59  218 1  
   221   62  219 1  
   222   62  220 1  
   223   63  221 1  
   224   63  222 1  
   225   64  223 1  
   226   64  224 1  
   227   65  225 1  
   228   67  226 1  
   229   67  227 1  
   230   68  228 1  
   231   68  229 1  
   232   69  230 1  
   233   70  231 1  
   234   73  232 1  
   235   73  233 1  
   236   74  234 1  
   237   74  235 1  
   238   75  236 1  
   239   75  237 1  
   240   76  238 1  
   241   77  239 1  
   242   78  240 1  
   243   81  241 1  
   244   81  242 1  
   245   82  243 1  
   246   82  244 1  
   247   85  245 1  
   248   85  246 1  
   249   86  247 1  
   250   87  248 1  
   251   90  249 1  
   252   90  250 1  
   253   90  251 1  
   254   91  252 1  
   255   92  253 1  
   256   95  254 1  
   257   95  255 1  
   258   98  256 1  
   259   99  257 1  
   260  100  258 1  
   261  101  259 1  
   262  102  260 1  
   263  105  261 1  
   264  105  262 1  
   265  106  263 1  
   266  106  264 1  
   267  107  265 1  
   268  107  266 1  
   269  108  267 1  
   270  109  268 1  
   271  110  269 1  
   272  113  270 1  
   273  113  271 1  
   274  114  272 1  
   275  114  273 1  
   276  115  274 1  
   277  115  275 1  
   278  116  276 1  
   279  118  277 1  
   280  118  278 1  
   281  119  279 1  
   282  119  280 1  
   283  120  281 1  
   284  121  282 1  
   285  124  283 1  
   286  124  284 1  
   287  125  285 1  
   288  125  286 1  
   289  126  287 1  
   290  126  288 1  
   291  127  289 1  
   292  127  290 1  
   293  128  291 1  
   294  128  292 1  
   295  128  293 1  
   296  129  294 1  
   297  130  295 1  
   298  133  296 1  
   299  133  297 1  
   300  134  298 1  
   301  134  299 1  
   302  134  300 1  
   303  135  301 1  
   304  136  302 1  
   305  139  303 1  
   306  139  304 1  
   307  140  305 1  
   308  140  306 1  
   309  142  307 1  
   310  142  308 1  
   311  142  309 1  
   312  143  310 1  
   313  144  311 1  
   314  145  312 ar 
   315  147  313 1  
   316  148  314 1  
   317  148  315 1  
   318  148  316 1  
   319  149  317 1  
   320  149  318 1  
   321  149  319 1  
@<TRIPOS>SUBSTRUCTURE
     1 ACE         1

