1zpc_ligand
  -I-interpret- 

 65 66  0  0  0  0  0  0  0  0999 V2000
   11.3730   51.0630   25.0880 C   0  0  0  0  0
   11.7040   51.1250   23.5590 C   0  0  0  0  0
   11.5820   52.3130   25.8020 C   0  0  0  0  0
    9.9920   50.7170   25.1400 O   0  0  0  0  0
   13.1740   51.3280   23.4730 N   0  0  0  0  0
   11.4700   49.8080   22.7890 C   0  0  0  0  0
   12.1050   49.7330   21.4140 C   0  0  0  0  0
   11.5080   48.6020   20.6400 C   0  0  0  0  0
   11.5290   48.9980   19.2300 N   0  0  0  0  0
   11.3190   48.1750   18.1840 C   0  0  0  0  0
   11.0640   46.8670   18.3780 N   0  0  0  0  0
   11.3710   48.6820   16.9450 N   0  0  0  0  0
   12.6300   52.5620   26.4950 N   0  0  0  0  0
   12.5680   53.8220   27.0680 C   0  0  0  0  0
   11.4130   54.4910   26.7570 C   0  0  0  0  0
   10.4060   53.5650   25.7590 S   0  0  0  0  0
   15.7550   53.1180   21.8330 N   0  0  0  0  0
   15.3470   52.4030   23.0550 C   0  0  0  0  0
   13.7960   52.4470   23.0680 C   0  0  0  0  0
   13.1730   53.4630   22.7090 O   0  0  0  0  0
   15.9350   53.0890   24.3480 C   0  0  0  0  0
   17.4550   53.0230   24.3190 C   0  0  0  0  0
   15.5740   54.5920   24.4980 C   0  0  0  0  0
   15.4520   52.7760   20.5480 C   0  0  0  0  0
   16.0000   53.7440   19.4610 C   0  0  0  0  0
   14.7820   51.7740   20.2450 O   0  0  0  0  0
   14.9890   53.9260   18.4780 O   0  0  0  0  0
   17.3060   53.2040   18.8110 C   0  0  0  0  0
   18.4710   52.9490   19.6600 C   0  0  0  0  0
   19.6990   52.4470   19.0900 C   0  0  0  0  0
   19.8140   52.1840   17.6830 C   0  0  0  0  0
   18.6980   52.4170   16.8020 C   0  0  0  0  0
   17.4380   52.9280   17.3600 C   0  0  0  0  0
   18.8870   52.0820   15.1350 Cl  0  0  0  0  0
   12.0394   50.3513   25.5754 H   0  0  0  0  0
   11.0650   51.8971   23.1304 H   0  0  0  0  0
    9.8520   49.8921   24.6692 H   0  0  0  0  0
   13.7657   50.5438   23.7473 H   0  0  0  0  0
   10.3937   49.7239   22.6385 H   0  0  0  0  0
   11.9246   49.0160   23.3841 H   0  0  0  0  0
   13.1773   49.5693   21.5212 H   0  0  0  0  0
   11.9245   50.6675   20.8828 H   0  0  0  0  0
   10.4893   48.4003   20.9712 H   0  0  0  0  0
   12.0758   47.6843   20.7937 H   0  0  0  0  0
   11.7184   49.9786   19.0226 H   0  0  0  0  0
   10.9086   46.2536   17.5780 H   0  0  0  0  0
   11.0263   46.4897   19.3249 H   0  0  0  0  0
   11.5666   49.6736   16.8075 H   0  0  0  0  0
   13.3541   54.2369   27.6989 H   0  0  0  0  0
   11.1725   55.4944   27.1084 H   0  0  0  0  0
   16.3229   53.9555   21.9614 H   0  0  0  0  0
   15.7242   51.3804   23.0564 H   0  0  0  0  0
   15.4937   52.5402   25.1800 H   0  0  0  0  0
   17.7716   51.9805   24.2871 H   0  0  0  0  0
   17.8232   53.5431   23.4346 H   0  0  0  0  0
   17.8552   53.4984   25.2145 H   0  0  0  0  0
   15.9598   55.1443   23.6411 H   0  0  0  0  0
   14.4905   54.7012   24.5444 H   0  0  0  0  0
   16.0192   54.9817   25.4134 H   0  0  0  0  0
   16.2535   54.6969   19.9256 H   0  0  0  0  0
   15.3098   54.5220   17.7972 H   0  0  0  0  0
   18.4109   53.1397   20.7315 H   0  0  0  0  0
   20.5548   52.2643   19.7399 H   0  0  0  0  0
   20.7526   51.8053   17.2785 H   0  0  0  0  0
   16.5899   53.1064   16.6990 H   0  0  0  0  0
  2  1  1  0  0  0
  1  3  1  0  0  0
  1  4  1  0  0  0
  5  2  1  0  0  0
  2  6  1  0  0  0
  3 13  4  0  0  0
  3 16  4  0  0  0
 19  5  1  0  0  0
  6  7  1  0  0  0
  7  8  1  0  0  0
  8  9  1  0  0  0
  9 10  1  0  0  0
 10 11  1  0  0  0
 10 12  2  0  0  0
 13 14  4  0  0  0
 15 14  4  0  0  0
 16 15  4  0  0  0
 18 17  1  0  0  0
 17 24  1  0  0  0
 18 19  1  0  0  0
 18 21  1  0  0  0
 19 20  2  0  0  0
 21 22  1  0  0  0
 21 23  1  0  0  0
 24 25  1  0  0  0
 24 26  2  0  0  0
 25 27  1  0  0  0
 25 28  1  0  0  0
 28 29  4  0  0  0
 28 33  4  0  0  0
 29 30  4  0  0  0
 30 31  4  0  0  0
 31 32  4  0  0  0
 32 33  4  0  0  0
 32 34  1  0  0  0
  1 35  1  0  0  0
  2 36  1  0  0  0
  4 37  1  0  0  0
  5 38  1  0  0  0
  6 39  1  0  0  0
  6 40  1  0  0  0
  7 41  1  0  0  0
  7 42  1  0  0  0
  8 43  1  0  0  0
  8 44  1  0  0  0
  9 45  1  0  0  0
 11 46  1  0  0  0
 11 47  1  0  0  0
 12 48  1  0  0  0
 14 49  1  0  0  0
 15 50  1  0  0  0
 17 51  1  0  0  0
 18 52  1  0  0  0
 21 53  1  0  0  0
 22 54  1  0  0  0
 22 55  1  0  0  0
 22 56  1  0  0  0
 23 57  1  0  0  0
 23 58  1  0  0  0
 23 59  1  0  0  0
 25 60  1  0  0  0
 27 61  1  0  0  0
 29 62  1  0  0  0
 30 63  1  0  0  0
 31 64  1  0  0  0
 33 65  1  0  0  0
M  END
$$$$
