5ei4_ligand
  -I-interpret- 

 46 49  0  0  0  0  0  0  0  0999 V2000
   25.2900   50.7970   -1.1160 C   0  0  0  0  0
   24.4790   49.9840   -0.3350 C   0  0  0  0  0
   23.2330   49.6060   -0.7820 C   0  0  0  0  0
   26.4090   50.3350    0.6730 C   0  0  0  0  0
   22.8590   50.1810   -2.0340 N   0  0  0  0  0
   24.8610   51.3160   -2.2890 N   0  0  0  0  0
   27.9540   50.8370   -3.0440 C   0  0  0  0  0
   28.8350   49.9310   -3.6650 C   0  0  0  0  0
   28.5970   49.3090   -4.8920 C   0  0  0  0  0
   29.6590   48.2980   -5.6350 Cl  0  0  0  0  0
   27.4260   49.6090   -5.5200 C   0  0  0  0  0
   26.5180   50.4940   -4.9150 C   0  0  0  0  0
   26.7810   51.1850   -3.7040 C   0  0  0  0  0
   25.7970   52.1650   -3.0980 C   0  0  0  0  0
   23.6120   50.9980   -2.7830 C   0  0  0  0  0
   23.2340   51.4030   -3.8830 O   0  0  0  0  0
   22.3840   48.8110   -0.2820 O   0  0  0  0  0
   25.2270   49.6470    0.7490 N   0  0  0  0  0
   24.8870   48.7650    1.8310 C   0  0  0  0  0
   25.0310   47.4090    1.3270 C   0  0  0  0  0
   26.4470   51.0440   -0.4780 N   0  0  0  0  0
   27.4650   50.2680    1.8900 C   0  0  0  0  0
   26.9870   51.5780    2.9540 S   0  0  0  0  0
   28.5300   51.9610    3.5260 C   0  0  0  0  0
   28.6200   52.4600    4.6840 N   0  0  0  0  0
   29.9510   52.8470    4.7900 C   0  0  0  0  0
   30.5950   53.4850    5.8310 N   0  0  0  0  0
   30.6520   52.3290    3.8000 N   0  0  0  0  0
   29.7440   51.7610    2.9770 N   0  0  0  0  0
   21.9325   49.9483   -2.3916 H   0  0  0  0  0
   28.1870   51.2570   -2.0655 H   0  0  0  0  0
   29.7682   49.6990   -3.1518 H   0  0  0  0  0
   27.1945   49.1643   -6.4878 H   0  0  0  0  0
   25.5576   50.6591   -5.4033 H   0  0  0  0  0
   26.2964   52.9157   -2.4856 H   0  0  0  0  0
   25.2697   52.7360   -3.8622 H   0  0  0  0  0
   23.8680   48.9456    2.1732 H   0  0  0  0  0
   25.5401   48.9320    2.6875 H   0  0  0  0  0
   24.3582   47.2635    0.4818 H   0  0  0  0  0
   26.0602   47.2497    1.0054 H   0  0  0  0  0
   24.7822   46.7007    2.1172 H   0  0  0  0  0
   28.4938   50.3743    1.5460 H   0  0  0  0  0
   27.4470   49.3024    2.3954 H   0  0  0  0  0
   30.0775   53.7368    6.6731 H   0  0  0  0  0
   31.6648   52.3524    3.6812 H   0  0  0  0  0
   29.9406   51.2723    2.1036 H   0  0  0  0  0
  1  2  4  0  0  0
  6  1  1  0  0  0
  1 21  4  0  0  0
  2  3  1  0  0  0
  2 18  4  0  0  0
  5  3  1  0  0  0
  3 17  2  0  0  0
  4 18  4  0  0  0
 21  4  4  0  0  0
  4 22  1  0  0  0
 15  5  1  0  0  0
 14  6  1  0  0  0
  6 15  1  0  0  0
  7  8  4  0  0  0
 13  7  4  0  0  0
  8  9  4  0  0  0
  9 10  1  0  0  0
 11  9  4  0  0  0
 12 11  4  0  0  0
 13 12  4  0  0  0
 13 14  1  0  0  0
 15 16  2  0  0  0
 18 19  1  0  0  0
 19 20  1  0  0  0
 22 23  1  0  0  0
 23 24  1  0  0  0
 24 25  2  0  0  0
 24 29  1  0  0  0
 25 26  4  0  0  0
 26 27  2  0  0  0
 26 28  1  0  0  0
 28 29  1  0  0  0
  5 30  1  0  0  0
  7 31  1  0  0  0
  8 32  1  0  0  0
 11 33  1  0  0  0
 12 34  1  0  0  0
 14 35  1  0  0  0
 14 36  1  0  0  0
 19 37  1  0  0  0
 19 38  1  0  0  0
 20 39  1  0  0  0
 20 40  1  0  0  0
 20 41  1  0  0  0
 22 42  1  0  0  0
 22 43  1  0  0  0
 27 44  1  0  0  0
 28 45  1  0  0  0
 29 46  1  0  0  0
M  END
$$$$
