1zfk_ligand
  -I-interpret- 

 39 40  0  0  0  0  0  0  0  0999 V2000
   15.3260    2.6930   16.8080 S   0  0  0  0  0
   15.8140    1.4320   16.1690 N   0  0  0  0  0
   13.8840    2.7660   16.6740 O   0  0  0  0  0
   15.8670    2.8480   18.1570 O   0  0  0  0  0
   16.0050    4.0270   15.8870 C   0  0  0  0  0
   15.0780    5.0080   15.4720 C   0  0  0  0  0
   15.4930    6.1140   14.7390 C   0  0  0  0  0
   16.8410    6.2730   14.3990 C   0  0  0  0  0
   17.1920    7.4120   13.6450 N   0  0  0  0  0
   18.4190    7.7630   13.2110 C   0  0  0  0  0
   19.4390    7.1170   13.4110 O   0  0  0  0  0
   18.4470    8.9120   12.5130 N   0  0  0  0  0
   19.5890    9.4400   11.6970 S   0  0  0  0  0
   20.5580    8.4430   11.3160 O   0  0  0  0  0
   19.0170   10.2960   10.6640 O   0  0  0  0  0
   20.3370   10.4740   12.9200 C   0  0  0  0  0
   21.7280   10.4020   13.0850 C   0  0  0  0  0
   22.3430   11.2100   14.0450 C   0  0  0  0  0
   21.5680   12.0710   14.8240 C   0  0  0  0  0
   22.2280   12.9570   15.8690 C   0  0  0  0  0
   20.1890   12.1340   14.6520 C   0  0  0  0  0
   19.5730   11.3310   13.6950 C   0  0  0  0  0
   17.7530    5.2980   14.8040 C   0  0  0  0  0
   17.3440    4.1790   15.5490 C   0  0  0  0  0
   15.1506    0.7909   15.7339 H   0  0  0  0  0
   16.8102    1.2130   16.1683 H   0  0  0  0  0
   14.0247    4.8968   15.7294 H   0  0  0  0  0
   14.7639    6.8619   14.4272 H   0  0  0  0  0
   16.4292    8.0432   13.3997 H   0  0  0  0  0
   17.6032    9.4843   12.5416 H   0  0  0  0  0
   22.3219    9.7241   12.4720 H   0  0  0  0  0
   23.4232   11.1682   14.1850 H   0  0  0  0  0
   22.7429   12.3332   16.5996 H   0  0  0  0  0
   22.9461   13.6172   15.3826 H   0  0  0  0  0
   21.4664   13.5535   16.3712 H   0  0  0  0  0
   19.5922   12.8099   15.2644 H   0  0  0  0  0
   18.4928   11.3768   13.5563 H   0  0  0  0  0
   18.8042    5.4065   14.5371 H   0  0  0  0  0
   18.0748    3.4327   15.8607 H   0  0  0  0  0
  1  2  1  0  0  0
  1  3  2  0  0  0
  1  4  2  0  0  0
  1  5  1  0  0  0
  5  6  4  0  0  0
  5 24  4  0  0  0
  6  7  4  0  0  0
  7  8  4  0  0  0
  8  9  1  0  0  0
  8 23  4  0  0  0
  9 10  1  0  0  0
 10 11  2  0  0  0
 10 12  1  0  0  0
 12 13  1  0  0  0
 13 14  2  0  0  0
 13 15  2  0  0  0
 13 16  1  0  0  0
 16 17  4  0  0  0
 16 22  4  0  0  0
 17 18  4  0  0  0
 18 19  4  0  0  0
 19 20  1  0  0  0
 19 21  4  0  0  0
 21 22  4  0  0  0
 23 24  4  0  0  0
  2 25  1  0  0  0
  2 26  1  0  0  0
  6 27  1  0  0  0
  7 28  1  0  0  0
  9 29  1  0  0  0
 12 30  1  0  0  0
 17 31  1  0  0  0
 18 32  1  0  0  0
 20 33  1  0  0  0
 20 34  1  0  0  0
 20 35  1  0  0  0
 21 36  1  0  0  0
 22 37  1  0  0  0
 23 38  1  0  0  0
 24 39  1  0  0  0
M  END
$$$$
