3gwt_ligand
  -I-interpret- 

 63 66  0  0  0  0  0  0  0  0999 V2000
   44.0530   46.0630   61.6620 O   0  0  0  0  0
   43.6220   45.8360   62.7810 C   0  0  0  0  0
   42.4210   45.2780   62.9690 N   0  0  0  0  0
   44.4500   46.2530   63.9850 C   0  0  0  0  0
   43.8350   46.2940   65.2340 C   0  0  0  0  0
   44.4700   46.7120   66.3520 N   0  0  0  0  0
   45.7380   47.1390   66.2630 C   0  0  0  0  0
   46.4130   47.1630   65.0420 C   0  0  0  0  0
   47.7360   47.6170   64.9820 C   0  0  0  0  0
   48.3750   48.0540   66.1460 C   0  0  0  0  0
   50.0300   48.6840   66.0440 S   0  0  0  0  0
   50.4000   48.6620   64.6550 O   0  0  0  0  0
   51.1110   47.6430   66.9220 C   0  0  0  0  0
   51.4520   46.4770   66.3150 C   0  0  0  0  0
   52.3090   45.6140   66.9360 C   0  0  0  0  0
   52.5960   44.3780   66.1690 C   0  0  0  0  0
   52.9680   44.5120   64.8880 N   0  0  0  0  0
   53.4160   43.3940   64.1040 C   0  0  0  0  0
   52.9620   45.7780   64.1520 C   0  0  0  0  0
   52.4410   43.3100   66.7300 O   0  0  0  0  0
   52.8340   45.9010   68.1910 C   0  0  0  0  0
   52.4970   47.1020   68.8110 C   0  0  0  0  0
   51.6290   47.9830   68.1690 C   0  0  0  0  0
   50.0920   49.9530   66.7220 O   0  0  0  0  0
   47.6860   48.0290   67.3590 C   0  0  0  0  0
   46.3720   47.5720   67.4230 C   0  0  0  0  0
   45.6210   47.5380   68.7240 C   0  0  0  0  0
   45.7650   46.7210   63.8780 C   0  0  0  0  0
   46.4540   46.7160   62.6990 N   0  0  0  0  0
   47.6140   45.9730   62.6520 C   0  0  0  0  0
   48.4850   46.0740   61.5800 C   0  0  0  0  0
   47.9690   45.0810   63.6680 C   0  0  0  0  0
   49.1540   44.3060   63.6060 C   0  0  0  0  0
   50.0240   44.4320   62.5280 C   0  0  0  0  0
   49.6630   45.3230   61.5150 C   0  0  0  0  0
   50.4770   45.4850   60.4310 O   0  0  0  0  0
   50.0800   46.3110   59.3470 C   0  0  0  0  0
   41.8418   45.0316   62.1663 H   0  0  0  0  0
   42.0843   45.0988   63.9150 H   0  0  0  0  0
   42.7958   45.9750   65.3136 H   0  0  0  0  0
   48.2665   47.6297   64.0299 H   0  0  0  0  0
   51.0429   46.2307   65.3352 H   0  0  0  0  0
   54.2986   42.9556   64.5698 H   0  0  0  0  0
   52.6231   42.6480   64.0511 H   0  0  0  0  0
   53.6650   43.7334   63.0986 H   0  0  0  0  0
   51.9486   46.1786   64.1290 H   0  0  0  0  0
   53.6237   46.4882   64.6479 H   0  0  0  0  0
   53.3093   45.6062   63.1332 H   0  0  0  0  0
   53.5016   45.1944   68.6841 H   0  0  0  0  0
   52.9085   47.3504   69.7893 H   0  0  0  0  0
   51.3582   48.9288   68.6383 H   0  0  0  0  0
   48.1820   48.3712   68.2673 H   0  0  0  0  0
   44.7344   48.1674   68.6468 H   0  0  0  0  0
   45.3224   46.5128   68.9430 H   0  0  0  0  0
   46.2633   47.9092   69.5226 H   0  0  0  0  0
   46.1244   47.2396   61.8880 H   0  0  0  0  0
   48.2460   46.7572   60.7650 H   0  0  0  0  0
   47.3149   44.9784   64.5339 H   0  0  0  0  0
   49.3853   43.6061   64.4089 H   0  0  0  0  0
   50.9496   43.8588   62.4760 H   0  0  0  0  0
   49.1537   45.9270   58.9196 H   0  0  0  0  0
   49.9219   47.3280   59.7058 H   0  0  0  0  0
   50.8606   46.3099   58.5862 H   0  0  0  0  0
  1  2  2  0  0  0
  2  3  1  0  0  0
  2  4  1  0  0  0
  4  5  4  0  0  0
  4 28  4  0  0  0
  5  6  4  0  0  0
  6  7  4  0  0  0
  7  8  4  0  0  0
  7 26  4  0  0  0
  8  9  4  0  0  0
  8 28  4  0  0  0
  9 10  4  0  0  0
 10 11  1  0  0  0
 10 25  4  0  0  0
 11 12  2  0  0  0
 11 13  1  0  0  0
 11 24  2  0  0  0
 13 14  4  0  0  0
 13 23  4  0  0  0
 14 15  4  0  0  0
 15 16  1  0  0  0
 15 21  4  0  0  0
 16 17  1  0  0  0
 16 20  2  0  0  0
 17 18  1  0  0  0
 17 19  1  0  0  0
 21 22  4  0  0  0
 22 23  4  0  0  0
 25 26  4  0  0  0
 26 27  1  0  0  0
 28 29  1  0  0  0
 29 30  1  0  0  0
 30 31  4  0  0  0
 30 32  4  0  0  0
 31 35  4  0  0  0
 32 33  4  0  0  0
 33 34  4  0  0  0
 34 35  4  0  0  0
 35 36  1  0  0  0
 36 37  1  0  0  0
  3 38  1  0  0  0
  3 39  1  0  0  0
  5 40  1  0  0  0
  9 41  1  0  0  0
 14 42  1  0  0  0
 18 43  1  0  0  0
 18 44  1  0  0  0
 18 45  1  0  0  0
 19 46  1  0  0  0
 19 47  1  0  0  0
 19 48  1  0  0  0
 21 49  1  0  0  0
 22 50  1  0  0  0
 23 51  1  0  0  0
 25 52  1  0  0  0
 27 53  1  0  0  0
 27 54  1  0  0  0
 27 55  1  0  0  0
 29 56  1  0  0  0
 31 57  1  0  0  0
 32 58  1  0  0  0
 33 59  1  0  0  0
 34 60  1  0  0  0
 37 61  1  0  0  0
 37 62  1  0  0  0
 37 63  1  0  0  0
M  END
$$$$
