### 
### Created by X-TOOL on Mon Sep 10 21:12:46 2018
### 

@<TRIPOS>MOLECULE
1ml1_ligand
   11    10     1     0     0
SMALL
GAST_HUCK


@<TRIPOS>ATOM
      1 P          38.3890   -4.0920   -8.4460 P.3       1 PGA         0.2032
      2 O1P        38.8430   -3.2020   -7.2220 O.3       1 PGA        -0.2622
      3 O2P        37.9810   -5.4300   -7.9080 O.co2     1 PGA        -0.5536
      4 O3P        39.5560   -4.1360   -9.3950 O.co2     1 PGA        -0.5536
      5 O4P        37.1670   -3.3930   -9.1210 O.co2     1 PGA        -0.5536
      6 C2         38.0740   -3.2370   -6.0530 C.3       1 PGA         0.1305
      7 C1         38.5600   -2.2780   -5.0130 C.2       1 PGA         0.0653
      8 O1         37.7380   -2.0760   -4.0620 O.co2     1 PGA        -0.5663
      9 O2         39.6520   -1.7570   -5.0910 O.co2     1 PGA        -0.5663
     10 H1         38.1112   -4.2549   -5.6377 H         1 PGA         0.0783
     11 H2         37.0346   -2.9826   -6.3078 H         1 PGA         0.0783
@<TRIPOS>BOND
     1    1    2 1  
     2    1    3 ar 
     3    1    4 ar 
     4    1    5 ar 
     5    2    6 1  
     6    6    7 1  
     7    7    8 ar 
     8    7    9 ar 
     9    6   10 1  
    10    6   11 1  
@<TRIPOS>SUBSTRUCTURE
     1 PGA         1

