1ml1_ligand
  -I-interpret- 

 14 13  0  0  0  0  0  0  0  0999 V2000
   38.3890   -4.0920   -8.4460 P   0  0  0  0  0
   38.8430   -3.2020   -7.2220 O   0  0  0  0  0
   37.9810   -5.4300   -7.9080 O   0  0  0  0  0
   39.5560   -4.1360   -9.3950 O   0  0  0  0  0
   37.1670   -3.3930   -9.1210 O   0  0  0  0  0
   38.0740   -3.2370   -6.0530 C   0  0  0  0  0
   38.5600   -2.2780   -5.0130 C   0  0  0  0  0
   37.7380   -2.0760   -4.0620 O   0  0  0  0  0
   39.6520   -1.7570   -5.0910 O   0  0  0  0  0
   39.7568   -3.2464   -9.6950 H   0  0  0  0  0
   37.4375   -2.5375   -9.4623 H   0  0  0  0  0
   38.1413   -4.2428   -5.6382 H   0  0  0  0  0
   37.0537   -2.9573   -6.3153 H   0  0  0  0  0
   36.9432   -2.5931   -4.2123 H   0  0  0  0  0
  1  2  1  0  0  0
  1  3  2  0  0  0
  1  4  1  0  0  0
  1  5  1  0  0  0
  2  6  1  0  0  0
  6  7  1  0  0  0
  7  8  1  0  0  0
  7  9  2  0  0  0
  4 10  1  0  0  0
  5 11  1  0  0  0
  6 12  1  0  0  0
  6 13  1  0  0  0
  8 14  1  0  0  0
M  END
$$$$
