1s5q_ligand
  -I-interpret- 

277277  0  0  0  0  0  0  0  0999 V2000
   -9.5950    8.9760    3.6870 N   0  3  0  0  0
   -9.0250    7.6080    3.5660 C   0  0  0  0  0
   -7.5000    7.6530    3.5390 C   0  0  0  0  0
   -6.9010    8.1900    2.6070 O   0  0  0  0  0
   -9.5470    6.9290    2.2970 C   0  0  0  0  0
   -9.0290    5.5140    2.1070 C   0  0  0  0  0
   -9.6410    4.8580    0.8820 C   0  0  0  0  0
  -11.0910    4.7310    1.0000 N   0  0  0  0  0
  -11.8580    4.1500    0.0820 C   0  0  0  0  0
  -11.3160    3.6400   -1.0150 N   0  0  0  0  0
  -13.1700    4.0780    0.2630 N   0  0  0  0  0
   -6.8800    7.0820    4.5670 N   0  0  0  0  0
   -5.4240    7.0530    4.6670 C   0  0  0  0  0
   -4.9350    5.6790    5.1180 C   0  0  0  0  0
   -4.9480    5.3640    6.3070 O   0  0  0  0  0
   -4.9340    8.1340    5.6360 C   0  0  0  0  0
   -5.9970    8.6170    6.6130 C   0  0  0  0  0
   -6.4890    7.3480    7.7970 S   0  0  0  0  0
   -4.9910    7.1850    8.7670 C   0  0  0  0  0
   -4.5040    4.8620    4.1590 N   0  0  0  0  0
   -4.0180    3.5200    4.4630 C   0  0  0  0  0
   -3.3570    2.8790    3.2440 C   0  0  0  0  0
   -2.2530    2.3420    3.3370 O   0  0  0  0  0
   -5.1730    2.6470    4.9530 C   0  0  0  0  0
   -6.3130    2.5910    3.9560 C   0  0  0  0  0
   -6.4760    1.6070    3.2340 O   0  0  0  0  0
   -7.0990    3.6590    3.8980 N   0  0  0  0  0
   -4.0400    2.9390    2.1050 N   0  0  0  0  0
   -3.5200    2.3610    0.8700 C   0  0  0  0  0
   -3.5160    3.3870   -0.2600 C   0  0  0  0  0
   -2.5340    3.5130   -0.9910 O   0  0  0  0  0
   -4.3450    1.1300    0.4360 C   0  0  0  0  0
   -4.3310    0.0580    1.5320 C   0  0  0  0  0
   -3.8140    0.5640   -0.8740 C   0  0  0  0  0
   -2.9490   -0.4730    1.8540 C   0  0  0  0  0
   -4.6200    4.1180   -0.3960 N   0  0  0  0  0
   -4.7410    5.1330   -1.4380 C   0  0  0  0  0
   -3.6060    6.1490   -1.3420 C   0  0  0  0  0
   -3.1320    6.6670   -2.3560 O   0  0  0  0  0
   -6.0920    5.8450   -1.3320 C   0  0  0  0  0
   -6.3390    6.8550   -2.4420 C   0  0  0  0  0
   -7.7060    7.5050   -2.3490 C   0  0  0  0  0
   -8.2590    7.6620   -1.2610 O   0  0  0  0  0
   -8.2580    7.8870   -3.4950 N   0  0  0  0  0
   -3.1720    6.4250   -0.1160 N   0  0  0  0  0
   -2.0930    7.3760    0.1190 C   0  0  0  0  0
   -0.7970    6.8960   -0.5270 C   0  0  0  0  0
   -0.1820    7.6120   -1.3200 O   0  0  0  0  0
   -1.8880    7.5800    1.6220 C   0  0  0  0  0
   -0.7380    8.5180    1.9580 C   0  0  0  0  0
   -0.5350    8.7600    3.7330 S   0  0  0  0  0
   -2.0900    9.5440    4.1450 C   0  0  0  0  0
   -0.3890    5.6770   -0.1850 N   0  0  0  0  0
    0.8340    5.1020   -0.7290 C   0  0  0  0  0
    0.7360    4.9560   -2.2440 C   0  0  0  0  0
    1.7450    5.0070   -2.9480 O   0  0  0  0  0
    1.1150    3.7400   -0.0880 C   0  0  0  0  0
    1.1060    3.7230    1.4430 C   0  0  0  0  0
    1.2680    2.3030    1.9620 C   0  0  0  0  0
    2.2040    4.6210    1.9940 C   0  0  0  0  0
   -0.4840    4.7740   -2.7410 N   0  0  0  0  0
   -0.7110    4.6250   -4.1740 C   0  0  0  0  0
   -0.3380    5.9030   -4.9190 C   0  0  0  0  0
    0.4380    5.8700   -5.8750 O   0  0  0  0  0
   -2.1720    4.2660   -4.4540 C   0  0  0  0  0
   -2.5720    2.8320   -4.0970 C   0  0  0  0  0
   -4.0690    2.6370   -4.2760 C   0  0  0  0  0
   -1.8010    1.8310   -4.9480 C   0  0  0  0  0
   -0.8950    7.0260   -4.4760 N   0  0  0  0  0
   -0.6150    8.3150   -5.1010 C   0  0  0  0  0
    0.8620    8.6710   -4.9730 C   0  0  0  0  0
    1.4570    9.2340   -5.8930 O   0  0  0  0  0
   -1.4710    9.4130   -4.4680 C   0  0  0  0  0
   -2.9650    9.1920   -4.6330 C   0  0  0  0  0
   -3.3800    9.0830   -6.0870 C   0  0  0  0  0
   -3.5950   10.1360   -6.7240 O   0  0  0  0  0
   -3.4890    7.9450   -6.5900 O   0  0  0  0  0
    1.4480    8.3400   -3.8260 N   0  0  0  0  0
    2.8570    8.6220   -3.5760 C   0  0  0  0  0
    3.7450    7.9370   -4.6100 C   0  0  0  0  0
    4.6170    8.5670   -5.2110 O   0  0  0  0  0
    3.2420    8.1810   -2.1720 C   0  0  0  0  0
    3.5160    6.6420   -4.8120 N   0  0  0  0  0
    4.2940    5.8670   -5.7720 C   0  0  0  0  0
    4.0770    6.3730   -7.1940 C   0  0  0  0  0
    5.0210    6.4720   -7.9770 O   0  0  0  0  0
    3.9360    4.3920   -5.6750 C   0  0  0  0  0
    2.8280    6.6920   -7.5220 N   0  0  0  0  0
    2.4900    7.1870   -8.8520 C   0  0  0  0  0
    3.1150    8.5560   -9.0910 C   0  0  0  0  0
    3.3600    8.9500  -10.2310 O   0  0  0  0  0
    0.9720    7.2700   -9.0220 C   0  0  0  0  0
    0.5710    7.7110  -10.4160 C   0  0  0  0  0
    0.4450    8.9340  -10.6390 O   0  0  0  0  0
    0.3800    6.8340  -11.2840 O   0  0  0  0  0
    3.3690    9.2750   -8.0030 N   0  0  0  0  0
    3.9700   10.6010   -8.0800 C   0  0  0  0  0
    5.4560   10.5040   -8.4170 C   0  0  0  0  0
    5.9110   11.0490   -9.4230 O   0  0  0  0  0
    3.7750   11.3410   -6.7530 C   0  0  0  0  0
    4.5100   12.6610   -6.6700 C   0  0  0  0  0
    3.9250   13.8370   -7.1240 C   0  0  0  0  0
    5.7900   12.7300   -6.1340 C   0  0  0  0  0
    4.5960   15.0430   -7.0460 C   0  0  0  0  0
    6.4660   13.9320   -6.0530 C   0  0  0  0  0
    5.8650   15.0850   -6.5100 C   0  0  0  0  0
    6.5360   16.2830   -6.4300 O   0  0  0  0  0
    6.2050    9.8090   -7.5660 N   0  0  0  0  0
    7.6410    9.6400   -7.7670 C   0  0  0  0  0
    7.9280    8.9670   -9.1040 C   0  0  0  0  0
    8.8760    9.3280   -9.8030 O   0  0  0  0  0
    8.2360    8.8060   -6.6310 C   0  0  0  0  0
    7.8670    9.2740   -5.2250 C   0  0  0  0  0
    8.3010    8.2490   -4.1890 C   0  0  0  0  0
    8.4950   10.6290   -4.9300 C   0  0  0  0  0
    7.1030    7.9860   -9.4500 N   0  0  0  0  0
    7.2630    7.2550  -10.7030 C   0  0  0  0  0
    7.0860    8.1810  -11.9040 C   0  0  0  0  0
    7.9930    8.3300  -12.7230 O   0  0  0  0  0
    6.2590    6.1020  -10.7760 C   0  0  0  0  0
    6.3970    5.2510  -12.0280 C   0  0  0  0  0
    5.4570    4.0610  -12.0310 C   0  0  0  0  0
    4.2800    4.2360  -12.4100 O   0  0  0  0  0
    5.8980    2.9560  -11.6520 O   0  0  0  0  0
    5.9130    8.7990  -12.0020 N   0  0  0  0  0
    5.6170    9.7110  -13.1020 C   0  0  0  0  0
    4.5460   10.7190  -12.6960 C   0  0  0  0  0
    3.3480   10.4070  -12.8590 O   0  0  0  0  0
    5.1590    8.9260  -14.3340 C   0  0  0  0  0
    4.9340    9.7930  -15.5630 C   0  0  0  0  0
    4.4770    8.9630  -16.7520 C   0  0  0  0  0
    5.4500    7.9320  -17.1050 N   0  0  0  0  0
    5.2740    7.0550  -18.0890 C   0  0  0  0  0
    4.1640    7.0800  -18.8180 N   0  0  0  0  0
    6.2070    6.1470  -18.3430 N   0  0  0  0  0
    4.9160   11.8130  -12.2200 O   0  0  0  0  0
   -9.2400    9.4172    4.5354 H   0  0  0  0  0
   -9.3225    9.5296    2.8748 H   0  0  0  0  0
  -10.6122    8.9163    3.7335 H   0  0  0  0  0
   -9.3381    7.0321    4.4369 H   0  0  0  0  0
   -9.2051    7.5190    1.4466 H   0  0  0  0  0
  -10.6323    6.8711    2.3803 H   0  0  0  0  0
   -9.2987    4.9265    2.9846 H   0  0  0  0  0
   -7.9482    5.5569    1.9724 H   0  0  0  0  0
   -9.2173    3.8588    0.7816 H   0  0  0  0  0
   -9.4218    5.4811    0.0150 H   0  0  0  0  0
  -11.5409    5.1093    1.8336 H   0  0  0  0  0
  -10.3073    3.6924   -1.1573 H   0  0  0  0  0
  -13.7581    3.6314   -0.4406 H   0  0  0  0  0
  -13.5908    4.4692    1.1058 H   0  0  0  0  0
   -7.4368    6.6525    5.3059 H   0  0  0  0  0
   -5.0127    7.2541    3.6778 H   0  0  0  0  0
   -4.6314    8.9927    5.0366 H   0  0  0  0  0
   -4.1270    7.6986    6.2252 H   0  0  0  0  0
   -6.8790    8.8941    6.0357 H   0  0  0  0  0
   -5.5787    9.4524    7.1744 H   0  0  0  0  0
   -4.1705    6.8798    8.1175 H   0  0  0  0  0
   -4.7530    8.1430    9.2294 H   0  0  0  0  0
   -5.1415    6.4335    9.5420 H   0  0  0  0  0
   -4.5137    5.1813    3.1903 H   0  0  0  0  0
   -3.2666    3.6015    5.2484 H   0  0  0  0  0
   -5.5538    3.0777    5.8790 H   0  0  0  0  0
   -4.7959    1.6340    5.0935 H   0  0  0  0  0
   -7.8746    3.6861    3.2361 H   0  0  0  0  0
   -6.9274    4.4526    4.5154 H   0  0  0  0  0
   -4.9497    3.4003    2.0940 H   0  0  0  0  0
   -2.4956    2.0483    1.0721 H   0  0  0  0  0
   -5.3762    1.4464    0.2793 H   0  0  0  0  0
   -4.9250   -0.7818    1.1715 H   0  0  0  0  0
   -4.7213    0.5177    2.4400 H   0  0  0  0  0
   -3.8800    1.3259   -1.6507 H   0  0  0  0  0
   -2.7739    0.2649   -0.7440 H   0  0  0  0  0
   -4.4093   -0.3025   -1.1617 H   0  0  0  0  0
   -2.5153   -0.9198    0.9594 H   0  0  0  0  0
   -2.3167    0.3466    2.1955 H   0  0  0  0  0
   -3.0243   -1.2265    2.6380 H   0  0  0  0  0
   -5.4001    3.9653    0.2432 H   0  0  0  0  0
   -4.6769    4.6351   -2.4055 H   0  0  0  0  0
   -6.1004    6.3896   -0.3878 H   0  0  0  0  0
   -6.8685    5.0836   -1.4052 H   0  0  0  0  0
   -6.2841    6.3263   -3.3936 H   0  0  0  0  0
   -5.5884    7.6403   -2.3527 H   0  0  0  0  0
   -9.1766    8.3303   -3.4958 H   0  0  0  0  0
   -7.7633    7.7371   -4.3743 H   0  0  0  0  0
   -3.6056    5.9589    0.6810 H   0  0  0  0  0
   -2.3704    8.3276   -0.3344 H   0  0  0  0  0
   -1.6537    6.6075    2.0549 H   0  0  0  0  0
   -2.8001    8.0259    2.0188 H   0  0  0  0  0
   -0.9549    9.4878    1.5103 H   0  0  0  0  0
    0.1800    8.0738    1.5733 H   0  0  0  0  0
   -2.1859   10.4744    3.5853 H   0  0  0  0  0
   -2.9118    8.8764    3.8862 H   0  0  0  0  0
   -2.1161    9.7571    5.2137 H   0  0  0  0  0
   -0.9455    5.1321    0.4736 H   0  0  0  0  0
    1.6579    5.7774   -0.4987 H   0  0  0  0  0
    2.1193    3.4507   -0.3974 H   0  0  0  0  0
    0.3171    3.0719   -0.4122 H   0  0  0  0  0
    0.1446    4.1065    1.7848 H   0  0  0  0  0
    0.4460    1.6878    1.5961 H   0  0  0  0  0
    2.2147    1.8942    1.6088 H   0  0  0  0  0
    1.2591    2.3127    3.0519 H   0  0  0  0  0
    3.1726    4.2664    1.6416 H   0  0  0  0  0
    2.0427    5.6427    1.6503 H   0  0  0  0  0
    2.1805    4.5948    3.0834 H   0  0  0  0  0
   -1.2803    4.7377   -2.1046 H   0  0  0  0  0
   -0.0744    3.8155   -4.5312 H   0  0  0  0  0
   -2.3198    4.3734   -5.5286 H   0  0  0  0  0
   -2.7800    4.9239   -3.8330 H   0  0  0  0  0
   -2.3219    2.6579   -3.0505 H   0  0  0  0  0
   -4.6045    3.3274   -3.6244 H   0  0  0  0  0
   -4.3380    2.8324   -5.3140 H   0  0  0  0  0
   -4.3340    1.6118   -4.0175 H   0  0  0  0  0
   -2.0198    2.0069   -6.0012 H   0  0  0  0  0
   -0.7323    1.9537   -4.7722 H   0  0  0  0  0
   -2.1012    0.8187   -4.6773 H   0  0  0  0  0
   -1.5328    6.9859   -3.6810 H   0  0  0  0  0
   -0.8633    8.2369   -6.1595 H   0  0  0  0  0
   -1.2224   10.3494   -4.9674 H   0  0  0  0  0
   -1.2578    9.4177   -3.3991 H   0  0  0  0  0
   -3.4811   10.0488   -4.1998 H   0  0  0  0  0
   -3.2224    8.2550   -4.1392 H   0  0  0  0  0
   -3.4534   10.8913   -6.1486 H   0  0  0  0  0
    0.8979    7.8770   -3.1025 H   0  0  0  0  0
    3.0080    9.6981   -3.6611 H   0  0  0  0  0
    2.6357    8.7202   -1.4441 H   0  0  0  0  0
    3.0689    7.1098   -2.0687 H   0  0  0  0  0
    4.2963    8.3981   -2.0007 H   0  0  0  0  0
    2.7775    6.1793   -4.2820 H   0  0  0  0  0
    5.3492    5.9905   -5.5281 H   0  0  0  0  0
    4.1518    4.0325   -4.6689 H   0  0  0  0  0
    2.8751    4.2621   -5.8889 H   0  0  0  0  0
    4.5254    3.8281   -6.3979 H   0  0  0  0  0
    2.0888    6.5880   -6.8269 H   0  0  0  0  0
    2.8897    6.4875   -9.5862 H   0  0  0  0  0
    0.5925    8.0057   -8.3129 H   0  0  0  0  0
    0.5581    6.2764   -8.8500 H   0  0  0  0  0
    0.6382    9.4258   -9.8375 H   0  0  0  0  0
    3.1370    8.8884   -7.0881 H   0  0  0  0  0
    3.4760   11.1591   -8.8754 H   0  0  0  0  0
    4.1708   10.7006   -5.9647 H   0  0  0  0  0
    2.7110   11.5570   -6.6568 H   0  0  0  0  0
    2.9214   13.8079   -7.5482 H   0  0  0  0  0
    6.2688   11.8204   -5.7713 H   0  0  0  0  0
    4.1236   15.9567   -7.4068 H   0  0  0  0  0
    7.4698   13.9684   -5.6297 H   0  0  0  0  0
    7.3993   16.1392   -6.0355 H   0  0  0  0  0
    5.7643    9.3825   -6.7509 H   0  0  0  0  0
    8.1019   10.6278   -7.7705 H   0  0  0  0  0
    9.3197    8.8871   -6.7153 H   0  0  0  0  0
    7.8396    7.7966   -6.7408 H   0  0  0  0  0
    6.7833    9.3783   -5.1724 H   0  0  0  0  0
    7.8033    7.2999   -4.3881 H   0  0  0  0  0
    9.3810    8.1130   -4.2446 H   0  0  0  0  0
    8.0287    8.6019   -3.1943 H   0  0  0  0  0
    9.5796   10.5490   -5.0032 H   0  0  0  0  0
    8.1337   11.3606   -5.6528 H   0  0  0  0  0
    8.2197   10.9442   -3.9235 H   0  0  0  0  0
    6.3374    7.7367   -8.8238 H   0  0  0  0  0
    8.2741    6.8489  -10.7308 H   0  0  0  0  0
    5.2605    6.5391  -10.7871 H   0  0  0  0  0
    6.4435    5.4540   -9.9192 H   0  0  0  0  0
    7.4182    4.8718  -12.0648 H   0  0  0  0  0
    6.1504    5.8754  -12.8867 H   0  0  0  0  0
    4.1574    5.1560  -12.6551 H   0  0  0  0  0
    5.2019    8.6314  -11.2902 H   0  0  0  0  0
    6.5285   10.2558  -13.3477 H   0  0  0  0  0
    4.2061    8.4582  -14.0865 H   0  0  0  0  0
    5.9471    8.2135  -14.5778 H   0  0  0  0  0
    5.8753   10.2782  -15.8211 H   0  0  0  0  0
    4.1591   10.5243  -15.3333 H   0  0  0  0  0
    4.3594    9.6283  -17.6074 H   0  0  0  0  0
    3.5410    8.4719  -16.4857 H   0  0  0  0  0
    6.3142    7.8820  -16.5656 H   0  0  0  0  0
    4.0319    6.4029  -19.5693 H   0  0  0  0  0
    3.4437    7.7763  -18.6265 H   0  0  0  0  0
    7.0595    6.1214  -17.7835 H   0  0  0  0  0
    5.8751   11.8377  -12.1855 H   0  0  0  0  0
  1  2  1  0  0  0
  2  3  1  0  0  0
  2  5  1  0  0  0
  3  4  2  0  0  0
  3 12  1  0  0  0
  5  6  1  0  0  0
  6  7  1  0  0  0
  7  8  1  0  0  0
  8  9  1  0  0  0
  9 10  2  0  0  0
  9 11  1  0  0  0
 12 13  1  0  0  0
 13 14  1  0  0  0
 13 16  1  0  0  0
 14 15  2  0  0  0
 14 20  1  0  0  0
 16 17  1  0  0  0
 17 18  1  0  0  0
 18 19  1  0  0  0
 20 21  1  0  0  0
 21 22  1  0  0  0
 21 24  1  0  0  0
 22 23  2  0  0  0
 22 28  1  0  0  0
 24 25  1  0  0  0
 25 26  2  0  0  0
 25 27  1  0  0  0
 28 29  1  0  0  0
 29 30  1  0  0  0
 29 32  1  0  0  0
 30 31  2  0  0  0
 30 36  1  0  0  0
 32 33  1  0  0  0
 32 34  1  0  0  0
 33 35  1  0  0  0
 36 37  1  0  0  0
 37 38  1  0  0  0
 37 40  1  0  0  0
 38 39  2  0  0  0
 38 45  1  0  0  0
 40 41  1  0  0  0
 41 42  1  0  0  0
 42 43  2  0  0  0
 42 44  1  0  0  0
 45 46  1  0  0  0
 46 47  1  0  0  0
 46 49  1  0  0  0
 47 48  2  0  0  0
 47 53  1  0  0  0
 49 50  1  0  0  0
 50 51  1  0  0  0
 51 52  1  0  0  0
 53 54  1  0  0  0
 54 55  1  0  0  0
 54 57  1  0  0  0
 55 56  2  0  0  0
 55 61  1  0  0  0
 57 58  1  0  0  0
 58 59  1  0  0  0
 58 60  1  0  0  0
 61 62  1  0  0  0
 62 63  1  0  0  0
 62 65  1  0  0  0
 63 64  2  0  0  0
 63 69  1  0  0  0
 65 66  1  0  0  0
 66 67  1  0  0  0
 66 68  1  0  0  0
 69 70  1  0  0  0
 70 71  1  0  0  0
 70 73  1  0  0  0
 71 72  2  0  0  0
 71 78  1  0  0  0
 73 74  1  0  0  0
 74 75  1  0  0  0
 75 76  1  0  0  0
 75 77  2  0  0  0
 78 79  1  0  0  0
 79 80  1  0  0  0
 79 82  1  0  0  0
 80 81  2  0  0  0
 80 83  1  0  0  0
 83 84  1  0  0  0
 84 85  1  0  0  0
 84 87  1  0  0  0
 85 86  2  0  0  0
 85 88  1  0  0  0
 88 89  1  0  0  0
 89 90  1  0  0  0
 89 92  1  0  0  0
 90 91  2  0  0  0
 90 96  1  0  0  0
 92 93  1  0  0  0
 93 94  1  0  0  0
 93 95  2  0  0  0
 96 97  1  0  0  0
 97 98  1  0  0  0
 97100  1  0  0  0
 98 99  2  0  0  0
 98108  1  0  0  0
100101  1  0  0  0
101102  4  0  0  0
101103  4  0  0  0
102104  4  0  0  0
103105  4  0  0  0
104106  4  0  0  0
105106  4  0  0  0
106107  1  0  0  0
108109  1  0  0  0
109110  1  0  0  0
109112  1  0  0  0
110111  2  0  0  0
110116  1  0  0  0
112113  1  0  0  0
113114  1  0  0  0
113115  1  0  0  0
116117  1  0  0  0
117118  1  0  0  0
117120  1  0  0  0
118119  2  0  0  0
118125  1  0  0  0
120121  1  0  0  0
121122  1  0  0  0
122123  1  0  0  0
122124  2  0  0  0
125126  1  0  0  0
126127  1  0  0  0
126129  1  0  0  0
127128  2  0  0  0
127136  1  0  0  0
129130  1  0  0  0
130131  1  0  0  0
131132  1  0  0  0
132133  1  0  0  0
133134  1  0  0  0
133135  2  0  0  0
  1137  1  0  0  0
  1138  1  0  0  0
  1139  1  0  0  0
  2140  1  0  0  0
  5141  1  0  0  0
  5142  1  0  0  0
  6143  1  0  0  0
  6144  1  0  0  0
  7145  1  0  0  0
  7146  1  0  0  0
  8147  1  0  0  0
 10148  1  0  0  0
 11149  1  0  0  0
 11150  1  0  0  0
 12151  1  0  0  0
 13152  1  0  0  0
 16153  1  0  0  0
 16154  1  0  0  0
 17155  1  0  0  0
 17156  1  0  0  0
 19157  1  0  0  0
 19158  1  0  0  0
 19159  1  0  0  0
 20160  1  0  0  0
 21161  1  0  0  0
 24162  1  0  0  0
 24163  1  0  0  0
 27164  1  0  0  0
 27165  1  0  0  0
 28166  1  0  0  0
 29167  1  0  0  0
 32168  1  0  0  0
 33169  1  0  0  0
 33170  1  0  0  0
 34171  1  0  0  0
 34172  1  0  0  0
 34173  1  0  0  0
 35174  1  0  0  0
 35175  1  0  0  0
 35176  1  0  0  0
 36177  1  0  0  0
 37178  1  0  0  0
 40179  1  0  0  0
 40180  1  0  0  0
 41181  1  0  0  0
 41182  1  0  0  0
 44183  1  0  0  0
 44184  1  0  0  0
 45185  1  0  0  0
 46186  1  0  0  0
 49187  1  0  0  0
 49188  1  0  0  0
 50189  1  0  0  0
 50190  1  0  0  0
 52191  1  0  0  0
 52192  1  0  0  0
 52193  1  0  0  0
 53194  1  0  0  0
 54195  1  0  0  0
 57196  1  0  0  0
 57197  1  0  0  0
 58198  1  0  0  0
 59199  1  0  0  0
 59200  1  0  0  0
 59201  1  0  0  0
 60202  1  0  0  0
 60203  1  0  0  0
 60204  1  0  0  0
 61205  1  0  0  0
 62206  1  0  0  0
 65207  1  0  0  0
 65208  1  0  0  0
 66209  1  0  0  0
 67210  1  0  0  0
 67211  1  0  0  0
 67212  1  0  0  0
 68213  1  0  0  0
 68214  1  0  0  0
 68215  1  0  0  0
 69216  1  0  0  0
 70217  1  0  0  0
 73218  1  0  0  0
 73219  1  0  0  0
 74220  1  0  0  0
 74221  1  0  0  0
 76222  1  0  0  0
 78223  1  0  0  0
 79224  1  0  0  0
 82225  1  0  0  0
 82226  1  0  0  0
 82227  1  0  0  0
 83228  1  0  0  0
 84229  1  0  0  0
 87230  1  0  0  0
 87231  1  0  0  0
 87232  1  0  0  0
 88233  1  0  0  0
 89234  1  0  0  0
 92235  1  0  0  0
 92236  1  0  0  0
 94237  1  0  0  0
 96238  1  0  0  0
 97239  1  0  0  0
100240  1  0  0  0
100241  1  0  0  0
102242  1  0  0  0
103243  1  0  0  0
104244  1  0  0  0
105245  1  0  0  0
107246  1  0  0  0
108247  1  0  0  0
109248  1  0  0  0
112249  1  0  0  0
112250  1  0  0  0
113251  1  0  0  0
114252  1  0  0  0
114253  1  0  0  0
114254  1  0  0  0
115255  1  0  0  0
115256  1  0  0  0
115257  1  0  0  0
116258  1  0  0  0
117259  1  0  0  0
120260  1  0  0  0
120261  1  0  0  0
121262  1  0  0  0
121263  1  0  0  0
123264  1  0  0  0
125265  1  0  0  0
126266  1  0  0  0
129267  1  0  0  0
129268  1  0  0  0
130269  1  0  0  0
130270  1  0  0  0
131271  1  0  0  0
131272  1  0  0  0
132273  1  0  0  0
134274  1  0  0  0
134275  1  0  0  0
135276  1  0  0  0
136277  1  0  0  0
M  END
$$$$
