### 
### Created by X-TOOL on Mon Sep 10 21:12:52 2018
### 

@<TRIPOS>MOLECULE
1s5q_ligand
  275   275     1     0     0
SMALL
GAST_HUCK


@<TRIPOS>ATOM
      1 N          -9.5950    8.9760    3.6870 N.4       1 ARG         0.2379
      2 CA         -9.0250    7.6080    3.5660 C.3       1 ARG         0.0651
      3 C          -7.5000    7.6530    3.5390 C.2       1 ARG         0.2267
      4 O          -6.9010    8.1900    2.6070 O.2       1 ARG        -0.3907
      5 CB         -9.5470    6.9290    2.2970 C.3       1 ARG         0.0110
      6 CG         -9.0290    5.5140    2.1070 C.3       1 ARG        -0.0125
      7 CD         -9.6410    4.8580    0.8820 C.3       1 ARG         0.0629
      8 NE        -11.0910    4.7310    1.0000 N.pl3     1 ARG        -0.2723
      9 CZ        -11.8580    4.1500    0.0820 C.cat     1 ARG         0.2882
     10 NH1       -11.3160    3.6400   -1.0150 N.pl3     1 ARG        -0.2849
     11 NH2       -13.1700    4.0780    0.2630 N.pl3     1 ARG        -0.2849
     12 N          -6.8800    7.0820    4.5670 N.am      1 MET        -0.2610
     13 CA         -5.4240    7.0530    4.6670 C.3       1 MET         0.1318
     14 C          -4.9350    5.6790    5.1180 C.2       1 MET         0.2040
     15 O          -4.9480    5.3640    6.3070 O.2       1 MET        -0.3944
     16 CB         -4.9340    8.1340    5.6360 C.3       1 MET        -0.0034
     17 CG         -5.9970    8.6170    6.6130 C.3       1 MET        -0.0024
     18 SD         -6.4890    7.3480    7.7970 S.3       1 MET        -0.1639
     19 CE         -4.9910    7.1850    8.7670 C.3       1 MET        -0.0181
     20 N          -4.5040    4.8620    4.1590 N.am      1 ASN        -0.2616
     21 CA         -4.0180    3.5200    4.4630 C.3       1 ASN         0.1476
     22 C          -3.3570    2.8790    3.2440 C.2       1 ASN         0.2063
     23 O          -2.2530    2.3420    3.3370 O.2       1 ASN        -0.3942
     24 CB         -5.1730    2.6470    4.9530 C.3       1 ASN         0.0773
     25 CG         -6.3130    2.5910    3.9560 C.2       1 ASN         0.1780
     26 OD1        -6.4760    1.6070    3.2340 O.2       1 ASN        -0.3970
     27 ND2        -7.0990    3.6590    3.8980 N.am      1 ASN        -0.3007
     28 N          -4.0400    2.9390    2.1050 N.am      1 ILE        -0.2633
     29 CA         -3.5200    2.3610    0.8700 C.3       1 ILE         0.1335
     30 C          -3.5160    3.3870   -0.2600 C.2       1 ILE         0.2042
     31 O          -2.5340    3.5130   -0.9910 O.2       1 ILE        -0.3944
     32 CB         -4.3450    1.1300    0.4360 C.3       1 ILE        -0.0037
     33 CG1        -4.3310    0.0580    1.5320 C.3       1 ILE        -0.0491
     34 CG2        -3.8140    0.5640   -0.8740 C.3       1 ILE        -0.0582
     35 CD1        -2.9490   -0.4730    1.8540 C.3       1 ILE        -0.0648
     36 N          -4.6200    4.1180   -0.3960 N.am      1 GLN        -0.2636
     37 CA         -4.7410    5.1330   -1.4380 C.3       1 GLN         0.1330
     38 C          -3.6060    6.1490   -1.3420 C.2       1 GLN         0.2040
     39 O          -3.1320    6.6670   -2.3560 O.2       1 GLN        -0.3944
     40 CB         -6.0920    5.8450   -1.3320 C.3       1 GLN         0.0045
     41 CG         -6.3390    6.8550   -2.4420 C.3       1 GLN         0.0412
     42 CD         -7.7060    7.5050   -2.3490 C.2       1 GLN         0.1737
     43 OE1        -8.2590    7.6620   -1.2610 O.2       1 GLN        -0.3973
     44 NE2        -8.2580    7.8870   -3.4950 N.am      1 GLN        -0.3009
     45 N          -3.1720    6.4250   -0.1160 N.am      1 MET        -0.2637
     46 CA         -2.0930    7.3760    0.1190 C.3       1 MET         0.1317
     47 C          -0.7970    6.8960   -0.5270 C.2       1 MET         0.2039
     48 O          -0.1820    7.6120   -1.3200 O.2       1 MET        -0.3944
     49 CB         -1.8880    7.5800    1.6220 C.3       1 MET        -0.0034
     50 CG         -0.7380    8.5180    1.9580 C.3       1 MET        -0.0024
     51 SD         -0.5350    8.7600    3.7330 S.3       1 MET        -0.1639
     52 CE         -2.0900    9.5440    4.1450 C.3       1 MET        -0.0181
     53 N          -0.3890    5.6770   -0.1850 N.am      1 LEU        -0.2637
     54 CA          0.8340    5.1020   -0.7290 C.3       1 LEU         0.1312
     55 C           0.7360    4.9560   -2.2440 C.2       1 LEU         0.2039
     56 O           1.7450    5.0070   -2.9480 O.2       1 LEU        -0.3944
     57 CB          1.1150    3.7400   -0.0880 C.3       1 LEU        -0.0101
     58 CG          1.1060    3.7230    1.4430 C.3       1 LEU        -0.0425
     59 CD1         1.2680    2.3030    1.9620 C.3       1 LEU        -0.0625
     60 CD2         2.2040    4.6210    1.9940 C.3       1 LEU        -0.0625
     61 N          -0.4840    4.7740   -2.7410 N.am      1 LEU        -0.2637
     62 CA         -0.7110    4.6250   -4.1740 C.3       1 LEU         0.1312
     63 C          -0.3380    5.9030   -4.9190 C.2       1 LEU         0.2039
     64 O           0.4380    5.8700   -5.8750 O.2       1 LEU        -0.3944
     65 CB         -2.1720    4.2660   -4.4540 C.3       1 LEU        -0.0101
     66 CG         -2.5720    2.8320   -4.0970 C.3       1 LEU        -0.0425
     67 CD1        -4.0690    2.6370   -4.2760 C.3       1 LEU        -0.0625
     68 CD2        -1.8010    1.8310   -4.9480 C.3       1 LEU        -0.0625
     69 N          -0.8950    7.0260   -4.4760 N.am      1 GLU        -0.2636
     70 CA         -0.6150    8.3150   -5.1010 C.3       1 GLU         0.1325
     71 C           0.8620    8.6710   -4.9730 C.2       1 GLU         0.2040
     72 O           1.4570    9.2340   -5.8930 O.2       1 GLU        -0.3944
     73 CB         -1.4710    9.4130   -4.4680 C.3       1 GLU        -0.0008
     74 CG         -2.9650    9.1920   -4.6330 C.3       1 GLU         0.0044
     75 CD         -3.3800    9.0830   -6.0870 C.2       1 GLU         0.0350
     76 OE1        -3.5950   10.1360   -6.7240 O.co2     1 GLU        -0.5690
     77 OE2        -3.4890    7.9450   -6.5900 O.co2     1 GLU        -0.5690
     78 N           1.4480    8.3400   -3.8260 N.am      1 ALA        -0.2640
     79 CA          2.8570    8.6220   -3.5760 C.3       1 ALA         0.1282
     80 C           3.7450    7.9370   -4.6100 C.2       1 ALA         0.2036
     81 O           4.6170    8.5670   -5.2110 O.2       1 ALA        -0.3944
     82 CB          3.2420    8.1810   -2.1720 C.3       1 ALA        -0.0244
     83 N           3.5160    6.6420   -4.8120 N.am      1 ALA        -0.2640
     84 CA          4.2940    5.8670   -5.7720 C.3       1 ALA         0.1282
     85 C           4.0770    6.3730   -7.1940 C.2       1 ALA         0.2037
     86 O           5.0210    6.4720   -7.9770 O.2       1 ALA        -0.3944
     87 CB          3.9360    4.3920   -5.6750 C.3       1 ALA        -0.0244
     88 N           2.8280    6.6920   -7.5220 N.am      1 ASP        -0.2622
     89 CA          2.4900    7.1870   -8.8520 C.3       1 ASP         0.1423
     90 C           3.1150    8.5560   -9.0910 C.2       1 ASP         0.2057
     91 O           3.3600    8.9500  -10.2310 O.2       1 ASP        -0.3943
     92 CB          0.9720    7.2700   -9.0220 C.3       1 ASP         0.0406
     93 CG          0.5710    7.7110  -10.4160 C.2       1 ASP         0.0393
     94 OD1         0.4450    8.9340  -10.6390 O.co2     1 ASP        -0.5688
     95 OD2         0.3800    6.8340  -11.2840 O.co2     1 ASP        -0.5688
     96 N           3.3690    9.2750   -8.0030 N.am      1 TYR        -0.2620
     97 CA          3.9700   10.6010   -8.0800 C.3       1 TYR         0.1390
     98 C           5.4560   10.5040   -8.4170 C.2       1 TYR         0.2057
     99 O           5.9110   11.0490   -9.4230 O.2       1 TYR        -0.3942
    100 CB          3.7750   11.3410   -6.7530 C.3       1 TYR         0.0163
    101 CG          4.5100   12.6610   -6.6700 C.ar      1 TYR        -0.0493
    102 CD1         3.9250   13.8370   -7.1240 C.ar      1 TYR        -0.0685
    103 CD2         5.7900   12.7300   -6.1340 C.ar      1 TYR        -0.0685
    104 CE1         4.5960   15.0430   -7.0460 C.ar      1 TYR        -0.0398
    105 CE2         6.4660   13.9320   -6.0530 C.ar      1 TYR        -0.0398
    106 CZ          5.8650   15.0850   -6.5100 C.ar      1 TYR         0.0805
    107 OH          6.5360   16.2830   -6.4300 O.3       1 TYR        -0.3376
    108 N           6.2050    9.8090   -7.5660 N.am      1 LEU        -0.2636
    109 CA          7.6410    9.6400   -7.7670 C.3       1 LEU         0.1312
    110 C           7.9280    8.9670   -9.1040 C.2       1 LEU         0.2039
    111 O           8.8760    9.3280   -9.8030 O.2       1 LEU        -0.3944
    112 CB          8.2360    8.8060   -6.6310 C.3       1 LEU        -0.0101
    113 CG          7.8670    9.2740   -5.2250 C.3       1 LEU        -0.0425
    114 CD1         8.3010    8.2490   -4.1890 C.3       1 LEU        -0.0625
    115 CD2         8.4950   10.6290   -4.9300 C.3       1 LEU        -0.0625
    116 N           7.1030    7.9860   -9.4500 N.am      1 GLU        -0.2636
    117 CA          7.2630    7.2550  -10.7030 C.3       1 GLU         0.1324
    118 C           7.0860    8.1810  -11.9040 C.2       1 GLU         0.2034
    119 O           7.9930    8.3300  -12.7230 O.2       1 GLU        -0.3944
    120 CB          6.2590    6.1020  -10.7760 C.3       1 GLU        -0.0008
    121 CG          6.3970    5.2510  -12.0280 C.3       1 GLU         0.0044
    122 CD          5.4570    4.0610  -12.0310 C.2       1 GLU         0.0350
    123 OE1         4.2800    4.2360  -12.4100 O.co2     1 GLU        -0.5690
    124 OE2         5.8980    2.9560  -11.6520 O.co2     1 GLU        -0.5690
    125 N           5.9130    8.7990  -12.0020 N.am      1 ARG        -0.2695
    126 CA          5.6170    9.7110  -13.1020 C.3       1 ARG         0.0945
    127 C           4.5460   10.7190  -12.6960 C.2       1 ARG         0.0601
    128 O           3.3480   10.4070  -12.8590 O.co2     1 ARG        -0.5666
    129 CB          5.1590    8.9260  -14.3340 C.3       1 ARG        -0.0148
    130 CG          4.9340    9.7930  -15.5630 C.3       1 ARG        -0.0162
    131 CD          4.4770    8.9630  -16.7520 C.3       1 ARG         0.0627
    132 NE          5.4500    7.9320  -17.1050 N.pl3     1 ARG        -0.2723
    133 CZ          5.2740    7.0550  -18.0890 C.cat     1 ARG         0.2882
    134 NH1         4.1640    7.0800  -18.8180 N.pl3     1 ARG        -0.2849
    135 NH2         6.2070    6.1470  -18.3430 N.pl3     1 ARG        -0.2849
    136 OXT         4.9160   11.8130  -12.2200 O.co2     1 ARG        -0.5666
    137 H1        -10.6013    8.9205    3.7027 H         1 ARG         0.2015
    138 H2         -9.3015    9.5331    2.8999 H         1 ARG         0.2015
    139 H3         -9.2686    9.4017    4.5404 H         1 ARG         0.2015
    140 H4         -9.3430    7.0185    4.4386 H         1 ARG         0.1098
    141 H5         -9.2400    7.5310    1.4291 H         1 ARG         0.0347
    142 H6        -10.6452    6.8932    2.3484 H         1 ARG         0.0347
    143 H7         -9.2826    4.9180    2.9960 H         1 ARG         0.0302
    144 H8         -7.9361    5.5464    1.9868 H         1 ARG         0.0302
    145 H9         -9.2049    3.8555    0.7601 H         1 ARG         0.0689
    146 H10        -9.4083    5.4692   -0.0025 H         1 ARG         0.0689
    147 H11       -11.5453    5.1130    1.8418 H         1 ARG         0.2642
    148 H12       -11.9134    3.1908   -1.7237 H         1 ARG         0.2615
    149 H13       -10.2974    3.6929   -1.1587 H         1 ARG         0.2615
    150 H14       -13.5949    4.4731    1.1140 H         1 ARG         0.2615
    151 H15       -13.7639    3.6270   -0.4475 H         1 ARG         0.2615
    152 H16        -7.4258    6.6609    5.2914 H         1 MET         0.1884
    153 H17        -5.0044    7.2608    3.6716 H         1 MET         0.0800
    154 H18        -4.5885    8.9961    5.0466 H         1 MET         0.0320
    155 H19        -4.0928    7.7245    6.2146 H         1 MET         0.0320
    156 H20        -6.8843    8.9270    6.0416 H         1 MET         0.0378
    157 H21        -5.5984    9.4792    7.1677 H         1 MET         0.0378
    158 H22        -5.1416    6.4268    9.5496 H         1 MET         0.0340
    159 H23        -4.7497    8.1512    9.2342 H         1 MET         0.0340
    160 H24        -4.1622    6.8769    8.1127 H         1 MET         0.0340
    161 H25        -4.5136    5.1750    3.2093 H         1 ASN         0.1885
    162 H26        -3.2686    3.5950    5.2647 H         1 ASN         0.0826
    163 H27        -5.5511    3.0591    5.9002 H         1 ASN         0.0551
    164 H28        -4.7989    1.6263    5.1206 H         1 ASN         0.0551
    165 H29        -7.8679    3.6798    3.2589 H         1 ASN         0.1814
    166 H30        -6.9223    4.4428    4.4934 H         1 ASN         0.1814
    167 H31        -4.9318    3.3912    2.0943 H         1 ILE         0.1883
    168 H32        -2.4841    2.0394    1.0531 H         1 ILE         0.0803
    169 H33        -5.3857    1.4494    0.2780 H         1 ILE         0.0345
    170 H34        -4.9570   -0.7838    1.2011 H         1 ILE         0.0267
    171 H35        -4.7567    0.4936    2.4480 H         1 ILE         0.0267
    172 H36        -3.8322    1.3474   -1.6460 H         1 ILE         0.0235
    173 H37        -4.4453   -0.2788   -1.1919 H         1 ILE         0.0235
    174 H38        -2.7809    0.2147   -0.7305 H         1 ILE         0.0235
    175 H39        -3.0236   -1.2336    2.6452 H         1 ILE         0.0230
    176 H40        -2.3099    0.3532    2.1988 H         1 ILE         0.0230
    177 H41        -2.5102   -0.9242    0.9519 H         1 ILE         0.0230
    178 H42        -5.3848    3.9683    0.2306 H         1 GLN         0.1883
    179 H43        -4.6822    4.6354   -2.4172 H         1 GLN         0.0801
    180 H44        -6.1321    6.3722   -0.3674 H         1 GLN         0.0337
    181 H45        -6.8881    5.0868   -1.3688 H         1 GLN         0.0337
    182 H46        -6.2597    6.3397   -3.4106 H         1 GLN         0.0504
    183 H47        -5.5712    7.6403   -2.3804 H         1 GLN         0.0504
    184 H48        -9.1587    8.3215   -3.4958 H         1 GLN         0.1814
    185 H49        -7.7730    7.7401   -4.3571 H         1 GLN         0.1814
    186 H50        -3.5971    5.9681    0.6654 H         1 MET         0.1883
    187 H51        -2.3722    8.3397   -0.3320 H         1 MET         0.0800
    188 H52        -1.6841    6.6015    2.0812 H         1 MET         0.0320
    189 H53        -2.8130    7.9983    2.0456 H         1 MET         0.0320
    190 H54        -0.9315    9.4942    1.4894 H         1 MET         0.0378
    191 H55         0.1923    8.0942    1.5518 H         1 MET         0.0378
    192 H56        -2.1175    9.7596    5.2233 H         1 MET         0.0340
    193 H57        -2.9203    8.8712    3.8843 H         1 MET         0.0340
    194 H58        -2.1880   10.4832    3.5808 H         1 MET         0.0340
    195 H59        -0.9346    5.1427    0.4607 H         1 LEU         0.1883
    196 H60         1.6699    5.7782   -0.4965 H         1 LEU         0.0800
    197 H61         2.1063    3.4035   -0.4257 H         1 LEU         0.0315
    198 H62         0.3485    3.0340   -0.4401 H         1 LEU         0.0315
    199 H63         0.1359    4.1099    1.7883 H         1 LEU         0.0298
    200 H64         1.2591    2.3114    3.0619 H         1 LEU         0.0232
    201 H65         2.2231    1.8893    1.6062 H         1 LEU         0.0232
    202 H66         0.4390    1.6811    1.5934 H         1 LEU         0.0232
    203 H67         2.0704    5.6424    1.6082 H         1 LEU         0.0232
    204 H68         3.1851    4.2357    1.6795 H         1 LEU         0.0232
    205 H69         2.1502    4.6341    3.0926 H         1 LEU         0.0232
    206 H70        -1.2647    4.7384   -2.1171 H         1 LEU         0.1883
    207 H71        -0.0735    3.8078   -4.5424 H         1 LEU         0.0800
    208 H72        -2.3587    4.4137   -5.5279 H         1 LEU         0.0315
    209 H73        -2.8077    4.9508   -3.8736 H         1 LEU         0.0315
    210 H74        -2.3219    2.6549   -3.0406 H         1 LEU         0.0298
    211 H75        -4.3378    1.6027   -4.0154 H         1 LEU         0.0232
    212 H76        -4.3418    2.8339   -5.3233 H         1 LEU         0.0232
    213 H77        -4.6107    3.3332   -3.6188 H         1 LEU         0.0232
    214 H78        -0.7210    1.9852   -4.8073 H         1 LEU         0.0232
    215 H79        -2.0571    1.9767   -6.0078 H         1 LEU         0.0232
    216 H80        -2.0681    0.8083   -4.6434 H         1 LEU         0.0232
    217 H81        -1.5203    6.9867   -3.6966 H         1 GLU         0.1883
    218 H82        -0.8668    8.2454   -6.1695 H         1 GLU         0.0801
    219 H83        -1.2078   10.3726   -4.9368 H         1 GLU         0.0330
    220 H84        -1.2426    9.4553   -3.3928 H         1 GLU         0.0330
    221 H85        -3.4991   10.0384   -4.1765 H         1 GLU         0.0433
    222 H86        -3.2429    8.2614   -4.1164 H         1 GLU         0.0433
    223 H87         0.9087    7.8861   -3.1167 H         1 ALA         0.1883
    224 H88         3.0111    9.7083   -3.6540 H         1 ALA         0.0797
    225 H89         4.3059    8.3996   -1.9978 H         1 ALA         0.0277
    226 H90         3.0678    7.1000   -2.0665 H         1 ALA         0.0277
    227 H91         2.6309    8.7245   -1.4364 H         1 ALA         0.0277
    228 H92         2.7920    6.1884   -4.2924 H         1 ALA         0.1883
    229 H93         5.3595    5.9825   -5.5245 H         1 ALA         0.0797
    230 H94         4.5303    3.8218   -6.4042 H         1 ALA         0.0277
    231 H95         2.8655    4.2595   -5.8907 H         1 ALA         0.0277
    232 H96         4.1534    4.0279   -4.6600 H         1 ALA         0.0277
    233 H97         2.1033    6.5901   -6.8405 H         1 ASP         0.1884
    234 H98         2.8893    6.4840   -9.5978 H         1 ASP         0.0819
    235 H99         0.5738    7.9926   -8.2945 H         1 ASP         0.0478
    236 H100        0.5397    6.2775   -8.8273 H         1 ASP         0.0478
    237 H101        3.1415    8.8959   -7.1060 H         1 TYR         0.1885
    238 H102        3.4671   11.1681   -8.8771 H         1 TYR         0.0821
    239 H103        4.1345   10.6934   -5.9398 H         1 TYR         0.0453
    240 H104        2.7004   11.5346   -6.6197 H         1 TYR         0.0453
    241 H105        2.9269   13.8081   -7.5459 H         1 TYR         0.0530
    242 H106        6.2662   11.8254   -5.7733 H         1 TYR         0.0530
    243 H107        4.1262   15.9516   -7.4048 H         1 TYR         0.0525
    244 H108        7.4643   13.9682   -5.6321 H         1 TYR         0.0525
    245 H109        5.9896   16.9750   -6.7838 H         1 TYR         0.2458
    246 H110        5.7730    9.3909   -6.7669 H         1 LEU         0.1883
    247 H111        8.1146   10.6328   -7.7640 H         1 LEU         0.0800
    248 H112        9.3317    8.8354   -6.7238 H         1 LEU         0.0315
    249 H113        7.8857    7.7699   -6.7486 H         1 LEU         0.0315
    250 H114        6.7734    9.3797   -5.1710 H         1 LEU         0.0298
    251 H115        8.0267    8.6041   -3.1847 H         1 LEU         0.0232
    252 H116        9.3909    8.1108   -4.2440 H         1 LEU         0.0232
    253 H117        7.7993    7.2907   -4.3888 H         1 LEU         0.0232
    254 H118        8.1703   11.3565   -5.6884 H         1 LEU         0.0232
    255 H119        9.5910   10.5384   -4.9545 H         1 LEU         0.0232
    256 H120        8.1775   10.9713   -3.9340 H         1 LEU         0.0232
    257 H121        6.3524    7.7416   -8.8361 H         1 GLU         0.1883
    258 H122        8.2799    6.8367  -10.7334 H         1 GLU         0.0801
    259 H123        5.2433    6.5237  -10.7528 H         1 GLU         0.0330
    260 H124        6.4078    5.4556   -9.8985 H         1 GLU         0.0330
    261 H125        7.4316    4.8828  -12.0914 H         1 GLU         0.0433
    262 H126        6.1760    5.8766  -12.9053 H         1 GLU         0.0433
    263 H127        5.2158    8.6347  -11.3042 H         1 ARG         0.1875
    264 H128        6.5355   10.2601  -13.3567 H         1 ARG         0.0726
    265 H129        4.2146    8.4174  -14.0903 H         1 ARG         0.0307
    266 H130        5.9278    8.1767  -14.5738 H         1 ARG         0.0307
    267 H131        5.8758   10.2993  -15.8210 H         1 ARG         0.0301
    268 H132        4.1642   10.5448  -15.3345 H         1 ARG         0.0301
    269 H133        4.3351    9.6284  -17.6163 H         1 ARG         0.0689
    270 H134        3.5216    8.4789  -16.5012 H         1 ARG         0.0689
    271 H135        6.3227    7.8815  -16.5603 H         1 ARG         0.2642
    272 H136        4.0323    6.3986  -19.5791 H         1 ARG         0.2615
    273 H137        3.4350    7.7808  -18.6222 H         1 ARG         0.2615
    274 H138        7.0695    6.1236  -17.7805 H         1 ARG         0.2615
    275 H139        6.0690    5.4654  -19.1028 H         1 ARG         0.2615
@<TRIPOS>BOND
     1    1    2 1  
     2    2    3 1  
     3    2    5 1  
     4    3    4 2  
     5    3   12 am 
     6    5    6 1  
     7    6    7 1  
     8    7    8 1  
     9    8    9 ar 
    10    9   10 ar 
    11    9   11 ar 
    12   12   13 1  
    13   13   14 1  
    14   13   16 1  
    15   14   15 2  
    16   14   20 am 
    17   16   17 1  
    18   17   18 1  
    19   18   19 1  
    20   20   21 1  
    21   21   22 1  
    22   21   24 1  
    23   22   23 2  
    24   22   28 am 
    25   24   25 1  
    26   25   26 2  
    27   25   27 am 
    28   28   29 1  
    29   29   30 1  
    30   29   32 1  
    31   30   31 2  
    32   30   36 am 
    33   32   33 1  
    34   32   34 1  
    35   33   35 1  
    36   36   37 1  
    37   37   38 1  
    38   37   40 1  
    39   38   39 2  
    40   38   45 am 
    41   40   41 1  
    42   41   42 1  
    43   42   43 2  
    44   42   44 am 
    45   45   46 1  
    46   46   47 1  
    47   46   49 1  
    48   47   48 2  
    49   47   53 am 
    50   49   50 1  
    51   50   51 1  
    52   51   52 1  
    53   53   54 1  
    54   54   55 1  
    55   54   57 1  
    56   55   56 2  
    57   55   61 am 
    58   57   58 1  
    59   58   59 1  
    60   58   60 1  
    61   61   62 1  
    62   62   63 1  
    63   62   65 1  
    64   63   64 2  
    65   63   69 am 
    66   65   66 1  
    67   66   67 1  
    68   66   68 1  
    69   69   70 1  
    70   70   71 1  
    71   70   73 1  
    72   71   72 2  
    73   71   78 am 
    74   73   74 1  
    75   74   75 1  
    76   75   76 ar 
    77   75   77 ar 
    78   78   79 1  
    79   79   80 1  
    80   79   82 1  
    81   80   81 2  
    82   80   83 am 
    83   83   84 1  
    84   84   85 1  
    85   84   87 1  
    86   85   86 2  
    87   85   88 am 
    88   88   89 1  
    89   89   90 1  
    90   89   92 1  
    91   90   91 2  
    92   90   96 am 
    93   92   93 1  
    94   93   94 ar 
    95   93   95 ar 
    96   96   97 1  
    97   97   98 1  
    98   97  100 1  
    99   98   99 2  
   100   98  108 am 
   101  100  101 1  
   102  101  102 ar 
   103  101  103 ar 
   104  102  104 ar 
   105  103  105 ar 
   106  104  106 ar 
   107  105  106 ar 
   108  106  107 1  
   109  108  109 1  
   110  109  110 1  
   111  109  112 1  
   112  110  111 2  
   113  110  116 am 
   114  112  113 1  
   115  113  114 1  
   116  113  115 1  
   117  116  117 1  
   118  117  118 1  
   119  117  120 1  
   120  118  119 2  
   121  118  125 am 
   122  120  121 1  
   123  121  122 1  
   124  122  123 ar 
   125  122  124 ar 
   126  125  126 1  
   127  126  127 1  
   128  126  129 1  
   129  127  128 ar 
   130  127  136 ar 
   131  129  130 1  
   132  130  131 1  
   133  131  132 1  
   134  132  133 ar 
   135  133  134 ar 
   136  133  135 ar 
   137    1  137 1  
   138    1  138 1  
   139    1  139 1  
   140    2  140 1  
   141    5  141 1  
   142    5  142 1  
   143    6  143 1  
   144    6  144 1  
   145    7  145 1  
   146    7  146 1  
   147    8  147 1  
   148   10  148 1  
   149   10  149 1  
   150   11  150 1  
   151   11  151 1  
   152   12  152 1  
   153   13  153 1  
   154   16  154 1  
   155   16  155 1  
   156   17  156 1  
   157   17  157 1  
   158   19  158 1  
   159   19  159 1  
   160   19  160 1  
   161   20  161 1  
   162   21  162 1  
   163   24  163 1  
   164   24  164 1  
   165   27  165 1  
   166   27  166 1  
   167   28  167 1  
   168   29  168 1  
   169   32  169 1  
   170   33  170 1  
   171   33  171 1  
   172   34  172 1  
   173   34  173 1  
   174   34  174 1  
   175   35  175 1  
   176   35  176 1  
   177   35  177 1  
   178   36  178 1  
   179   37  179 1  
   180   40  180 1  
   181   40  181 1  
   182   41  182 1  
   183   41  183 1  
   184   44  184 1  
   185   44  185 1  
   186   45  186 1  
   187   46  187 1  
   188   49  188 1  
   189   49  189 1  
   190   50  190 1  
   191   50  191 1  
   192   52  192 1  
   193   52  193 1  
   194   52  194 1  
   195   53  195 1  
   196   54  196 1  
   197   57  197 1  
   198   57  198 1  
   199   58  199 1  
   200   59  200 1  
   201   59  201 1  
   202   59  202 1  
   203   60  203 1  
   204   60  204 1  
   205   60  205 1  
   206   61  206 1  
   207   62  207 1  
   208   65  208 1  
   209   65  209 1  
   210   66  210 1  
   211   67  211 1  
   212   67  212 1  
   213   67  213 1  
   214   68  214 1  
   215   68  215 1  
   216   68  216 1  
   217   69  217 1  
   218   70  218 1  
   219   73  219 1  
   220   73  220 1  
   221   74  221 1  
   222   74  222 1  
   223   78  223 1  
   224   79  224 1  
   225   82  225 1  
   226   82  226 1  
   227   82  227 1  
   228   83  228 1  
   229   84  229 1  
   230   87  230 1  
   231   87  231 1  
   232   87  232 1  
   233   88  233 1  
   234   89  234 1  
   235   92  235 1  
   236   92  236 1  
   237   96  237 1  
   238   97  238 1  
   239  100  239 1  
   240  100  240 1  
   241  102  241 1  
   242  103  242 1  
   243  104  243 1  
   244  105  244 1  
   245  107  245 1  
   246  108  246 1  
   247  109  247 1  
   248  112  248 1  
   249  112  249 1  
   250  113  250 1  
   251  114  251 1  
   252  114  252 1  
   253  114  253 1  
   254  115  254 1  
   255  115  255 1  
   256  115  256 1  
   257  116  257 1  
   258  117  258 1  
   259  120  259 1  
   260  120  260 1  
   261  121  261 1  
   262  121  262 1  
   263  125  263 1  
   264  126  264 1  
   265  129  265 1  
   266  129  266 1  
   267  130  267 1  
   268  130  268 1  
   269  131  269 1  
   270  131  270 1  
   271  132  271 1  
   272  134  272 1  
   273  134  273 1  
   274  135  274 1  
   275  135  275 1  
@<TRIPOS>SUBSTRUCTURE
     1 ARG         1

