3wk5_ligand
  -I-interpret- 

 28 29  0  0  0  0  0  0  0  0999 V2000
  -16.6890   -7.1060   61.4080 C   0  0  0  0  0
  -17.5290   -6.0210   61.3370 C   0  0  0  0  0
  -17.2760   -7.0040   63.5440 C   0  0  0  0  0
  -17.4110   -8.5460   65.3930 C   0  0  0  0  0
  -17.3490  -10.4930   69.8750 C   0  0  0  0  0
  -17.9080  -11.5960   69.0150 C   0  0  0  0  0
  -16.8320   -9.4150   68.9520 C   0  0  0  0  0
  -18.1450  -11.0150   67.6510 C   0  0  0  0  0
  -17.2270   -9.8210   67.5490 C   0  0  0  0  0
  -17.8990   -8.6750   66.8120 C   0  0  0  0  0
  -16.5490   -7.6560   62.6570 N   0  0  0  0  0
  -17.4010   -7.2460   64.9180 N   0  0  0  0  0
  -17.0700   -9.5260   64.7530 O   0  0  0  0  0
  -18.1650   -5.6810   62.8930 S   0  0  0  0  0
  -16.1709   -7.5015   60.5344 H   0  0  0  0  0
  -17.7566   -5.4614   60.4297 H   0  0  0  0  0
  -16.5452  -10.8721   70.5061 H   0  0  0  0  0
  -18.1214  -10.0937   70.5323 H   0  0  0  0  0
  -18.8371  -11.9794   69.4367 H   0  0  0  0  0
  -17.2114  -12.4326   68.9612 H   0  0  0  0  0
  -15.7500   -9.3147   69.0382 H   0  0  0  0  0
  -17.2563   -8.4448   69.2105 H   0  0  0  0  0
  -19.1877  -10.7267   67.5179 H   0  0  0  0  0
  -17.9372  -11.7437   66.8675 H   0  0  0  0  0
  -16.3379  -10.0820   66.9749 H   0  0  0  0  0
  -18.9708   -8.8716   66.7851 H   0  0  0  0  0
  -17.6625   -7.7495   67.3371 H   0  0  0  0  0
  -17.4846   -6.4646   65.5682 H   0  0  0  0  0
  2  1  4  0  0  0
 11  1  4  0  0  0
 14  2  4  0  0  0
  3 11  4  0  0  0
 12  3  1  0  0  0
  3 14  4  0  0  0
 10  4  1  0  0  0
  4 12  1  0  0  0
  4 13  2  0  0  0
  6  5  1  0  0  0
  7  5  1  0  0  0
  8  6  1  0  0  0
  9  7  1  0  0  0
  9  8  1  0  0  0
  9 10  1  0  0  0
  1 15  1  0  0  0
  2 16  1  0  0  0
  5 17  1  0  0  0
  5 18  1  0  0  0
  6 19  1  0  0  0
  6 20  1  0  0  0
  7 21  1  0  0  0
  7 22  1  0  0  0
  8 23  1  0  0  0
  8 24  1  0  0  0
  9 25  1  0  0  0
 10 26  1  0  0  0
 10 27  1  0  0  0
 12 28  1  0  0  0
M  END
$$$$
