### 
### Created by X-TOOL on Mon Sep 10 21:13:27 2018
### 

@<TRIPOS>MOLECULE
5ivz_ligand
  193   195     1     0     0
SMALL
GAST_HUCK


@<TRIPOS>ATOM
      1 N         -16.7480   32.1240  -29.5420 N.am      1 GLY        -0.0895
      2 CA        -16.6080   32.5810  -28.1640 C.3       1 GLY         0.2896
      3 C         -17.1510   33.9790  -27.9060 C.2       1 GLY         0.2370
      4 O         -17.0900   34.4960  -26.7830 O.2       1 GLY        -0.3915
      5 N         -17.6740   34.5950  -28.9600 N.am      1 GLN        -0.2614
      6 CA        -18.2150   35.9440  -28.9180 C.3       1 GLN         0.1331
      7 C         -19.7160   35.8820  -29.1500 C.2       1 GLN         0.2042
      8 O         -20.1820   35.1740  -30.0540 O.2       1 GLN        -0.3944
      9 CB        -17.5570   36.8270  -29.9810 C.3       1 GLN         0.0045
     10 CG        -16.0770   37.0860  -29.7500 C.3       1 GLN         0.0412
     11 CD        -15.8160   38.3720  -28.9810 C.2       1 GLN         0.1737
     12 OE1       -15.9440   39.4770  -29.5290 O.2       1 GLN        -0.3973
     13 NE2       -15.4490   38.2370  -27.7020 N.am      1 GLN        -0.3009
     14 N         -20.4650   36.6170  -28.3330 N.am      1 PHE        -0.2619
     15 CA        -21.9030   36.7460  -28.5390 C.3       1 PHE         0.1404
     16 C         -22.1830   37.4660  -29.8560 C.2       1 PHE         0.2060
     17 O         -21.5680   38.4950  -30.1570 O.2       1 PHE        -0.3942
     18 CB        -22.5240   37.4970  -27.3670 C.3       1 PHE         0.0214
     19 CG        -23.9980   37.6380  -27.4590 C.ar      1 PHE        -0.0386
     20 CD1       -24.8220   36.5330  -27.2940 C.ar      1 PHE        -0.0601
     21 CD2       -24.5740   38.8760  -27.7060 C.ar      1 PHE        -0.0601
     22 CE1       -26.1880   36.6590  -27.3610 C.ar      1 PHE        -0.0686
     23 CE2       -25.9560   39.0110  -27.7810 C.ar      1 PHE        -0.0686
     24 CZ        -26.7620   37.9010  -27.6130 C.ar      1 PHE        -0.0687
     25 N         -23.0930   36.9090  -30.6520 N.am      1 ASP        -0.2620
     26 CA        -23.4710   37.4700  -31.9470 C.3       1 ASP         0.1423
     27 C         -24.8470   38.1130  -31.8230 C.2       1 ASP         0.2056
     28 O         -25.8360   37.4190  -31.5670 O.2       1 ASP        -0.3943
     29 CB        -23.4700   36.3860  -33.0250 C.3       1 ASP         0.0406
     30 CG        -23.9500   36.8810  -34.3820 C.2       1 ASP         0.0393
     31 OD1       -24.5330   37.9790  -34.4860 O.co2     1 ASP        -0.5688
     32 OD2       -23.7570   36.1350  -35.3650 O.co2     1 ASP        -0.5688
     33 N         -24.9110   39.4260  -32.0640 N.am      1 LEU        -0.2636
     34 CA        -26.1700   40.1540  -31.9290 C.3       1 LEU         0.1312
     35 C         -27.2300   39.6560  -32.8930 C.2       1 LEU         0.2040
     36 O         -28.4220   39.7020  -32.5730 O.2       1 LEU        -0.3944
     37 CB        -25.9460   41.6400  -32.1620 C.3       1 LEU        -0.0101
     38 CG        -25.1030   42.2730  -31.0840 C.3       1 LEU        -0.0425
     39 CD1       -24.5400   43.5590  -31.6440 C.3       1 LEU        -0.0625
     40 CD2       -25.9710   42.4980  -29.8470 C.3       1 LEU        -0.0625
     41 N         -26.8240   39.2230  -34.0850 N.am      1 SER        -0.2616
     42 CA        -27.7920   38.7460  -35.0650 C.3       1 SER         0.1539
     43 C         -28.6020   37.5810  -34.5140 C.2       1 SER         0.2063
     44 O         -29.8370   37.5920  -34.5590 O.2       1 SER        -0.3943
     45 CB        -27.0770   38.3330  -36.3490 C.3       1 SER         0.0843
     46 OG        -26.5720   39.4680  -37.0210 O.3       1 SER        -0.3903
     47 N         -27.9200   36.5920  -33.9480 N.am      1 THR        -0.2613
     48 CA        -28.5050   35.2930  -33.6550 C.3       1 THR         0.1565
     49 C         -28.7310   35.0540  -32.1580 C.2       1 THR         0.2065
     50 O         -29.4420   34.1300  -31.7690 O.2       1 THR        -0.3943
     51 CB        -27.6000   34.1890  -34.2060 C.3       1 THR         0.0924
     52 OG1       -26.2820   34.3540  -33.6680 O.3       1 THR        -0.3874
     53 CG2       -27.5080   34.2960  -35.7230 C.3       1 THR        -0.0346
     54 C1        -27.4460   34.3900  -29.5500 C.2       1 CIR         0.2039
     55 O1        -27.7340   33.7980  -28.5150 O.2       1 CIR        -0.3944
     56 C2        -28.1080   35.6760  -29.9090 C.3       1 CIR         0.1310
     57 N2        -28.1160   35.8860  -31.3290 N.am      1 CIR        -0.2636
     58 C3        -29.5050   35.7710  -29.2820 C.3       1 CIR        -0.0106
     59 C4        -30.1180   37.1510  -29.3240 C.3       1 CIR        -0.0288
     60 C5        -31.3100   37.3470  -28.3990 C.3       1 CIR         0.0314
     61 N6        -32.2600   38.3750  -28.8680 N.am      1 CIR        -0.2733
     62 C7        -33.3320   38.7600  -28.1680 C.2       1 CIR         0.2548
     63 O7        -33.5920   38.2710  -27.0740 O.2       1 CIR        -0.4010
     64 N8        -34.0960   39.7160  -28.7390 N.am      1 CIR        -0.2870
     65 N         -26.5330   33.9330  -30.3990 N.am      1 ARG        -0.2637
     66 CA        -25.8120   32.7010  -30.1160 C.3       1 ARG         0.1311
     67 C         -24.3260   33.0040  -30.0270 C.2       1 ARG         0.2039
     68 O         -23.8570   33.9910  -30.6030 O.2       1 ARG        -0.3944
     69 CB        -26.0880   31.6520  -31.1920 C.3       1 ARG        -0.0092
     70 CG        -27.5350   31.1730  -31.2490 C.3       1 ARG        -0.0156
     71 CD        -27.9620   30.4730  -29.9780 C.3       1 ARG         0.0627
     72 NE        -27.0330   29.4220  -29.6020 N.pl3     1 ARG        -0.2723
     73 CZ        -27.0780   28.1800  -30.0670 C.cat     1 ARG         0.2882
     74 NH1       -28.0200   27.8330  -30.9250 N.pl3     1 ARG        -0.2849
     75 NH2       -26.1720   27.2860  -29.6800 N.pl3     1 ARG        -0.2849
     76 N         -23.5890   32.1790  -29.2870 N.am      1 LEU        -0.2637
     77 CA        -22.1460   32.3410  -29.2460 C.3       1 LEU         0.1312
     78 C         -21.5580   31.9330  -30.5820 C.2       1 LEU         0.2039
     79 O         -21.9740   30.9440  -31.1830 O.2       1 LEU        -0.3944
     80 CB        -21.5250   31.5050  -28.1240 C.3       1 LEU        -0.0101
     81 CG        -21.7430   32.0140  -26.6990 C.3       1 LEU        -0.0425
     82 CD1       -21.1400   31.0510  -25.6990 C.3       1 LEU        -0.0625
     83 CD2       -21.1520   33.4030  -26.5230 C.3       1 LEU        -0.0625
     84 N         -20.5900   32.7070  -31.0480 N.am      1 LYS        -0.2637
     85 CA        -19.9560   32.4830  -32.3420 C.3       1 LYS         0.1310
     86 C         -18.4830   32.8150  -32.1650 C.2       1 LYS         0.2037
     87 O         -18.1280   33.9860  -31.9880 O.2       1 LYS        -0.3944
     88 CB        -20.6050   33.3480  -33.4240 C.3       1 LYS        -0.0122
     89 CG        -20.0860   33.1580  -34.8380 C.3       1 LYS        -0.0440
     90 CD        -20.8030   34.1380  -35.7710 C.3       1 LYS        -0.0124
     91 CE        -20.5700   33.8300  -37.2350 C.3       1 LYS        -0.0354
     92 NZ        -21.2600   32.5770  -37.6320 N.4       1 LYS         0.2185
     93 N         -17.6390   31.7910  -32.1690 N.am      1 GLY        -0.2664
     94 CA        -16.2260   31.9770  -31.9030 C.3       1 GLY         0.1222
     95 C         -15.9810   32.5780  -30.5340 C.2       1 GLY         0.2295
     96 O         -15.1260   33.4460  -30.3800 O.2       1 GLY        -0.3942
     97 OXT       -16.6350   32.2030  -29.5640 O.3       1 GLY        -0.1970
     98 H1        -16.1986   32.0616  -27.2850 H         1 GLY         0.1177
     99 H2        -17.6970   34.1038  -29.8308 H         1 GLN         0.1884
    100 H3        -18.0201   36.3778  -27.9261 H         1 GLN         0.0801
    101 H4        -18.0781   37.7956  -29.9952 H         1 GLN         0.0337
    102 H5        -17.6722   36.3343  -30.9577 H         1 GLN         0.0337
    103 H6        -15.5754   37.1528  -30.7267 H         1 GLN         0.0504
    104 H7        -15.6579   36.2442  -29.1793 H         1 GLN         0.0504
    105 H8        -15.2640   39.0478  -27.1467 H         1 GLN         0.1814
    106 H9        -15.3596   37.3253  -27.3010 H         1 GLN         0.1814
    107 H10       -20.0346   37.0895  -27.5639 H         1 PHE         0.1885
    108 H11       -22.3463   35.7405  -28.5878 H         1 PHE         0.0823
    109 H12       -22.0814   38.5032  -27.3263 H         1 PHE         0.0474
    110 H13       -22.2849   36.9535  -26.4411 H         1 PHE         0.0474
    111 H14       -24.3822   35.5594  -27.1101 H         1 PHE         0.0557
    112 H15       -23.9411   39.7455  -27.8417 H         1 PHE         0.0557
    113 H16       -26.8196   35.7898  -27.2174 H         1 PHE         0.0599
    114 H17       -26.3989   39.9821  -27.9703 H         1 PHE         0.0599
    115 H18       -27.8397   37.9979  -27.6775 H         1 PHE         0.0559
    116 H19       -23.5390   36.0667  -30.3493 H         1 ASP         0.1884
    117 H20       -22.7408   38.2431  -32.2280 H         1 ASP         0.0819
    118 H21       -24.1305   35.5692  -32.6985 H         1 ASP         0.0478
    119 H22       -22.4438   36.0057  -33.1359 H         1 ASP         0.0478
    120 H23       -24.0850   39.9171  -32.3407 H         1 LEU         0.1883
    121 H24       -26.5400   40.0090  -30.9033 H         1 LEU         0.0800
    122 H25       -26.9232   42.1444  -32.1873 H         1 LEU         0.0315
    123 H26       -25.4396   41.7730  -33.1294 H         1 LEU         0.0315
    124 H27       -24.2724   41.6030  -30.8173 H         1 LEU         0.0298
    125 H28       -23.9172   44.0494  -30.8813 H         1 LEU         0.0232
    126 H29       -25.3658   44.2277  -31.9284 H         1 LEU         0.0232
    127 H30       -23.9271   43.3359  -32.5298 H         1 LEU         0.0232
    128 H31       -26.3514   41.5313  -29.4852 H         1 LEU         0.0232
    129 H32       -26.8173   43.1510  -30.1067 H         1 LEU         0.0232
    130 H33       -25.3694   42.9736  -29.0584 H         1 LEU         0.0232
    131 H34       -25.8494   39.2251  -34.3092 H         1 SER         0.1884
    132 H35       -28.4836   39.5688  -35.2986 H         1 SER         0.0823
    133 H36       -27.7868   37.8093  -37.0062 H         1 SER         0.0606
    134 H37       -26.2437   37.6599  -36.0989 H         1 SER         0.0606
    135 H38       -27.2899   40.0501  -37.2405 H         1 SER         0.2097
    136 H39       -26.9606   36.7475  -33.7125 H         1 THR         0.1884
    137 H40       -29.4804   35.2379  -34.1605 H         1 THR         0.0826
    138 H41       -28.0026   33.2048  -33.9244 H         1 THR         0.0639
    139 H42       -25.7152   33.6711  -34.0067 H         1 THR         0.2101
    140 H43       -26.8556   33.4983  -36.1079 H         1 THR         0.0257
    141 H44       -27.0897   35.2758  -35.9968 H         1 THR         0.0257
    142 H45       -28.5122   34.1910  -36.1596 H         1 THR         0.0257
    143 H46       -27.5052   36.4852  -29.4711 H         1 CIR         0.0800
    144 H47       -27.6436   36.6836  -31.7041 H         1 CIR         0.1883
    145 H48       -29.4311   35.4598  -28.2295 H         1 CIR         0.0313
    146 H49       -30.1715   35.0825  -29.8220 H         1 CIR         0.0313
    147 H50       -30.4484   37.3477  -30.3546 H         1 CIR         0.0287
    148 H51       -29.3428   37.8788  -29.0423 H         1 CIR         0.0287
    149 H52       -30.9361   37.6453  -27.4085 H         1 CIR         0.0517
    150 H53       -31.8463   36.3903  -28.3156 H         1 CIR         0.0517
    151 H54       -32.0931   38.8056  -29.7550 H         1 CIR         0.1845
    152 H55       -34.9131   40.0500  -28.2691 H         1 CIR         0.1808
    153 H56       -33.8447   40.0899  -29.6318 H         1 CIR         0.1808
    154 H57       -26.3394   34.4393  -31.2393 H         1 ARG         0.1883
    155 H58       -26.1521   32.3052  -29.1477 H         1 ARG         0.0800
    156 H59       -25.4449   30.7812  -30.9965 H         1 ARG         0.0313
    157 H60       -25.8306   32.0859  -32.1695 H         1 ARG         0.0313
    158 H61       -27.6424   30.4730  -32.0907 H         1 ARG         0.0301
    159 H62       -28.1888   32.0428  -31.4097 H         1 ARG         0.0301
    160 H63       -28.9569   30.0300  -30.1327 H         1 ARG         0.0689
    161 H64       -28.0119   31.2116  -29.1644 H         1 ARG         0.0689
    162 H65       -26.2892   29.6564  -28.9292 H         1 ARG         0.2642
    163 H66       -28.0570   26.8696  -31.2874 H         1 ARG         0.2615
    164 H67       -28.7177   28.5258  -31.2318 H         1 ARG         0.2615
    165 H68       -25.4365   27.5547  -29.0109 H         1 ARG         0.2615
    166 H69       -26.2061   26.3252  -30.0495 H         1 ARG         0.2615
    167 H70       -24.0271   31.4501  -28.7610 H         1 LEU         0.1883
    168 H71       -21.9150   33.4006  -29.0623 H         1 LEU         0.0800
    169 H72       -20.4403   31.4595  -28.3012 H         1 LEU         0.0315
    170 H73       -21.9496   30.4922  -28.1865 H         1 LEU         0.0315
    171 H74       -22.8258   32.0736  -26.5147 H         1 LEU         0.0298
    172 H75       -21.3046   31.4302  -24.6796 H         1 LEU         0.0232
    173 H76       -20.0600   30.9574  -25.8854 H         1 LEU         0.0232
    174 H77       -21.6172   30.0656  -25.8051 H         1 LEU         0.0232
    175 H78       -21.6012   34.0883  -27.2569 H         1 LEU         0.0232
    176 H79       -20.0639   33.3610  -26.6788 H         1 LEU         0.0232
    177 H80       -21.3632   33.7652  -25.5060 H         1 LEU         0.0232
    178 H81       -20.2810   33.4769  -30.4896 H         1 LYS         0.1883
    179 H82       -20.0618   31.4260  -32.6274 H         1 LYS         0.0800
    180 H83       -20.4497   34.4016  -33.1488 H         1 LYS         0.0312
    181 H84       -21.6822   33.1254  -33.4297 H         1 LYS         0.0312
    182 H85       -20.2815   32.1266  -35.1667 H         1 LYS         0.0269
    183 H86       -19.0034   33.3516  -34.8621 H         1 LYS         0.0269
    184 H87       -20.4364   35.1540  -35.5628 H         1 LYS         0.0317
    185 H88       -21.8832   34.0894  -35.5691 H         1 LYS         0.0317
    186 H89       -19.4901   33.7172  -37.4113 H         1 LYS         0.0813
    187 H90       -20.9560   34.6613  -37.8433 H         1 LYS         0.0813
    188 H91       -21.0897   32.3946  -38.6086 H         1 LYS         0.1994
    189 H92       -22.2510   32.6753  -37.4764 H         1 LYS         0.1994
    190 H93       -20.9078   31.8102  -37.0806 H         1 LYS         0.1994
    191 H94       -17.9847   30.8722  -32.3594 H         1 GLY         0.1880
    192 H95       -15.8063   32.6489  -32.6661 H         1 GLY         0.0763
    193 H96       -15.7227   31.0004  -31.9574 H         1 GLY         0.0763
@<TRIPOS>BOND
     1    2    1 1  
     2    1   95 am 
     3   97    1 1  
     4    3    2 1  
     5    2   97 1  
     6    3    4 2  
     7    5    3 am 
     8    6    5 1  
     9    7    6 1  
    10    6    9 1  
    11    7    8 2  
    12   14    7 am 
    13    9   10 1  
    14   10   11 1  
    15   11   12 2  
    16   11   13 am 
    17   15   14 1  
    18   16   15 1  
    19   15   18 1  
    20   16   17 2  
    21   25   16 am 
    22   18   19 1  
    23   19   20 ar 
    24   19   21 ar 
    25   20   22 ar 
    26   21   23 ar 
    27   22   24 ar 
    28   23   24 ar 
    29   26   25 1  
    30   27   26 1  
    31   26   29 1  
    32   27   28 2  
    33   33   27 am 
    34   29   30 1  
    35   30   31 ar 
    36   30   32 ar 
    37   34   33 1  
    38   35   34 1  
    39   34   37 1  
    40   35   36 2  
    41   41   35 am 
    42   37   38 1  
    43   38   39 1  
    44   38   40 1  
    45   42   41 1  
    46   43   42 1  
    47   42   45 1  
    48   43   44 2  
    49   47   43 am 
    50   45   46 1  
    51   48   47 1  
    52   49   48 1  
    53   48   51 1  
    54   49   50 2  
    55   57   49 am 
    56   51   52 1  
    57   51   53 1  
    58   54   55 2  
    59   56   54 1  
    60   54   65 am 
    61   56   57 1  
    62   56   58 1  
    63   58   59 1  
    64   59   60 1  
    65   60   61 1  
    66   61   62 am 
    67   62   63 2  
    68   62   64 am 
    69   65   66 1  
    70   66   67 1  
    71   66   69 1  
    72   67   68 2  
    73   67   76 am 
    74   69   70 1  
    75   70   71 1  
    76   71   72 1  
    77   72   73 ar 
    78   73   74 ar 
    79   73   75 ar 
    80   76   77 1  
    81   77   78 1  
    82   77   80 1  
    83   78   79 2  
    84   78   84 am 
    85   80   81 1  
    86   81   82 1  
    87   81   83 1  
    88   84   85 1  
    89   85   86 1  
    90   85   88 1  
    91   86   87 2  
    92   86   93 am 
    93   88   89 1  
    94   89   90 1  
    95   90   91 1  
    96   91   92 1  
    97   93   94 1  
    98   94   95 1  
    99   95   96 2  
   100    2   98 1  
   101    5   99 1  
   102    6  100 1  
   103    9  101 1  
   104    9  102 1  
   105   10  103 1  
   106   10  104 1  
   107   13  105 1  
   108   13  106 1  
   109   14  107 1  
   110   15  108 1  
   111   18  109 1  
   112   18  110 1  
   113   20  111 1  
   114   21  112 1  
   115   22  113 1  
   116   23  114 1  
   117   24  115 1  
   118   25  116 1  
   119   26  117 1  
   120   29  118 1  
   121   29  119 1  
   122   33  120 1  
   123   34  121 1  
   124   37  122 1  
   125   37  123 1  
   126   38  124 1  
   127   39  125 1  
   128   39  126 1  
   129   39  127 1  
   130   40  128 1  
   131   40  129 1  
   132   40  130 1  
   133   41  131 1  
   134   42  132 1  
   135   45  133 1  
   136   45  134 1  
   137   46  135 1  
   138   47  136 1  
   139   48  137 1  
   140   51  138 1  
   141   52  139 1  
   142   53  140 1  
   143   53  141 1  
   144   53  142 1  
   145   56  143 1  
   146   57  144 1  
   147   58  145 1  
   148   58  146 1  
   149   59  147 1  
   150   59  148 1  
   151   60  149 1  
   152   60  150 1  
   153   61  151 1  
   154   64  152 1  
   155   64  153 1  
   156   65  154 1  
   157   66  155 1  
   158   69  156 1  
   159   69  157 1  
   160   70  158 1  
   161   70  159 1  
   162   71  160 1  
   163   71  161 1  
   164   72  162 1  
   165   74  163 1  
   166   74  164 1  
   167   75  165 1  
   168   75  166 1  
   169   76  167 1  
   170   77  168 1  
   171   80  169 1  
   172   80  170 1  
   173   81  171 1  
   174   82  172 1  
   175   82  173 1  
   176   82  174 1  
   177   83  175 1  
   178   83  176 1  
   179   83  177 1  
   180   84  178 1  
   181   85  179 1  
   182   88  180 1  
   183   88  181 1  
   184   89  182 1  
   185   89  183 1  
   186   90  184 1  
   187   90  185 1  
   188   91  186 1  
   189   91  187 1  
   190   92  188 1  
   191   92  189 1  
   192   92  190 1  
   193   93  191 1  
   194   94  192 1  
   195   94  193 1  
@<TRIPOS>SUBSTRUCTURE
     1 GLY         1

