5ivz_ligand
  -I-interpret- 

193195  0  0  0  0  0  0  0  0999 V2000
  -16.7480   32.1240  -29.5420 N   0  0  0  0  0
  -16.6080   32.5810  -28.1640 C   0  0  0  0  0
  -17.1510   33.9790  -27.9060 C   0  0  0  0  0
  -17.0900   34.4960  -26.7830 O   0  0  0  0  0
  -17.6740   34.5950  -28.9600 N   0  0  0  0  0
  -18.2150   35.9440  -28.9180 C   0  0  0  0  0
  -19.7160   35.8820  -29.1500 C   0  0  0  0  0
  -20.1820   35.1740  -30.0540 O   0  0  0  0  0
  -17.5570   36.8270  -29.9810 C   0  0  0  0  0
  -16.0770   37.0860  -29.7500 C   0  0  0  0  0
  -15.8160   38.3720  -28.9810 C   0  0  0  0  0
  -15.9440   39.4770  -29.5290 O   0  0  0  0  0
  -15.4490   38.2370  -27.7020 N   0  0  0  0  0
  -20.4650   36.6170  -28.3330 N   0  0  0  0  0
  -21.9030   36.7460  -28.5390 C   0  0  0  0  0
  -22.1830   37.4660  -29.8560 C   0  0  0  0  0
  -21.5680   38.4950  -30.1570 O   0  0  0  0  0
  -22.5240   37.4970  -27.3670 C   0  0  0  0  0
  -23.9980   37.6380  -27.4590 C   0  0  0  0  0
  -24.8220   36.5330  -27.2940 C   0  0  0  0  0
  -24.5740   38.8760  -27.7060 C   0  0  0  0  0
  -26.1880   36.6590  -27.3610 C   0  0  0  0  0
  -25.9560   39.0110  -27.7810 C   0  0  0  0  0
  -26.7620   37.9010  -27.6130 C   0  0  0  0  0
  -23.0930   36.9090  -30.6520 N   0  0  0  0  0
  -23.4710   37.4700  -31.9470 C   0  0  0  0  0
  -24.8470   38.1130  -31.8230 C   0  0  0  0  0
  -25.8360   37.4190  -31.5670 O   0  0  0  0  0
  -23.4700   36.3860  -33.0250 C   0  0  0  0  0
  -23.9500   36.8810  -34.3820 C   0  0  0  0  0
  -24.5330   37.9790  -34.4860 O   0  0  0  0  0
  -23.7570   36.1350  -35.3650 O   0  0  0  0  0
  -24.9110   39.4260  -32.0640 N   0  0  0  0  0
  -26.1700   40.1540  -31.9290 C   0  0  0  0  0
  -27.2300   39.6560  -32.8930 C   0  0  0  0  0
  -28.4220   39.7020  -32.5730 O   0  0  0  0  0
  -25.9460   41.6400  -32.1620 C   0  0  0  0  0
  -25.1030   42.2730  -31.0840 C   0  0  0  0  0
  -24.5400   43.5590  -31.6440 C   0  0  0  0  0
  -25.9710   42.4980  -29.8470 C   0  0  0  0  0
  -26.8240   39.2230  -34.0850 N   0  0  0  0  0
  -27.7920   38.7460  -35.0650 C   0  0  0  0  0
  -28.6020   37.5810  -34.5140 C   0  0  0  0  0
  -29.8370   37.5920  -34.5590 O   0  0  0  0  0
  -27.0770   38.3330  -36.3490 C   0  0  0  0  0
  -26.5720   39.4680  -37.0210 O   0  0  0  0  0
  -27.9200   36.5920  -33.9480 N   0  0  0  0  0
  -28.5050   35.2930  -33.6550 C   0  0  0  0  0
  -28.7310   35.0540  -32.1580 C   0  0  0  0  0
  -29.4420   34.1300  -31.7690 O   0  0  0  0  0
  -27.6000   34.1890  -34.2060 C   0  0  0  0  0
  -26.2820   34.3540  -33.6680 O   0  0  0  0  0
  -27.5080   34.2960  -35.7230 C   0  0  0  0  0
  -27.4460   34.3900  -29.5500 C   0  0  0  0  0
  -27.7340   33.7980  -28.5150 O   0  0  0  0  0
  -28.1080   35.6760  -29.9090 C   0  0  0  0  0
  -28.1160   35.8860  -31.3290 N   0  0  0  0  0
  -29.5050   35.7710  -29.2820 C   0  0  0  0  0
  -30.1180   37.1510  -29.3240 C   0  0  0  0  0
  -31.3100   37.3470  -28.3990 C   0  0  0  0  0
  -32.2600   38.3750  -28.8680 N   0  0  0  0  0
  -33.3320   38.7600  -28.1680 C   0  0  0  0  0
  -33.5920   38.2710  -27.0740 O   0  0  0  0  0
  -34.0960   39.7160  -28.7390 N   0  0  0  0  0
  -26.5330   33.9330  -30.3990 N   0  0  0  0  0
  -25.8120   32.7010  -30.1160 C   0  0  0  0  0
  -24.3260   33.0040  -30.0270 C   0  0  0  0  0
  -23.8570   33.9910  -30.6030 O   0  0  0  0  0
  -26.0880   31.6520  -31.1920 C   0  0  0  0  0
  -27.5350   31.1730  -31.2490 C   0  0  0  0  0
  -27.9620   30.4730  -29.9780 C   0  0  0  0  0
  -27.0330   29.4220  -29.6020 N   0  0  0  0  0
  -27.0780   28.1800  -30.0670 C   0  0  0  0  0
  -28.0200   27.8330  -30.9250 N   0  0  0  0  0
  -26.1720   27.2860  -29.6800 N   0  0  0  0  0
  -23.5890   32.1790  -29.2870 N   0  0  0  0  0
  -22.1460   32.3410  -29.2460 C   0  0  0  0  0
  -21.5580   31.9330  -30.5820 C   0  0  0  0  0
  -21.9740   30.9440  -31.1830 O   0  0  0  0  0
  -21.5250   31.5050  -28.1240 C   0  0  0  0  0
  -21.7430   32.0140  -26.6990 C   0  0  0  0  0
  -21.1400   31.0510  -25.6990 C   0  0  0  0  0
  -21.1520   33.4030  -26.5230 C   0  0  0  0  0
  -20.5900   32.7070  -31.0480 N   0  0  0  0  0
  -19.9560   32.4830  -32.3420 C   0  0  0  0  0
  -18.4830   32.8150  -32.1650 C   0  0  0  0  0
  -18.1280   33.9860  -31.9880 O   0  0  0  0  0
  -20.6050   33.3480  -33.4240 C   0  0  0  0  0
  -20.0860   33.1580  -34.8380 C   0  0  0  0  0
  -20.8030   34.1380  -35.7710 C   0  0  0  0  0
  -20.5700   33.8300  -37.2350 C   0  0  0  0  0
  -21.2600   32.5770  -37.6320 N   0  3  0  0  0
  -17.6390   31.7910  -32.1690 N   0  0  0  0  0
  -16.2260   31.9770  -31.9030 C   0  0  0  0  0
  -15.9810   32.5780  -30.5340 C   0  0  0  0  0
  -15.1260   33.4460  -30.3800 O   0  0  0  0  0
  -16.6350   32.2030  -29.5640 O   0  0  0  0  0
  -16.3281   32.3763  -27.1306 H   0  0  0  0  0
  -17.6975   34.0940  -29.8482 H   0  0  0  0  0
  -18.0082   36.3808  -27.9410 H   0  0  0  0  0
  -18.0602   37.7934  -29.9517 H   0  0  0  0  0
  -17.6464   36.3037  -30.9330 H   0  0  0  0  0
  -15.5982   37.1773  -30.7249 H   0  0  0  0  0
  -15.6816   36.2588  -29.1605 H   0  0  0  0  0
  -15.2616   39.0640  -27.1352 H   0  0  0  0  0
  -15.3565   37.3070  -27.2934 H   0  0  0  0  0
  -20.0260   37.0990  -27.5485 H   0  0  0  0  0
  -22.3508   35.7537  -28.5929 H   0  0  0  0  0
  -22.1011   38.5016  -27.3642 H   0  0  0  0  0
  -22.3080   36.9258  -26.4641 H   0  0  0  0  0
  -24.3797   35.5541  -27.1091 H   0  0  0  0  0
  -23.9376   39.7504  -27.8424 H   0  0  0  0  0
  -26.8231   35.7850  -27.2166 H   0  0  0  0  0
  -26.4014   39.9875  -27.9714 H   0  0  0  0  0
  -27.8457   37.9985  -27.6778 H   0  0  0  0  0
  -23.5479   36.0499  -30.3432 H   0  0  0  0  0
  -22.7449   38.2271  -32.2432 H   0  0  0  0  0
  -24.1534   35.6009  -32.7015 H   0  0  0  0  0
  -22.4421   36.0438  -33.1453 H   0  0  0  0  0
  -23.2958   35.3432  -35.0787 H   0  0  0  0  0
  -24.0685   39.9269  -32.3463 H   0  0  0  0  0
  -26.5276   39.9807  -30.9140 H   0  0  0  0  0
  -26.9191   42.1311  -32.1597 H   0  0  0  0  0
  -25.4218   41.7564  -33.1106 H   0  0  0  0  0
  -24.2720   41.6363  -30.7803 H   0  0  0  0  0
  -23.9330   43.3366  -32.5216 H   0  0  0  0  0
  -25.3592   44.2206  -31.9254 H   0  0  0  0  0
  -23.9231   44.0439  -30.8874 H   0  0  0  0  0
  -26.8008   43.1572  -30.1020 H   0  0  0  0  0
  -26.3593   41.5411  -29.4983 H   0  0  0  0  0
  -25.3699   42.9557  -29.0613 H   0  0  0  0  0
  -25.8300   39.2251  -34.3136 H   0  0  0  0  0
  -28.4817   39.5603  -35.2870 H   0  0  0  0  0
  -27.7860   37.8221  -37.0005 H   0  0  0  0  0
  -26.2472   37.6731  -36.0957 H   0  0  0  0  0
  -26.1263   39.1906  -37.8247 H   0  0  0  0  0
  -26.9414   36.7506  -33.7078 H   0  0  0  0  0
  -29.4834   35.2749  -34.1350 H   0  0  0  0  0
  -28.0152   33.2202  -33.9280 H   0  0  0  0  0
  -25.7092   33.6638  -34.0102 H   0  0  0  0  0
  -28.5036   34.1919  -36.1543 H   0  0  0  0  0
  -27.0935   35.2673  -35.9930 H   0  0  0  0  0
  -26.8614   33.5052  -36.1032 H   0  0  0  0  0
  -27.5205   36.4910  -29.4862 H   0  0  0  0  0
  -27.6342   36.6996  -31.7116 H   0  0  0  0  0
  -29.4022   35.4995  -28.2314 H   0  0  0  0  0
  -30.1580   35.1143  -29.8568 H   0  0  0  0  0
  -30.4773   37.3073  -30.3412 H   0  0  0  0  0
  -29.3471   37.8501  -28.9998 H   0  0  0  0  0
  -30.9240   37.6750  -27.4339 H   0  0  0  0  0
  -31.8485   36.4003  -28.3552 H   0  0  0  0  0
  -32.0898   38.8142  -29.7727 H   0  0  0  0  0
  -34.9273   40.0594  -28.2579 H   0  0  0  0  0
  -33.8418   40.0947  -29.6513 H   0  0  0  0  0
  -26.3355   34.4495  -31.2561 H   0  0  0  0  0
  -26.1541   32.2939  -29.1645 H   0  0  0  0  0
  -25.4727   30.7835  -30.9571 H   0  0  0  0  0
  -25.8662   32.1145  -32.1538 H   0  0  0  0  0
  -27.6225   30.4623  -32.0708 H   0  0  0  0  0
  -28.1738   32.0458  -31.3839 H   0  0  0  0  0
  -28.9394   30.0213  -30.1477 H   0  0  0  0  0
  -27.9896   31.2091  -29.1745 H   0  0  0  0  0
  -26.2964   29.6541  -28.9357 H   0  0  0  0  0
  -28.7109   28.5191  -31.2289 H   0  0  0  0  0
  -26.2057   26.3345  -30.0459 H   0  0  0  0  0
  -25.4436   27.5521  -29.0174 H   0  0  0  0  0
  -24.0359   31.4355  -28.7505 H   0  0  0  0  0
  -21.9203   33.3885  -29.0462 H   0  0  0  0  0
  -20.4481   31.5246  -28.2916 H   0  0  0  0  0
  -22.0043   30.5273  -28.1735 H   0  0  0  0  0
  -22.8162   32.0777  -26.5194 H   0  0  0  0  0
  -21.6137   30.0751  -25.8052 H   0  0  0  0  0
  -20.0699   30.9591  -25.8848 H   0  0  0  0  0
  -21.3037   31.4278  -24.6894 H   0  0  0  0  0
  -20.0812   33.3689  -26.7236 H   0  0  0  0  0
  -21.6316   34.0914  -27.2189 H   0  0  0  0  0
  -21.3208   33.7414  -25.5007 H   0  0  0  0  0
  -20.2748   33.4923  -30.4784 H   0  0  0  0  0
  -20.0771   31.4502  -32.6686 H   0  0  0  0  0
  -20.3872   34.3821  -33.1571 H   0  0  0  0  0
  -21.6578   33.0666  -33.4467 H   0  0  0  0  0
  -20.2763   32.1355  -35.1641 H   0  0  0  0  0
  -19.0127   33.3466  -34.8630 H   0  0  0  0  0
  -20.4110   35.1356  -35.5729 H   0  0  0  0  0
  -21.8731   34.0597  -35.5793 H   0  0  0  0  0
  -19.4996   33.7070  -37.4002 H   0  0  0  0  0
  -20.9660   34.6513  -37.8322 H   0  0  0  0  0
  -21.0870   32.3935  -38.6203 H   0  0  0  0  0
  -20.9028   31.8019  -37.0734 H   0  0  0  0  0
  -22.2627   32.6777  -37.4741 H   0  0  0  0  0
  -17.9916   30.8538  -32.3632 H   0  0  0  0  0
  -15.8250   32.6599  -32.6520 H   0  0  0  0  0
  -15.7409   31.0015  -31.9390 H   0  0  0  0  0
  2  1  1  0  0  0
  1 95  1  0  0  0
 97  1  1  0  0  0
  3  2  1  0  0  0
  2 97  1  0  0  0
  3  4  2  0  0  0
  5  3  1  0  0  0
  6  5  1  0  0  0
  7  6  1  0  0  0
  6  9  1  0  0  0
  7  8  2  0  0  0
 14  7  1  0  0  0
  9 10  1  0  0  0
 10 11  1  0  0  0
 11 12  2  0  0  0
 11 13  1  0  0  0
 15 14  1  0  0  0
 16 15  1  0  0  0
 15 18  1  0  0  0
 16 17  2  0  0  0
 25 16  1  0  0  0
 18 19  1  0  0  0
 19 20  4  0  0  0
 19 21  4  0  0  0
 20 22  4  0  0  0
 21 23  4  0  0  0
 22 24  4  0  0  0
 23 24  4  0  0  0
 26 25  1  0  0  0
 27 26  1  0  0  0
 26 29  1  0  0  0
 27 28  2  0  0  0
 33 27  1  0  0  0
 29 30  1  0  0  0
 30 31  2  0  0  0
 30 32  1  0  0  0
 34 33  1  0  0  0
 35 34  1  0  0  0
 34 37  1  0  0  0
 35 36  2  0  0  0
 41 35  1  0  0  0
 37 38  1  0  0  0
 38 39  1  0  0  0
 38 40  1  0  0  0
 42 41  1  0  0  0
 43 42  1  0  0  0
 42 45  1  0  0  0
 43 44  2  0  0  0
 47 43  1  0  0  0
 45 46  1  0  0  0
 48 47  1  0  0  0
 49 48  1  0  0  0
 48 51  1  0  0  0
 49 50  2  0  0  0
 57 49  1  0  0  0
 51 52  1  0  0  0
 51 53  1  0  0  0
 54 55  2  0  0  0
 56 54  1  0  0  0
 54 65  1  0  0  0
 56 57  1  0  0  0
 56 58  1  0  0  0
 58 59  1  0  0  0
 59 60  1  0  0  0
 60 61  1  0  0  0
 61 62  1  0  0  0
 62 63  2  0  0  0
 62 64  1  0  0  0
 65 66  1  0  0  0
 66 67  1  0  0  0
 66 69  1  0  0  0
 67 68  2  0  0  0
 67 76  1  0  0  0
 69 70  1  0  0  0
 70 71  1  0  0  0
 71 72  1  0  0  0
 72 73  1  0  0  0
 73 74  2  0  0  0
 73 75  1  0  0  0
 76 77  1  0  0  0
 77 78  1  0  0  0
 77 80  1  0  0  0
 78 79  2  0  0  0
 78 84  1  0  0  0
 80 81  1  0  0  0
 81 82  1  0  0  0
 81 83  1  0  0  0
 84 85  1  0  0  0
 85 86  1  0  0  0
 85 88  1  0  0  0
 86 87  2  0  0  0
 86 93  1  0  0  0
 88 89  1  0  0  0
 89 90  1  0  0  0
 90 91  1  0  0  0
 91 92  1  0  0  0
 93 94  1  0  0  0
 94 95  1  0  0  0
 95 96  2  0  0  0
  2 98  1  0  0  0
  5 99  1  0  0  0
  6100  1  0  0  0
  9101  1  0  0  0
  9102  1  0  0  0
 10103  1  0  0  0
 10104  1  0  0  0
 13105  1  0  0  0
 13106  1  0  0  0
 14107  1  0  0  0
 15108  1  0  0  0
 18109  1  0  0  0
 18110  1  0  0  0
 20111  1  0  0  0
 21112  1  0  0  0
 22113  1  0  0  0
 23114  1  0  0  0
 24115  1  0  0  0
 25116  1  0  0  0
 26117  1  0  0  0
 29118  1  0  0  0
 29119  1  0  0  0
 32120  1  0  0  0
 33121  1  0  0  0
 34122  1  0  0  0
 37123  1  0  0  0
 37124  1  0  0  0
 38125  1  0  0  0
 39126  1  0  0  0
 39127  1  0  0  0
 39128  1  0  0  0
 40129  1  0  0  0
 40130  1  0  0  0
 40131  1  0  0  0
 41132  1  0  0  0
 42133  1  0  0  0
 45134  1  0  0  0
 45135  1  0  0  0
 46136  1  0  0  0
 47137  1  0  0  0
 48138  1  0  0  0
 51139  1  0  0  0
 52140  1  0  0  0
 53141  1  0  0  0
 53142  1  0  0  0
 53143  1  0  0  0
 56144  1  0  0  0
 57145  1  0  0  0
 58146  1  0  0  0
 58147  1  0  0  0
 59148  1  0  0  0
 59149  1  0  0  0
 60150  1  0  0  0
 60151  1  0  0  0
 61152  1  0  0  0
 64153  1  0  0  0
 64154  1  0  0  0
 65155  1  0  0  0
 66156  1  0  0  0
 69157  1  0  0  0
 69158  1  0  0  0
 70159  1  0  0  0
 70160  1  0  0  0
 71161  1  0  0  0
 71162  1  0  0  0
 72163  1  0  0  0
 74164  1  0  0  0
 75165  1  0  0  0
 75166  1  0  0  0
 76167  1  0  0  0
 77168  1  0  0  0
 80169  1  0  0  0
 80170  1  0  0  0
 81171  1  0  0  0
 82172  1  0  0  0
 82173  1  0  0  0
 82174  1  0  0  0
 83175  1  0  0  0
 83176  1  0  0  0
 83177  1  0  0  0
 84178  1  0  0  0
 85179  1  0  0  0
 88180  1  0  0  0
 88181  1  0  0  0
 89182  1  0  0  0
 89183  1  0  0  0
 90184  1  0  0  0
 90185  1  0  0  0
 91186  1  0  0  0
 91187  1  0  0  0
 92188  1  0  0  0
 92189  1  0  0  0
 92190  1  0  0  0
 93191  1  0  0  0
 94192  1  0  0  0
 94193  1  0  0  0
M  END
$$$$
