5qa6_ligand
  -I-interpret- 

 26 27  0  0  0  0  0  0  0  0999 V2000
   97.0710  254.6520    7.0230 C   0  0  0  0  0
   96.9750  255.0630    5.8450 O   0  0  0  0  0
   96.5100  253.2860    7.3310 C   0  0  0  0  0
   94.5150  248.9960    5.7210 O   0  0  0  0  0
   96.8510  252.2010    6.5340 C   0  0  0  0  0
   97.6040  255.2910    7.9590 O   0  0  0  0  0
   96.3540  250.9280    6.7950 C   0  0  0  0  0
   96.7590  249.7760    5.9430 C   0  0  0  0  0
   95.4950  250.7590    7.8800 C   0  0  0  0  0
   95.1500  251.8340    8.6810 C   0  0  0  0  0
   95.6540  253.0940    8.4080 C   0  0  0  0  0
   98.1070  249.6020    5.6300 C   0  0  0  0  0
   98.5260  248.5260    4.8660 C   0  0  0  0  0
   97.6140  247.6120    4.4000 C   0  0  0  0  0
   96.2700  247.7630    4.6890 C   0  0  0  0  0
   95.8400  248.8410    5.4530 C   0  0  0  0  0
   94.0219  248.2778    5.3177 H   0  0  0  0  0
   97.5212  252.3497    5.6873 H   0  0  0  0  0
   97.5578  254.7728    8.7658 H   0  0  0  0  0
   95.0911  249.7707    8.0997 H   0  0  0  0  0
   94.4801  251.6880    9.5284 H   0  0  0  0  0
   95.3783  253.9381    9.0401 H   0  0  0  0  0
   98.8404  250.3227    5.9917 H   0  0  0  0  0
   99.5840  248.4042    4.6337 H   0  0  0  0  0
   97.9498  246.7655    3.8010 H   0  0  0  0  0
   95.5478  247.0361    4.3173 H   0  0  0  0  0
  1  2  2  0  0  0
  3  1  1  0  0  0
  1  6  1  0  0  0
  5  3  4  0  0  0
  3 11  4  0  0  0
 16  4  1  0  0  0
  7  5  4  0  0  0
  8  7  1  0  0  0
  7  9  4  0  0  0
  8 12  4  0  0  0
  8 16  4  0  0  0
  9 10  4  0  0  0
 10 11  4  0  0  0
 12 13  4  0  0  0
 13 14  4  0  0  0
 14 15  4  0  0  0
 15 16  4  0  0  0
  4 17  1  0  0  0
  5 18  1  0  0  0
  6 19  1  0  0  0
  9 20  1  0  0  0
 10 21  1  0  0  0
 11 22  1  0  0  0
 12 23  1  0  0  0
 13 24  1  0  0  0
 14 25  1  0  0  0
 15 26  1  0  0  0
M  END
$$$$
