5j79_ligand
  -I-interpret- 

 39 41  0  0  0  0  0  0  0  0999 V2000
   49.4290   54.4070   22.2520 N   0  0  0  0  0
   49.0780   58.0640   20.2620 C   0  0  0  0  0
   48.9630   57.9990   21.6480 C   0  0  0  0  0
   49.0790   56.7720   22.2980 C   0  0  0  0  0
   49.3120   55.5940   21.5810 C   0  0  0  0  0
   50.5400   53.6040   22.3990 C   0  0  0  0  0
   52.8500   53.0310   21.9330 C   0  0  0  0  0
   50.4650   50.1480   24.8170 C   0  0  0  0  0
   49.3180   52.0600   23.9330 C   0  0  0  0  0
   48.1790   51.0150   27.1870 C   0  0  0  0  0
   46.7250   51.2010   25.1230 O   0  0  0  0  0
   47.8580   50.4710   25.6360 S   0  0  0  0  0
   47.7990   49.0370   25.6650 O   0  0  0  0  0
   49.3180   50.9390   24.7190 C   0  0  0  0  0
   51.6260   50.4900   24.1380 C   0  0  0  0  0
   50.4700   52.4310   23.2310 C   0  0  0  0  0
   51.6520   51.6270   23.3450 C   0  0  0  0  0
   52.8110   51.9300   22.7030 N   0  0  0  0  0
   51.7530   53.8770   21.7670 C   0  0  0  0  0
   49.4340   55.6510   20.1840 C   0  0  0  0  0
   49.6870   54.4220   19.3310 C   0  0  0  0  0
   48.7310   59.1380   22.3680 O   0  0  0  0  0
   49.3100   56.8920   19.5540 C   0  0  0  0  0
   48.5790   54.0708   22.7047 H   0  0  0  0  0
   48.9876   59.0177   19.7419 H   0  0  0  0  0
   48.9866   56.7295   23.3832 H   0  0  0  0  0
   53.7785   53.2733   21.4161 H   0  0  0  0  0
   50.4480   49.2502   25.4349 H   0  0  0  0  0
   48.4159   52.6666   23.8537 H   0  0  0  0  0
   48.4039   52.0811   27.1574 H   0  0  0  0  0
   47.3072   50.8436   27.8185 H   0  0  0  0  0
   49.0341   50.4731   27.5910 H   0  0  0  0  0
   52.5153   49.8662   24.2279 H   0  0  0  0  0
   51.8450   54.7612   21.1363 H   0  0  0  0  0
   50.6273   53.9599   19.6317 H   0  0  0  0  0
   48.8715   53.7119   19.4682 H   0  0  0  0  0
   49.7433   54.7144   18.2825 H   0  0  0  0  0
   48.6791   58.9201   23.3015 H   0  0  0  0  0
   49.3985   56.9420   18.4687 H   0  0  0  0  0
  1  5  1  0  0  0
  6  1  1  0  0  0
  3  2  4  0  0  0
  2 23  4  0  0  0
  4  3  4  0  0  0
  3 22  1  0  0  0
  5  4  4  0  0  0
  5 20  4  0  0  0
 16  6  4  0  0  0
  6 19  4  0  0  0
  7 18  4  0  0  0
 19  7  4  0  0  0
 14  8  4  0  0  0
  8 15  4  0  0  0
 14  9  4  0  0  0
  9 16  4  0  0  0
 12 10  1  0  0  0
 12 11  2  0  0  0
 12 13  2  0  0  0
 12 14  1  0  0  0
 15 17  4  0  0  0
 16 17  4  0  0  0
 17 18  4  0  0  0
 20 21  1  0  0  0
 20 23  4  0  0  0
  1 24  1  0  0  0
  2 25  1  0  0  0
  4 26  1  0  0  0
  7 27  1  0  0  0
  8 28  1  0  0  0
  9 29  1  0  0  0
 10 30  1  0  0  0
 10 31  1  0  0  0
 10 32  1  0  0  0
 15 33  1  0  0  0
 19 34  1  0  0  0
 21 35  1  0  0  0
 21 36  1  0  0  0
 21 37  1  0  0  0
 22 38  1  0  0  0
 23 39  1  0  0  0
M  END
$$$$
