1dfo_ligand
  -I-interpret- 

 55 57  0  0  0  0  0  0  0  0999 V2000
    9.5010   83.8170   43.4520 N   0  0  0  0  0
    8.3060   83.4100   43.9140 C   0  0  0  0  0
    7.3000   82.8090   43.3200 N   0  0  0  0  0
    8.0880   83.6730   45.2750 N   0  0  0  0  0
    8.9540   84.2940   46.1600 C   0  0  0  0  0
    8.6490   84.4850   47.3810 O   0  0  0  0  0
   10.2470   84.7290   45.5840 C   0  0  0  0  0
   11.2940   85.3970   46.3670 N   0  0  0  0  0
   12.6140   85.0350   45.9110 C   0  0  0  0  0
   12.6350   85.2700   44.4380 C   0  0  0  0  0
   11.7270   84.6200   43.6490 N   0  0  0  0  0
   10.4630   84.4490   44.2330 C   0  0  0  0  0
   12.9370   83.5390   46.0790 C   0  0  0  0  0
   12.9570   83.2050   47.5500 N   0  0  0  0  0
   12.6670   79.5260   49.3690 C   0  0  0  0  0
   13.5260   80.5350   49.9220 C   0  0  0  0  0
   13.6150   81.7630   49.3010 C   0  0  0  0  0
   12.8100   81.9330   48.1090 C   0  0  0  0  0
   11.9780   81.0220   47.5400 C   0  0  0  0  0
   11.9310   79.7820   48.2210 C   0  0  0  0  0
   12.5360   78.2000   49.9740 C   0  0  0  0  0
   11.4590   77.6160   49.8510 O   0  0  0  0  0
   13.5380   77.6370   50.6340 N   0  0  0  0  0
   13.3870   76.3810   51.4180 C   0  0  0  0  0
   13.9720   75.2030   50.5700 C   0  0  0  0  0
   15.3390   75.5610   49.7150 C   0  0  0  0  0
   16.0930   74.5430   48.8030 C   0  0  0  0  0
   15.6430   74.4500   47.6620 O   0  0  0  0  0
   17.1210   73.8550   49.2880 O   0  0  0  0  0
   14.2050   76.4830   52.6590 C   0  0  0  0  0
   14.9530   77.4440   52.8430 O   0  0  0  0  0
   14.1180   75.5750   53.5160 O   0  0  0  0  0
   10.9360   86.3940   47.1910 C   0  0  0  0  0
   11.8340   86.9460   47.8690 O   0  0  0  0  0
    9.7154   83.6523   42.4685 H   0  0  0  0  0
    6.4595   82.5777   43.8496 H   0  0  0  0  0
    7.3595   82.5737   42.3293 H   0  0  0  0  0
   13.3287   85.6174   46.4924 H   0  0  0  0  0
   13.3637   85.9501   43.9970 H   0  0  0  0  0
   13.9098   83.3206   45.6385 H   0  0  0  0  0
   12.1784   82.9397   45.5756 H   0  0  0  0  0
   13.0905   83.9814   48.1979 H   0  0  0  0  0
   14.1025   80.3321   50.8245 H   0  0  0  0  0
   14.2535   82.5588   49.6846 H   0  0  0  0  0
   11.3987   81.2276   46.6399 H   0  0  0  0  0
   11.2890   78.9944   47.8266 H   0  0  0  0  0
   14.4540   78.0847   50.6032 H   0  0  0  0  0
   12.3368   76.2173   51.6596 H   0  0  0  0  0
   13.2084   74.9342   49.8401 H   0  0  0  0  0
   14.2409   74.4151   51.2735 H   0  0  0  0  0
   16.0668   75.7630   50.5009 H   0  0  0  0  0
   14.9868   76.3062   49.0017 H   0  0  0  0  0
   17.2732   74.1101   50.2009 H   0  0  0  0  0
   13.4952   74.9099   53.2138 H   0  0  0  0  0
    9.8968   86.7137   47.2682 H   0  0  0  0  0
  1  2  1  0  0  0
 12  1  1  0  0  0
  2  3  1  0  0  0
  4  2  2  0  0  0
  5  4  1  0  0  0
  5  6  2  0  0  0
  7  5  1  0  0  0
  8  7  1  0  0  0
  7 12  2  0  0  0
  9  8  1  0  0  0
  8 33  1  0  0  0
  9 10  1  0  0  0
 13  9  1  0  0  0
 10 11  2  0  0  0
 11 12  1  0  0  0
 14 13  1  0  0  0
 18 14  1  0  0  0
 16 15  4  0  0  0
 15 20  4  0  0  0
 15 21  1  0  0  0
 17 16  4  0  0  0
 17 18  4  0  0  0
 18 19  4  0  0  0
 19 20  4  0  0  0
 21 22  2  0  0  0
 21 23  1  0  0  0
 23 24  1  0  0  0
 24 25  1  0  0  0
 24 30  1  0  0  0
 25 26  1  0  0  0
 26 27  1  0  0  0
 27 28  2  0  0  0
 27 29  1  0  0  0
 30 31  2  0  0  0
 30 32  1  0  0  0
 33 34  2  0  0  0
  1 35  1  0  0  0
  3 36  1  0  0  0
  3 37  1  0  0  0
  9 38  1  0  0  0
 10 39  1  0  0  0
 13 40  1  0  0  0
 13 41  1  0  0  0
 14 42  1  0  0  0
 16 43  1  0  0  0
 17 44  1  0  0  0
 19 45  1  0  0  0
 20 46  1  0  0  0
 23 47  1  0  0  0
 24 48  1  0  0  0
 25 49  1  0  0  0
 25 50  1  0  0  0
 26 51  1  0  0  0
 26 52  1  0  0  0
 29 53  1  0  0  0
 32 54  1  0  0  0
 33 55  1  0  0  0
M  END
$$$$
