5xhs_ligand
  -I-interpret- 

 70 72  0  0  0  0  0  0  0  0999 V2000
   14.6710  -27.8980   -2.2710 C   0  0  0  0  0
   14.6930  -28.9420   -1.7300 O   0  0  0  0  0
   13.4420  -27.2100   -2.2650 O   0  0  0  0  0
   13.4600  -25.8360   -2.0240 C   0  0  0  0  0
   13.2270  -25.5520   -0.5360 C   0  0  0  0  0
   11.9580  -25.6170    0.0410 C   0  0  0  0  0
   11.7790  -25.3400    1.3930 C   0  0  0  0  0
   12.8650  -24.9880    2.1560 C   0  0  0  0  0
   14.1260  -24.9170    1.5780 C   0  0  0  0  0
   14.3100  -25.1950    0.2390 C   0  0  0  0  0
   18.3160  -28.0820   -2.7560 C   0  0  0  0  0
   15.9080  -27.4610   -2.9310 N   0  0  0  0  0
   18.6220  -26.9490   -2.6160 O   0  0  0  0  0
   16.9150  -28.5080   -3.1920 C   0  0  0  0  0
   16.9840  -28.9340   -4.6520 C   0  0  0  0  0
   16.6070  -28.0380   -6.9810 C   0  0  0  0  0
   15.1730  -28.0460   -7.4640 C   0  0  0  0  0
   16.6480  -27.7060   -5.5020 C   0  0  0  0  0
   15.1740  -29.4310  -11.0490 C   0  0  0  0  0
   13.7330  -29.2540  -11.4640 C   0  0  0  0  0
   13.6480  -29.3840  -12.9580 C   0  0  0  0  0
   15.2730  -28.4900   -9.8800 C   0  0  0  0  0
   15.4450  -27.3370  -10.0510 O   0  0  0  0  0
   15.0890  -28.9950   -8.5550 N   0  0  0  0  0
   13.9480  -28.4030  -13.6880 O   0  0  0  0  0
   13.2890  -30.4970  -13.3990 O   0  0  0  0  0
   19.2310  -29.1850   -2.5330 N   0  0  0  0  0
   20.5820  -29.0370   -2.0590 C   0  0  0  0  0
   21.1990  -27.8180   -1.9520 C   0  0  0  0  0
   22.4980  -27.7650   -1.4450 C   0  0  0  0  0
   24.4960  -26.5690   -1.3540 C   0  0  0  0  0
   25.1320  -27.6540   -0.7130 C   0  0  0  0  0
   24.4260  -28.8660   -0.5400 C   0  0  0  0  0
   23.1310  -28.9190   -1.0460 C   0  0  0  0  0
   22.5030  -30.1370   -1.1310 C   0  0  0  0  0
   21.2180  -30.1800   -1.6230 C   0  0  0  0  0
   24.9740  -30.1240    0.1670 C   0  0  0  0  0
   23.1500  -26.5610   -1.3610 O   0  0  0  0  0
   25.1020  -25.6890   -1.8920 O   0  0  0  0  0
   12.6676  -25.3632   -2.6042 H   0  0  0  0  0
   14.4322  -25.4373   -2.3137 H   0  0  0  0  0
   11.0989  -25.8873   -0.5731 H   0  0  0  0  0
   10.7874  -25.4018    1.8414 H   0  0  0  0  0
   12.7375  -24.7643    3.2152 H   0  0  0  0  0
   14.9828  -24.6376    2.1911 H   0  0  0  0  0
   15.3045  -25.1328   -0.2029 H   0  0  0  0  0
   16.0627  -26.4878   -3.1944 H   0  0  0  0  0
   16.5794  -29.3571   -2.5966 H   0  0  0  0  0
   16.2777  -29.7405   -4.8490 H   0  0  0  0  0
   17.9790  -29.3069   -4.8951 H   0  0  0  0  0
   17.1701  -27.2869   -7.5350 H   0  0  0  0  0
   17.0474  -29.0219   -7.1422 H   0  0  0  0  0
   14.8770  -27.0518   -7.7987 H   0  0  0  0  0
   14.4993  -28.3318   -6.6562 H   0  0  0  0  0
   17.4223  -26.9559   -5.3409 H   0  0  0  0  0
   15.6640  -27.3431   -5.2052 H   0  0  0  0  0
   15.8854  -29.2111  -11.8450 H   0  0  0  0  0
   15.4311  -30.4607  -10.8006 H   0  0  0  0  0
   13.3747  -28.2721  -11.1549 H   0  0  0  0  0
   13.1128  -30.0138  -10.9885 H   0  0  0  0  0
   14.9059  -29.9839   -8.3849 H   0  0  0  0  0
   14.1924  -27.6571  -13.1352 H   0  0  0  0  0
   18.8946  -30.1286   -2.7249 H   0  0  0  0  0
   20.6846  -26.9068   -2.2573 H   0  0  0  0  0
   26.1571  -27.5580   -0.3551 H   0  0  0  0  0
   23.0102  -31.0490   -0.8162 H   0  0  0  0  0
   20.6940  -31.1347   -1.6687 H   0  0  0  0  0
   25.8659  -30.4724   -0.3538 H   0  0  0  0  0
   25.2266  -29.8785    1.1985 H   0  0  0  0  0
   24.2151  -30.9063    0.1538 H   0  0  0  0  0
  1  2  2  0  0  0
  1  3  1  0  0  0
 12  1  1  0  0  0
  3  4  1  0  0  0
  4  5  1  0  0  0
  5  6  4  0  0  0
  5 10  4  0  0  0
  6  7  4  0  0  0
  7  8  4  0  0  0
  9  8  4  0  0  0
 10  9  4  0  0  0
 11 13  2  0  0  0
 11 14  1  0  0  0
 27 11  1  0  0  0
 14 12  1  0  0  0
 14 15  1  0  0  0
 15 18  1  0  0  0
 16 17  1  0  0  0
 18 16  1  0  0  0
 17 24  1  0  0  0
 19 20  1  0  0  0
 22 19  1  0  0  0
 20 21  1  0  0  0
 21 25  1  0  0  0
 21 26  2  0  0  0
 22 23  2  0  0  0
 24 22  1  0  0  0
 28 27  1  0  0  0
 29 28  4  0  0  0
 28 36  4  0  0  0
 30 29  4  0  0  0
 30 34  4  0  0  0
 38 30  1  0  0  0
 31 32  1  0  0  0
 31 38  1  0  0  0
 31 39  2  0  0  0
 32 33  2  0  0  0
 33 34  1  0  0  0
 33 37  1  0  0  0
 34 35  4  0  0  0
 35 36  4  0  0  0
  4 40  1  0  0  0
  4 41  1  0  0  0
  6 42  1  0  0  0
  7 43  1  0  0  0
  8 44  1  0  0  0
  9 45  1  0  0  0
 10 46  1  0  0  0
 12 47  1  0  0  0
 14 48  1  0  0  0
 15 49  1  0  0  0
 15 50  1  0  0  0
 16 51  1  0  0  0
 16 52  1  0  0  0
 17 53  1  0  0  0
 17 54  1  0  0  0
 18 55  1  0  0  0
 18 56  1  0  0  0
 19 57  1  0  0  0
 19 58  1  0  0  0
 20 59  1  0  0  0
 20 60  1  0  0  0
 24 61  1  0  0  0
 25 62  1  0  0  0
 27 63  1  0  0  0
 29 64  1  0  0  0
 32 65  1  0  0  0
 35 66  1  0  0  0
 36 67  1  0  0  0
 37 68  1  0  0  0
 37 69  1  0  0  0
 37 70  1  0  0  0
M  END
$$$$
