3zya_ligand
  -I-interpret- 

 44 47  0  0  0  0  0  0  0  0999 V2000
   16.4530  -12.9390  -28.1130 N   0  0  0  0  0
   11.4660  -18.8150  -32.0190 O   0  0  0  0  0
    7.5710  -16.4900  -34.1620 C   0  0  0  0  0
    7.8530  -15.7380  -33.0190 C   0  0  0  0  0
    8.4050  -17.5290  -34.5630 C   0  0  0  0  0
   19.1320  -14.4810  -30.1040 C   0  0  0  0  0
   18.4370  -14.8400  -31.2450 C   0  0  0  0  0
   18.5070  -13.8500  -29.0470 C   0  0  0  0  0
    9.0000  -16.0660  -32.2860 C   0  0  0  0  0
    9.5530  -17.8390  -33.8130 C   0  0  0  0  0
   12.6600  -14.1360  -30.8920 C   0  0  0  0  0
   14.2820  -15.9210  -30.8940 C   0  0  0  0  0
   17.0760  -14.5710  -31.3590 C   0  0  0  0  0
   11.6720  -15.0630  -31.2730 C   0  0  0  0  0
   13.3120  -16.8490  -31.2720 C   0  0  0  0  0
    9.1680  -15.1760  -31.1150 C   0  0  0  0  0
   14.9910  -13.6140  -30.3180 N   0  0  0  0  0
   11.0720  -17.5220  -31.9000 C   0  0  0  0  0
   10.3660  -14.3390  -31.4020 C   0  0  0  0  0
   17.1440  -13.5850  -29.1640 C   0  0  0  0  0
   13.9750  -14.5760  -30.7050 C   0  0  0  0  0
    9.8350  -17.0880  -32.6550 C   0  0  0  0  0
   11.9950  -16.4050  -31.4530 C   0  0  0  0  0
   16.4130  -13.9390  -30.3030 C   0  0  0  0  0
   16.9523  -12.6658  -27.2666 H   0  0  0  0  0
   15.4553  -12.7462  -28.2013 H   0  0  0  0  0
   12.2571  -18.9569  -31.4940 H   0  0  0  0  0
    6.6825  -16.2589  -34.7497 H   0  0  0  0  0
    7.2009  -14.9219  -32.7077 H   0  0  0  0  0
    8.1682  -18.1028  -35.4590 H   0  0  0  0  0
   20.1974  -14.7014  -30.0380 H   0  0  0  0  0
   18.9596  -15.3378  -32.0618 H   0  0  0  0  0
   19.0609  -13.5687  -28.1514 H   0  0  0  0  0
   10.2146  -18.6479  -34.1227 H   0  0  0  0  0
   12.4037  -13.0869  -30.7442 H   0  0  0  0  0
   15.3076  -16.2575  -30.7425 H   0  0  0  0  0
   16.5331  -14.8502  -32.2620 H   0  0  0  0  0
   13.5724  -17.8966  -31.4233 H   0  0  0  0  0
    9.2993  -15.7511  -30.1984 H   0  0  0  0  0
    8.2836  -14.5582  -30.9593 H   0  0  0  0  0
   14.6995  -12.6751  -30.0462 H   0  0  0  0  0
   10.7871  -17.7693  -30.8774 H   0  0  0  0  0
   10.2845  -14.0080  -32.4373 H   0  0  0  0  0
   10.3745  -13.5309  -30.6705 H   0  0  0  0  0
 20  1  1  0  0  0
 18  2  1  0  0  0
  4  3  4  0  0  0
  5  3  4  0  0  0
  9  4  4  0  0  0
 10  5  4  0  0  0
  7  6  4  0  0  0
  6  8  4  0  0  0
 13  7  4  0  0  0
  8 20  4  0  0  0
  9 16  1  0  0  0
 22  9  4  0  0  0
 22 10  4  0  0  0
 14 11  4  0  0  0
 11 21  4  0  0  0
 15 12  4  0  0  0
 21 12  4  0  0  0
 24 13  4  0  0  0
 19 14  1  0  0  0
 14 23  4  0  0  0
 23 15  4  0  0  0
 16 19  1  0  0  0
 21 17  1  0  0  0
 17 24  1  0  0  0
 18 22  1  0  0  0
 18 23  1  0  0  0
 20 24  4  0  0  0
  1 25  1  0  0  0
  1 26  1  0  0  0
  2 27  1  0  0  0
  3 28  1  0  0  0
  4 29  1  0  0  0
  5 30  1  0  0  0
  6 31  1  0  0  0
  7 32  1  0  0  0
  8 33  1  0  0  0
 10 34  1  0  0  0
 11 35  1  0  0  0
 12 36  1  0  0  0
 13 37  1  0  0  0
 15 38  1  0  0  0
 16 39  1  0  0  0
 16 40  1  0  0  0
 17 41  1  0  0  0
 18 42  1  0  0  0
 19 43  1  0  0  0
 19 44  1  0  0  0
M  END
$$$$
