3rk9_ligand
  -I-interpret- 

 34 35  0  0  0  0  0  0  0  0999 V2000
  -35.8730  -83.6810  -83.0850 C   0  0  0  0  0
  -36.7130  -82.4730  -83.5880 C   0  0  0  0  0
  -35.8030  -81.2220  -83.6980 C   0  0  0  0  0
  -37.2740  -82.8280  -84.9060 N   0  0  0  0  0
  -38.3130  -82.1010  -85.4720 C   0  0  0  0  0
  -38.6380  -82.2620  -86.7830 N   0  0  0  0  0
  -39.6590  -81.4630  -87.1120 C   0  0  0  0  0
  -40.1190  -80.6870  -86.0820 C   0  0  0  0  0
  -39.2630  -80.9690  -84.6400 S   0  0  0  0  0
  -40.1420  -81.4320  -88.3100 N   0  0  0  0  0
  -41.2510  -79.6910  -86.2060 C   0  0  0  0  0
  -41.7070  -78.8200  -85.0940 C   0  0  0  0  0
  -40.7260  -78.1020  -84.2910 C   0  0  0  0  0
  -41.1310  -77.2390  -83.2080 C   0  0  0  0  0
  -42.5200  -77.0910  -82.9320 C   0  0  0  0  0
  -43.4650  -77.7760  -83.7100 N   0  0  0  0  0
  -43.1120  -78.6400  -84.7900 C   0  0  0  0  0
  -41.8640  -79.5700  -87.4050 O   0  0  0  0  0
  -36.5151  -84.5576  -82.9987 H   0  0  0  0  0
  -35.0711  -83.8849  -83.7945 H   0  0  0  0  0
  -35.4461  -83.4444  -82.1104 H   0  0  0  0  0
  -37.5220  -82.2447  -82.8941 H   0  0  0  0  0
  -34.9834  -81.4298  -84.3858 H   0  0  0  0  0
  -36.3874  -80.3808  -84.0708 H   0  0  0  0  0
  -35.4009  -80.9792  -82.7144 H   0  0  0  0  0
  -36.8898  -83.6255  -85.4128 H   0  0  0  0  0
  -39.7440  -82.0278  -89.0359 H   0  0  0  0  0
  -40.9213  -80.8117  -88.5298 H   0  0  0  0  0
  -41.0255  -80.0185  -85.1911 H   0  0  0  0  0
  -39.6652  -78.2191  -84.5128 H   0  0  0  0  0
  -40.3873  -76.7100  -82.6120 H   0  0  0  0  0
  -42.8486  -76.4461  -82.1170 H   0  0  0  0  0
  -43.8797  -79.1511  -85.3710 H   0  0  0  0  0
  -42.5574  -78.9090  -87.3433 H   0  0  0  0  0
  1  2  1  0  0  0
  2  3  1  0  0  0
  2  4  1  0  0  0
  4  5  1  0  0  0
  5  6  4  0  0  0
  5  9  4  0  0  0
  6  7  4  0  0  0
  7  8  4  0  0  0
  7 10  1  0  0  0
  8  9  4  0  0  0
  8 11  1  0  0  0
 11 12  1  0  0  0
 11 18  1  0  0  0
 12 13  4  0  0  0
 12 17  4  0  0  0
 13 14  4  0  0  0
 14 15  4  0  0  0
 15 16  4  0  0  0
 16 17  4  0  0  0
  1 19  1  0  0  0
  1 20  1  0  0  0
  1 21  1  0  0  0
  2 22  1  0  0  0
  3 23  1  0  0  0
  3 24  1  0  0  0
  3 25  1  0  0  0
  4 26  1  0  0  0
 10 27  1  0  0  0
 10 28  1  0  0  0
 11 29  1  0  0  0
 13 30  1  0  0  0
 14 31  1  0  0  0
 15 32  1  0  0  0
 17 33  1  0  0  0
 18 34  1  0  0  0
M  END
$$$$
