4m3b_ligand
  -I-interpret- 

 34 35  0  0  0  0  0  0  0  0999 V2000
   32.2130  -17.4240   -7.7590 F   0  0  0  0  0
   30.9710  -17.4980   -7.3620 C   0  0  0  0  0
   30.2820  -17.4360   -8.4660 F   0  0  0  0  0
   30.7560  -18.6680   -6.7530 F   0  0  0  0  0
   30.5640  -16.3400   -6.4780 C   0  0  0  0  0
   29.0670  -16.3640   -6.1160 C   0  0  0  0  0
   28.6360  -15.0430   -5.5700 N   0  0  0  0  0
   28.4180  -14.0110   -6.3820 C   0  0  0  0  0
   28.3150  -14.1820   -7.6130 O   0  0  0  0  0
   28.1510  -12.6480   -5.7960 C   0  0  0  0  0
   28.2910  -12.4380   -4.4080 C   0  0  0  0  0
   28.0540  -11.1570   -3.8690 C   0  0  0  0  0
   27.7470  -11.5930   -6.6310 C   0  0  0  0  0
   27.4880  -10.3170   -6.0730 C   0  0  0  0  0
   27.6480  -10.1080   -4.6920 C   0  0  0  0  0
   27.3710   -8.8400   -4.1670 C   0  0  0  0  0
   27.0420   -7.8190   -5.0010 N   0  0  0  0  0
   27.3940   -8.4500   -2.8440 C   0  0  0  0  0
   26.9270   -6.8200   -2.7130 S   0  0  0  0  0
   26.7930   -6.6400   -4.4090 C   0  0  0  0  0
   26.3960   -5.3560   -5.0820 C   0  0  0  0  0
   30.7610  -15.4174   -7.0241 H   0  0  0  0  0
   31.1331  -16.4111   -5.5511 H   0  0  0  0  0
   28.8993  -17.1302   -5.3591 H   0  0  0  0  0
   28.4900  -16.5792   -7.0154 H   0  0  0  0  0
   28.5073  -14.9301   -4.5645 H   0  0  0  0  0
   28.5809  -13.2618   -3.7557 H   0  0  0  0  0
   28.1892  -10.9858   -2.8011 H   0  0  0  0  0
   27.6334  -11.7554   -7.7028 H   0  0  0  0  0
   27.1646   -9.4972   -6.7144 H   0  0  0  0  0
   27.6704   -9.0912   -2.0070 H   0  0  0  0  0
   27.1757   -5.0587   -5.7833 H   0  0  0  0  0
   25.4592   -5.5035   -5.6194 H   0  0  0  0  0
   26.2662   -4.5780   -4.3297 H   0  0  0  0  0
  1  2  1  0  0  0
  2  3  1  0  0  0
  2  4  1  0  0  0
  2  5  1  0  0  0
  5  6  1  0  0  0
  6  7  1  0  0  0
  7  8  1  0  0  0
  8  9  2  0  0  0
  8 10  1  0  0  0
 10 11  4  0  0  0
 10 13  4  0  0  0
 11 12  4  0  0  0
 12 15  4  0  0  0
 13 14  4  0  0  0
 14 15  4  0  0  0
 15 16  1  0  0  0
 16 17  4  0  0  0
 16 18  4  0  0  0
 17 20  4  0  0  0
 18 19  4  0  0  0
 19 20  4  0  0  0
 20 21  1  0  0  0
  5 22  1  0  0  0
  5 23  1  0  0  0
  6 24  1  0  0  0
  6 25  1  0  0  0
  7 26  1  0  0  0
 11 27  1  0  0  0
 12 28  1  0  0  0
 13 29  1  0  0  0
 14 30  1  0  0  0
 18 31  1  0  0  0
 21 32  1  0  0  0
 21 33  1  0  0  0
 21 34  1  0  0  0
M  END
$$$$
