2ypi_ligand
  -I-interpret- 

 14 13  0  0  0  0  0  0  0  0999 V2000
   93.6280   42.7410   47.7230 P   0  0  0  0  0
   93.8770   44.2520   47.5700 O   0  0  0  0  0
   93.1120   42.2370   46.3890 O   0  0  0  0  0
   94.7130   41.9010   48.3330 O   0  0  0  0  0
   92.1590   42.7410   48.4850 O   0  0  0  0  0
   92.1480   42.7410   49.8570 C   0  0  0  0  0
   90.7180   43.0770   50.3910 C   0  0  0  0  0
   89.8010   43.5800   49.6670 O   0  0  0  0  0
   90.7130   42.9090   51.7250 O   0  0  0  0  0
   93.1076   44.6630   47.1692 H   0  0  0  0  0
   92.4250   42.8266   46.0695 H   0  0  0  0  0
   92.8476   43.4952   50.2174 H   0  0  0  0  0
   92.4369   41.7525   50.2141 H   0  0  0  0  0
   91.5393   42.5041   51.9985 H   0  0  0  0  0
  1  2  1  0  0  0
  1  3  1  0  0  0
  1  4  2  0  0  0
  1  5  1  0  0  0
  5  6  1  0  0  0
  6  7  1  0  0  0
  7  8  2  0  0  0
  7  9  1  0  0  0
  2 10  1  0  0  0
  3 11  1  0  0  0
  6 12  1  0  0  0
  6 13  1  0  0  0
  9 14  1  0  0  0
M  END
$$$$
