3i1y_ligand
  -I-interpret- 

 44 46  0  0  0  0  0  0  0  0999 V2000
   74.7820   -9.0290   67.9830 C   0  0  0  0  0
   76.2290  -11.6530   68.5250 C   0  0  0  0  0
   73.9780  -12.4210   68.8370 C   0  0  0  0  0
   74.9010  -10.1690   71.5910 C   0  0  0  0  0
   75.8460   -8.3240   70.3830 C   0  0  0  0  0
   76.6310  -12.9470   68.2430 C   0  0  0  0  0
   76.4250   -7.8590   71.5520 C   0  0  0  0  0
   75.7060  -13.9770   68.2580 C   0  0  0  0  0
   75.1510   -8.7410   64.5260 C   0  0  0  0  0
   75.8790   -7.8160   62.3210 C   0  0  0  0  0
   74.2510   -6.5970   63.6110 C   0  0  0  0  0
   75.7870   -6.8220   61.3640 C   0  0  0  0  0
   74.9290   -5.7580   61.5770 C   0  0  0  0  0
   75.9010   -9.6880   64.4060 O   0  0  0  0  0
   75.0940   -7.7010   63.4750 C   0  0  0  0  0
   74.1970   -5.6750   62.6720 N   0  0  0  0  0
   74.3740   -8.6440   65.6180 N   0  0  0  0  0
   74.4340   -9.6820   66.6460 C   0  0  0  0  0
   74.4450   -9.9840   69.1310 C   0  0  0  0  0
   75.0790   -9.4780   70.4040 C   0  0  0  0  0
   76.2470   -8.5480   72.7390 C   0  0  0  0  0
   75.4820   -9.7030   72.7580 C   0  0  0  0  0
   74.9020  -11.3890   68.8200 C   0  0  0  0  0
   74.3800  -13.7140   68.5570 C   0  0  0  0  0
   74.2046   -8.1115   68.0967 H   0  0  0  0  0
   75.8476   -8.8007   68.0056 H   0  0  0  0  0
   76.9569  -10.8417   68.5149 H   0  0  0  0  0
   72.9338  -12.2137   69.0712 H   0  0  0  0  0
   74.3031  -11.0803   71.6064 H   0  0  0  0  0
   75.9933   -7.7833   69.4481 H   0  0  0  0  0
   77.6751  -13.1550   68.0093 H   0  0  0  0  0
   77.0227   -6.9476   71.5371 H   0  0  0  0  0
   76.0220  -14.9959   68.0342 H   0  0  0  0  0
   76.5454   -8.6671   62.1807 H   0  0  0  0  0
   73.6317   -6.4969   64.5024 H   0  0  0  0  0
   76.3832   -6.8762   60.4531 H   0  0  0  0  0
   74.8560   -4.9722   60.8252 H   0  0  0  0  0
   73.7446   -7.8491   65.7294 H   0  0  0  0  0
   73.4702  -10.1856   66.7200 H   0  0  0  0  0
   75.1943  -10.4180   66.3847 H   0  0  0  0  0
   73.3632  -10.0167   69.2601 H   0  0  0  0  0
   76.7076   -8.1828   73.6569 H   0  0  0  0  0
   75.3375  -10.2452   73.6925 H   0  0  0  0  0
   73.6531  -14.5261   68.5717 H   0  0  0  0  0
  1 18  1  0  0  0
 19  1  1  0  0  0
  2  6  4  0  0  0
 23  2  4  0  0  0
 23  3  4  0  0  0
  3 24  4  0  0  0
 20  4  4  0  0  0
  4 22  4  0  0  0
  5  7  4  0  0  0
 20  5  4  0  0  0
  6  8  4  0  0  0
  7 21  4  0  0  0
 24  8  4  0  0  0
  9 14  2  0  0  0
  9 15  1  0  0  0
 17  9  1  0  0  0
 10 12  4  0  0  0
 15 10  4  0  0  0
 15 11  4  0  0  0
 11 16  4  0  0  0
 12 13  4  0  0  0
 16 13  4  0  0  0
 18 17  1  0  0  0
 19 20  1  0  0  0
 19 23  1  0  0  0
 21 22  4  0  0  0
  1 25  1  0  0  0
  1 26  1  0  0  0
  2 27  1  0  0  0
  3 28  1  0  0  0
  4 29  1  0  0  0
  5 30  1  0  0  0
  6 31  1  0  0  0
  7 32  1  0  0  0
  8 33  1  0  0  0
 10 34  1  0  0  0
 11 35  1  0  0  0
 12 36  1  0  0  0
 13 37  1  0  0  0
 17 38  1  0  0  0
 18 39  1  0  0  0
 18 40  1  0  0  0
 19 41  1  0  0  0
 21 42  1  0  0  0
 22 43  1  0  0  0
 24 44  1  0  0  0
M  END
$$$$
