2yg2_ligand
  -I-interpret- 

 21 20  0  0  0  0  0  0  0  0999 V2000
  -34.9690    5.0410   35.4470 C   0  0  0  0  0
  -34.4400    3.7060   35.9560 C   0  0  0  0  0
  -33.0890    3.2910   35.3510 C   0  0  0  0  0
  -33.2540    3.2380   33.8520 C   0  0  0  0  0
  -32.5890    1.9320   35.8370 C   0  0  0  0  0
  -32.2490    1.9150   37.3240 C   0  0  0  0  0
  -36.1130    5.0020   34.8970 O   0  0  0  0  0
  -34.3270    6.1040   35.6400 O   0  0  0  0  0
  -33.9680    2.3390   33.4120 O   0  0  0  0  0
  -32.7200    4.1310   33.1580 O   0  0  0  0  0
  -31.0560    1.9810   37.6370 O   0  0  0  0  0
  -33.1750    1.8580   38.1500 O   0  0  0  0  0
  -32.1320    4.2790   35.6470 O   0  0  0  0  0
  -35.1663    2.9438   35.6738 H   0  0  0  0  0
  -34.2931    3.8073   37.0313 H   0  0  0  0  0
  -31.6776    1.6987   35.2866 H   0  0  0  0  0
  -33.3866    1.2077   35.6717 H   0  0  0  0  0
  -36.4144    4.0916   34.8521 H   0  0  0  0  0
  -32.2123    4.7153   33.7258 H   0  0  0  0  0
  -34.0141    1.8129   37.6858 H   0  0  0  0  0
  -32.4488    5.1318   35.3405 H   0  0  0  0  0
  1  2  1  0  0  0
  1  7  1  0  0  0
  1  8  2  0  0  0
  2  3  1  0  0  0
  3  4  1  0  0  0
  3  5  1  0  0  0
  3 13  1  0  0  0
  4  9  2  0  0  0
  4 10  1  0  0  0
  5  6  1  0  0  0
  6 11  2  0  0  0
  6 12  1  0  0  0
  2 14  1  0  0  0
  2 15  1  0  0  0
  5 16  1  0  0  0
  5 17  1  0  0  0
  7 18  1  0  0  0
 10 19  1  0  0  0
 12 20  1  0  0  0
 13 21  1  0  0  0
M  END
$$$$
