5huw_ligand
  -I-interpret- 

167168  0  0  0  0  0  0  0  0999 V2000
   -2.2800   16.6100    1.6980 N   0  3  0  0  0
   -2.4820   16.6860    0.2630 C   0  0  0  0  0
   -3.0490   15.4160   -0.3530 C   0  0  0  0  0
   -3.3890   14.4740    0.3680 O   0  0  0  0  0
   -3.1510   15.3920   -1.6810 N   0  0  0  0  0
   -3.7090   14.2170   -2.3760 C   0  0  0  0  0
   -2.6910   13.0880   -2.4260 C   0  0  0  0  0
   -1.5560   13.2500   -1.9430 O   0  0  0  0  0
   -4.0260   14.7650   -3.7760 C   0  0  0  0  0
   -3.0150   15.8780   -3.9670 C   0  0  0  0  0
   -2.7480   16.4630   -2.6130 C   0  0  0  0  0
   -3.0610   11.9190   -2.9650 N   0  0  0  0  0
   -2.1140   10.7860   -2.9910 C   0  0  0  0  0
   -0.8730   11.0560   -3.8400 C   0  0  0  0  0
   -0.9460   11.5980   -4.9440 O   0  0  0  0  0
   -2.9480    9.6400   -3.5760 C   0  0  0  0  0
   -4.3690    9.9750   -3.1820 C   0  0  0  0  0
   -4.4470   11.4880   -3.2490 C   0  0  0  0  0
    0.2790   10.6410   -3.3160 N   0  0  0  0  0
    1.5270   10.7990   -4.0580 C   0  0  0  0  0
    1.6020    9.8430   -5.2450 C   0  0  0  0  0
    2.2120   10.1760   -6.2680 O   0  0  0  0  0
    2.7190   10.5710   -3.1280 C   0  0  0  0  0
    2.7930   11.5310   -1.9370 C   0  0  0  0  0
    4.0310   12.4160   -2.0440 C   0  0  0  0  0
    3.9550   13.3100   -3.2780 C   0  0  0  0  0
    5.2830   13.8180   -3.7240 N   0  3  0  0  0
    1.0030    8.6570   -5.1250 N   0  0  0  0  0
    1.1530    7.5870   -6.1070 C   0  0  0  0  0
   -0.2050    6.9570   -6.3750 C   0  0  0  0  0
   -1.1250    7.0680   -5.5640 O   0  0  0  0  0
    2.1520    6.5190   -5.6230 C   0  0  0  0  0
    3.5800    7.0550   -5.4050 C   0  0  0  0  0
    4.4720    6.0380   -4.6670 C   0  0  0  0  0
    5.8390    6.6430   -4.3480 C   0  0  0  0  0
    6.7520    5.7610   -3.5370 N   0  3  0  0  0
   -0.3300    6.3090   -7.5360 N   0  0  0  0  0
   -1.5780    5.6670   -7.9530 C   0  0  0  0  0
   -1.2800    4.3250   -8.5980 C   0  0  0  0  0
   -0.4830    4.2480   -9.5400 O   0  0  0  0  0
   -2.3610    6.5140   -8.9610 C   0  0  0  0  0
   -2.9270    7.8020   -8.4400 C   0  0  0  0  0
   -3.2030    8.7690   -9.5950 C   0  0  0  0  0
   -4.1460    8.2380  -10.5890 N   0  0  0  0  0
   -3.9600    8.2570  -11.9050 C   0  0  0  0  0
   -2.8480    8.7650  -12.4030 N   0  0  0  0  0
   -4.8900    7.7700  -12.7130 N   0  0  0  0  0
   -1.9610    3.2860   -8.1260 N   0  0  0  0  0
   -1.9510    1.9850   -8.7790 C   0  0  0  0  0
   -3.0640    1.9230   -9.8190 C   0  0  0  0  0
   -4.1410    2.4840   -9.6250 O   0  0  0  0  0
   -2.1330    0.8660   -7.7490 C   0  0  0  0  0
   -2.7950    1.2460  -10.9300 N   0  0  0  0  0
   -3.8020    1.0170  -11.9640 C   0  0  0  0  0
   -4.4610   -0.3340  -11.6960 C   0  0  0  0  0
   -3.8180   -1.3810  -11.8300 O   0  0  0  0  0
   -3.1590    1.0550  -13.3450 C   0  0  0  0  0
   -4.1170    0.8310  -14.5250 C   0  0  0  0  0
   -3.3440    0.9690  -15.8440 C   0  0  0  0  0
   -4.1500    0.5030  -17.0540 C   0  0  0  0  0
   -5.2880    1.4040  -17.3150 N   0  3  0  0  0
   -5.7370   -0.3190  -11.3200 N   0  0  0  0  0
   -6.4270   -1.5330  -10.8970 C   0  0  0  0  0
   -7.4400   -1.9700  -11.9480 C   0  0  0  0  0
   -7.9910   -1.1580  -12.6990 O   0  0  0  0  0
   -7.1020   -1.3410   -9.5270 C   0  0  0  0  0
   -6.0350   -1.1990   -8.4560 C   0  0  0  0  0
   -8.0180   -0.1280   -9.5530 C   0  0  0  0  0
   -7.6770   -3.2810  -11.9850 N   0  0  0  0  0
   -8.5460   -3.9480  -12.9610 C   0  0  0  0  0
   -8.3330   -3.4850  -14.4030 C   0  0  0  0  0
   -8.2160   -4.3090  -15.3130 O   0  0  0  0  0
  -10.0110   -3.7690  -12.5660 C   0  0  0  0  0
  -10.3670   -4.5450  -11.3160 C   0  0  0  0  0
   -9.4740   -5.2490  -10.7920 O   0  0  0  0  0
  -11.5310   -4.4620  -10.8650 O   0  0  0  0  0
   -8.2760   -2.2830  -14.6710 O   0  0  0  0  0
   -1.8999   17.4949    2.0340 H   0  0  0  0  0
   -3.1724   16.4260    2.1565 H   0  0  0  0  0
   -1.6263   15.8559    1.9087 H   0  0  0  0  0
   -1.5060   16.8566   -0.1913 H   0  0  0  0  0
   -3.2035   17.4825    0.0808 H   0  0  0  0  0
   -4.5832   13.7898   -1.8847 H   0  0  0  0  0
   -5.0534   15.1192   -3.8598 H   0  0  0  0  0
   -3.9505   13.9992   -4.5480 H   0  0  0  0  0
   -3.4010   16.6378   -4.6466 H   0  0  0  0  0
   -2.0961   15.4932   -4.4094 H   0  0  0  0  0
   -1.7054   16.7540   -2.4849 H   0  0  0  0  0
   -3.2988   17.3884   -2.4448 H   0  0  0  0  0
   -1.7123   10.5743   -2.0001 H   0  0  0  0  0
   -2.6345    8.6679   -3.1955 H   0  0  0  0  0
   -2.8301    9.5560   -4.6563 H   0  0  0  0  0
   -4.6118    9.6011   -2.1873 H   0  0  0  0  0
   -5.0944    9.5029   -3.8445 H   0  0  0  0  0
   -4.8057   11.8452   -4.2143 H   0  0  0  0  0
   -5.1658   11.9007   -2.5411 H   0  0  0  0  0
    0.2897   10.2105   -2.3914 H   0  0  0  0  0
    1.5566   11.8165   -4.4476 H   0  0  0  0  0
    3.6196   10.7305   -3.7210 H   0  0  0  0  0
    2.6155    9.5657   -2.7197 H   0  0  0  0  0
    2.8498   10.9507   -1.0161 H   0  0  0  0  0
    1.9044   12.1622   -1.9338 H   0  0  0  0  0
    4.9117   11.7790   -2.1260 H   0  0  0  0  0
    4.0892   13.0467   -1.1569 H   0  0  0  0  0
    3.3425   14.1740   -3.0203 H   0  0  0  0  0
    3.5418   12.7131   -4.0910 H   0  0  0  0  0
    5.1614   14.4058   -4.5487 H   0  0  0  0  0
    5.7056   14.3654   -2.9742 H   0  0  0  0  0
    5.8878   13.0293   -3.9533 H   0  0  0  0  0
    0.4131    8.4901   -4.3098 H   0  0  0  0  0
    1.5479    8.0133   -7.0292 H   0  0  0  0  0
    2.2075    5.7524   -6.3959 H   0  0  0  0  0
    1.7932    6.1507   -4.6619 H   0  0  0  0  0
    3.5162    7.9571   -4.7965 H   0  0  0  0  0
    4.0230    7.2515   -6.3813 H   0  0  0  0  0
    4.6145    5.1672   -5.3069 H   0  0  0  0  0
    3.9856    5.7580   -3.7326 H   0  0  0  0  0
    5.6560    7.5379   -3.7532 H   0  0  0  0  0
    6.3362    6.8177   -5.3021 H   0  0  0  0  0
    7.6348    6.2455   -3.3746 H   0  0  0  0  0
    6.3104    5.5476   -2.6427 H   0  0  0  0  0
    6.9269    4.8948   -4.0465 H   0  0  0  0  0
    0.4771    6.2593   -8.1577 H   0  0  0  0  0
   -2.1832    5.5458   -7.0546 H   0  0  0  0  0
   -3.2129    5.9093   -9.2720 H   0  0  0  0  0
   -1.6550    6.7856   -9.7458 H   0  0  0  0  0
   -2.2069    8.2571   -7.7600 H   0  0  0  0  0
   -3.8619    7.5944   -7.9194 H   0  0  0  0  0
   -2.2566    8.9505  -10.1045 H   0  0  0  0  0
   -3.6463    9.6697   -9.1703 H   0  0  0  0  0
   -5.0106    7.8225  -10.2421 H   0  0  0  0  0
   -2.1348    9.1413  -11.7784 H   0  0  0  0  0
   -4.7479    7.7869  -13.7229 H   0  0  0  0  0
   -5.7482    7.3781  -12.3252 H   0  0  0  0  0
   -2.5108    3.4045   -7.2751 H   0  0  0  0  0
   -0.9889    1.8473   -9.2724 H   0  0  0  0  0
   -1.3198    0.9052   -7.0243 H   0  0  0  0  0
   -3.0855    0.9978   -7.2357 H   0  0  0  0  0
   -2.1228   -0.0985   -8.2566 H   0  0  0  0  0
   -1.8550    0.8739  -11.0657 H   0  0  0  0  0
   -4.5592    1.8007  -11.9381 H   0  0  0  0  0
   -2.4348    0.2408  -13.3734 H   0  0  0  0  0
   -2.7435    2.0553  -13.4672 H   0  0  0  0  0
   -4.9147    1.5731  -14.4917 H   0  0  0  0  0
   -4.5479   -0.1680  -14.4589 H   0  0  0  0  0
   -2.4533    0.3444  -15.7757 H   0  0  0  0  0
   -3.1104    2.0243  -15.9850 H   0  0  0  0  0
   -4.5362   -0.4959  -16.8513 H   0  0  0  0  0
   -3.4982    0.5033  -17.9276 H   0  0  0  0  0
   -5.8066    1.0684  -18.1267 H   0  0  0  0  0
   -5.9018    1.4193  -16.5005 H   0  0  0  0  0
   -4.9400    2.3452  -17.4977 H   0  0  0  0  0
   -6.2465    0.5646  -11.3276 H   0  0  0  0  0
   -5.6836   -2.3231  -10.7913 H   0  0  0  0  0
   -7.7146   -2.2129   -9.2975 H   0  0  0  0  0
   -5.4193   -2.0983   -8.4368 H   0  0  0  0  0
   -5.4104   -0.3342   -8.6796 H   0  0  0  0  0
   -6.5121   -1.0630   -7.4854 H   0  0  0  0  0
   -7.4342    0.7615   -9.7896 H   0  0  0  0  0
   -8.7875   -0.2716  -10.3116 H   0  0  0  0  0
   -8.4868   -0.0073   -8.5764 H   0  0  0  0  0
   -7.2206   -3.8636  -11.2831 H   0  0  0  0  0
   -8.2718   -5.0027  -12.9380 H   0  0  0  0  0
   -8.2815   -5.1956  -14.9507 H   0  0  0  0  0
  -10.6297   -4.1407  -13.3828 H   0  0  0  0  0
  -10.1812   -2.7108  -12.3675 H   0  0  0  0  0
   -8.6631   -5.1649  -11.2990 H   0  0  0  0  0
  1  2  1  0  0  0
  2  3  1  0  0  0
  3  4  2  0  0  0
  3  5  1  0  0  0
  5  6  1  0  0  0
  5 11  1  0  0  0
  6  7  1  0  0  0
  6  9  1  0  0  0
  7  8  2  0  0  0
  7 12  1  0  0  0
  9 10  1  0  0  0
 10 11  1  0  0  0
 12 13  1  0  0  0
 12 18  1  0  0  0
 13 14  1  0  0  0
 13 16  1  0  0  0
 14 15  2  0  0  0
 14 19  1  0  0  0
 16 17  1  0  0  0
 17 18  1  0  0  0
 19 20  1  0  0  0
 20 21  1  0  0  0
 20 23  1  0  0  0
 21 22  2  0  0  0
 21 28  1  0  0  0
 23 24  1  0  0  0
 24 25  1  0  0  0
 25 26  1  0  0  0
 26 27  1  0  0  0
 28 29  1  0  0  0
 29 30  1  0  0  0
 29 32  1  0  0  0
 30 31  2  0  0  0
 30 37  1  0  0  0
 32 33  1  0  0  0
 33 34  1  0  0  0
 34 35  1  0  0  0
 35 36  1  0  0  0
 37 38  1  0  0  0
 38 39  1  0  0  0
 38 41  1  0  0  0
 39 40  2  0  0  0
 39 48  1  0  0  0
 41 42  1  0  0  0
 42 43  1  0  0  0
 43 44  1  0  0  0
 44 45  1  0  0  0
 45 46  2  0  0  0
 45 47  1  0  0  0
 48 49  1  0  0  0
 49 50  1  0  0  0
 49 52  1  0  0  0
 50 51  2  0  0  0
 50 53  1  0  0  0
 53 54  1  0  0  0
 54 55  1  0  0  0
 54 57  1  0  0  0
 55 56  2  0  0  0
 55 62  1  0  0  0
 57 58  1  0  0  0
 58 59  1  0  0  0
 59 60  1  0  0  0
 60 61  1  0  0  0
 62 63  1  0  0  0
 63 64  1  0  0  0
 63 66  1  0  0  0
 64 65  2  0  0  0
 64 69  1  0  0  0
 66 67  1  0  0  0
 66 68  1  0  0  0
 69 70  1  0  0  0
 70 71  1  0  0  0
 70 73  1  0  0  0
 71 72  1  0  0  0
 71 77  2  0  0  0
 73 74  1  0  0  0
 74 75  1  0  0  0
 74 76  2  0  0  0
  1 78  1  0  0  0
  1 79  1  0  0  0
  1 80  1  0  0  0
  2 81  1  0  0  0
  2 82  1  0  0  0
  6 83  1  0  0  0
  9 84  1  0  0  0
  9 85  1  0  0  0
 10 86  1  0  0  0
 10 87  1  0  0  0
 11 88  1  0  0  0
 11 89  1  0  0  0
 13 90  1  0  0  0
 16 91  1  0  0  0
 16 92  1  0  0  0
 17 93  1  0  0  0
 17 94  1  0  0  0
 18 95  1  0  0  0
 18 96  1  0  0  0
 19 97  1  0  0  0
 20 98  1  0  0  0
 23 99  1  0  0  0
 23100  1  0  0  0
 24101  1  0  0  0
 24102  1  0  0  0
 25103  1  0  0  0
 25104  1  0  0  0
 26105  1  0  0  0
 26106  1  0  0  0
 27107  1  0  0  0
 27108  1  0  0  0
 27109  1  0  0  0
 28110  1  0  0  0
 29111  1  0  0  0
 32112  1  0  0  0
 32113  1  0  0  0
 33114  1  0  0  0
 33115  1  0  0  0
 34116  1  0  0  0
 34117  1  0  0  0
 35118  1  0  0  0
 35119  1  0  0  0
 36120  1  0  0  0
 36121  1  0  0  0
 36122  1  0  0  0
 37123  1  0  0  0
 38124  1  0  0  0
 41125  1  0  0  0
 41126  1  0  0  0
 42127  1  0  0  0
 42128  1  0  0  0
 43129  1  0  0  0
 43130  1  0  0  0
 44131  1  0  0  0
 46132  1  0  0  0
 47133  1  0  0  0
 47134  1  0  0  0
 48135  1  0  0  0
 49136  1  0  0  0
 52137  1  0  0  0
 52138  1  0  0  0
 52139  1  0  0  0
 53140  1  0  0  0
 54141  1  0  0  0
 57142  1  0  0  0
 57143  1  0  0  0
 58144  1  0  0  0
 58145  1  0  0  0
 59146  1  0  0  0
 59147  1  0  0  0
 60148  1  0  0  0
 60149  1  0  0  0
 61150  1  0  0  0
 61151  1  0  0  0
 61152  1  0  0  0
 62153  1  0  0  0
 63154  1  0  0  0
 66155  1  0  0  0
 67156  1  0  0  0
 67157  1  0  0  0
 67158  1  0  0  0
 68159  1  0  0  0
 68160  1  0  0  0
 68161  1  0  0  0
 69162  1  0  0  0
 70163  1  0  0  0
 72164  1  0  0  0
 73165  1  0  0  0
 73166  1  0  0  0
 75167  1  0  0  0
M  END
$$$$
