### 
### Created by X-TOOL on Mon Sep 10 21:13:27 2018
### 

@<TRIPOS>MOLECULE
5huw_ligand
  166   167     1     0     0
SMALL
GAST_HUCK


@<TRIPOS>ATOM
      1 N          -2.2800   16.6100    1.6980 N.4       1 GLY         0.2357
      2 CA         -2.4820   16.6860    0.2630 C.3       1 GLY         0.0547
      3 C          -3.0490   15.4160   -0.3530 C.2       1 GLY         0.2261
      4 O          -3.3890   14.4740    0.3680 O.2       1 GLY        -0.3908
      5 N          -3.1510   15.3920   -1.6810 N.am      1 PRO        -0.2474
      6 CA         -3.7090   14.2170   -2.3760 C.3       1 PRO         0.1341
      7 C          -2.6910   13.0880   -2.4260 C.2       1 PRO         0.2066
      8 O          -1.5560   13.2500   -1.9430 O.2       1 PRO        -0.3942
      9 CB         -4.0260   14.7650   -3.7760 C.3       1 PRO        -0.0104
     10 CG         -3.0150   15.8780   -3.9670 C.3       1 PRO        -0.0281
     11 CD         -2.7480   16.4630   -2.6130 C.3       1 PRO         0.0371
     12 N          -3.0610   11.9190   -2.9650 N.am      1 PRO        -0.2498
     13 CA         -2.1140   10.7860   -2.9910 C.3       1 PRO         0.1338
     14 C          -0.8730   11.0560   -3.8400 C.2       1 PRO         0.2041
     15 O          -0.9460   11.5980   -4.9440 O.2       1 PRO        -0.3944
     16 CB         -2.9480    9.6400   -3.5760 C.3       1 PRO        -0.0104
     17 CG         -4.3690    9.9750   -3.1820 C.3       1 PRO        -0.0281
     18 CD         -4.4470   11.4880   -3.2490 C.3       1 PRO         0.0369
     19 N           0.2790   10.6410   -3.3160 N.am      1 LYS        -0.2637
     20 CA          1.5270   10.7990   -4.0580 C.3       1 LYS         0.1310
     21 C           1.6020    9.8430   -5.2450 C.2       1 LYS         0.2039
     22 O           2.2120   10.1760   -6.2680 O.2       1 LYS        -0.3944
     23 CB          2.7190   10.5710   -3.1280 C.3       1 LYS        -0.0122
     24 CG          2.7930   11.5310   -1.9370 C.3       1 LYS        -0.0440
     25 CD          4.0310   12.4160   -2.0440 C.3       1 LYS        -0.0124
     26 CE          3.9550   13.3100   -3.2780 C.3       1 LYS        -0.0354
     27 NZ          5.2830   13.8180   -3.7240 N.4       1 LYS         0.2185
     28 N           1.0030    8.6570   -5.1250 N.am      1 LYS        -0.2637
     29 CA          1.1530    7.5870   -6.1070 C.3       1 LYS         0.1310
     30 C          -0.2050    6.9570   -6.3750 C.2       1 LYS         0.2039
     31 O          -1.1250    7.0680   -5.5640 O.2       1 LYS        -0.3944
     32 CB          2.1520    6.5190   -5.6230 C.3       1 LYS        -0.0122
     33 CG          3.5800    7.0550   -5.4050 C.3       1 LYS        -0.0440
     34 CD          4.4720    6.0380   -4.6670 C.3       1 LYS        -0.0124
     35 CE          5.8390    6.6430   -4.3480 C.3       1 LYS        -0.0354
     36 NZ          6.7520    5.7610   -3.5370 N.4       1 LYS         0.2185
     37 N          -0.3300    6.3090   -7.5360 N.am      1 ARG        -0.2637
     38 CA         -1.5780    5.6670   -7.9530 C.3       1 ARG         0.1311
     39 C          -1.2800    4.3250   -8.5980 C.2       1 ARG         0.2039
     40 O          -0.4830    4.2480   -9.5400 O.2       1 ARG        -0.3944
     41 CB         -2.3610    6.5140   -8.9610 C.3       1 ARG        -0.0092
     42 CG         -2.9270    7.8020   -8.4400 C.3       1 ARG        -0.0156
     43 CD         -3.2030    8.7690   -9.5950 C.3       1 ARG         0.0627
     44 NE         -4.1460    8.2380  -10.5890 N.pl3     1 ARG        -0.2723
     45 CZ         -3.9600    8.2570  -11.9050 C.cat     1 ARG         0.2882
     46 NH1        -2.8480    8.7650  -12.4030 N.pl3     1 ARG        -0.2849
     47 NH2        -4.8900    7.7700  -12.7130 N.pl3     1 ARG        -0.2849
     48 N          -1.9610    3.2860   -8.1260 N.am      1 ALA        -0.2640
     49 CA         -1.9510    1.9850   -8.7790 C.3       1 ALA         0.1282
     50 C          -3.0640    1.9230   -9.8190 C.2       1 ALA         0.2036
     51 O          -4.1410    2.4840   -9.6250 O.2       1 ALA        -0.3944
     52 CB         -2.1330    0.8660   -7.7490 C.3       1 ALA        -0.0244
     53 N          -2.7950    1.2460  -10.9300 N.am      1 LYS        -0.2637
     54 CA         -3.8020    1.0170  -11.9640 C.3       1 LYS         0.1310
     55 C          -4.4610   -0.3340  -11.6960 C.2       1 LYS         0.2039
     56 O          -3.8180   -1.3810  -11.8300 O.2       1 LYS        -0.3944
     57 CB         -3.1590    1.0550  -13.3450 C.3       1 LYS        -0.0122
     58 CG         -4.1170    0.8310  -14.5250 C.3       1 LYS        -0.0440
     59 CD         -3.3440    0.9690  -15.8440 C.3       1 LYS        -0.0124
     60 CE         -4.1500    0.5030  -17.0540 C.3       1 LYS        -0.0354
     61 NZ         -5.2880    1.4040  -17.3150 N.4       1 LYS         0.2185
     62 N          -5.7370   -0.3190  -11.3200 N.am      1 VAL        -0.2635
     63 CA         -6.4270   -1.5330  -10.8970 C.3       1 VAL         0.1332
     64 C          -7.4400   -1.9700  -11.9480 C.2       1 VAL         0.2037
     65 O          -7.9910   -1.1580  -12.6990 O.2       1 VAL        -0.3944
     66 CB         -7.1020   -1.3410   -9.5270 C.3       1 VAL        -0.0063
     67 CG1        -6.0350   -1.1990   -8.4560 C.3       1 VAL        -0.0584
     68 CG2        -8.0180   -0.1280   -9.5530 C.3       1 VAL        -0.0584
     69 N          -7.6770   -3.2810  -11.9850 N.am      1 ASP        -0.2679
     70 CA         -8.5460   -3.9480  -12.9610 C.3       1 ASP         0.1057
     71 C          -8.3330   -3.4850  -14.4030 C.2       1 ASP         0.0618
     72 O          -8.2160   -4.3090  -15.3130 O.co2     1 ASP        -0.5665
     73 CB        -10.0110   -3.7690  -12.5660 C.3       1 ASP         0.0351
     74 CG        -10.3670   -4.5450  -11.3160 C.2       1 ASP         0.0387
     75 OD1        -9.4740   -5.2490  -10.7920 O.co2     1 ASP        -0.5688
     76 OD2       -11.5310   -4.4620  -10.8650 O.co2     1 ASP        -0.5688
     77 OXT        -8.2760   -2.2830  -14.6710 O.co2     1 ASP        -0.5665
     78 H1         -1.9043   17.4840    2.0312 H         1 GLY         0.2012
     79 H2         -1.6340   15.8651    1.9074 H         1 GLY         0.2012
     80 H3         -3.1613   16.4282    2.1522 H         1 GLY         0.2012
     81 H4         -1.5123   16.8968   -0.2116 H         1 GLY         0.1061
     82 H5         -3.1790   17.5113    0.0556 H         1 GLY         0.1061
     83 H6         -4.6233   13.8605   -1.8791 H         1 PRO         0.0802
     84 H7         -5.0529   15.1568   -3.8200 H         1 PRO         0.0313
     85 H8         -3.8983   13.9844   -4.5404 H         1 PRO         0.0313
     86 H9         -3.4231   16.6484   -4.6378 H         1 PRO         0.0287
     87 H10        -2.0852   15.4748   -4.3945 H         1 PRO         0.0287
     88 H11        -1.6816   16.7051   -2.4942 H         1 PRO         0.0524
     89 H12        -3.3500   17.3695   -2.4522 H         1 PRO         0.0524
     90 H13        -1.7906   10.5423   -1.9683 H         1 PRO         0.0802
     91 H14        -2.6412    8.6753   -3.1456 H         1 PRO         0.0313
     92 H15        -2.8455    9.6024   -4.6706 H         1 PRO         0.0313
     93 H16        -4.5813    9.6215   -2.1622 H         1 PRO         0.0287
     94 H17        -5.0828    9.5194   -3.8841 H         1 PRO         0.0287
     95 H18        -4.7654   11.8212   -4.2478 H         1 PRO         0.0524
     96 H19        -5.1431   11.8795   -2.4926 H         1 PRO         0.0524
     97 H20         0.2895   10.2189   -2.4095 H         1 LYS         0.1883
     98 H21         1.5725   11.8291   -4.4413 H         1 LYS         0.0800
     99 H22         3.6406   10.6847   -3.7177 H         1 LYS         0.0312
    100 H23         2.6578    9.5445   -2.7375 H         1 LYS         0.0312
    101 H24         2.8429   10.9491   -1.0049 H         1 LYS         0.0269
    102 H25         1.8941   12.1649   -1.9259 H         1 LYS         0.0269
    103 H26         4.9246   11.7785   -2.1155 H         1 LYS         0.0317
    104 H27         4.1016   13.0470   -1.1458 H         1 LYS         0.0317
    105 H28         3.3124   14.1719   -3.0450 H         1 LYS         0.0813
    106 H29         3.5089   12.7317   -4.1005 H         1 LYS         0.0813
    107 H30         5.1640   14.3991   -4.5390 H         1 LYS         0.1994
    108 H31         5.8816   13.0394   -3.9510 H         1 LYS         0.1994
    109 H32         5.7016   14.3592   -2.9838 H         1 LYS         0.1994
    110 H33         0.4247    8.4933   -4.3258 H         1 LYS         0.1883
    111 H34         1.5342    8.0204   -7.0434 H         1 LYS         0.0800
    112 H35         2.1938    5.7173   -6.3750 H         1 LYS         0.0312
    113 H36         1.7865    6.1090   -4.6700 H         1 LYS         0.0312
    114 H37         3.5258    7.9779   -4.8090 H         1 LYS         0.0269
    115 H38         4.0295    7.2767   -6.3842 H         1 LYS         0.0269
    116 H39         4.6101    5.1514   -5.3033 H         1 LYS         0.0317
    117 H40         3.9809    5.7426   -3.7281 H         1 LYS         0.0317
    118 H41         5.6771    7.5747   -3.7862 H         1 LYS         0.0813
    119 H42         6.3416    6.8711   -5.2995 H         1 LYS         0.0813
    120 H43         7.6248    6.2388   -3.3759 H         1 LYS         0.1994
    121 H44         6.9256    4.9047   -4.0396 H         1 LYS         0.1994
    122 H45         6.3166    5.5494   -2.6528 H         1 LYS         0.1994
    123 H46         0.4613    6.2603   -8.1455 H         1 ARG         0.1883
    124 H47        -2.2028    5.5104   -7.0613 H         1 ARG         0.0800
    125 H48        -3.1980    5.9052   -9.3336 H         1 ARG         0.0313
    126 H49        -1.6846    6.7564   -9.7939 H         1 ARG         0.0313
    127 H50        -2.2062    8.2609   -7.7474 H         1 ARG         0.0301
    128 H51        -3.8671    7.5958   -7.9074 H         1 ARG         0.0301
    129 H52        -2.2511    8.9890  -10.1004 H         1 ARG         0.0689
    130 H53        -3.6209    9.6979   -9.1796 H         1 ARG         0.0689
    131 H54        -5.0190    7.8184  -10.2387 H         1 ARG         0.2642
    132 H55        -2.7006    8.7813  -13.4223 H         1 ARG         0.2615
    133 H56        -2.1278    9.1450  -11.7723 H         1 ARG         0.2615
    134 H57        -5.7566    7.3743  -12.3214 H         1 ARG         0.2615
    135 H58        -4.7465    7.7871  -13.7328 H         1 ARG         0.2615
    136 H59        -2.5000    3.4021   -7.2917 H         1 ALA         0.1883
    137 H60        -0.9831    1.8481   -9.2833 H         1 ALA         0.0797
    138 H61        -2.1228   -0.1080   -8.2601 H         1 ALA         0.0277
    139 H62        -3.0940    0.9978   -7.2303 H         1 ALA         0.0277
    140 H63        -1.3129    0.9045   -7.0170 H         1 ALA         0.0277
    141 H64        -1.8734    0.8812  -11.0630 H         1 LYS         0.1883
    142 H65        -4.5655    1.8069  -11.9092 H         1 LYS         0.0800
    143 H66        -2.3871    0.2722  -13.3815 H         1 LYS         0.0312
    144 H67        -2.6880    2.0408  -13.4729 H         1 LYS         0.0312
    145 H68        -4.9218    1.5801  -14.4914 H         1 LYS         0.0269
    146 H69        -4.5516   -0.1773  -14.4584 H         1 LYS         0.0269
    147 H70        -2.4271    0.3649  -15.7788 H         1 LYS         0.0317
    148 H71        -3.0770    2.0266  -15.9859 H         1 LYS         0.0317
    149 H72        -4.5315   -0.5108  -16.8624 H         1 LYS         0.0813
    150 H73        -3.4947    0.4873  -17.9374 H         1 LYS         0.0813
    151 H74        -5.8013    1.0733  -18.1170 H         1 LYS         0.1994
    152 H75        -4.9453    2.3345  -17.4958 H         1 LYS         0.1994
    153 H76        -5.8953    1.4199  -16.5107 H         1 LYS         0.1994
    154 H77        -6.2365    0.5473  -11.3275 H         1 VAL         0.1883
    155 H78        -5.6771   -2.3313  -10.7952 H         1 VAL         0.0802
    156 H79        -7.7090   -2.2306   -9.3030 H         1 VAL         0.0343
    157 H80        -6.5152   -1.0617   -7.4759 H         1 VAL         0.0234
    158 H81        -5.4039   -0.3265   -8.6805 H         1 VAL         0.0234
    159 H82        -5.4129   -2.1060   -8.4356 H         1 VAL         0.0234
    160 H83        -8.7785   -0.2596  -10.3367 H         1 VAL         0.0234
    161 H84        -7.4256    0.7744   -9.7648 H         1 VAL         0.0234
    162 H85        -8.5127   -0.0211   -8.5764 H         1 VAL         0.0234
    163 H86        -7.2296   -3.8522  -11.2968 H         1 ASP         0.1876
    164 H87        -8.3122   -5.0223  -12.9253 H         1 ASP         0.0745
    165 H88       -10.6459   -4.1196  -13.3930 H         1 ASP         0.0471
    166 H89       -10.2009   -2.7007  -12.3854 H         1 ASP         0.0471
@<TRIPOS>BOND
     1    1    2 1  
     2    2    3 1  
     3    3    4 2  
     4    3    5 am 
     5    5    6 1  
     6    5   11 1  
     7    6    7 1  
     8    6    9 1  
     9    7    8 2  
    10    7   12 am 
    11    9   10 1  
    12   10   11 1  
    13   12   13 1  
    14   12   18 1  
    15   13   14 1  
    16   13   16 1  
    17   14   15 2  
    18   14   19 am 
    19   16   17 1  
    20   17   18 1  
    21   19   20 1  
    22   20   21 1  
    23   20   23 1  
    24   21   22 2  
    25   21   28 am 
    26   23   24 1  
    27   24   25 1  
    28   25   26 1  
    29   26   27 1  
    30   28   29 1  
    31   29   30 1  
    32   29   32 1  
    33   30   31 2  
    34   30   37 am 
    35   32   33 1  
    36   33   34 1  
    37   34   35 1  
    38   35   36 1  
    39   37   38 1  
    40   38   39 1  
    41   38   41 1  
    42   39   40 2  
    43   39   48 am 
    44   41   42 1  
    45   42   43 1  
    46   43   44 1  
    47   44   45 ar 
    48   45   46 ar 
    49   45   47 ar 
    50   48   49 1  
    51   49   50 1  
    52   49   52 1  
    53   50   51 2  
    54   50   53 am 
    55   53   54 1  
    56   54   55 1  
    57   54   57 1  
    58   55   56 2  
    59   55   62 am 
    60   57   58 1  
    61   58   59 1  
    62   59   60 1  
    63   60   61 1  
    64   62   63 1  
    65   63   64 1  
    66   63   66 1  
    67   64   65 2  
    68   64   69 am 
    69   66   67 1  
    70   66   68 1  
    71   69   70 1  
    72   70   71 1  
    73   70   73 1  
    74   71   72 ar 
    75   71   77 ar 
    76   73   74 1  
    77   74   75 ar 
    78   74   76 ar 
    79    1   78 1  
    80    1   79 1  
    81    1   80 1  
    82    2   81 1  
    83    2   82 1  
    84    6   83 1  
    85    9   84 1  
    86    9   85 1  
    87   10   86 1  
    88   10   87 1  
    89   11   88 1  
    90   11   89 1  
    91   13   90 1  
    92   16   91 1  
    93   16   92 1  
    94   17   93 1  
    95   17   94 1  
    96   18   95 1  
    97   18   96 1  
    98   19   97 1  
    99   20   98 1  
   100   23   99 1  
   101   23  100 1  
   102   24  101 1  
   103   24  102 1  
   104   25  103 1  
   105   25  104 1  
   106   26  105 1  
   107   26  106 1  
   108   27  107 1  
   109   27  108 1  
   110   27  109 1  
   111   28  110 1  
   112   29  111 1  
   113   32  112 1  
   114   32  113 1  
   115   33  114 1  
   116   33  115 1  
   117   34  116 1  
   118   34  117 1  
   119   35  118 1  
   120   35  119 1  
   121   36  120 1  
   122   36  121 1  
   123   36  122 1  
   124   37  123 1  
   125   38  124 1  
   126   41  125 1  
   127   41  126 1  
   128   42  127 1  
   129   42  128 1  
   130   43  129 1  
   131   43  130 1  
   132   44  131 1  
   133   46  132 1  
   134   46  133 1  
   135   47  134 1  
   136   47  135 1  
   137   48  136 1  
   138   49  137 1  
   139   52  138 1  
   140   52  139 1  
   141   52  140 1  
   142   53  141 1  
   143   54  142 1  
   144   57  143 1  
   145   57  144 1  
   146   58  145 1  
   147   58  146 1  
   148   59  147 1  
   149   59  148 1  
   150   60  149 1  
   151   60  150 1  
   152   61  151 1  
   153   61  152 1  
   154   61  153 1  
   155   62  154 1  
   156   63  155 1  
   157   66  156 1  
   158   67  157 1  
   159   67  158 1  
   160   67  159 1  
   161   68  160 1  
   162   68  161 1  
   163   68  162 1  
   164   69  163 1  
   165   70  164 1  
   166   73  165 1  
   167   73  166 1  
@<TRIPOS>SUBSTRUCTURE
     1 GLY         1

