6g6z_ligand
  -I-interpret- 

 37 38  0  0  0  0  0  0  0  0999 V2000
  -16.7510  -24.1400    6.2220 C   0  0  0  0  0
  -13.9070  -26.2610    4.3930 C   0  0  0  0  0
  -18.9050  -21.4010    8.0980 C   0  0  0  0  0
  -20.1970  -23.5010    5.8510 C   0  0  0  0  0
  -19.2450  -23.8840    6.9810 C   0  0  0  0  0
  -20.1410  -24.3300    8.2140 C   0  0  0  0  0
  -19.5990  -24.4780    9.4820 C   0  0  0  0  0
  -20.3750  -24.8420   10.5620 C   0  0  0  0  0
  -21.7160  -25.0760   10.3700 C   0  0  0  0  0
  -22.2760  -24.9120    9.1170 C   0  0  0  0  0
  -21.4900  -24.5460    8.0360 C   0  0  0  0  0
  -15.2380  -25.8700    5.0440 C   0  0  0  0  0
  -17.9860  -20.2110    8.3910 C   0  0  0  0  0
  -15.4690  -24.5410    5.5830 N   0  0  0  0  0
  -16.9760  -22.7340    6.8030 N   0  3  0  0  0
  -18.4230  -22.5790    7.3780 N   0  0  0  0  0
  -16.1050  -26.6670    5.1100 O   0  0  0  0  0
  -20.0250  -21.3390    8.4810 O   0  0  0  0  0
  -18.1860  -25.0060    6.4710 S   0  0  0  0  0
  -16.0697  -24.8330    5.7283 H   0  0  0  0  0
  -13.4673  -27.0948    4.9404 H   0  0  0  0  0
  -14.0828  -26.5562    3.3586 H   0  0  0  0  0
  -13.2274  -25.4092    4.4186 H   0  0  0  0  0
  -19.6242  -23.0969    5.0163 H   0  0  0  0  0
  -20.7444  -24.3849    5.5236 H   0  0  0  0  0
  -20.8998  -22.7487    6.2090 H   0  0  0  0  0
  -18.5333  -24.3022    9.6284 H   0  0  0  0  0
  -19.9320  -24.9427   11.5528 H   0  0  0  0  0
  -22.3386  -25.3914   11.2072 H   0  0  0  0  0
  -23.3452  -25.0720    8.9780 H   0  0  0  0  0
  -21.9372  -24.4295    7.0488 H   0  0  0  0  0
  -18.3978  -19.3133    7.9298 H   0  0  0  0  0
  -17.9132  -20.0666    9.4689 H   0  0  0  0  0
  -16.9953  -20.4093    7.9820 H   0  0  0  0  0
  -14.7191  -23.8524    5.5205 H   0  0  0  0  0
  -16.8491  -22.0508    6.0563 H   0  0  0  0  0
  -16.3089  -22.5857    7.5602 H   0  0  0  0  0
 14  1  1  0  0  0
  1 15  1  0  0  0
  1 19  1  0  0  0
 12  2  1  0  0  0
  3 13  1  0  0  0
 16  3  1  0  0  0
  3 18  2  0  0  0
  5  4  1  0  0  0
  5  6  1  0  0  0
  5 16  1  0  0  0
 19  5  1  0  0  0
  6  7  4  0  0  0
  6 11  4  0  0  0
  7  8  4  0  0  0
  8  9  4  0  0  0
 10  9  4  0  0  0
 11 10  4  0  0  0
 12 14  1  0  0  0
 12 17  2  0  0  0
 15 16  1  0  0  0
  1 20  1  0  0  0
  2 21  1  0  0  0
  2 22  1  0  0  0
  2 23  1  0  0  0
  4 24  1  0  0  0
  4 25  1  0  0  0
  4 26  1  0  0  0
  7 27  1  0  0  0
  8 28  1  0  0  0
  9 29  1  0  0  0
 10 30  1  0  0  0
 11 31  1  0  0  0
 13 32  1  0  0  0
 13 33  1  0  0  0
 13 34  1  0  0  0
 14 35  1  0  0  0
 15 36  1  0  0  0
 15 37  1  0  0  0
M  END
$$$$
