### 
### Created by X-TOOL on Mon Sep 10 21:13:34 2018
### 

@<TRIPOS>MOLECULE
5ogl_ligand
   92    92     1     0     0
SMALL
GAST_HUCK


@<TRIPOS>ATOM
      1 C30        88.8540   42.6820  190.4570 C.3       1 9UB         0.1025
      2 C29        89.2780   42.2570  191.8320 C.3       1 9UB         0.0711
      3 C20        83.7310   40.3900  195.1140 C.3       1 9UB         0.0913
      4 C17        83.7220   40.1170  197.6150 C.2       1 9UB        -0.0804
      5 C16        82.8380   41.3970  197.6820 C.3       1 9UB        -0.0253
      6 C15        81.4380   41.2010  198.3140 C.3       1 9UB        -0.0388
      7 C14        80.6000   40.1780  197.5710 C.2       1 9UB        -0.1070
      8 C13        78.5150   39.0130  196.9660 C.3       1 9UB        -0.0402
      9 C18        84.1640   39.3380  198.8950 C.3       1 9UB        -0.0402
     10 C12        79.2890   40.0850  197.7390 C.2       1 9UB        -0.0827
     11 C11        78.5110   41.0220  198.7200 C.3       1 9UB        -0.0254
     12 C09        77.3700   41.2270  201.0320 C.2       1 9UB        -0.1070
     13 C08        76.6330   42.2680  203.2070 C.3       1 9UB        -0.0402
     14 C07        77.6310   41.4530  202.3460 C.2       1 9UB        -0.0827
     15 C06        78.9410   40.8970  203.0100 C.3       1 9UB        -0.0254
     16 C05        78.5990   39.8240  204.0490 C.3       1 9UB        -0.0388
     17 C04        78.0720   38.5620  203.3780 C.2       1 9UB        -0.1074
     18 C03        76.3650   36.8440  202.8920 C.3       1 9UB        -0.0406
     19 C02        76.8520   38.1280  203.5930 C.2       1 9UB        -0.0870
     20 C01        75.9170   38.9090  204.5330 C.3       1 9UB        -0.0406
     21 C10        78.3280   40.4100  200.1310 C.3       1 9UB        -0.0388
     22 C19        84.1340   39.6490  196.4130 C.2       1 9UB        -0.0783
     23 O21        84.8610   40.3210  194.2820 O.3       1 9UB        -0.2450
     24 P22        85.1070   41.5580  193.2330 P.3       1 9UB         0.2963
     25 O23        84.5490   41.0990  191.9120 O.co2     1 9UB        -0.6124
     26 O24        84.3860   42.8030  193.6880 O.co2     1 9UB        -0.6124
     27 O25        86.7220   41.9910  193.1420 O.3       1 9UB        -0.1596
     28 P26        88.0180   41.0700  192.6320 P.3       1 9UB         0.1647
     29 O27        88.6450   40.2990  193.7720 O.co2     1 9UB        -0.6151
     30 O28        87.5110   40.1030  191.6020 O.co2     1 9UB        -0.6151
     31 O31        87.4040   42.9950  190.4270 O.3       1 9UB        -0.3645
     32 C32        86.9810   44.3370  190.8800 C.3       1 9UB         0.1104
     33 C33        85.6450   44.6530  190.2560 C.3       1 9UB         0.0729
     34 O34        85.8350   44.6300  188.8470 O.3       1 9UB        -0.3924
     35 C35        87.9580   45.4640  190.5040 C.3       1 9UB         0.1115
     36 O36        87.5640   46.6480  191.2190 O.3       1 9UB        -0.3865
     37 C37        89.3520   45.0510  190.8070 C.3       1 9UB         0.1088
     38 O38        90.3520   46.0850  190.5040 O.3       1 9UB        -0.3868
     39 C39        89.6780   43.8740  190.0090 C.3       1 9UB         0.0979
     40 N40        91.1220   43.6000  190.1950 N.am      1 9UB        -0.2790
     41 C41        91.7840   42.8310  189.1530 C.2       1 9UB         0.1733
     42 C42        93.2760   42.5330  189.2810 C.3       1 9UB         0.0257
     43 O43        91.1390   42.4530  188.2280 O.2       1 9UB        -0.3974
     44 H1         89.0408   41.8500  189.7622 H         1 9UB         0.0636
     45 H2         89.3760   43.1507  192.4657 H         1 9UB         0.0515
     46 H3         90.2508   41.7482  191.7625 H         1 9UB         0.0515
     47 H4         83.4760   41.4377  195.3313 H         1 9UB         0.0696
     48 H5         82.8717   39.8945  194.6385 H         1 9UB         0.0696
     49 H6         82.6988   41.7682  196.6559 H         1 9UB         0.0425
     50 H7         83.3761   42.1512  198.2750 H         1 9UB         0.0425
     51 H8         80.9084   42.1651  198.3028 H         1 9UB         0.0361
     52 H9         81.5648   40.8643  199.3535 H         1 9UB         0.0361
     53 H10        81.0918   39.4980  196.8770 H         1 9UB         0.0244
     54 H11        77.4470   39.0759  197.2218 H         1 9UB         0.0375
     55 H12        78.8985   38.0179  197.2354 H         1 9UB         0.0375
     56 H13        78.6435   39.1753  195.8857 H         1 9UB         0.0375
     57 H14        84.7789   38.4735  198.6041 H         1 9UB         0.0375
     58 H15        83.2732   38.9884  199.4374 H         1 9UB         0.0375
     59 H16        84.7512   40.0035  199.5448 H         1 9UB         0.0375
     60 H17        77.5168   41.2250  198.2953 H         1 9UB         0.0425
     61 H18        79.0677   41.9657  198.8177 H         1 9UB         0.0425
     62 H19        76.4575   41.6336  200.5985 H         1 9UB         0.0244
     63 H20        77.0139   42.3443  204.2361 H         1 9UB         0.0375
     64 H21        75.6564   41.7619  203.2141 H         1 9UB         0.0375
     65 H22        76.5204   43.2763  202.7820 H         1 9UB         0.0375
     66 H23        79.4756   41.7220  203.5035 H         1 9UB         0.0425
     67 H24        79.5829   40.4571  202.2326 H         1 9UB         0.0425
     68 H25        77.8305   40.2161  204.7314 H         1 9UB         0.0361
     69 H26        79.5051   39.5755  204.6210 H         1 9UB         0.0361
     70 H27        78.7228   38.0068  202.7041 H         1 9UB         0.0244
     71 H28        75.3266   36.6355  203.1890 H         1 9UB         0.0375
     72 H29        77.0067   36.0001  203.1854 H         1 9UB         0.0375
     73 H30        76.4142   36.9803  201.8016 H         1 9UB         0.0375
     74 H31        76.4468   39.7873  204.9304 H         1 9UB         0.0375
     75 H32        75.6079   38.2596  205.3653 H         1 9UB         0.0375
     76 H33        75.0280   39.2385  203.9752 H         1 9UB         0.0375
     77 H34        79.3117   40.3612  200.6209 H         1 9UB         0.0361
     78 H35        77.9222   39.3935  200.0210 H         1 9UB         0.0361
     79 H36        84.7487   38.7516  196.3597 H         1 9UB         0.0268
     80 H37        86.8799   44.3160  191.9751 H         1 9UB         0.0646
     81 H38        85.3033   45.6484  190.5760 H         1 9UB         0.0584
     82 H39        84.9013   43.8979  190.5503 H         1 9UB         0.0584
     83 H40        86.1360   43.7685  188.5832 H         1 9UB         0.2095
     84 H41        87.8838   45.6627  189.4246 H         1 9UB         0.0647
     85 H42        88.1551   47.3592  191.0016 H         1 9UB         0.2100
     86 H43        89.4162   44.8019  191.8765 H         1 9UB         0.0644
     87 H44        91.2180   45.7592  190.7193 H         1 9UB         0.2100
     88 H45        89.4716   44.0765  188.9477 H         1 9UB         0.0609
     89 H46        91.6180   43.9282  190.9989 H         1 9UB         0.1856
     90 H47        93.6086   41.9464  188.4119 H         1 9UB         0.0467
     91 H48        93.4577   41.9593  190.2018 H         1 9UB         0.0467
     92 H49        93.8366   43.4785  189.3214 H         1 9UB         0.0467
@<TRIPOS>BOND
     1    2    1 1  
     2    1   31 1  
     3    1   39 1  
     4   28    2 1  
     5    3   22 1  
     6   23    3 1  
     7    4    5 1  
     8    4    9 1  
     9   22    4 2  
    10    5    6 1  
    11    6    7 1  
    12    7   10 2  
    13   10    8 1  
    14   10   11 1  
    15   11   21 1  
    16   12   14 2  
    17   21   12 1  
    18   14   13 1  
    19   14   15 1  
    20   15   16 1  
    21   16   17 1  
    22   17   19 2  
    23   19   18 1  
    24   19   20 1  
    25   24   23 1  
    26   24   25 ar 
    27   24   26 ar 
    28   27   24 1  
    29   27   28 1  
    30   28   29 ar 
    31   28   30 ar 
    32   31   32 1  
    33   32   33 1  
    34   32   35 1  
    35   33   34 1  
    36   35   36 1  
    37   35   37 1  
    38   37   38 1  
    39   37   39 1  
    40   39   40 1  
    41   40   41 am 
    42   41   42 1  
    43   41   43 2  
    44    1   44 1  
    45    2   45 1  
    46    2   46 1  
    47    3   47 1  
    48    3   48 1  
    49    5   49 1  
    50    5   50 1  
    51    6   51 1  
    52    6   52 1  
    53    7   53 1  
    54    8   54 1  
    55    8   55 1  
    56    8   56 1  
    57    9   57 1  
    58    9   58 1  
    59    9   59 1  
    60   11   60 1  
    61   11   61 1  
    62   12   62 1  
    63   13   63 1  
    64   13   64 1  
    65   13   65 1  
    66   15   66 1  
    67   15   67 1  
    68   16   68 1  
    69   16   69 1  
    70   17   70 1  
    71   18   71 1  
    72   18   72 1  
    73   18   73 1  
    74   20   74 1  
    75   20   75 1  
    76   20   76 1  
    77   21   77 1  
    78   21   78 1  
    79   22   79 1  
    80   32   80 1  
    81   33   81 1  
    82   33   82 1  
    83   34   83 1  
    84   35   84 1  
    85   36   85 1  
    86   37   86 1  
    87   38   87 1  
    88   39   88 1  
    89   40   89 1  
    90   42   90 1  
    91   42   91 1  
    92   42   92 1  
@<TRIPOS>SUBSTRUCTURE
     1 9UB         1

