5ogl_ligand
  -I-interpret- 

 94 94  0  0  0  0  0  0  0  0999 V2000
   88.8540   42.6820  190.4570 C   0  0  0  0  0
   89.2780   42.2570  191.8320 C   0  0  0  0  0
   83.7310   40.3900  195.1140 C   0  0  0  0  0
   83.7220   40.1170  197.6150 C   0  0  0  0  0
   82.8380   41.3970  197.6820 C   0  0  0  0  0
   81.4380   41.2010  198.3140 C   0  0  0  0  0
   80.6000   40.1780  197.5710 C   0  0  0  0  0
   78.5150   39.0130  196.9660 C   0  0  0  0  0
   84.1640   39.3380  198.8950 C   0  0  0  0  0
   79.2890   40.0850  197.7390 C   0  0  0  0  0
   78.5110   41.0220  198.7200 C   0  0  0  0  0
   77.3700   41.2270  201.0320 C   0  0  0  0  0
   76.6330   42.2680  203.2070 C   0  0  0  0  0
   77.6310   41.4530  202.3460 C   0  0  0  0  0
   78.9410   40.8970  203.0100 C   0  0  0  0  0
   78.5990   39.8240  204.0490 C   0  0  0  0  0
   78.0720   38.5620  203.3780 C   0  0  0  0  0
   76.3650   36.8440  202.8920 C   0  0  0  0  0
   76.8520   38.1280  203.5930 C   0  0  0  0  0
   75.9170   38.9090  204.5330 C   0  0  0  0  0
   78.3280   40.4100  200.1310 C   0  0  0  0  0
   84.1340   39.6490  196.4130 C   0  0  0  0  0
   84.8610   40.3210  194.2820 O   0  0  0  0  0
   85.1070   41.5580  193.2330 P   0  0  0  0  0
   84.5490   41.0990  191.9120 O   0  0  0  0  0
   84.3860   42.8030  193.6880 O   0  0  0  0  0
   86.7220   41.9910  193.1420 O   0  0  0  0  0
   88.0180   41.0700  192.6320 P   0  0  0  0  0
   88.6450   40.2990  193.7720 O   0  0  0  0  0
   87.5110   40.1030  191.6020 O   0  0  0  0  0
   87.4040   42.9950  190.4270 O   0  0  0  0  0
   86.9810   44.3370  190.8800 C   0  0  0  0  0
   85.6450   44.6530  190.2560 C   0  0  0  0  0
   85.8350   44.6300  188.8470 O   0  0  0  0  0
   87.9580   45.4640  190.5040 C   0  0  0  0  0
   87.5640   46.6480  191.2190 O   0  0  0  0  0
   89.3520   45.0510  190.8070 C   0  0  0  0  0
   90.3520   46.0850  190.5040 O   0  0  0  0  0
   89.6780   43.8740  190.0090 C   0  0  0  0  0
   91.1220   43.6000  190.1950 N   0  0  0  0  0
   91.7840   42.8310  189.1530 C   0  0  0  0  0
   93.2760   42.5330  189.2810 C   0  0  0  0  0
   91.1390   42.4530  188.2280 O   0  0  0  0  0
   89.0286   41.8590  189.7640 H   0  0  0  0  0
   89.3522   43.1473  192.4565 H   0  0  0  0  0
   90.2321   41.7365  191.7491 H   0  0  0  0  0
   83.4424   41.4219  195.3139 H   0  0  0  0  0
   82.8593   39.9331  194.6455 H   0  0  0  0  0
   82.6742   41.7177  196.6532 H   0  0  0  0  0
   83.3684   42.1103  198.3128 H   0  0  0  0  0
   80.9149   42.1564  198.2729 H   0  0  0  0  0
   81.5778   40.8428  199.3339 H   0  0  0  0  0
   81.0922   39.4973  196.8764 H   0  0  0  0  0
   78.6431   39.1749  195.8957 H   0  0  0  0  0
   78.8960   38.0275  197.2338 H   0  0  0  0  0
   77.4570   39.0763  197.2202 H   0  0  0  0  0
   83.7891   38.3158  198.8442 H   0  0  0  0  0
   85.2524   39.3247  198.9530 H   0  0  0  0  0
   83.7579   39.8319  199.7777 H   0  0  0  0  0
   77.5187   41.1887  198.3008 H   0  0  0  0  0
   79.0898   41.9391  198.8300 H   0  0  0  0  0
   76.4567   41.6340  200.5981 H   0  0  0  0  0
   76.5223   43.2668  202.7848 H   0  0  0  0  0
   75.6658   41.7655  203.2132 H   0  0  0  0  0
   77.0115   42.3429  204.2264 H   0  0  0  0  0
   79.4638   41.7159  203.5041 H   0  0  0  0  0
   79.5708   40.4555  202.2376 H   0  0  0  0  0
   77.8284   40.2142  204.7138 H   0  0  0  0  0
   79.5034   39.5735  204.6034 H   0  0  0  0  0
   78.7234   38.0063  202.7034 H   0  0  0  0  0
   76.4142   36.9804  201.8117 H   0  0  0  0  0
   77.0017   36.0086  203.1835 H   0  0  0  0  0
   75.3360   36.6384  203.1870 H   0  0  0  0  0
   76.3612   38.9576  205.5272 H   0  0  0  0  0
   75.7762   39.9185  204.1468 H   0  0  0  0  0
   74.9536   38.4022  204.5885 H   0  0  0  0  0
   79.3049   40.3974  200.6143 H   0  0  0  0  0
   77.8968   39.4167  200.0063 H   0  0  0  0  0
   84.7492   38.7508  196.3596 H   0  0  0  0  0
   84.7462   43.0903  194.5302 H   0  0  0  0  0
   88.9703   40.9149  194.4326 H   0  0  0  0  0
   86.9411   44.2982  191.9686 H   0  0  0  0  0
   85.2852   45.6285  190.5830 H   0  0  0  0  0
   84.8935   43.9235  190.5580 H   0  0  0  0  0
   85.0034   44.8274  188.4098 H   0  0  0  0  0
   87.9246   45.6759  189.4353 H   0  0  0  0  0
   88.1613   47.3667  190.9993 H   0  0  0  0  0
   89.3911   44.8554  191.8786 H   0  0  0  0  0
   91.2271   45.7557  190.7216 H   0  0  0  0  0
   89.4521   44.0522  188.9577 H   0  0  0  0  0
   91.6279   43.9348  191.0150 H   0  0  0  0  0
   93.4290   41.4540  189.3042 H   0  0  0  0  0
   93.8046   42.9580  188.4277 H   0  0  0  0  0
   93.6558   42.9750  190.2022 H   0  0  0  0  0
  2  1  1  0  0  0
  1 31  1  0  0  0
  1 39  1  0  0  0
 28  2  1  0  0  0
  3 22  1  0  0  0
 23  3  1  0  0  0
  4  5  1  0  0  0
  4  9  1  0  0  0
 22  4  2  0  0  0
  5  6  1  0  0  0
  6  7  1  0  0  0
  7 10  2  0  0  0
 10  8  1  0  0  0
 10 11  1  0  0  0
 11 21  1  0  0  0
 12 14  2  0  0  0
 21 12  1  0  0  0
 14 13  1  0  0  0
 14 15  1  0  0  0
 15 16  1  0  0  0
 16 17  1  0  0  0
 17 19  2  0  0  0
 19 18  1  0  0  0
 19 20  1  0  0  0
 24 23  1  0  0  0
 24 25  2  0  0  0
 24 26  1  0  0  0
 27 24  1  0  0  0
 27 28  1  0  0  0
 28 29  1  0  0  0
 28 30  2  0  0  0
 31 32  1  0  0  0
 32 33  1  0  0  0
 32 35  1  0  0  0
 33 34  1  0  0  0
 35 36  1  0  0  0
 35 37  1  0  0  0
 37 38  1  0  0  0
 37 39  1  0  0  0
 39 40  1  0  0  0
 40 41  1  0  0  0
 41 42  1  0  0  0
 41 43  2  0  0  0
  1 44  1  0  0  0
  2 45  1  0  0  0
  2 46  1  0  0  0
  3 47  1  0  0  0
  3 48  1  0  0  0
  5 49  1  0  0  0
  5 50  1  0  0  0
  6 51  1  0  0  0
  6 52  1  0  0  0
  7 53  1  0  0  0
  8 54  1  0  0  0
  8 55  1  0  0  0
  8 56  1  0  0  0
  9 57  1  0  0  0
  9 58  1  0  0  0
  9 59  1  0  0  0
 11 60  1  0  0  0
 11 61  1  0  0  0
 12 62  1  0  0  0
 13 63  1  0  0  0
 13 64  1  0  0  0
 13 65  1  0  0  0
 15 66  1  0  0  0
 15 67  1  0  0  0
 16 68  1  0  0  0
 16 69  1  0  0  0
 17 70  1  0  0  0
 18 71  1  0  0  0
 18 72  1  0  0  0
 18 73  1  0  0  0
 20 74  1  0  0  0
 20 75  1  0  0  0
 20 76  1  0  0  0
 21 77  1  0  0  0
 21 78  1  0  0  0
 22 79  1  0  0  0
 26 80  1  0  0  0
 29 81  1  0  0  0
 32 82  1  0  0  0
 33 83  1  0  0  0
 33 84  1  0  0  0
 34 85  1  0  0  0
 35 86  1  0  0  0
 36 87  1  0  0  0
 37 88  1  0  0  0
 38 89  1  0  0  0
 39 90  1  0  0  0
 40 91  1  0  0  0
 42 92  1  0  0  0
 42 93  1  0  0  0
 42 94  1  0  0  0
M  END
$$$$
