### 
### Created by X-TOOL on Wed Jan  1 15:39:36 2020
### 

@<TRIPOS>MOLECULE
5vzu_ligand
  142   142     1     0     0
SMALL
GAST_HUCK


@<TRIPOS>ATOM
      1 N         -63.7080   20.6370   60.4970 N.4       1 PRO         0.2461
      2 CA        -62.3470   20.5860   59.9630 C.3       1 PRO         0.0670
      3 C         -62.2870   20.8720   58.4590 C.2       1 PRO         0.2268
      4 O         -63.3270   20.8780   57.7940 O.2       1 PRO        -0.3907
      5 CB        -61.9210   19.1430   60.2540 C.3       1 PRO         0.0127
      6 CG        -63.1970   18.3560   60.2870 C.3       1 PRO        -0.0053
      7 CD        -64.3420   19.3060   60.5240 C.3       1 PRO        -0.0313
      8 N         -61.0830   21.0910   57.9250 N.am      1 THR        -0.2586
      9 CA        -60.9120   21.2670   56.4680 C.3       1 THR         0.1566
     10 C         -61.0600   19.9250   55.7310 C.2       1 THR         0.2066
     11 O         -60.1930   19.5260   54.9450 O.2       1 THR        -0.3943
     12 CB        -59.5880   21.9980   56.0780 C.3       1 THR         0.0924
     13 OG1       -59.4210   21.9770   54.6490 O.3       1 THR        -0.3874
     14 CG2       -58.3550   21.3810   56.7510 C.3       1 THR        -0.0346
     15 N         -62.1860   19.2550   55.9870 N.am      1 ASP        -0.2621
     16 CA        -62.5670   18.0300   55.2920 C.3       1 ASP         0.1423
     17 C         -62.9340   18.3740   53.8480 C.2       1 ASP         0.2056
     18 O         -62.8610   17.5140   52.9680 O.2       1 ASP        -0.3943
     19 CB        -63.7420   17.3490   56.0230 C.3       1 ASP         0.0406
     20 CG        -64.0000   15.9080   55.5590 C.2       1 ASP         0.0393
     21 OD1       -63.1910   15.3320   54.7960 O.co2     1 ASP        -0.5688
     22 OD2       -65.0330   15.3440   55.9800 O.co2     1 ASP        -0.5688
     23 N         -63.2970   19.6410   53.6080 N.am      1 VAL        -0.2634
     24 CA        -63.5820   20.1460   52.2560 C.3       1 VAL         0.1333
     25 C         -62.6440   19.5590   51.2010 C.2       1 VAL         0.2041
     26 O         -63.0410   19.4130   50.0480 O.2       1 VAL        -0.3944
     27 CB        -63.5460   21.7000   52.1550 C.3       1 VAL        -0.0063
     28 CG1       -64.6660   22.3320   52.9830 C.3       1 VAL        -0.0584
     29 CG2       -62.1740   22.2550   52.5340 C.3       1 VAL        -0.0584
     30 N         -61.4040   19.2430   51.5760 N.am      1 ARG        -0.2637
     31 CA        -60.5250   18.5010   50.6710 C.3       1 ARG         0.1311
     32 C         -59.2910   17.7780   51.2540 C.2       1 ARG         0.2040
     33 O         -58.4720   17.3160   50.4520 O.2       1 ARG        -0.3944
     34 CB        -60.0790   19.4310   49.5280 C.3       1 ARG        -0.0092
     35 CG        -60.5080   18.9400   48.1640 C.3       1 ARG        -0.0156
     36 CD        -60.2740   19.9870   47.0950 C.3       1 ARG         0.0627
     37 NE        -60.5400   19.4260   45.7680 N.pl3     1 ARG        -0.2723
     38 CZ        -60.9850   20.1040   44.7060 C.cat     1 ARG         0.2882
     39 NH1       -61.2380   21.4100   44.7670 N.pl3     1 ARG        -0.2849
     40 NH2       -61.1860   19.4600   43.5610 N.pl3     1 ARG        -0.2849
     41 N         -59.1740   17.6540   52.5940 N.am      1 ASP        -0.2622
     42 CA        -58.0470   16.9400   53.2710 C.3       1 ASP         0.1423
     43 C         -57.8090   15.5040   52.7800 C.2       1 ASP         0.2056
     44 O         -56.7110   14.9760   52.9020 O.2       1 ASP        -0.3943
     45 CB        -58.2610   16.8530   54.7980 C.3       1 ASP         0.0406
     46 CG        -59.1430   15.6500   55.2190 C.2       1 ASP         0.0393
     47 OD1       -58.6460   14.4970   55.3020 O.co2     1 ASP        -0.5688
     48 OD2       -60.3450   15.8570   55.4770 O.co2     1 ASP        -0.5688
     49 N         -58.8830   14.8750   52.3110 N.am      1 VAL        -0.2634
     50 CA        -58.9080   13.5370   51.7360 C.3       1 VAL         0.1333
     51 C         -57.9340   13.2850   50.5690 C.2       1 VAL         0.2042
     52 O         -57.5970   12.1450   50.2660 O.2       1 VAL        -0.3944
     53 CB        -60.3750   13.2260   51.2990 C.3       1 VAL        -0.0063
     54 CG1       -60.4420   12.2810   50.1430 C.3       1 VAL        -0.0584
     55 CG2       -61.1780   12.6500   52.4620 C.3       1 VAL        -0.0584
     56 N         -57.4480   14.3300   49.9290 N.am      1 ASP        -0.2622
     57 CA        -56.7070   14.1620   48.6970 C.3       1 ASP         0.1423
     58 C         -55.2740   13.7560   48.9430 C.2       1 ASP         0.2051
     59 O         -54.5240   13.4410   47.9970 O.2       1 ASP        -0.3943
     60 CB        -56.8050   15.4340   47.8400 C.3       1 ASP         0.0406
     61 CG        -58.2400   15.6960   47.3380 C.2       1 ASP         0.0393
     62 OD1       -59.1950   15.1810   47.9560 O.co2     1 ASP        -0.5688
     63 OD2       -58.4220   16.4150   46.3290 O.co2     1 ASP        -0.5688
     64 N         -54.8730   13.7590   50.2090 N.am      1 ILE        -0.2691
     65 CA        -53.5540   13.2840   50.5320 C.3       1 ILE         0.0969
     66 C         -53.5560   11.7690   50.6280 C.2       1 ILE         0.0604
     67 O         -54.6380   11.1370   50.7200 O.co2     1 ILE        -0.5666
     68 CB        -53.0090   13.9130   51.8040 C.3       1 ILE        -0.0092
     69 CG1       -53.7780   13.4590   53.0350 C.3       1 ILE        -0.0497
     70 CG2       -53.0310   15.4310   51.6560 C.3       1 ILE        -0.0588
     71 CD1       -53.3130   14.1740   54.2900 C.3       1 ILE        -0.0649
     72 OXT       -52.4560   11.2010   50.5670 O.co2     1 ILE        -0.5666
     73 H1        -64.2617   21.2493   59.9186 H         1 PRO         0.2035
     74 H2        -63.6754   21.0008   61.4365 H         1 PRO         0.2035
     75 H3        -61.6991   21.3019   60.4899 H         1 PRO         0.1099
     76 H4        -61.4044   19.0812   61.2232 H         1 PRO         0.0347
     77 H5        -61.2575   18.7690   59.4603 H         1 PRO         0.0347
     78 H6        -63.1551   17.6162   61.0999 H         1 PRO         0.0320
     79 H7        -63.3379   17.8382   59.3268 H         1 PRO         0.0320
     80 H8        -65.0968   19.2155   59.7290 H         1 PRO         0.0814
     81 H9        -64.8127   19.1162   61.4999 H         1 PRO         0.0814
     82 H10       -60.2822   21.1367   58.5222 H         1 THR         0.1885
     83 H11       -61.7361   21.9124   56.1298 H         1 THR         0.0826
     84 H12       -59.6677   23.0448   56.4065 H         1 THR         0.0639
     85 H13       -59.3829   21.0765   54.3490 H         1 THR         0.2101
     86 H14       -57.4545   21.9323   56.4425 H         1 THR         0.0257
     87 H15       -58.2612   20.3274   56.4492 H         1 THR         0.0257
     88 H16       -58.4652   21.4410   57.8438 H         1 THR         0.0257
     89 H17       -62.8000   19.6111   56.6914 H         1 ASP         0.1884
     90 H18       -61.7109   17.3394   55.2856 H         1 ASP         0.0819
     91 H19       -64.6524   17.9402   55.8450 H         1 ASP         0.0478
     92 H20       -63.5197   17.3333   57.1002 H         1 ASP         0.0478
     93 H21       -63.3777   20.2704   54.3809 H         1 VAL         0.1883
     94 H22       -64.6041   19.8240   52.0076 H         1 VAL         0.0802
     95 H23       -63.7261   21.9658   51.1029 H         1 VAL         0.0343
     96 H24       -64.6155   23.4271   52.8926 H         1 VAL         0.0234
     97 H25       -64.5482   22.0454   54.0385 H         1 VAL         0.0234
     98 H26       -65.6397   21.9781   52.6134 H         1 VAL         0.0234
     99 H27       -61.4008   21.7747   51.9163 H         1 VAL         0.0234
    100 H28       -61.9755   22.0484   53.5960 H         1 VAL         0.0234
    101 H29       -62.1578   23.3414   52.3625 H         1 VAL         0.0234
    102 H30       -61.0731   19.5143   52.4798 H         1 ARG         0.1883
    103 H31       -61.1507   17.7105   50.2311 H         1 ARG         0.0800
    104 H32       -58.9816   19.5050   49.5445 H         1 ARG         0.0313
    105 H33       -60.5162   20.4264   49.6954 H         1 ARG         0.0313
    106 H34       -61.5797   18.6940   48.1940 H         1 ARG         0.0301
    107 H35       -59.9316   18.0377   47.9119 H         1 ARG         0.0301
    108 H36       -59.2290   20.3271   47.1425 H         1 ARG         0.0689
    109 H37       -60.9456   20.8405   47.2695 H         1 ARG         0.0689
    110 H38       -60.3685   18.4182   45.6423 H         1 ARG         0.2642
    111 H39       -61.5803   21.9078   43.9328 H         1 ARG         0.2615
    112 H40       -61.0913   21.9224   45.6484 H         1 ARG         0.2615
    113 H41       -60.9950   18.4498   43.4979 H         1 ARG         0.2615
    114 H42       -61.5328   19.9710   42.7367 H         1 ARG         0.2615
    115 H43       -59.8830   18.0639   53.1678 H         1 ASP         0.1884
    116 H44       -57.1340   17.5219   53.0766 H         1 ASP         0.0819
    117 H45       -58.7473   17.7796   55.1371 H         1 ASP         0.0478
    118 H46       -57.2793   16.7549   55.2844 H         1 ASP         0.0478
    119 H47       -59.7531   15.3657   52.3574 H         1 VAL         0.1883
    120 H48       -58.6305   12.8350   52.5361 H         1 VAL         0.0802
    121 H49       -60.8406   14.1740   50.9916 H         1 VAL         0.0343
    122 H50       -61.4942   12.0985   49.8791 H         1 VAL         0.0234
    123 H51       -59.9629   11.3300   50.4186 H         1 VAL         0.0234
    124 H52       -59.9184   12.7190   49.2805 H         1 VAL         0.0234
    125 H53       -61.1328   13.3411   53.3166 H         1 VAL         0.0234
    126 H54       -60.7546   11.6777   52.7540 H         1 VAL         0.0234
    127 H55       -62.2254   12.5162   52.1537 H         1 VAL         0.0234
    128 H56       -57.5927   15.2480   50.2984 H         1 ASP         0.1884
    129 H57       -57.1830   13.3457   48.1339 H         1 ASP         0.0819
    130 H58       -56.1407   15.3258   46.9699 H         1 ASP         0.0478
    131 H59       -56.4800   16.2934   48.4449 H         1 ASP         0.0478
    132 H60       -55.4819   14.0882   50.9307 H         1 ILE         0.1875
    133 H61       -52.8840   13.5706   49.7081 H         1 ILE         0.0729
    134 H62       -51.9636   13.5932   51.9255 H         1 ILE         0.0338
    135 H63       -53.6304   12.3770   53.1672 H         1 ILE         0.0267
    136 H64       -54.8473   13.6674   52.8829 H         1 ILE         0.0267
    137 H65       -52.4663   15.7200   50.7573 H         1 ILE         0.0234
    138 H66       -52.5710   15.8925   52.5422 H         1 ILE         0.0234
    139 H67       -54.0715   15.7752   51.5616 H         1 ILE         0.0234
    140 H68       -53.8942   13.8160   55.1526 H         1 ILE         0.0230
    141 H69       -53.4623   15.2573   54.1715 H         1 ILE         0.0230
    142 H70       -52.2455   13.9670   54.4558 H         1 ILE         0.0230
@<TRIPOS>BOND
     1    1    2 1  
     2    1    7 1  
     3    2    3 1  
     4    2    5 1  
     5    3    4 2  
     6    3    8 am 
     7    5    6 1  
     8    6    7 1  
     9    8    9 1  
    10    9   10 1  
    11    9   12 1  
    12   10   11 2  
    13   10   15 am 
    14   12   13 1  
    15   12   14 1  
    16   15   16 1  
    17   16   17 1  
    18   16   19 1  
    19   17   18 2  
    20   17   23 am 
    21   19   20 1  
    22   20   21 ar 
    23   20   22 ar 
    24   23   24 1  
    25   24   25 1  
    26   24   27 1  
    27   25   26 2  
    28   25   30 am 
    29   27   28 1  
    30   27   29 1  
    31   30   31 1  
    32   31   32 1  
    33   31   34 1  
    34   32   33 2  
    35   32   41 am 
    36   34   35 1  
    37   35   36 1  
    38   36   37 1  
    39   37   38 ar 
    40   38   39 ar 
    41   38   40 ar 
    42   41   42 1  
    43   42   43 1  
    44   42   45 1  
    45   43   44 2  
    46   43   49 am 
    47   45   46 1  
    48   46   47 ar 
    49   46   48 ar 
    50   49   50 1  
    51   50   51 1  
    52   50   53 1  
    53   51   52 2  
    54   51   56 am 
    55   53   54 1  
    56   53   55 1  
    57   56   57 1  
    58   57   58 1  
    59   57   60 1  
    60   58   59 2  
    61   58   64 am 
    62   60   61 1  
    63   61   62 ar 
    64   61   63 ar 
    65   64   65 1  
    66   65   66 1  
    67   65   68 1  
    68   66   67 ar 
    69   66   72 ar 
    70   68   69 1  
    71   68   70 1  
    72   69   71 1  
    73    1   73 1  
    74    1   74 1  
    75    2   75 1  
    76    5   76 1  
    77    5   77 1  
    78    6   78 1  
    79    6   79 1  
    80    7   80 1  
    81    7   81 1  
    82    8   82 1  
    83    9   83 1  
    84   12   84 1  
    85   13   85 1  
    86   14   86 1  
    87   14   87 1  
    88   14   88 1  
    89   15   89 1  
    90   16   90 1  
    91   19   91 1  
    92   19   92 1  
    93   23   93 1  
    94   24   94 1  
    95   27   95 1  
    96   28   96 1  
    97   28   97 1  
    98   28   98 1  
    99   29   99 1  
   100   29  100 1  
   101   29  101 1  
   102   30  102 1  
   103   31  103 1  
   104   34  104 1  
   105   34  105 1  
   106   35  106 1  
   107   35  107 1  
   108   36  108 1  
   109   36  109 1  
   110   37  110 1  
   111   39  111 1  
   112   39  112 1  
   113   40  113 1  
   114   40  114 1  
   115   41  115 1  
   116   42  116 1  
   117   45  117 1  
   118   45  118 1  
   119   49  119 1  
   120   50  120 1  
   121   53  121 1  
   122   54  122 1  
   123   54  123 1  
   124   54  124 1  
   125   55  125 1  
   126   55  126 1  
   127   55  127 1  
   128   56  128 1  
   129   57  129 1  
   130   60  130 1  
   131   60  131 1  
   132   64  132 1  
   133   65  133 1  
   134   68  134 1  
   135   69  135 1  
   136   69  136 1  
   137   70  137 1  
   138   70  138 1  
   139   70  139 1  
   140   71  140 1  
   141   71  141 1  
   142   71  142 1  
@<TRIPOS>SUBSTRUCTURE
     1 PRO         1

