5vzu_ligand
  -I-interpret- 

145145  0  0  0  0  0  0  0  0999 V2000
  -63.7080   20.6370   60.4970 N   0  3  0  0  0
  -62.3470   20.5860   59.9630 C   0  0  0  0  0
  -62.2870   20.8720   58.4590 C   0  0  0  0  0
  -63.3270   20.8780   57.7940 O   0  0  0  0  0
  -61.9210   19.1430   60.2540 C   0  0  0  0  0
  -63.1970   18.3560   60.2870 C   0  0  0  0  0
  -64.3420   19.3060   60.5240 C   0  0  0  0  0
  -61.0830   21.0910   57.9250 N   0  0  0  0  0
  -60.9120   21.2670   56.4680 C   0  0  0  0  0
  -61.0600   19.9250   55.7310 C   0  0  0  0  0
  -60.1930   19.5260   54.9450 O   0  0  0  0  0
  -59.5880   21.9980   56.0780 C   0  0  0  0  0
  -59.4210   21.9770   54.6490 O   0  0  0  0  0
  -58.3550   21.3810   56.7510 C   0  0  0  0  0
  -62.1860   19.2550   55.9870 N   0  0  0  0  0
  -62.5670   18.0300   55.2920 C   0  0  0  0  0
  -62.9340   18.3740   53.8480 C   0  0  0  0  0
  -62.8610   17.5140   52.9680 O   0  0  0  0  0
  -63.7420   17.3490   56.0230 C   0  0  0  0  0
  -64.0000   15.9080   55.5590 C   0  0  0  0  0
  -63.1910   15.3320   54.7960 O   0  0  0  0  0
  -65.0330   15.3440   55.9800 O   0  0  0  0  0
  -63.2970   19.6410   53.6080 N   0  0  0  0  0
  -63.5820   20.1460   52.2560 C   0  0  0  0  0
  -62.6440   19.5590   51.2010 C   0  0  0  0  0
  -63.0410   19.4130   50.0480 O   0  0  0  0  0
  -63.5460   21.7000   52.1550 C   0  0  0  0  0
  -64.6660   22.3320   52.9830 C   0  0  0  0  0
  -62.1740   22.2550   52.5340 C   0  0  0  0  0
  -61.4040   19.2430   51.5760 N   0  0  0  0  0
  -60.5250   18.5010   50.6710 C   0  0  0  0  0
  -59.2910   17.7780   51.2540 C   0  0  0  0  0
  -58.4720   17.3160   50.4520 O   0  0  0  0  0
  -60.0790   19.4310   49.5280 C   0  0  0  0  0
  -60.5080   18.9400   48.1640 C   0  0  0  0  0
  -60.2740   19.9870   47.0950 C   0  0  0  0  0
  -60.5400   19.4260   45.7680 N   0  0  0  0  0
  -60.9850   20.1040   44.7060 C   0  0  0  0  0
  -61.2380   21.4100   44.7670 N   0  0  0  0  0
  -61.1860   19.4600   43.5610 N   0  0  0  0  0
  -59.1740   17.6540   52.5940 N   0  0  0  0  0
  -58.0470   16.9400   53.2710 C   0  0  0  0  0
  -57.8090   15.5040   52.7800 C   0  0  0  0  0
  -56.7110   14.9760   52.9020 O   0  0  0  0  0
  -58.2610   16.8530   54.7980 C   0  0  0  0  0
  -59.1430   15.6500   55.2190 C   0  0  0  0  0
  -58.6460   14.4970   55.3020 O   0  0  0  0  0
  -60.3450   15.8570   55.4770 O   0  0  0  0  0
  -58.8830   14.8750   52.3110 N   0  0  0  0  0
  -58.9080   13.5370   51.7360 C   0  0  0  0  0
  -57.9340   13.2850   50.5690 C   0  0  0  0  0
  -57.5970   12.1450   50.2660 O   0  0  0  0  0
  -60.3750   13.2260   51.2990 C   0  0  0  0  0
  -60.4420   12.2810   50.1430 C   0  0  0  0  0
  -61.1780   12.6500   52.4620 C   0  0  0  0  0
  -57.4480   14.3300   49.9290 N   0  0  0  0  0
  -56.7070   14.1620   48.6970 C   0  0  0  0  0
  -55.2740   13.7560   48.9430 C   0  0  0  0  0
  -54.5240   13.4410   47.9970 O   0  0  0  0  0
  -56.8050   15.4340   47.8400 C   0  0  0  0  0
  -58.2400   15.6960   47.3380 C   0  0  0  0  0
  -59.1950   15.1810   47.9560 O   0  0  0  0  0
  -58.4220   16.4150   46.3290 O   0  0  0  0  0
  -54.8730   13.7590   50.2090 N   0  0  0  0  0
  -53.5540   13.2840   50.5320 C   0  0  0  0  0
  -53.5560   11.7690   50.6280 C   0  0  0  0  0
  -54.6380   11.1370   50.7200 O   0  0  0  0  0
  -53.0090   13.9130   51.8040 C   0  0  0  0  0
  -53.7780   13.4590   53.0350 C   0  0  0  0  0
  -53.0310   15.4310   51.6560 C   0  0  0  0  0
  -53.3130   14.1740   54.2900 C   0  0  0  0  0
  -52.4560   11.2010   50.5670 O   0  0  0  0  0
  -64.2644   21.2428   59.8939 H   0  0  0  0  0
  -63.6619   20.9875   61.4538 H   0  0  0  0  0
  -61.7028   21.3425   60.4113 H   0  0  0  0  0
  -61.3766   19.0663   61.1952 H   0  0  0  0  0
  -61.2349   18.7654   59.4958 H   0  0  0  0  0
  -63.1565   17.6169   61.0871 H   0  0  0  0  0
  -63.3366   17.8357   59.3394 H   0  0  0  0  0
  -65.1262   19.2052   59.7737 H   0  0  0  0  0
  -64.8548   19.1102   61.4657 H   0  0  0  0  0
  -60.2662   21.1377   58.5341 H   0  0  0  0  0
  -61.7151   21.9284   56.1430 H   0  0  0  0  0
  -59.6716   23.0255   56.4320 H   0  0  0  0  0
  -58.6059   22.4277   54.4166 H   0  0  0  0  0
  -58.4654   21.4410   57.8337 H   0  0  0  0  0
  -58.2632   20.3371   56.4512 H   0  0  0  0  0
  -57.4634   21.9281   56.4446 H   0  0  0  0  0
  -62.8122   19.6182   56.7055 H   0  0  0  0  0
  -61.7328   17.3284   55.2853 H   0  0  0  0  0
  -64.6405   17.9278   55.8090 H   0  0  0  0  0
  -63.4908   17.3117   57.0830 H   0  0  0  0  0
  -62.4686   15.9290   54.5879 H   0  0  0  0  0
  -63.3793   20.2830   54.3964 H   0  0  0  0  0
  -64.6006   19.8143   52.0546 H   0  0  0  0  0
  -63.7200   21.9697   51.1133 H   0  0  0  0  0
  -65.6302   21.9805   52.6158 H   0  0  0  0  0
  -64.5482   22.0473   54.0285 H   0  0  0  0  0
  -64.6150   23.4170   52.8926 H   0  0  0  0  0
  -61.9389   21.9701   53.5595 H   0  0  0  0  0
  -61.4200   21.8477   51.8604 H   0  0  0  0  0
  -62.1877   23.3418   52.4515 H   0  0  0  0  0
  -61.0665   19.5197   52.4979 H   0  0  0  0  0
  -61.1539   17.6727   50.3446 H   0  0  0  0  0
  -58.9898   19.4708   49.5387 H   0  0  0  0  0
  -60.5432   20.4036   49.6915 H   0  0  0  0  0
  -61.5741   18.7157   48.1986 H   0  0  0  0  0
  -59.9196   18.0568   47.9154 H   0  0  0  0  0
  -59.2361   20.3168   47.1407 H   0  0  0  0  0
  -60.9456   20.8281   47.2672 H   0  0  0  0  0
  -60.3702   18.4280   45.6436 H   0  0  0  0  0
  -61.5811   21.9021   43.9421 H   0  0  0  0  0
  -61.0887   21.9182   45.6387 H   0  0  0  0  0
  -61.0008   18.4588   43.4996 H   0  0  0  0  0
  -59.8972   18.0721   53.1792 H   0  0  0  0  0
  -57.1778   17.5461   53.0155 H   0  0  0  0  0
  -58.7693   17.7639   55.1143 H   0  0  0  0  0
  -57.2835   16.7267   55.2634 H   0  0  0  0  0
  -57.7158   14.5331   55.0675 H   0  0  0  0  0
  -59.7705   15.3755   52.3583 H   0  0  0  0  0
  -58.5560   12.8619   52.5160 H   0  0  0  0  0
  -60.8066   14.1762   50.9844 H   0  0  0  0  0
  -59.9228   12.7161   49.2891 H   0  0  0  0  0
  -59.9669   11.3391   50.4173 H   0  0  0  0  0
  -61.4850   12.1010   49.8825 H   0  0  0  0  0
  -60.7097   11.7267   52.8032 H   0  0  0  0  0
  -61.2001   13.3712   53.2790 H   0  0  0  0  0
  -62.1957   12.4422   52.1315 H   0  0  0  0  0
  -57.5956   15.2663   50.3057 H   0  0  0  0  0
  -57.1613   13.3414   48.1418 H   0  0  0  0  0
  -56.1617   15.3046   46.9697 H   0  0  0  0  0
  -56.5039   16.2804   48.4572 H   0  0  0  0  0
  -57.5739   16.7165   45.9951 H   0  0  0  0  0
  -55.4941   14.0948   50.9452 H   0  0  0  0  0
  -52.8861   13.5872   49.7257 H   0  0  0  0  0
  -55.3686   11.7588   50.7539 H   0  0  0  0  0
  -51.9807   13.5820   51.9496 H   0  0  0  0  0
  -53.6086   12.3905   53.1684 H   0  0  0  0  0
  -54.8326   13.6885   52.8824 H   0  0  0  0  0
  -52.4117   15.7210   50.8072 H   0  0  0  0  0
  -54.0556   15.7638   51.4904 H   0  0  0  0  0
  -52.6413   15.8891   52.5651 H   0  0  0  0  0
  -52.2551   13.9681   54.4531 H   0  0  0  0  0
  -53.4615   15.2473   54.1713 H   0  0  0  0  0
  -53.8896   13.8184   55.1440 H   0  0  0  0  0
  1  2  1  0  0  0
  1  7  1  0  0  0
  2  3  1  0  0  0
  2  5  1  0  0  0
  3  4  2  0  0  0
  3  8  1  0  0  0
  5  6  1  0  0  0
  6  7  1  0  0  0
  8  9  1  0  0  0
  9 10  1  0  0  0
  9 12  1  0  0  0
 10 11  2  0  0  0
 10 15  1  0  0  0
 12 13  1  0  0  0
 12 14  1  0  0  0
 15 16  1  0  0  0
 16 17  1  0  0  0
 16 19  1  0  0  0
 17 18  2  0  0  0
 17 23  1  0  0  0
 19 20  1  0  0  0
 20 21  1  0  0  0
 20 22  2  0  0  0
 23 24  1  0  0  0
 24 25  1  0  0  0
 24 27  1  0  0  0
 25 26  2  0  0  0
 25 30  1  0  0  0
 27 28  1  0  0  0
 27 29  1  0  0  0
 30 31  1  0  0  0
 31 32  1  0  0  0
 31 34  1  0  0  0
 32 33  2  0  0  0
 32 41  1  0  0  0
 34 35  1  0  0  0
 35 36  1  0  0  0
 36 37  1  0  0  0
 37 38  1  0  0  0
 38 39  1  0  0  0
 38 40  2  0  0  0
 41 42  1  0  0  0
 42 43  1  0  0  0
 42 45  1  0  0  0
 43 44  2  0  0  0
 43 49  1  0  0  0
 45 46  1  0  0  0
 46 47  1  0  0  0
 46 48  2  0  0  0
 49 50  1  0  0  0
 50 51  1  0  0  0
 50 53  1  0  0  0
 51 52  2  0  0  0
 51 56  1  0  0  0
 53 54  1  0  0  0
 53 55  1  0  0  0
 56 57  1  0  0  0
 57 58  1  0  0  0
 57 60  1  0  0  0
 58 59  2  0  0  0
 58 64  1  0  0  0
 60 61  1  0  0  0
 61 62  2  0  0  0
 61 63  1  0  0  0
 64 65  1  0  0  0
 65 66  1  0  0  0
 65 68  1  0  0  0
 66 67  1  0  0  0
 66 72  2  0  0  0
 68 69  1  0  0  0
 68 70  1  0  0  0
 69 71  1  0  0  0
  1 73  1  0  0  0
  1 74  1  0  0  0
  2 75  1  0  0  0
  5 76  1  0  0  0
  5 77  1  0  0  0
  6 78  1  0  0  0
  6 79  1  0  0  0
  7 80  1  0  0  0
  7 81  1  0  0  0
  8 82  1  0  0  0
  9 83  1  0  0  0
 12 84  1  0  0  0
 13 85  1  0  0  0
 14 86  1  0  0  0
 14 87  1  0  0  0
 14 88  1  0  0  0
 15 89  1  0  0  0
 16 90  1  0  0  0
 19 91  1  0  0  0
 19 92  1  0  0  0
 21 93  1  0  0  0
 23 94  1  0  0  0
 24 95  1  0  0  0
 27 96  1  0  0  0
 28 97  1  0  0  0
 28 98  1  0  0  0
 28 99  1  0  0  0
 29100  1  0  0  0
 29101  1  0  0  0
 29102  1  0  0  0
 30103  1  0  0  0
 31104  1  0  0  0
 34105  1  0  0  0
 34106  1  0  0  0
 35107  1  0  0  0
 35108  1  0  0  0
 36109  1  0  0  0
 36110  1  0  0  0
 37111  1  0  0  0
 39112  1  0  0  0
 39113  1  0  0  0
 40114  1  0  0  0
 41115  1  0  0  0
 42116  1  0  0  0
 45117  1  0  0  0
 45118  1  0  0  0
 47119  1  0  0  0
 49120  1  0  0  0
 50121  1  0  0  0
 53122  1  0  0  0
 54123  1  0  0  0
 54124  1  0  0  0
 54125  1  0  0  0
 55126  1  0  0  0
 55127  1  0  0  0
 55128  1  0  0  0
 56129  1  0  0  0
 57130  1  0  0  0
 60131  1  0  0  0
 60132  1  0  0  0
 63133  1  0  0  0
 64134  1  0  0  0
 65135  1  0  0  0
 67136  1  0  0  0
 68137  1  0  0  0
 69138  1  0  0  0
 69139  1  0  0  0
 70140  1  0  0  0
 70141  1  0  0  0
 70142  1  0  0  0
 71143  1  0  0  0
 71144  1  0  0  0
 71145  1  0  0  0
M  END
$$$$
