5vja_ligand
  -I-interpret- 

 35 37  0  0  0  0  0  0  0  0999 V2000
  -26.7270  -11.9610   56.6790 O   0  0  0  0  0
  -27.4150  -11.2530   55.9870 C   0  0  0  0  0
  -27.2810   -9.8810   56.1010 N   0  0  0  0  0
  -28.3990  -11.9050   55.0270 C   0  0  0  0  0
  -29.5760  -12.4400   55.8730 C   0  0  0  0  0
  -28.9950  -10.8030   53.6820 S   0  0  0  0  0
  -27.6980  -10.1170   52.7850 C   0  0  0  0  0
  -26.4630  -10.2220   53.2010 N   0  0  0  0  0
  -25.4250   -9.6050   52.3600 C   0  0  0  0  0
  -24.0970   -9.5650   52.4840 N   0  0  0  0  0
  -23.5970   -8.9110   51.5170 N   0  0  0  0  0
  -24.5530   -8.4980   50.6550 C   0  0  0  0  0
  -25.7250   -8.9550   51.1970 C   0  0  0  0  0
  -27.1100   -8.8320   50.7390 C   0  0  0  0  0
  -27.4580   -8.2430   49.7120 O   0  0  0  0  0
  -28.0340   -9.4450   51.5920 N   0  0  0  0  0
  -23.2560  -10.0130   53.5820 C   0  0  0  0  0
  -21.8930   -9.8110   53.4930 C   0  0  0  0  0
  -23.7830  -10.4490   54.7830 C   0  0  0  0  0
  -22.9390  -10.7930   55.8470 C   0  0  0  0  0
  -21.5700  -10.6250   55.7320 C   0  0  0  0  0
  -21.0700  -10.1310   54.5490 C   0  0  0  0  0
  -19.3980   -9.9360   54.3380 Cl  0  0  0  0  0
  -26.6102   -9.4872   56.7608 H   0  0  0  0  0
  -27.8530   -9.2631   55.5253 H   0  0  0  0  0
  -27.8819  -12.7076   54.5011 H   0  0  0  0  0
  -30.1107  -11.6020   56.3202 H   0  0  0  0  0
  -30.2538  -13.0056   55.2336 H   0  0  0  0  0
  -29.1909  -13.0885   56.6599 H   0  0  0  0  0
  -24.4208   -7.9289   49.7348 H   0  0  0  0  0
  -29.0196   -9.4028   51.3327 H   0  0  0  0  0
  -21.4658   -9.3953   52.5804 H   0  0  0  0  0
  -24.8636  -10.5258   54.9033 H   0  0  0  0  0
  -23.3618  -11.1941   56.7681 H   0  0  0  0  0
  -20.9047  -10.8776   56.5576 H   0  0  0  0  0
  1  2  2  0  0  0
  2  3  1  0  0  0
  2  4  1  0  0  0
  4  5  1  0  0  0
  4  6  1  0  0  0
  6  7  1  0  0  0
  7  8  2  0  0  0
  7 16  1  0  0  0
  8  9  1  0  0  0
  9 10  4  0  0  0
  9 13  4  0  0  0
 10 11  4  0  0  0
 10 17  1  0  0  0
 11 12  4  0  0  0
 12 13  4  0  0  0
 13 14  1  0  0  0
 14 15  2  0  0  0
 14 16  1  0  0  0
 17 18  4  0  0  0
 17 19  4  0  0  0
 18 22  4  0  0  0
 19 20  4  0  0  0
 20 21  4  0  0  0
 21 22  4  0  0  0
 22 23  1  0  0  0
  3 24  1  0  0  0
  3 25  1  0  0  0
  4 26  1  0  0  0
  5 27  1  0  0  0
  5 28  1  0  0  0
  5 29  1  0  0  0
 12 30  1  0  0  0
 16 31  1  0  0  0
 18 32  1  0  0  0
 19 33  1  0  0  0
 20 34  1  0  0  0
 21 35  1  0  0  0
M  END
$$$$
