2aay_ligand
  -I-interpret- 

 22 22  0  0  0  0  0  0  0  0999 V2000
   56.1270    8.6470   30.3120 O   0  0  0  0  0
   55.9970    9.9670   29.7580 C   0  0  0  0  0
   57.2660   10.4120   29.0430 C   0  0  0  0  0
   58.3510   10.3590   29.9600 O   0  0  0  0  0
   57.0650   11.8530   28.5370 C   0  0  0  0  0
   55.8100   12.1340   27.8890 C   0  0  0  0  0
   55.6490   13.3790   27.0720 C   0  0  0  0  0
   54.7310   13.3910   26.2080 O   0  0  0  0  0
   56.3560   14.3300   27.3490 O   0  0  0  0  0
   54.7080   11.2690   28.0110 C   0  0  0  0  0
   54.8130    9.9790   28.7880 C   0  0  0  0  0
   54.8610    8.8400   27.8670 O   0  0  0  0  0
   56.8677    8.6289   30.9224 H   0  0  0  0  0
   55.8264   10.6696   30.5737 H   0  0  0  0  0
   57.4818    9.7597   28.1968 H   0  0  0  0  0
   58.4652    9.4566   30.2671 H   0  0  0  0  0
   57.8377   12.0213   27.7868 H   0  0  0  0  0
   57.1000   12.4917   29.4196 H   0  0  0  0  0
   54.3170   12.5257   26.1706 H   0  0  0  0  0
   53.7630   11.5342   27.5370 H   0  0  0  0  0
   53.9191    9.8947   29.4061 H   0  0  0  0  0
   54.9277    8.0254   28.3705 H   0  0  0  0  0
  1  2  1  0  0  0
  2  3  1  0  0  0
  2 11  1  0  0  0
  3  4  1  0  0  0
  3  5  1  0  0  0
  5  6  1  0  0  0
  6  7  1  0  0  0
  6 10  2  0  0  0
  7  8  1  0  0  0
  7  9  2  0  0  0
 10 11  1  0  0  0
 11 12  1  0  0  0
  1 13  1  0  0  0
  2 14  1  0  0  0
  3 15  1  0  0  0
  4 16  1  0  0  0
  5 17  1  0  0  0
  5 18  1  0  0  0
  8 19  1  0  0  0
 10 20  1  0  0  0
 11 21  1  0  0  0
 12 22  1  0  0  0
M  END
$$$$
