6e4w_ligand
  -I-interpret- 

 62 66  0  0  0  0  0  0  0  0999 V2000
   48.7710  -82.9440  -39.8500 C   0  0  0  0  0
   46.5980  -79.9420  -39.3050 C   0  0  0  0  0
   47.7060  -80.8840  -39.2020 C   0  0  0  0  0
   45.8100  -77.5980  -39.3970 C   0  0  0  0  0
   42.8080  -79.6310  -39.6240 C   0  0  0  0  0
   38.8860  -83.4100  -41.3360 C   0  0  0  0  0
   38.8270  -83.6020  -42.8410 C   0  0  0  0  0
   46.8250  -78.5410  -39.3020 C   0  0  0  0  0
   37.6040  -82.6760  -39.3430 C   0  0  0  0  0
   39.9210  -81.8950  -39.8380 C   0  0  0  0  0
   37.4940  -83.0940  -40.8030 C   0  0  0  0  0
   51.6070  -85.5810  -37.6490 C   0  0  0  0  0
   48.7640  -80.6040  -38.3400 C   0  0  0  0  0
   49.8240  -81.4950  -38.2360 C   0  0  0  0  0
   49.8290  -82.6660  -38.9910 C   0  0  0  0  0
   47.7080  -82.0530  -39.9570 C   0  0  0  0  0
   44.5100  -78.1040  -39.5000 C   0  0  0  0  0
   44.2280  -79.4900  -39.5070 C   0  0  0  0  0
   45.2890  -80.4050  -39.4090 C   0  0  0  0  0
   45.0250  -81.6960  -39.4160 F   0  0  0  0  0
   42.2630  -78.3590  -39.6840 C   0  0  0  0  0
   43.2960  -77.4230  -39.6090 N   0  0  0  0  0
   42.1190  -80.9000  -39.6670 C   0  0  0  0  0
   42.6100  -82.0140  -39.6130 O   0  0  0  0  0
   40.7550  -80.7310  -39.7820 O   0  0  0  0  0
   38.5920  -81.5280  -39.1890 C   0  0  0  0  0
   39.7230  -82.2540  -41.1930 O   0  0  0  0  0
   38.7700  -82.7540  -43.7080 O   0  0  0  0  0
   38.8460  -84.9090  -43.1740 O   0  0  0  0  0
   36.6400  -84.2260  -40.9230 O   0  0  0  0  0
   36.3260  -82.2880  -38.8500 O   0  0  0  0  0
   38.7900  -81.2370  -37.8110 O   0  0  0  0  0
   48.0710  -78.1030  -39.2030 F   0  0  0  0  0
   50.9880  -83.6200  -38.8640 C   0  0  0  0  0
   51.2630  -84.3020  -40.1900 C   0  0  0  0  0
   52.2940  -85.4100  -40.0180 C   0  0  0  0  0
   51.9000  -86.3560  -38.9030 C   0  0  0  0  0
   50.5960  -84.5870  -37.8800 O   0  0  0  0  0
   48.7748  -83.8607  -40.4398 H   0  0  0  0  0
   46.0142  -76.5273  -39.3916 H   0  0  0  0  0
   39.2506  -84.2866  -40.8006 H   0  0  0  0  0
   37.9667  -83.5260  -38.7650 H   0  0  0  0  0
   40.3749  -82.7389  -39.3185 H   0  0  0  0  0
   37.0637  -82.2815  -41.3884 H   0  0  0  0  0
   52.5203  -85.0812  -37.3263 H   0  0  0  0  0
   51.2483  -86.2730  -36.8870 H   0  0  0  0  0
   48.7598  -79.6882  -37.7489 H   0  0  0  0  0
   50.6533  -81.2780  -37.5628 H   0  0  0  0  0
   46.8788  -82.2699  -40.6304 H   0  0  0  0  0
   41.2019  -78.1270  -39.7749 H   0  0  0  0  0
   38.1870  -80.6447  -39.6828 H   0  0  0  0  0
   38.8922  -85.4407  -42.3760 H   0  0  0  0  0
   36.5772  -84.4816  -41.8462 H   0  0  0  0  0
   36.4052  -82.0264  -37.9297 H   0  0  0  0  0
   39.4139  -80.5125  -37.7245 H   0  0  0  0  0
   51.9011  -83.0997  -38.5748 H   0  0  0  0  0
   51.6503  -83.5647  -40.8932 H   0  0  0  0  0
   50.3357  -84.7367  -40.5631 H   0  0  0  0  0
   53.2532  -84.9570  -39.7674 H   0  0  0  0  0
   52.3562  -85.9750  -40.9481 H   0  0  0  0  0
   51.0079  -86.9075  -39.1998 H   0  0  0  0  0
   52.7210  -87.0474  -38.7131 H   0  0  0  0  0
 15  1  4  0  0  0
  1 16  4  0  0  0
  3  2  1  0  0  0
  2  8  4  0  0  0
  2 19  4  0  0  0
 13  3  4  0  0  0
 16  3  4  0  0  0
  8  4  4  0  0  0
  4 17  4  0  0  0
 18  5  4  0  0  0
  5 21  4  0  0  0
  5 23  1  0  0  0
  6  7  1  0  0  0
  6 11  1  0  0  0
 27  6  1  0  0  0
  7 28  2  0  0  0
  7 29  1  0  0  0
  8 33  1  0  0  0
  9 11  1  0  0  0
 26  9  1  0  0  0
  9 31  1  0  0  0
 25 10  1  0  0  0
 10 26  1  0  0  0
 10 27  1  0  0  0
 11 30  1  0  0  0
 12 37  1  0  0  0
 38 12  1  0  0  0
 14 13  4  0  0  0
 15 14  4  0  0  0
 34 15  1  0  0  0
 18 17  4  0  0  0
 17 22  4  0  0  0
 19 18  4  0  0  0
 19 20  1  0  0  0
 22 21  4  0  0  0
 23 24  2  0  0  0
 23 25  1  0  0  0
 26 32  1  0  0  0
 34 35  1  0  0  0
 34 38  1  0  0  0
 35 36  1  0  0  0
 36 37  1  0  0  0
  1 39  1  0  0  0
  4 40  1  0  0  0
  6 41  1  0  0  0
  9 42  1  0  0  0
 10 43  1  0  0  0
 11 44  1  0  0  0
 12 45  1  0  0  0
 12 46  1  0  0  0
 13 47  1  0  0  0
 14 48  1  0  0  0
 16 49  1  0  0  0
 21 50  1  0  0  0
 26 51  1  0  0  0
 29 52  1  0  0  0
 30 53  1  0  0  0
 31 54  1  0  0  0
 32 55  1  0  0  0
 34 56  1  0  0  0
 35 57  1  0  0  0
 35 58  1  0  0  0
 36 59  1  0  0  0
 36 60  1  0  0  0
 37 61  1  0  0  0
 37 62  1  0  0  0
M  END
$$$$
