6n87_ligand
  -I-interpret- 

236243  0  0  0  0  0  0  0  0999 V2000
   89.0880   10.0320    7.1360 N   0  3  0  0  0
   87.9690   10.8790    6.7330 C   0  0  0  0  0
   87.6350   12.0390    7.6810 C   0  0  0  0  0
   86.7210   12.8220    7.3910 O   0  0  0  0  0
   86.7110   10.0060    6.5610 C   0  0  0  0  0
   86.8970    9.0350    5.0440 S   0  0  0  0  0
   88.3340   12.1340    8.8120 N   0  0  0  0  0
   87.9690   13.0970    9.8470 C   0  0  0  0  0
   89.1520   14.0070   10.1260 C   0  0  0  0  0
   90.3100   13.6540    9.8720 O   0  0  0  0  0
   87.5240   12.4100   11.1670 C   0  0  0  0  0
   86.3530   11.5420   10.8950 C   0  0  0  0  0
   85.0370   11.9290   10.9090 C   0  0  0  0  0
   86.3650   10.1720   10.4320 C   0  0  0  0  0
   84.2280   10.8720   10.5360 N   0  0  0  0  0
   85.0170    9.7930   10.2180 C   0  0  0  0  0
   87.3790    9.2260   10.1910 C   0  0  0  0  0
   84.6640    8.5130    9.7800 C   0  0  0  0  0
   87.0240    7.9640    9.7670 C   0  0  0  0  0
   85.6810    7.6170    9.5520 C   0  0  0  0  0
   88.8350   15.1900   10.6550 N   0  0  0  0  0
   89.8260   16.1690   11.0810 C   0  0  0  0  0
   89.4980   16.5340   12.5140 C   0  0  0  0  0
   88.3210   16.7700   12.8150 O   0  0  0  0  0
   89.7510   17.4030   10.2040 C   0  0  0  0  0
   89.8970   17.0020    8.8290 O   0  0  0  0  0
   90.8600   18.3450   10.5730 C   0  0  0  0  0
   90.5010   16.5570   13.4100 N   0  0  0  0  0
   90.2040   16.9360   14.7910 C   0  0  0  0  0
   89.8800   18.4170   14.8760 C   0  0  0  0  0
   90.4040   19.2370   14.1070 O   0  0  0  0  0
   91.3620   16.5970   15.7300 C   0  0  0  0  0
   92.5820   17.1860   15.2440 O   0  0  0  0  0
   91.4960   15.1040   15.8350 C   0  0  0  0  0
   88.9450   18.7460   15.7560 N   0  0  0  0  0
   88.5430   20.1230   15.9800 C   0  0  0  0  0
   89.4220   20.8290   16.9980 C   0  0  0  0  0
   89.7310   22.0230   16.8320 O   0  0  0  0  0
   87.1010   20.1790   16.4330 C   0  0  0  0  0
   86.1000   19.6760   15.3840 C   0  0  0  0  0
   84.6900   19.8130   15.9440 C   0  0  0  0  0
   83.6940   19.8600   14.8650 N   0  0  0  0  0
   82.9050   18.8270   14.5610 C   0  0  0  0  0
   83.0220   17.6820   15.2670 N   0  0  0  0  0
   82.0230   18.9400   13.5550 N   0  0  0  0  0
   89.8840   20.1190   18.0060 N   0  0  0  0  0
   90.7420   20.7290   19.0110 C   0  0  0  0  0
   92.2020   20.6690   18.5560 C   0  0  0  0  0
   92.6320   19.7190   17.8950 O   0  0  0  0  0
   90.5370   20.0250   20.3550 C   0  0  0  0  0
   89.1400   20.2640   20.9470 C   0  0  0  0  0
   88.9050   19.5080   22.5680 S   0  0  0  0  0
   88.6650   17.7970   22.0950 C   0  0  0  0  0
   92.9470   21.7160   18.8800 N   0  0  0  0  0
   94.3640   21.7480   18.5510 C   0  0  0  0  0
   95.1130   20.6550   19.3140 C   0  0  0  0  0
   94.7500   20.3340   20.4560 O   0  0  0  0  0
   94.9500   23.1070   18.8900 C   0  0  0  0  0
   96.0850   23.3100   18.0880 O   0  0  0  0  0
   96.1650   20.0570   18.7130 N   0  0  0  0  0
   96.5960   20.4640   17.3710 C   0  0  0  0  0
   95.7740   19.7460   16.3040 C   0  0  0  0  0
   95.6100   18.5240   16.3670 O   0  0  0  0  0
   98.0580   20.0250   17.3330 C   0  0  0  0  0
   98.0580   18.7720   18.1590 C   0  0  0  0  0
   96.9860   18.9400   19.2240 C   0  0  0  0  0
   95.2560   20.4900   15.3350 N   0  0  0  0  0
   94.3890   19.8650   14.3340 C   0  0  0  0  0
   95.1430   18.7630   13.6050 C   0  0  0  0  0
   96.3400   18.8700   13.3330 O   0  0  0  0  0
   94.0190   21.0290   13.4120 C   0  0  0  0  0
   95.1910   21.9600   13.5410 C   0  0  0  0  0
   95.5980   21.8770   14.9840 C   0  0  0  0  0
   94.4420   17.6740   13.3220 N   0  0  0  0  0
   95.0850   16.4850   12.7950 C   0  0  0  0  0
   94.1180   15.7830   11.8500 C   0  0  0  0  0
   92.9000   15.7750   12.0840 O   0  0  0  0  0
   95.5170   15.5670   13.9370 C   0  0  0  0  0
   95.9500   14.2040   13.4860 C   0  0  0  0  0
   96.8740   13.3010   14.7460 S   0  0  0  0  0
   95.7590   13.3360   16.1380 C   0  0  0  0  0
   94.6620   15.2280   10.7660 N   0  0  0  0  0
   93.8920   14.4100    9.8470 C   0  0  0  0  0
   93.8870   12.9870   10.3770 C   0  0  0  0  0
   94.9340   12.4550   10.7700 O   0  0  0  0  0
   94.4690   14.4430    8.4340 C   0  0  0  0  0
   93.9520   15.5810    7.5980 C   0  0  0  0  0
   92.7430   15.1970    6.7880 C   0  0  0  0  0
   91.9890   14.2820    7.1490 O   0  0  0  0  0
   92.5450   15.8910    5.6720 N   0  0  0  0  0
   92.7000   12.4000   10.4420 N   0  0  0  0  0
   92.5370   11.0170   10.8720 C   0  0  0  0  0
   91.6140   10.4610    9.7960 C   0  0  0  0  0
   90.3800   10.4180    9.9700 O   0  0  0  0  0
   92.0110   10.9300   12.3100 C   0  0  0  0  0
   92.9590   11.7020   13.2570 C   0  0  0  0  0
   91.8830    9.4740   12.7650 C   0  0  0  0  0
   92.4640   11.7810   14.7010 C   0  0  0  0  0
   92.1940   10.0880    8.6410 N   0  0  0  0  0
   91.7640   10.1130    7.2470 C   0  0  0  0  0
   90.3420   10.5000    6.9790 C   0  0  0  0  0
   90.4360   11.6250    6.5040 O   0  0  0  0  0
   92.0940    8.6980    6.7860 C   0  0  0  0  0
   93.4280    8.4350    7.5530 C   0  0  0  0  0
   93.7310    9.7140    8.3820 C   0  0  0  0  0
   89.7040    9.5230    7.3520 O   0  0  0  0  0
   81.2220    9.7770    6.6460 O   0  0  0  0  0
   81.7020   10.1050    5.7260 N   0  3  0  0  0
   82.5670   11.2800    5.8760 C   0  0  0  0  0
   83.5850   11.1200    4.8890 C   0  0  0  0  0
   83.5330    9.8350    4.3620 C   0  0  0  0  0
   84.4520    9.3520    3.2550 C   0  0  0  0  0
   86.0710   10.0930    3.4290 S   0  0  0  0  0
   82.5100    9.0940    5.0300 C   0  0  0  0  0
   83.0360    7.9930    5.9430 C   0  0  0  0  0
   81.6260    8.3400    4.0530 C   0  0  0  0  0
   81.7000   12.5190    5.7700 C   0  0  0  0  0
   83.0950   11.4410    7.2930 C   0  0  0  0  0
   88.1324    9.7033    7.2744 H   0  0  0  0  0
   88.2881   11.3450    5.8007 H   0  0  0  0  0
   85.8242   10.6364    6.4954 H   0  0  0  0  0
   86.5959    9.3426    7.4181 H   0  0  0  0  0
   89.1380   11.5232    8.9570 H   0  0  0  0  0
   87.1202   13.6714    9.4758 H   0  0  0  0  0
   87.2537   13.1691   11.9011 H   0  0  0  0  0
   88.3428   11.8069   11.5592 H   0  0  0  0  0
   84.6813   12.9243   11.1753 H   0  0  0  0  0
   88.4271    9.4873   10.3373 H   0  0  0  0  0
   83.6212    8.2360    9.6251 H   0  0  0  0  0
   87.8018    7.2200    9.5950 H   0  0  0  0  0
   85.4394    6.6153    9.1965 H   0  0  0  0  0
   87.8478   15.4209   10.7669 H   0  0  0  0  0
   90.8337   15.7612   11.0011 H   0  0  0  0  0
   88.7931   17.9038   10.3447 H   0  0  0  0  0
   89.8509   17.7769    8.2642 H   0  0  0  0  0
   90.7565   18.6341   11.6189 H   0  0  0  0  0
   91.8198   17.8501   10.4248 H   0  0  0  0  0
   90.8061   19.2324    9.9424 H   0  0  0  0  0
   91.4517   16.3145   13.1313 H   0  0  0  0  0
   89.3348   16.3607   15.1099 H   0  0  0  0  0
   91.1604   17.0043   16.7207 H   0  0  0  0  0
   93.3016   16.9670   15.8405 H   0  0  0  0  0
   90.5707   14.6843   16.2297 H   0  0  0  0  0
   91.6929   14.6878   14.8470 H   0  0  0  0  0
   92.3213   14.8607   16.5042 H   0  0  0  0  0
   88.4926   18.0068   16.2940 H   0  0  0  0  0
   88.6571   20.6438   15.0293 H   0  0  0  0  0
   86.8641   21.2241   16.6324 H   0  0  0  0  0
   87.0097   19.5315   17.3051 H   0  0  0  0  0
   86.3043   18.6311   15.1502 H   0  0  0  0  0
   86.1937   20.2656   14.4720 H   0  0  0  0  0
   84.6300   20.7399   16.5144 H   0  0  0  0  0
   84.4800   18.9493   16.5748 H   0  0  0  0  0
   83.6013   20.7199   14.3243 H   0  0  0  0  0
   82.4334   16.8805   15.0400 H   0  0  0  0  0
   83.6990   17.6186   16.0273 H   0  0  0  0  0
   81.9589   19.8112   13.0284 H   0  0  0  0  0
   89.6383   19.1321   18.0833 H   0  0  0  0  0
   90.4783   21.7791   19.1368 H   0  0  0  0  0
   91.2691   20.4257   21.0562 H   0  0  0  0  0
   90.6504   18.9535   20.1906 H   0  0  0  0  0
   88.4156   19.8142   20.2680 H   0  0  0  0  0
   89.0150   21.3402   21.0666 H   0  0  0  0  0
   87.7948   17.7202   21.4431 H   0  0  0  0  0
   89.5490   17.4400   21.5667 H   0  0  0  0  0
   88.5056   17.1933   22.9885 H   0  0  0  0  0
   92.5230   22.5070   19.3647 H   0  0  0  0  0
   94.4746   21.5695   17.4814 H   0  0  0  0  0
   95.2255   23.1431   19.9440 H   0  0  0  0  0
   94.2144   23.8890   18.7018 H   0  0  0  0  0
   96.4689   24.1664   18.2897 H   0  0  0  0  0
   96.4673   21.5285   17.1748 H   0  0  0  0  0
   98.7367   20.7851   17.7200 H   0  0  0  0  0
   98.4230   19.8616   16.3190 H   0  0  0  0  0
   99.0342   18.6125   18.6169 H   0  0  0  0  0
   97.8503   17.9010   17.5375 H   0  0  0  0  0
   96.4049   18.0310   19.3791 H   0  0  0  0  0
   97.4043   19.1454   20.2094 H   0  0  0  0  0
   93.5052   19.3812   14.7499 H   0  0  0  0  0
   93.0765   21.5007   13.6901 H   0  0  0  0  0
   93.8476   20.7109   12.3836 H   0  0  0  0  0
   94.9307   22.9786   13.2532 H   0  0  0  0  0
   96.0062   21.6771   12.8750 H   0  0  0  0  0
   96.6509   22.1096   15.1437 H   0  0  0  0  0
   95.0940   22.6119   15.6117 H   0  0  0  0  0
   93.4339   17.6720   13.4773 H   0  0  0  0  0
   95.9830   16.7585   12.2410 H   0  0  0  0  0
   94.6556   15.4347   14.5917 H   0  0  0  0  0
   96.3719   16.0350   14.4250 H   0  0  0  0  0
   96.6048   14.3330   12.6242 H   0  0  0  0  0
   95.0519   13.6296   13.2589 H   0  0  0  0  0
   95.5609   14.3708   16.4173 H   0  0  0  0  0
   94.8240   12.8466   15.8653 H   0  0  0  0  0
   96.2132   12.8119   16.9789 H   0  0  0  0  0
   95.6521   15.3836   10.5766 H   0  0  0  0  0
   92.8778   14.8043    9.7835 H   0  0  0  0  0
   94.1768   13.5162    7.9403 H   0  0  0  0  0
   95.5479   14.5685    8.5248 H   0  0  0  0  0
   94.7409   15.8760    6.9061 H   0  0  0  0  0
   93.6639   16.3890    8.2705 H   0  0  0  0  0
   91.7465   15.6783    5.0741 H   0  0  0  0  0
   93.1916   16.6363    5.4134 H   0  0  0  0  0
   91.8716   12.9352   10.1819 H   0  0  0  0  0
   93.4575   10.4375   10.9424 H   0  0  0  0  0
   91.0186   11.3796   12.3419 H   0  0  0  0  0
   93.0297   12.7232   12.8826 H   0  0  0  0  0
   93.9095   11.1686   13.2692 H   0  0  0  0  0
   91.1897    8.9490   12.1079 H   0  0  0  0  0
   92.8606    8.9939   12.7219 H   0  0  0  0  0
   91.5079    9.4460   13.7880 H   0  0  0  0  0
   91.4995   12.2881   14.7259 H   0  0  0  0  0
   92.3566   10.7734   15.1026 H   0  0  0  0  0
   93.1842   12.3377   15.3007 H   0  0  0  0  0
   92.2706   10.9074    6.6988 H   0  0  0  0  0
   89.5596   11.9585    6.2982 H   0  0  0  0  0
   92.1812    8.5969    5.7042 H   0  0  0  0  0
   91.3113    7.9710    7.0026 H   0  0  0  0  0
   94.2396    8.2240    6.8566 H   0  0  0  0  0
   93.3353    7.5653    8.2034 H   0  0  0  0  0
   94.3667    9.5963    9.2595 H   0  0  0  0  0
   94.3530   10.4745    7.9098 H   0  0  0  0  0
   84.2969   11.8903    4.5927 H   0  0  0  0  0
   84.0305    9.6377    2.2912 H   0  0  0  0  0
   84.5471    8.2680    3.3177 H   0  0  0  0  0
   83.6642    8.4338    6.7170 H   0  0  0  0  0
   82.1963    7.4748    6.4061 H   0  0  0  0  0
   83.6224    7.2857    5.3565 H   0  0  0  0  0
   80.8173    7.8530    4.5980 H   0  0  0  0  0
   81.2083    9.0393    3.3287 H   0  0  0  0  0
   82.2199    7.5882    3.5333 H   0  0  0  0  0
   81.2088   12.5350    4.7971 H   0  0  0  0  0
   80.9473   12.5027    6.5582 H   0  0  0  0  0
   82.3227   13.4070    5.8788 H   0  0  0  0  0
   82.2570   11.5517    7.9812 H   0  0  0  0  0
   83.6763   10.5600    7.5650 H   0  0  0  0  0
   83.7288   12.3263    7.3448 H   0  0  0  0  0
  2  1  1  0  0  0
  1101  1  0  0  0
  1106  1  0  0  0
  2  3  1  0  0  0
  5  2  1  0  0  0
  3  4  2  0  0  0
  3  7  1  0  0  0
  6  5  1  0  0  0
113  6  1  0  0  0
  7  8  1  0  0  0
  8  9  1  0  0  0
  8 11  1  0  0  0
  9 10  2  0  0  0
  9 21  1  0  0  0
 11 12  1  0  0  0
 12 13  4  0  0  0
 12 14  4  0  0  0
 13 15  4  0  0  0
 14 16  4  0  0  0
 14 17  4  0  0  0
 16 15  4  0  0  0
 16 18  4  0  0  0
 17 19  4  0  0  0
 18 20  4  0  0  0
 19 20  4  0  0  0
 21 22  1  0  0  0
 22 23  1  0  0  0
 22 25  1  0  0  0
 23 24  2  0  0  0
 23 28  1  0  0  0
 25 26  1  0  0  0
 25 27  1  0  0  0
 28 29  1  0  0  0
 29 30  1  0  0  0
 29 32  1  0  0  0
 30 31  2  0  0  0
 30 35  1  0  0  0
 32 33  1  0  0  0
 32 34  1  0  0  0
 35 36  1  0  0  0
 36 37  1  0  0  0
 36 39  1  0  0  0
 37 38  2  0  0  0
 37 46  1  0  0  0
 39 40  1  0  0  0
 40 41  1  0  0  0
 41 42  1  0  0  0
 42 43  1  0  0  0
 43 44  1  0  0  0
 43 45  2  0  0  0
 46 47  1  0  0  0
 47 48  1  0  0  0
 47 50  1  0  0  0
 48 49  2  0  0  0
 48 54  1  0  0  0
 50 51  1  0  0  0
 51 52  1  0  0  0
 52 53  1  0  0  0
 54 55  1  0  0  0
 55 56  1  0  0  0
 55 58  1  0  0  0
 56 57  2  0  0  0
 56 60  1  0  0  0
 58 59  1  0  0  0
 61 60  1  0  0  0
 60 66  1  0  0  0
 62 61  1  0  0  0
 61 64  1  0  0  0
 62 63  2  0  0  0
 67 62  1  0  0  0
 64 65  1  0  0  0
 65 66  1  0  0  0
 68 67  1  0  0  0
 67 73  1  0  0  0
 69 68  1  0  0  0
 68 71  1  0  0  0
 69 70  2  0  0  0
 74 69  1  0  0  0
 71 72  1  0  0  0
 72 73  1  0  0  0
 75 74  1  0  0  0
 76 75  1  0  0  0
 75 78  1  0  0  0
 76 77  2  0  0  0
 82 76  1  0  0  0
 78 79  1  0  0  0
 79 80  1  0  0  0
 80 81  1  0  0  0
 83 82  1  0  0  0
 84 83  1  0  0  0
 83 86  1  0  0  0
 84 85  2  0  0  0
 91 84  1  0  0  0
 86 87  1  0  0  0
 87 88  1  0  0  0
 88 89  2  0  0  0
 88 90  1  0  0  0
 92 91  1  0  0  0
 93 92  1  0  0  0
 92 95  1  0  0  0
 93 94  2  0  0  0
 99 93  1  0  0  0
 95 96  1  0  0  0
 95 97  1  0  0  0
 96 98  1  0  0  0
100 99  1  0  0  0
 99105  1  0  0  0
101100  1  0  0  0
100103  1  0  0  0
101102  1  0  0  0
106101  1  0  0  0
103104  1  0  0  0
104105  1  0  0  0
108107  2  0  0  0
108109  1  0  0  0
114108  1  0  0  0
110109  1  0  0  0
109117  1  0  0  0
109118  1  0  0  0
111110  2  0  0  0
112111  1  0  0  0
111114  1  0  0  0
112113  1  0  0  0
114115  1  0  0  0
114116  1  0  0  0
  1119  1  0  0  0
  2120  1  0  0  0
  5121  1  0  0  0
  5122  1  0  0  0
  7123  1  0  0  0
  8124  1  0  0  0
 11125  1  0  0  0
 11126  1  0  0  0
 13127  1  0  0  0
 17128  1  0  0  0
 18129  1  0  0  0
 19130  1  0  0  0
 20131  1  0  0  0
 21132  1  0  0  0
 22133  1  0  0  0
 25134  1  0  0  0
 26135  1  0  0  0
 27136  1  0  0  0
 27137  1  0  0  0
 27138  1  0  0  0
 28139  1  0  0  0
 29140  1  0  0  0
 32141  1  0  0  0
 33142  1  0  0  0
 34143  1  0  0  0
 34144  1  0  0  0
 34145  1  0  0  0
 35146  1  0  0  0
 36147  1  0  0  0
 39148  1  0  0  0
 39149  1  0  0  0
 40150  1  0  0  0
 40151  1  0  0  0
 41152  1  0  0  0
 41153  1  0  0  0
 42154  1  0  0  0
 44155  1  0  0  0
 44156  1  0  0  0
 45157  1  0  0  0
 46158  1  0  0  0
 47159  1  0  0  0
 50160  1  0  0  0
 50161  1  0  0  0
 51162  1  0  0  0
 51163  1  0  0  0
 53164  1  0  0  0
 53165  1  0  0  0
 53166  1  0  0  0
 54167  1  0  0  0
 55168  1  0  0  0
 58169  1  0  0  0
 58170  1  0  0  0
 59171  1  0  0  0
 61172  1  0  0  0
 64173  1  0  0  0
 64174  1  0  0  0
 65175  1  0  0  0
 65176  1  0  0  0
 66177  1  0  0  0
 66178  1  0  0  0
 68179  1  0  0  0
 71180  1  0  0  0
 71181  1  0  0  0
 72182  1  0  0  0
 72183  1  0  0  0
 73184  1  0  0  0
 73185  1  0  0  0
 74186  1  0  0  0
 75187  1  0  0  0
 78188  1  0  0  0
 78189  1  0  0  0
 79190  1  0  0  0
 79191  1  0  0  0
 81192  1  0  0  0
 81193  1  0  0  0
 81194  1  0  0  0
 82195  1  0  0  0
 83196  1  0  0  0
 86197  1  0  0  0
 86198  1  0  0  0
 87199  1  0  0  0
 87200  1  0  0  0
 90201  1  0  0  0
 90202  1  0  0  0
 91203  1  0  0  0
 92204  1  0  0  0
 95205  1  0  0  0
 96206  1  0  0  0
 96207  1  0  0  0
 97208  1  0  0  0
 97209  1  0  0  0
 97210  1  0  0  0
 98211  1  0  0  0
 98212  1  0  0  0
 98213  1  0  0  0
100214  1  0  0  0
102215  1  0  0  0
103216  1  0  0  0
103217  1  0  0  0
104218  1  0  0  0
104219  1  0  0  0
105220  1  0  0  0
105221  1  0  0  0
110222  1  0  0  0
112223  1  0  0  0
112224  1  0  0  0
115225  1  0  0  0
115226  1  0  0  0
115227  1  0  0  0
116228  1  0  0  0
116229  1  0  0  0
116230  1  0  0  0
117231  1  0  0  0
117232  1  0  0  0
117233  1  0  0  0
118234  1  0  0  0
118235  1  0  0  0
118236  1  0  0  0
M  END
$$$$
