### 
### Created by X-TOOL on Mon Aug  2 16:10:58 2021
### 

@<TRIPOS>MOLECULE
6n87_ligand
  238   245     1     0     0
SMALL
GAST_HUCK


@<TRIPOS>ATOM
      1 N          89.0880   10.0320    7.1360 N.4       1 CYS         0.4626
      2 CA         87.9690   10.8790    6.7330 C.3       1 CYS         0.1177
      3 C          87.6350   12.0390    7.6810 C.2       1 CYS         0.2292
      4 O          86.7210   12.8220    7.3910 O.2       1 CYS        -0.3907
      5 CB         86.7110   10.0060    6.5610 C.3       1 CYS         0.0661
      6 SG         86.8970    9.0350    5.0440 S.3       1 CYS        -0.0803
      7 N          88.3340   12.1340    8.8120 N.am      1 CYS        -0.2599
      8 CA         87.9690   13.0970    9.8470 C.3       1 CYS         0.1353
      9 C          89.1520   14.0070   10.1260 C.2       1 CYS         0.2052
     10 O          90.3100   13.6540    9.8720 O.2       1 CYS        -0.3942
     11 CB         87.5240   12.4100   11.1670 C.3       1 CYS         0.0042
     12 CG         86.3530   11.5420   10.8950 C.2       1 CYS        -0.0418
     13 CD1        85.0370   11.9290   10.9090 C.2       1 CYS         0.0167
     14 CD2        86.3650   10.1720   10.4320 C.ar      1 CYS        -0.0214
     15 NE1        84.2280   10.8720   10.5360 N.pl3     1 CYS        -0.2890
     16 CE2        85.0170    9.7930   10.2180 C.ar      1 CYS         0.0603
     17 CE3        87.3790    9.2260   10.1910 C.ar      1 CYS        -0.0747
     18 CZ2        84.6640    8.5130    9.7800 C.ar      1 CYS        -0.0443
     19 CZ3        87.0240    7.9640    9.7670 C.ar      1 CYS        -0.0792
     20 CH2        85.6810    7.6170    9.5520 C.ar      1 CYS        -0.0768
     21 N          88.8350   15.1900   10.6550 N.am      1 CYS        -0.2612
     22 CA         89.8260   16.1690   11.0810 C.3       1 CYS         0.1565
     23 C          89.4980   16.5340   12.5140 C.2       1 CYS         0.2065
     24 O          88.3210   16.7700   12.8150 O.2       1 CYS        -0.3943
     25 CB         89.7510   17.4030   10.2040 C.3       1 CYS         0.0924
     26 OG1        89.8970   17.0020    8.8290 O.3       1 CYS        -0.3874
     27 CG2        90.8600   18.3450   10.5730 C.3       1 CYS        -0.0346
     28 N          90.5010   16.5570   13.4100 N.am      1 CYS        -0.2613
     29 CA         90.2040   16.9360   14.7910 C.3       1 CYS         0.1565
     30 C          89.8800   18.4170   14.8760 C.2       1 CYS         0.2065
     31 O          90.4040   19.2370   14.1070 O.2       1 CYS        -0.3943
     32 CB         91.3620   16.5970   15.7300 C.3       1 CYS         0.0924
     33 OG1        92.5820   17.1860   15.2440 O.3       1 CYS        -0.3874
     34 CG2        91.4960   15.1040   15.8350 C.3       1 CYS        -0.0346
     35 N          88.9450   18.7460   15.7560 N.am      1 CYS        -0.2636
     36 CA         88.5430   20.1230   15.9800 C.3       1 CYS         0.1311
     37 C          89.4220   20.8290   16.9980 C.2       1 CYS         0.2039
     38 O          89.7310   22.0230   16.8320 O.2       1 CYS        -0.3944
     39 CB         87.1010   20.1790   16.4330 C.3       1 CYS        -0.0092
     40 CG         86.1000   19.6760   15.3840 C.3       1 CYS        -0.0156
     41 CD         84.6900   19.8130   15.9440 C.3       1 CYS         0.0627
     42 NE         83.6940   19.8600   14.8650 N.pl3     1 CYS        -0.2723
     43 CZ         82.9050   18.8270   14.5610 C.cat     1 CYS         0.2882
     44 NH1        83.0220   17.6820   15.2670 N.pl3     1 CYS        -0.2849
     45 NH2        82.0230   18.9400   13.5550 N.pl3     1 CYS        -0.2849
     46 N          89.8840   20.1190   18.0060 N.am      1 CYS        -0.2637
     47 CA         90.7420   20.7290   19.0110 C.3       1 CYS         0.1317
     48 C          92.2020   20.6690   18.5560 C.2       1 CYS         0.2040
     49 O          92.6320   19.7190   17.8950 O.2       1 CYS        -0.3944
     50 CB         90.5370   20.0250   20.3550 C.3       1 CYS        -0.0034
     51 CG         89.1400   20.2640   20.9470 C.3       1 CYS        -0.0024
     52 SD         88.9050   19.5080   22.5680 S.3       1 CYS        -0.1639
     53 CE         88.6650   17.7970   22.0950 C.3       1 CYS        -0.0181
     54 N          92.9470   21.7160   18.8800 N.am      1 CYS        -0.2616
     55 CA         94.3640   21.7480   18.5510 C.3       1 CYS         0.1541
     56 C          95.1130   20.6550   19.3140 C.2       1 CYS         0.2087
     57 O          94.7500   20.3340   20.4560 O.2       1 CYS        -0.3941
     58 CB         94.9500   23.1070   18.8900 C.3       1 CYS         0.0843
     59 OG         96.0850   23.3100   18.0880 O.3       1 CYS        -0.3903
     60 N          96.1650   20.0570   18.7130 N.am      1 CYS        -0.2498
     61 CA         96.5960   20.4640   17.3710 C.3       1 CYS         0.1340
     62 C          95.7740   19.7460   16.3040 C.2       1 CYS         0.2066
     63 O          95.6100   18.5240   16.3670 O.2       1 CYS        -0.3942
     64 CB         98.0580   20.0250   17.3330 C.3       1 CYS        -0.0104
     65 CG         98.0580   18.7720   18.1590 C.3       1 CYS        -0.0281
     66 CD         96.9860   18.9400   19.2240 C.3       1 CYS         0.0369
     67 N          95.2560   20.4900   15.3350 N.am      1 CYS        -0.2498
     68 CA         94.3890   19.8650   14.3340 C.3       1 CYS         0.1338
     69 C          95.1430   18.7630   13.6050 C.2       1 CYS         0.2041
     70 O          96.3400   18.8700   13.3330 O.2       1 CYS        -0.3944
     71 CB         94.0190   21.0290   13.4120 C.3       1 CYS        -0.0104
     72 CG         95.1910   21.9600   13.5410 C.3       1 CYS        -0.0281
     73 CD         95.5980   21.8770   14.9840 C.3       1 CYS         0.0369
     74 N          94.4420   17.6740   13.3220 N.am      1 CYS        -0.2637
     75 CA         95.0850   16.4850   12.7950 C.3       1 CYS         0.1317
     76 C          94.1180   15.7830   11.8500 C.2       1 CYS         0.2039
     77 O          92.9000   15.7750   12.0840 O.2       1 CYS        -0.3944
     78 CB         95.5170   15.5670   13.9370 C.3       1 CYS        -0.0034
     79 CG         95.9500   14.2040   13.4860 C.3       1 CYS        -0.0024
     80 SD         96.8740   13.3010   14.7460 S.3       1 CYS        -0.1639
     81 CE         95.7590   13.3360   16.1380 C.3       1 CYS        -0.0181
     82 N          94.6620   15.2280   10.7660 N.am      1 CYS        -0.2636
     83 CA         93.8920   14.4100    9.8470 C.3       1 CYS         0.1330
     84 C          93.8870   12.9870   10.3770 C.2       1 CYS         0.2041
     85 O          94.9340   12.4550   10.7700 O.2       1 CYS        -0.3944
     86 CB         94.4690   14.4430    8.4340 C.3       1 CYS         0.0045
     87 CG         93.9520   15.5810    7.5980 C.3       1 CYS         0.0412
     88 CD         92.7430   15.1970    6.7880 C.2       1 CYS         0.1737
     89 OE1        91.9890   14.2820    7.1490 O.2       1 CYS        -0.3973
     90 NE2        92.5450   15.8910    5.6720 N.am      1 CYS        -0.3009
     91 N          92.7000   12.4000   10.4420 N.am      1 CYS        -0.2635
     92 CA         92.5370   11.0170   10.8720 C.3       1 CYS         0.1335
     93 C          91.6140   10.4610    9.7960 C.2       1 CYS         0.2050
     94 O          90.3800   10.4180    9.9700 O.2       1 CYS        -0.3943
     95 CB         92.0110   10.9300   12.3100 C.3       1 CYS        -0.0037
     96 CG1        92.9590   11.7020   13.2570 C.3       1 CYS        -0.0491
     97 CG2        91.8830    9.4740   12.7650 C.3       1 CYS        -0.0582
     98 CD1        92.4640   11.7810   14.7010 C.3       1 CYS        -0.0648
     99 N          92.1940   10.0880    8.6410 N.am      1 CYS        -0.2570
    100 CA         91.7640   10.1130    7.2470 C.3       1 CYS         0.1504
    101 C          90.3420   10.5000    6.9790 C.3       1 CYS         0.3016
    102 O          90.4360   11.6250    6.5040 O.3       1 CYS        -0.3202
    103 CB         92.0940    8.6980    6.7860 C.3       1 CYS        -0.0168
    104 CG         93.4280    8.4350    7.5530 C.3       1 CYS        -0.0300
    105 CD         93.7310    9.7140    8.3820 C.3       1 CYS         0.0348
    106 OXT        89.7040    9.5230    7.3520 O.3       1 CYS        -0.2277
    107 O1         81.2220    9.7770    6.6460 O.2       1 CYS         0.1911
    108 N1         81.7020   10.1050    5.7260 N.2       1 CYS         0.0053
    109 C1         82.5670   11.2800    5.8760 C.3       1 CYS         0.1676
    110 C2         83.5850   11.1200    4.8890 C.2       1 CYS         0.0051
    111 C3         83.5330    9.8350    4.3620 C.2       1 CYS         0.0509
    112 C4         84.4520    9.3520    3.2550 C.3       1 CYS         0.0725
    113 S1         86.0710   10.0930    3.4290 S.3       1 CYS        -0.0625
    114 C5         82.5100    9.0940    5.0300 C.3       1 CYS         0.1947
    115 C6         83.0360    7.9930    5.9430 C.3       1 CYS        -0.0203
    116 C7         81.6260    8.3400    4.0530 C.3       1 CYS        -0.0203
    117 C8         81.7000   12.5190    5.7700 C.3       1 CYS        -0.0357
    118 C9         83.0950   11.4410    7.2930 C.3       1 CYS        -0.0357
    119 H1         88.8047   10.2057    8.0876 H         1 CYS         0.2495
    120 H2         88.2280   11.3177    5.7581 H         1 CYS         0.1122
    121 H3         85.8205   10.6473    6.4854 H         1 CYS         0.0467
    122 H4         86.6052    9.3318    7.4237 H         1 CYS         0.0467
    123 H5         89.1222   11.5352    8.9541 H         1 CYS         0.1886
    124 H6         87.1312   13.7046    9.4742 H         1 CYS         0.0815
    125 H7         87.2495   13.1768   11.9063 H         1 CYS         0.0397
    126 H8         88.3503   11.8000   11.5609 H         1 CYS         0.0397
    127 H9         84.6816   12.9234   11.1750 H         1 CYS         0.0795
    128 H10        83.1987   10.8903   10.5019 H         1 CYS         0.2216
    129 H11        88.4213    9.4859   10.3365 H         1 CYS         0.0540
    130 H12        83.6269    8.2376    9.6260 H         1 CYS         0.0541
    131 H13        87.7975    7.2241    9.5960 H         1 CYS         0.0510
    132 H14        85.4407    6.6208    9.1985 H         1 CYS         0.0530
    133 H15        87.8672   15.4164   10.7647 H         1 CYS         0.1884
    134 H16        90.8355   15.7363   11.0213 H         1 CYS         0.0826
    135 H17        88.7807   17.9016   10.3449 H         1 CYS         0.0639
    136 H18        89.8514   17.7689    8.2701 H         1 CYS         0.2101
    137 H19        90.8067   19.2411    9.9372 H         1 CYS         0.0257
    138 H20        91.8292   17.8467   10.4238 H         1 CYS         0.0257
    139 H21        90.7567   18.6376   11.6283 H         1 CYS         0.0257
    140 H22        91.4331   16.3192   13.1367 H         1 CYS         0.1884
    141 H23        89.3204   16.3683   15.1182 H         1 CYS         0.0826
    142 H24        91.1456   17.0059   16.7280 H         1 CYS         0.0639
    143 H25        93.2941   16.9693   15.8343 H         1 CYS         0.2101
    144 H26        92.3286   14.8572   16.5102 H         1 CYS         0.0257
    145 H27        91.6948   14.6827   14.8385 H         1 CYS         0.0257
    146 H28        90.5628   14.6792   16.2333 H         1 CYS         0.0257
    147 H29        88.5015   18.0213   16.2834 H         1 CYS         0.1883
    148 H30        88.6299   20.6603   15.0241 H         1 CYS         0.0800
    149 H31        86.8541   21.2233   16.6746 H         1 CYS         0.0313
    150 H32        86.9972   19.5593   17.3359 H         1 CYS         0.0313
    151 H33        86.3052   18.6201   15.1539 H         1 CYS         0.0301
    152 H34        86.1932   20.2760   14.4668 H         1 CYS         0.0301
    153 H35        84.6258   20.7400   16.5326 H         1 CYS         0.0689
    154 H36        84.4760   18.9510   16.5930 H         1 CYS         0.0689
    155 H37        83.6004   20.7283   14.3190 H         1 CYS         0.2642
    156 H38        82.4204   16.8761   15.0446 H         1 CYS         0.2615
    157 H39        83.7128   17.6145   16.0280 H         1 CYS         0.2615
    158 H40        81.9510   19.8232   13.0300 H         1 CYS         0.2615
    159 H41        81.4184   18.1435   13.3082 H         1 CYS         0.2615
    160 H42        89.6431   19.1514   18.0818 H         1 CYS         0.1883
    161 H43        90.4581   21.7856   19.1252 H         1 CYS         0.0800
    162 H44        91.2883   20.3995   21.0658 H         1 CYS         0.0320
    163 H45        90.6765   18.9436   20.2099 H         1 CYS         0.0320
    164 H46        88.3931   19.8455   20.2563 H         1 CYS         0.0378
    165 H47        88.9836   21.3486   21.0430 H         1 CYS         0.0378
    166 H48        88.5040   17.1867   22.9959 H         1 CYS         0.0340
    167 H49        89.5566   17.4355   21.5617 H         1 CYS         0.0340
    168 H50        87.7870   17.7181   21.4370 H         1 CYS         0.0340
    169 H51        92.5313   22.4915   19.3552 H         1 CYS         0.1884
    170 H52        94.4802   21.5702   17.4717 H         1 CYS         0.0823
    171 H53        95.2352   23.1347   19.9520 H         1 CYS         0.0606
    172 H54        94.2072   23.8930   18.6891 H         1 CYS         0.0606
    173 H55        96.4649   24.1575   18.2876 H         1 CYS         0.2097
    174 H56        96.5058   21.5520   17.2362 H         1 CYS         0.0802
    175 H57        98.7119   20.7903   17.7764 H         1 CYS         0.0313
    176 H58        98.3818   19.8185   16.3022 H         1 CYS         0.0313
    177 H59        99.0412   18.6315   18.6319 H         1 CYS         0.0287
    178 H60        97.8280   17.9024   17.5258 H         1 CYS         0.0287
    179 H61        96.3850   18.0242   19.3249 H         1 CYS         0.0524
    180 H62        97.4338   19.1937   20.1961 H         1 CYS         0.0524
    181 H63        93.4881   19.4404   14.8009 H         1 CYS         0.0802
    182 H64        93.0908   21.5159   13.7456 H         1 CYS         0.0313
    183 H65        93.9007   20.6865   12.3734 H         1 CYS         0.0313
    184 H66        94.8984   22.9879   13.2806 H         1 CYS         0.0287
    185 H67        96.0150   21.6367   12.8880 H         1 CYS         0.0287
    186 H68        96.6756   22.0627   15.1038 H         1 CYS         0.0524
    187 H69        95.0320   22.5930   15.5979 H         1 CYS         0.0524
    188 H70        93.4537   17.6720   13.4743 H         1 CYS         0.1883
    189 H71        95.9801   16.7823   12.2290 H         1 CYS         0.0800
    190 H72        94.6693   15.4506   14.6283 H         1 CYS         0.0320
    191 H73        96.3578   16.0413   14.4643 H         1 CYS         0.0320
    192 H74        96.5881   14.3158   12.5970 H         1 CYS         0.0378
    193 H75        95.0547   13.6213   13.2238 H         1 CYS         0.0378
    194 H76        96.2162   12.8074   16.9874 H         1 CYS         0.0340
    195 H77        94.8149   12.8423   15.8641 H         1 CYS         0.0340
    196 H78        95.5583   14.3799   16.4209 H         1 CYS         0.0340
    197 H79        95.6327   15.3806   10.5803 H         1 CYS         0.1883
    198 H80        92.8597   14.7882    9.8115 H         1 CYS         0.0801
    199 H81        94.2128   13.4985    7.9318 H         1 CYS         0.0337
    200 H82        95.5627   14.5345    8.5072 H         1 CYS         0.0337
    201 H83        94.7482   15.9050    6.9117 H         1 CYS         0.0504
    202 H84        93.6808   16.4134    8.2640 H         1 CYS         0.0504
    203 H85        91.7594   15.6857    5.0883 H         1 CYS         0.1814
    204 H86        93.1816   16.6185    5.4160 H         1 CYS         0.1814
    205 H87        91.8878   12.9247   10.1870 H         1 CYS         0.1883
    206 H88        93.5014   10.4891   10.8373 H         1 CYS         0.0803
    207 H89        91.0153   11.3960   12.3480 H         1 CYS         0.0345
    208 H90        93.0724   12.7267   12.8734 H         1 CYS         0.0267
    209 H91        93.9371   11.1987   13.2534 H         1 CYS         0.0267
    210 H92        91.2070    8.9353   12.0846 H         1 CYS         0.0235
    211 H93        91.4759    9.4434   13.7864 H         1 CYS         0.0235
    212 H94        92.8740    8.9969   12.7508 H         1 CYS         0.0235
    213 H95        93.1900   12.3426   15.3072 H         1 CYS         0.0230
    214 H96        92.3553   10.7647   15.1075 H         1 CYS         0.0230
    215 H97        91.4906   12.2926   14.7275 H         1 CYS         0.0230
    216 H98        92.3917   10.8316    6.6996 H         1 CYS         0.0676
    217 H99        91.3517   11.8744    6.4622 H         1 CYS         0.2185
    218 H100       92.2392    8.6521    5.6966 H         1 CYS         0.0292
    219 H101       91.3110    7.9843    7.0820 H         1 CYS         0.0292
    220 H102       94.2434    8.2445    6.8397 H         1 CYS         0.0285
    221 H103       93.3157    7.5687    8.2215 H         1 CYS         0.0285
    222 H104       94.2823    9.5020    9.3100 H         1 CYS         0.0522
    223 H105       94.2669   10.4815    7.8043 H         1 CYS         0.0522
    224 H106       84.2963   11.8896    4.5929 H         1 CYS         0.0971
    225 H107       84.0264    9.6336    2.2806 H         1 CYS         0.0736
    226 H108       84.5454    8.2575    3.3119 H         1 CYS         0.0736
    227 H109       83.6280    7.2785    5.3523 H         1 CYS         0.0220
    228 H110       82.1895    7.4691    6.4110 H         1 CYS         0.0220
    229 H111       83.6702    8.4366    6.7247 H         1 CYS         0.0220
    230 H112       82.2243    7.5809    3.5278 H         1 CYS         0.0220
    231 H113       81.2038    9.0446    3.3214 H         1 CYS         0.0220
    232 H114       80.8094    7.8480    4.6018 H         1 CYS         0.0220
    233 H115       82.3273   13.4159    5.8796 H         1 CYS         0.0178
    234 H116       80.9399   12.5038    6.5650 H         1 CYS         0.0178
    235 H117       81.2037   12.5364    4.7885 H         1 CYS         0.0178
    236 H118       83.7348   12.3342    7.3466 H         1 CYS         0.0178
    237 H119       83.6819   10.5525    7.5688 H         1 CYS         0.0178
    238 H120       82.2502   11.5529    7.9886 H         1 CYS         0.0178
@<TRIPOS>BOND
     1    2    1 1  
     2    1  101 1  
     3    1  106 1  
     4    2    3 1  
     5    5    2 1  
     6    3    4 2  
     7    3    7 am 
     8    6    5 1  
     9  113    6 1  
    10    7    8 1  
    11    8    9 1  
    12    8   11 1  
    13    9   10 2  
    14    9   21 am 
    15   11   12 1  
    16   12   13 2  
    17   12   14 1  
    18   13   15 1  
    19   14   16 ar 
    20   14   17 ar 
    21   16   15 1  
    22   16   18 ar 
    23   17   19 ar 
    24   18   20 ar 
    25   19   20 ar 
    26   21   22 1  
    27   22   23 1  
    28   22   25 1  
    29   23   24 2  
    30   23   28 am 
    31   25   26 1  
    32   25   27 1  
    33   28   29 1  
    34   29   30 1  
    35   29   32 1  
    36   30   31 2  
    37   30   35 am 
    38   32   33 1  
    39   32   34 1  
    40   35   36 1  
    41   36   37 1  
    42   36   39 1  
    43   37   38 2  
    44   37   46 am 
    45   39   40 1  
    46   40   41 1  
    47   41   42 1  
    48   42   43 ar 
    49   43   44 ar 
    50   43   45 ar 
    51   46   47 1  
    52   47   48 1  
    53   47   50 1  
    54   48   49 2  
    55   48   54 am 
    56   50   51 1  
    57   51   52 1  
    58   52   53 1  
    59   54   55 1  
    60   55   56 1  
    61   55   58 1  
    62   56   57 2  
    63   56   60 am 
    64   58   59 1  
    65   61   60 1  
    66   60   66 1  
    67   62   61 1  
    68   61   64 1  
    69   62   63 2  
    70   67   62 am 
    71   64   65 1  
    72   65   66 1  
    73   68   67 1  
    74   67   73 1  
    75   69   68 1  
    76   68   71 1  
    77   69   70 2  
    78   74   69 am 
    79   71   72 1  
    80   72   73 1  
    81   75   74 1  
    82   76   75 1  
    83   75   78 1  
    84   76   77 2  
    85   82   76 am 
    86   78   79 1  
    87   79   80 1  
    88   80   81 1  
    89   83   82 1  
    90   84   83 1  
    91   83   86 1  
    92   84   85 2  
    93   91   84 am 
    94   86   87 1  
    95   87   88 1  
    96   88   89 2  
    97   88   90 am 
    98   92   91 1  
    99   93   92 1  
   100   92   95 1  
   101   93   94 2  
   102   99   93 am 
   103   95   96 1  
   104   95   97 1  
   105   96   98 1  
   106  100   99 1  
   107   99  105 1  
   108  101  100 1  
   109  100  103 1  
   110  101  102 1  
   111  106  101 1  
   112  103  104 1  
   113  104  105 1  
   114  108  107 2  
   115  108  109 1  
   116  114  108 1  
   117  110  109 1  
   118  109  117 1  
   119  109  118 1  
   120  111  110 2  
   121  112  111 1  
   122  111  114 1  
   123  112  113 1  
   124  114  115 1  
   125  114  116 1  
   126    1  119 1  
   127    2  120 1  
   128    5  121 1  
   129    5  122 1  
   130    7  123 1  
   131    8  124 1  
   132   11  125 1  
   133   11  126 1  
   134   13  127 1  
   135   15  128 1  
   136   17  129 1  
   137   18  130 1  
   138   19  131 1  
   139   20  132 1  
   140   21  133 1  
   141   22  134 1  
   142   25  135 1  
   143   26  136 1  
   144   27  137 1  
   145   27  138 1  
   146   27  139 1  
   147   28  140 1  
   148   29  141 1  
   149   32  142 1  
   150   33  143 1  
   151   34  144 1  
   152   34  145 1  
   153   34  146 1  
   154   35  147 1  
   155   36  148 1  
   156   39  149 1  
   157   39  150 1  
   158   40  151 1  
   159   40  152 1  
   160   41  153 1  
   161   41  154 1  
   162   42  155 1  
   163   44  156 1  
   164   44  157 1  
   165   45  158 1  
   166   45  159 1  
   167   46  160 1  
   168   47  161 1  
   169   50  162 1  
   170   50  163 1  
   171   51  164 1  
   172   51  165 1  
   173   53  166 1  
   174   53  167 1  
   175   53  168 1  
   176   54  169 1  
   177   55  170 1  
   178   58  171 1  
   179   58  172 1  
   180   59  173 1  
   181   61  174 1  
   182   64  175 1  
   183   64  176 1  
   184   65  177 1  
   185   65  178 1  
   186   66  179 1  
   187   66  180 1  
   188   68  181 1  
   189   71  182 1  
   190   71  183 1  
   191   72  184 1  
   192   72  185 1  
   193   73  186 1  
   194   73  187 1  
   195   74  188 1  
   196   75  189 1  
   197   78  190 1  
   198   78  191 1  
   199   79  192 1  
   200   79  193 1  
   201   81  194 1  
   202   81  195 1  
   203   81  196 1  
   204   82  197 1  
   205   83  198 1  
   206   86  199 1  
   207   86  200 1  
   208   87  201 1  
   209   87  202 1  
   210   90  203 1  
   211   90  204 1  
   212   91  205 1  
   213   92  206 1  
   214   95  207 1  
   215   96  208 1  
   216   96  209 1  
   217   97  210 1  
   218   97  211 1  
   219   97  212 1  
   220   98  213 1  
   221   98  214 1  
   222   98  215 1  
   223  100  216 1  
   224  102  217 1  
   225  103  218 1  
   226  103  219 1  
   227  104  220 1  
   228  104  221 1  
   229  105  222 1  
   230  105  223 1  
   231  110  224 1  
   232  112  225 1  
   233  112  226 1  
   234  115  227 1  
   235  115  228 1  
   236  115  229 1  
   237  116  230 1  
   238  116  231 1  
   239  116  232 1  
   240  117  233 1  
   241  117  234 1  
   242  117  235 1  
   243  118  236 1  
   244  118  237 1  
   245  118  238 1  
@<TRIPOS>SUBSTRUCTURE
     1 CYS         1

