6hu3_ligand
  -I-interpret- 

 34 36  0  0  0  0  0  0  0  0999 V2000
   44.7590   39.2120   90.4320 C   0  0  0  0  0
   45.6450   39.4380   89.4120 C   0  0  0  0  0
   45.5050   38.7080   88.2450 C   0  0  0  0  0
   44.4870   37.7750   88.1300 C   0  0  0  0  0
   43.6090   37.5630   89.1870 C   0  0  0  0  0
   43.7460   38.2930   90.3540 C   0  0  0  0  0
   43.2090   37.0250   86.2000 C   0  0  0  0  0
   43.0740   36.0160   85.2370 C   0  0  0  0  0
   41.9000   35.9280   84.4990 C   0  0  0  0  0
   40.8990   36.8500   84.7220 C   0  0  0  0  0
   41.0270   37.8540   85.6580 C   0  0  0  0  0
   42.1880   37.9410   86.4030 C   0  0  0  0  0
   45.7510   33.6740   84.9810 C   0  0  0  0  0
   44.9190   34.3940   85.7940 C   0  0  0  0  0
   46.8010   32.6950   85.3630 C   0  0  0  0  0
   39.4370   36.7450   83.7880 Cl  0  0  0  0  0
   44.3990   37.0640   86.9270 O   0  0  0  0  0
   44.1320   35.1010   84.9520 N   0  0  0  0  0
   44.4580   34.8350   83.6620 N   0  0  0  0  0
   45.4470   33.9690   83.6810 N   0  0  0  0  0
   46.7500   31.5260   84.7230 N   0  0  0  0  0
   47.7620   30.5870   84.9060 O   0  0  0  0  0
   47.6320   32.9520   86.2330 O   0  0  0  0  0
   44.8870   39.9420   91.5730 F   0  0  0  0  0
   46.4411   40.1751   89.5172 H   0  0  0  0  0
   46.1952   38.8668   87.4165 H   0  0  0  0  0
   42.8140   36.8228   89.0963 H   0  0  0  0  0
   43.0646   38.1407   91.1910 H   0  0  0  0  0
   41.7721   35.1419   83.7548 H   0  0  0  0  0
   40.2208   38.5719   85.8090 H   0  0  0  0  0
   42.3007   38.7281   87.1486 H   0  0  0  0  0
   44.8956   34.3970   86.8837 H   0  0  0  0  0
   45.9696   31.3197   84.0994 H   0  0  0  0  0
   47.5737   29.8081   84.3774 H   0  0  0  0  0
  2  1  4  0  0  0
  6  1  4  0  0  0
  1 24  1  0  0  0
  3  2  4  0  0  0
  4  3  4  0  0  0
  4  5  4  0  0  0
 17  4  1  0  0  0
  5  6  4  0  0  0
  8  7  4  0  0  0
  7 12  4  0  0  0
  7 17  1  0  0  0
  8  9  4  0  0  0
 18  8  1  0  0  0
  9 10  4  0  0  0
 10 11  4  0  0  0
 10 16  1  0  0  0
 12 11  4  0  0  0
 14 13  4  0  0  0
 13 15  1  0  0  0
 13 20  4  0  0  0
 14 18  4  0  0  0
 15 21  1  0  0  0
 15 23  2  0  0  0
 18 19  4  0  0  0
 19 20  4  0  0  0
 21 22  1  0  0  0
  2 25  1  0  0  0
  3 26  1  0  0  0
  5 27  1  0  0  0
  6 28  1  0  0  0
  9 29  1  0  0  0
 11 30  1  0  0  0
 12 31  1  0  0  0
 14 32  1  0  0  0
 21 33  1  0  0  0
 22 34  1  0  0  0
M  END
$$$$
