4u69_ligand
  -I-interpret- 

 28 27  0  0  0  0  0  0  0  0999 V2000
   22.3340   -2.2570   12.6010 O   0  0  0  0  0
   21.7360   -2.6270   11.2900 P   0  0  0  0  0
   20.2920   -3.1470   11.3050 O   0  0  0  0  0
   21.8200   -1.2710   10.4660 O   0  0  0  0  0
   22.8680   -3.7470   10.3920 C   0  0  0  0  0
   24.0170   -2.9660    9.8980 N   0  3  0  0  0
   23.2980   -4.9780   11.2000 C   0  0  0  0  0
   22.1820   -5.5700   12.1330 C   0  0  0  0  0
   23.9020   -6.0210   10.2860 C   0  0  0  0  0
   24.6700   -7.1530   11.0280 C   0  0  0  0  0
   24.1270   -8.4900   10.6310 C   0  0  0  0  0
   20.0174   -3.3515   10.4081 H   0  0  0  0  0
   21.4525   -1.4071    9.5897 H   0  0  0  0  0
   22.3230   -4.1675    9.5469 H   0  0  0  0  0
   23.6781   -2.1621    9.3696 H   0  0  0  0  0
   24.5733   -2.6439   10.6899 H   0  0  0  0  0
   24.5916   -3.5537    9.2940 H   0  0  0  0  0
   24.0644   -4.6360   11.8955 H   0  0  0  0  0
   21.3812   -5.9853   11.5211 H   0  0  0  0  0
   22.6099   -6.3557   12.7557 H   0  0  0  0  0
   21.7831   -4.7785   12.7675 H   0  0  0  0  0
   24.6219   -5.5099    9.6468 H   0  0  0  0  0
   23.0794   -6.4908    9.7469 H   0  0  0  0  0
   24.5476   -7.0225   12.1032 H   0  0  0  0  0
   25.7257   -7.1026   10.7616 H   0  0  0  0  0
   23.0701   -8.5436   10.8923 H   0  0  0  0  0
   24.2440   -8.6235    9.5555 H   0  0  0  0  0
   24.6728   -9.2732   11.1571 H   0  0  0  0  0
  1  2  2  0  0  0
  2  3  1  0  0  0
  2  4  1  0  0  0
  2  5  1  0  0  0
  5  6  1  0  0  0
  5  7  1  0  0  0
  7  8  1  0  0  0
  7  9  1  0  0  0
  9 10  1  0  0  0
 10 11  1  0  0  0
  3 12  1  0  0  0
  4 13  1  0  0  0
  5 14  1  0  0  0
  6 15  1  0  0  0
  6 16  1  0  0  0
  6 17  1  0  0  0
  7 18  1  0  0  0
  8 19  1  0  0  0
  8 20  1  0  0  0
  8 21  1  0  0  0
  9 22  1  0  0  0
  9 23  1  0  0  0
 10 24  1  0  0  0
 10 25  1  0  0  0
 11 26  1  0  0  0
 11 27  1  0  0  0
 11 28  1  0  0  0
M  END
$$$$
