1jeu_ligand
  -I-interpret- 

 64 63  0  0  0  0  0  0  0  0999 V2000
    6.9710   16.6310   15.1610 N   0  3  0  0  0
    6.4570   17.9140   14.5770 C   0  0  0  0  0
    5.2300   18.4070   15.3260 C   0  0  0  0  0
    4.4710   17.5920   15.8650 O   0  0  0  0  0
    6.2050   17.7380   13.0900 C   0  0  0  0  0
    5.3260   16.5730   12.6920 C   0  0  0  0  0
    5.1880   16.4730   11.1790 C   0  0  0  0  0
    6.4370   15.9090   10.5280 C   0  0  0  0  0
    6.6940   14.5080   10.9900 N   0  3  0  0  0
    5.0250   19.7160   15.4110 N   0  0  0  0  0
    3.9020   20.3030   16.1320 C   0  0  0  0  0
    2.5820   20.1570   15.3830 C   0  0  0  0  0
    2.5260   20.3750   14.1830 O   0  0  0  0  0
    4.1800   21.7860   16.4140 C   0  0  0  0  0
    5.4870   22.0530   17.1320 C   0  0  0  0  0
    5.5070   21.7130   18.5990 C   0  0  0  0  0
    4.4800   21.2770   19.1650 O   0  0  0  0  0
    6.5720   21.8810   19.2410 O   0  0  0  0  0
    1.5160   19.7930   16.1120 N   0  0  0  0  0
    0.1920   19.6270   15.5440 C   0  0  0  0  0
   -0.8350   20.5300   16.2310 C   0  0  0  0  0
   -1.8260   20.8750   15.5450 O   0  0  0  0  0
   -0.3440   18.1940   15.4970 C   0  0  0  0  0
   -1.1830   18.0360   14.2050 C   0  0  0  0  0
   -2.1660   16.9100   14.2770 C   0  0  0  0  0
   -3.3420   17.1560   13.3350 C   0  0  0  0  0
   -2.9680   16.9360   11.9100 N   0  3  0  0  0
   -0.6330   20.8920   17.4010 O   0  0  0  0  0
    7.7924   16.3261   14.6387 H   0  0  0  0  0
    7.2240   16.7807   16.1377 H   0  0  0  0  0
    6.2449   15.9171   15.1022 H   0  0  0  0  0
    7.2138   18.6897   14.6937 H   0  0  0  0  0
    7.1789   17.5518   12.6372 H   0  0  0  0  0
    5.6836   18.6373   12.7621 H   0  0  0  0  0
    4.3354   16.7244   13.1208 H   0  0  0  0  0
    5.7820   15.6538   13.0596 H   0  0  0  0  0
    5.0229   17.4761   10.7856 H   0  0  0  0  0
    4.3570   15.8036   10.9569 H   0  0  0  0  0
    7.2881   16.5311   10.8048 H   0  0  0  0  0
    6.2961   15.9015    9.4472 H   0  0  0  0  0
    7.5369   14.1519   10.5393 H   0  0  0  0  0
    6.8201   14.5028   12.0022 H   0  0  0  0  0
    5.8995   13.9184   10.7421 H   0  0  0  0  0
    5.6854   20.3415   14.9494 H   0  0  0  0  0
    3.8019   19.7562   17.0696 H   0  0  0  0  0
    3.3802   22.1434   17.0627 H   0  0  0  0  0
    4.2368   22.2896   15.4490 H   0  0  0  0  0
    5.6646   23.1261   17.0612 H   0  0  0  0  0
    6.2353   21.4181   16.6576 H   0  0  0  0  0
    7.2500   22.2188   18.6512 H   0  0  0  0  0
    1.6425   19.6256   17.1102 H   0  0  0  0  0
    0.3310   19.9243   14.5046 H   0  0  0  0  0
   -1.7675   20.4727   14.6753 H   0  0  0  0  0
   -0.9618   17.9952   16.3727 H   0  0  0  0  0
    0.4827   17.4836   15.4972 H   0  0  0  0  0
   -0.4946   17.8227   13.3872 H   0  0  0  0  0
   -1.7459   18.9582   14.0609 H   0  0  0  0  0
   -2.5423   16.8367   15.2973 H   0  0  0  0  0
   -1.6661   15.9875   13.9816 H   0  0  0  0  0
   -3.6599   18.1924   13.4487 H   0  0  0  0  0
   -4.1374   16.4562   13.5915 H   0  0  0  0  0
   -3.7788   17.1102   11.3161 H   0  0  0  0  0
   -2.2147   17.5747   11.6549 H   0  0  0  0  0
   -2.6553   15.9730   11.7866 H   0  0  0  0  0
  2  1  1  0  0  0
  2  5  1  0  0  0
  3  2  1  0  0  0
  3  4  2  0  0  0
  5  6  1  0  0  0
  6  7  1  0  0  0
  7  8  1  0  0  0
  8  9  1  0  0  0
 11 10  1  0  0  0
 11 14  1  0  0  0
 12 11  1  0  0  0
 12 13  2  0  0  0
 14 15  1  0  0  0
 15 16  1  0  0  0
 16 18  1  0  0  0
 16 17  2  0  0  0
 10  3  1  0  0  0
 19 20  1  0  0  0
 20 23  1  0  0  0
 20 21  1  0  0  0
 21 22  1  0  0  0
 21 28  2  0  0  0
 23 24  1  0  0  0
 24 25  1  0  0  0
 25 26  1  0  0  0
 26 27  1  0  0  0
 12 19  1  0  0  0
  1 29  1  0  0  0
  1 30  1  0  0  0
  1 31  1  0  0  0
  2 32  1  0  0  0
  5 33  1  0  0  0
  5 34  1  0  0  0
  6 35  1  0  0  0
  6 36  1  0  0  0
  7 37  1  0  0  0
  7 38  1  0  0  0
  8 39  1  0  0  0
  8 40  1  0  0  0
  9 41  1  0  0  0
  9 42  1  0  0  0
  9 43  1  0  0  0
 10 44  1  0  0  0
 11 45  1  0  0  0
 14 46  1  0  0  0
 14 47  1  0  0  0
 15 48  1  0  0  0
 15 49  1  0  0  0
 18 50  1  0  0  0
 19 51  1  0  0  0
 20 52  1  0  0  0
 22 53  1  0  0  0
 23 54  1  0  0  0
 23 55  1  0  0  0
 24 56  1  0  0  0
 24 57  1  0  0  0
 25 58  1  0  0  0
 25 59  1  0  0  0
 26 60  1  0  0  0
 26 61  1  0  0  0
 27 62  1  0  0  0
 27 63  1  0  0  0
 27 64  1  0  0  0
M  END
$$$$
