6d4o_ligand
  -I-interpret- 

 62 66  0  0  0  0  0  0  0  0999 V2000
   24.3970  -81.0060  -13.2190 C   0  0  0  0  0
   20.7700  -84.2610  -12.3170 C   0  0  0  0  0
   21.4780  -82.9750  -11.9230 C   0  0  0  0  0
   23.5120  -81.0150   -9.5110 C   0  0  0  0  0
   22.0250  -81.0530   -9.6270 C   0  0  0  0  0
   21.4050  -80.7310  -11.0160 C   0  0  0  0  0
   23.8100  -80.5070  -11.8810 C   0  0  0  0  0
   24.1690  -81.4760  -10.7410 C   0  0  0  0  0
   18.8170  -82.8960  -12.8430 C   0  0  0  0  0
   19.6830  -81.6300  -12.6130 C   0  0  0  0  0
   19.2390  -85.0010  -14.3550 C   0  0  0  0  0
   17.8820  -85.5990  -16.0420 C   0  0  0  0  0
   17.7670  -86.8380  -16.1400 C   0  0  0  0  0
   19.7730  -87.5740  -15.4650 C   0  0  0  0  0
   20.1690  -86.3100  -14.8160 C   0  0  0  0  0
   21.5480  -86.1400  -14.6260 C   0  0  0  0  0
   22.5130  -87.1110  -14.9610 C   0  0  0  0  0
   22.0930  -88.3270  -15.5730 C   0  0  0  0  0
   20.7230  -88.5360  -15.8220 C   0  0  0  0  0
   17.3620  -87.5480  -17.2760 C   0  0  0  0  0
   16.6480  -86.6190  -18.0530 C   0  0  0  0  0
   16.5300  -85.2260  -17.7490 C   0  0  0  0  0
   17.0980  -84.6010  -16.6260 C   0  0  0  0  0
   20.6100  -81.9010  -11.5310 N   0  3  0  0  0
   19.6200  -84.0860  -13.2250 N   0  3  0  0  0
   18.0570  -84.6260  -15.1040 N   0  0  0  0  0
   23.9950  -81.7940   -8.4320 O   0  0  0  0  0
   21.4840  -80.1480   -8.6960 O   0  0  0  0  0
   22.3500  -80.2640  -12.0560 O   0  0  0  0  0
   25.5670  -81.5640  -10.5650 O   0  0  0  0  0
   23.7480  -81.8720  -13.8910 O   0  0  0  0  0
   25.5100  -80.5230  -13.6280 O   0  0  0  0  0
   18.4020  -88.0250  -15.8610 O   0  0  0  0  0
   24.2490  -86.8180  -14.6320 Cl  0  0  0  0  0
   20.3818  -84.7010  -11.3984 H   0  0  0  0  0
   21.4999  -84.8725  -12.8475 H   0  0  0  0  0
   22.0238  -82.6338  -12.8026 H   0  0  0  0  0
   22.0990  -83.2096  -11.0585 H   0  0  0  0  0
   23.7569  -79.9683   -9.3309 H   0  0  0  0  0
   21.7708  -82.0970   -9.4438 H   0  0  0  0  0
   20.7555  -79.8771  -10.8232 H   0  0  0  0  0
   24.2514  -79.5545  -11.5878 H   0  0  0  0  0
   23.8175  -82.4767  -10.9922 H   0  0  0  0  0
   18.1282  -82.6835  -13.6606 H   0  0  0  0  0
   18.3080  -83.1251  -11.9068 H   0  0  0  0  0
   19.0461  -80.7837  -12.3558 H   0  0  0  0  0
   20.2318  -81.3830  -13.5218 H   0  0  0  0  0
   19.3057  -85.9780  -13.8763 H   0  0  0  0  0
   21.8940  -85.2012  -14.1936 H   0  0  0  0  0
   22.8246  -89.0876  -15.8456 H   0  0  0  0  0
   20.3985  -89.4605  -16.2996 H   0  0  0  0  0
   17.5578  -88.5948  -17.5082 H   0  0  0  0  0
   16.1493  -86.9858  -18.9501 H   0  0  0  0  0
   15.9582  -84.6047  -18.4383 H   0  0  0  0  0
   16.9589  -83.5740  -16.2883 H   0  0  0  0  0
   20.0281  -82.1555  -10.7329 H   0  0  0  0  0
   19.7255  -84.6149  -14.0908 H   0  0  0  0  0
   17.4743  -83.8015  -14.9588 H   0  0  0  0  0
   23.5755  -81.5060   -7.6179 H   0  0  0  0  0
   21.8519  -80.3261   -7.8273 H   0  0  0  0  0
   25.7605  -82.1738   -9.8493 H   0  0  0  0  0
   25.8385  -79.8903  -12.9851 H   0  0  0  0  0
  7  1  1  0  0  0
  1 31  2  0  0  0
  1 32  1  0  0  0
  2  3  1  0  0  0
 25  2  1  0  0  0
  3 24  1  0  0  0
  5  4  1  0  0  0
  4  8  1  0  0  0
  4 27  1  0  0  0
  6  5  1  0  0  0
  5 28  1  0  0  0
 24  6  1  0  0  0
  6 29  1  0  0  0
  7  8  1  0  0  0
 29  7  1  0  0  0
  8 30  1  0  0  0
  9 10  1  0  0  0
 25  9  1  0  0  0
 10 24  1  0  0  0
 11 15  1  0  0  0
 11 25  1  0  0  0
 26 11  1  0  0  0
 12 13  4  0  0  0
 12 23  4  0  0  0
 12 26  1  0  0  0
 13 20  4  0  0  0
 13 33  1  0  0  0
 15 14  4  0  0  0
 14 19  4  0  0  0
 14 33  1  0  0  0
 15 16  4  0  0  0
 16 17  4  0  0  0
 17 18  4  0  0  0
 17 34  1  0  0  0
 18 19  4  0  0  0
 20 21  4  0  0  0
 21 22  4  0  0  0
 22 23  4  0  0  0
  2 35  1  0  0  0
  2 36  1  0  0  0
  3 37  1  0  0  0
  3 38  1  0  0  0
  4 39  1  0  0  0
  5 40  1  0  0  0
  6 41  1  0  0  0
  7 42  1  0  0  0
  8 43  1  0  0  0
  9 44  1  0  0  0
  9 45  1  0  0  0
 10 46  1  0  0  0
 10 47  1  0  0  0
 11 48  1  0  0  0
 16 49  1  0  0  0
 18 50  1  0  0  0
 19 51  1  0  0  0
 20 52  1  0  0  0
 21 53  1  0  0  0
 22 54  1  0  0  0
 23 55  1  0  0  0
 24 56  1  0  0  0
 25 57  1  0  0  0
 26 58  1  0  0  0
 27 59  1  0  0  0
 28 60  1  0  0  0
 30 61  1  0  0  0
 32 62  1  0  0  0
M  END
$$$$
