4em7_ligand
  -I-interpret- 

 31 33  0  0  0  0  0  0  0  0999 V2000
   12.1830   27.0230    8.3150 C   0  0  0  0  0
   11.6610   27.6750    9.4080 C   0  0  0  0  0
   11.9550   29.0040    9.6230 C   0  0  0  0  0
   12.7720   29.6770    8.7380 C   0  0  0  0  0
   13.3050   29.0350    7.6380 C   0  0  0  0  0
   12.9980   27.7050    7.4400 C   0  0  0  0  0
   14.1520   29.7240    6.6900 C   0  0  0  0  0
   15.1430   29.0550    6.0000 C   0  0  0  0  0
   15.8770   29.8020    5.0930 C   0  0  0  0  0
   16.9480   29.5280    4.2050 C   0  0  0  0  0
   17.2660   30.6980    3.5480 C   0  0  0  0  0
   16.4250   31.6680    4.0070 N   0  0  0  0  0
   15.5810   31.1410    4.9430 C   0  0  0  0  0
   14.6440   31.8290    5.5890 N   0  0  0  0  0
   13.9620   31.0650    6.4450 C   0  0  0  0  0
   11.3960   29.6880   10.7810 C   0  0  0  0  0
   10.0870   29.5430   11.0140 C   0  0  0  0  0
    9.6050   30.2860   12.2350 C   0  0  0  0  0
    9.9430   31.4990   12.3150 O   0  0  0  0  0
    8.9040   29.5960   13.0250 O   0  0  0  0  0
   11.9525   25.9717    8.1426 H   0  0  0  0  0
   11.0147   27.1403   10.1041 H   0  0  0  0  0
   12.9996   30.7291    8.9095 H   0  0  0  0  0
   13.4083   27.1843    6.5747 H   0  0  0  0  0
   15.3378   27.9946    6.1604 H   0  0  0  0  0
   17.4344   28.5625    4.0661 H   0  0  0  0  0
   18.0472   30.8243    2.7984 H   0  0  0  0  0
   13.1698   31.5556    7.0105 H   0  0  0  0  0
   12.0219   30.2961   11.4342 H   0  0  0  0  0
    9.4309   28.9448   10.3817 H   0  0  0  0  0
   10.4803   31.7311   11.5541 H   0  0  0  0  0
  1  2  4  0  0  0
  1  6  4  0  0  0
  2  3  4  0  0  0
  3  4  4  0  0  0
  3 16  1  0  0  0
  4  5  4  0  0  0
  5  6  4  0  0  0
  5  7  1  0  0  0
  7  8  4  0  0  0
  7 15  4  0  0  0
  8  9  4  0  0  0
  9 10  4  0  0  0
  9 13  4  0  0  0
 10 11  4  0  0  0
 11 12  4  0  0  0
 12 13  4  0  0  0
 13 14  4  0  0  0
 14 15  4  0  0  0
 16 17  2  0  0  0
 17 18  1  0  0  0
 18 19  1  0  0  0
 18 20  2  0  0  0
  1 21  1  0  0  0
  2 22  1  0  0  0
  4 23  1  0  0  0
  6 24  1  0  0  0
  8 25  1  0  0  0
 10 26  1  0  0  0
 11 27  1  0  0  0
 15 28  1  0  0  0
 16 29  1  0  0  0
 17 30  1  0  0  0
 19 31  1  0  0  0
M  END
$$$$
