5oxk_ligand
  -I-interpret- 

 31 30  0  0  0  0  0  0  0  0999 V2000
   20.9490   15.0530   -2.3090 N   0  3  0  0  0
   22.3450   15.4600   -2.1670 C   0  0  0  0  0
   22.9600   15.8240   -3.5160 C   0  0  0  0  0
   22.4950   15.3730   -4.5630 O   0  0  0  0  0
   23.1530   14.3620   -1.4940 C   0  0  0  0  0
   24.0160   16.6320   -3.4760 N   0  0  0  0  0
   24.6170   17.2010   -4.6800 C   0  0  0  0  0
   25.8870   16.4670   -5.0980 C   0  0  0  0  0
   26.6460   15.9620   -4.2770 O   0  0  0  0  0
   24.9170   18.6890   -4.4570 C   0  0  0  0  0
   25.6920   19.3670   -5.5750 C   0  0  0  0  0
   25.4070   20.8550   -5.6670 C   0  0  0  0  0
   25.8210   21.5160   -6.6190 O   0  0  0  0  0
   24.6900   21.3860   -4.6820 N   0  0  0  0  0
   26.2030   16.3680   -6.2810 O   0  0  0  0  0
   20.4226   15.8003   -2.7616 H   0  0  0  0  0
   20.8987   14.2076   -2.8774 H   0  0  0  0  0
   20.5545   14.8680   -1.3867 H   0  0  0  0  0
   22.3697   16.3502   -1.5385 H   0  0  0  0  0
   23.1621   13.4772   -2.1306 H   0  0  0  0  0
   24.1744   14.7086   -1.3368 H   0  0  0  0  0
   22.6997   14.1157   -0.5338 H   0  0  0  0  0
   24.4220   16.8633   -2.5693 H   0  0  0  0  0
   23.8978   17.0854   -5.4908 H   0  0  0  0  0
   25.5370   18.7529   -3.5628 H   0  0  0  0  0
   23.9544   19.1961   -4.3910 H   0  0  0  0  0
   25.3895   18.9096   -6.5170 H   0  0  0  0  0
   26.7550   19.2421   -5.3687 H   0  0  0  0  0
   24.4620   22.3801   -4.6957 H   0  0  0  0  0
   24.3677   20.7994   -3.9123 H   0  0  0  0  0
   25.5389   16.7972   -6.8254 H   0  0  0  0  0
  1  2  1  0  0  0
  2  3  1  0  0  0
  2  5  1  0  0  0
  3  4  2  0  0  0
  3  6  1  0  0  0
  6  7  1  0  0  0
  7  8  1  0  0  0
  7 10  1  0  0  0
  8  9  2  0  0  0
  8 15  1  0  0  0
 10 11  1  0  0  0
 11 12  1  0  0  0
 12 13  2  0  0  0
 12 14  1  0  0  0
  1 16  1  0  0  0
  1 17  1  0  0  0
  1 18  1  0  0  0
  2 19  1  0  0  0
  5 20  1  0  0  0
  5 21  1  0  0  0
  5 22  1  0  0  0
  6 23  1  0  0  0
  7 24  1  0  0  0
 10 25  1  0  0  0
 10 26  1  0  0  0
 11 27  1  0  0  0
 11 28  1  0  0  0
 14 29  1  0  0  0
 14 30  1  0  0  0
 15 31  1  0  0  0
M  END
$$$$
