3rup_ligand
  -I-interpret- 

 42 44  0  0  0  0  0  0  0  0999 V2000
   19.0460    6.4730   26.9860 P   0  0  0  0  0
   17.7190    6.8480   27.5880 O   0  0  0  0  0
   19.3950    7.1670   25.6890 O   0  0  0  0  0
   20.1590    6.4800   28.0040 O   0  0  0  0  0
   17.7410    3.9050   26.4210 P   0  0  0  0  0
   16.4220    4.6310   26.3280 O   0  0  0  0  0
   18.0560    2.8490   25.3790 O   0  0  0  0  0
   18.9830    4.9410   26.4790 O   0  0  0  0  0
   17.8890    3.2070   27.8700 O   0  0  0  0  0
   18.9920    2.3360   28.1380 C   0  0  0  0  0
   18.5340    1.0260   28.7690 C   0  0  0  0  0
   17.8510    1.3140   29.9840 O   0  0  0  0  0
   17.5370    0.2840   27.8870 C   0  0  0  0  0
   17.7300   -1.1320   28.0530 O   0  0  0  0  0
   16.1790    0.7160   28.4360 C   0  0  0  0  0
   15.1100   -0.2170   28.2110 O   0  0  0  0  0
   16.4790    0.8720   29.9170 C   0  0  0  0  0
   15.5810    1.8240   30.6130 N   0  0  0  0  0
   15.5130    3.1500   30.3920 C   0  0  0  0  0
   14.6270    3.7360   31.2270 N   0  0  0  0  0
   14.1030    2.7780   32.0110 C   0  0  0  0  0
   13.0990    2.7260   33.1100 C   0  0  0  0  0
   12.4810    3.8610   33.5080 N   0  0  0  0  0
   12.8330    1.5240   33.6870 N   0  0  0  0  0
   13.4620    0.4010   33.2730 C   0  0  0  0  0
   14.3890    0.3810   32.2720 N   0  0  0  0  0
   14.7440    1.5160   31.6130 C   0  0  0  0  0
   20.2540    6.8637   25.3862 H   0  0  0  0  0
   20.9833    6.2358   27.5769 H   0  0  0  0  0
   18.9203    2.4717   25.5586 H   0  0  0  0  0
   19.6642    2.8368   28.8348 H   0  0  0  0  0
   19.4876    2.1083   27.1942 H   0  0  0  0  0
   19.4230    0.4130   28.9172 H   0  0  0  0  0
   17.6388    0.5005   26.8236 H   0  0  0  0  0
   17.1048   -1.6061   27.4999 H   0  0  0  0  0
   15.8085    1.6131   27.9399 H   0  0  0  0  0
   14.2981    0.1319   28.5860 H   0  0  0  0  0
   16.3139   -0.0750   30.4308 H   0  0  0  0  0
   16.0956    3.6808   29.6391 H   0  0  0  0  0
   12.7031    4.7480   33.0560 H   0  0  0  0  0
   11.7928    3.8301   34.2602 H   0  0  0  0  0
   13.2151   -0.5394   33.7657 H   0  0  0  0  0
  1  2  2  0  0  0
  1  3  1  0  0  0
  1  4  1  0  0  0
  8  1  1  0  0  0
  5  6  2  0  0  0
  5  7  1  0  0  0
  5  8  1  0  0  0
  5  9  1  0  0  0
  9 10  1  0  0  0
 10 11  1  0  0  0
 11 12  1  0  0  0
 11 13  1  0  0  0
 12 17  1  0  0  0
 13 14  1  0  0  0
 13 15  1  0  0  0
 15 16  1  0  0  0
 15 17  1  0  0  0
 17 18  1  0  0  0
 18 19  4  0  0  0
 18 27  4  0  0  0
 19 20  4  0  0  0
 20 21  4  0  0  0
 21 22  4  0  0  0
 21 27  4  0  0  0
 22 23  1  0  0  0
 22 24  4  0  0  0
 24 25  4  0  0  0
 25 26  4  0  0  0
 26 27  4  0  0  0
  3 28  1  0  0  0
  4 29  1  0  0  0
  7 30  1  0  0  0
 10 31  1  0  0  0
 10 32  1  0  0  0
 11 33  1  0  0  0
 13 34  1  0  0  0
 14 35  1  0  0  0
 15 36  1  0  0  0
 16 37  1  0  0  0
 17 38  1  0  0  0
 19 39  1  0  0  0
 23 40  1  0  0  0
 23 41  1  0  0  0
 25 42  1  0  0  0
M  END
$$$$
