3rde_ligand
  -I-interpret- 

 60 60  0  0  0  0  0  0  0  0999 V2000
  -13.4790  -41.8670  -46.0450 C   0  0  0  0  0
  -14.6870  -44.9130  -48.2740 O   0  0  0  0  0
  -14.3280  -41.0010  -45.3650 C   0  0  0  0  0
  -16.8910  -44.6380  -48.2960 O   0  0  0  0  0
  -15.4230  -41.5030  -44.6810 C   0  0  0  0  0
  -13.5500  -39.1440  -44.2910 O   0  0  0  0  0
  -15.6310  -42.8880  -44.7060 C   0  0  0  0  0
  -14.7880  -43.7470  -45.3910 C   0  0  0  0  0
  -13.7240  -43.2400  -46.0910 C   0  0  0  0  0
  -14.9950  -45.2400  -45.3870 C   0  0  0  0  0
  -16.0620  -45.6190  -46.3600 C   0  0  0  0  0
  -15.8950  -45.0240  -47.7120 C   0  0  0  0  0
  -13.9700  -39.5730  -45.4820 C   0  0  0  0  0
  -13.3450  -37.7450  -44.1100 C   0  0  0  0  0
  -11.9180  -37.4940  -43.8210 C   0  0  0  0  0
  -10.7610  -37.2650  -43.7480 C   0  0  0  0  0
   -9.3490  -36.9300  -43.5090 C   0  0  0  0  0
   -8.3730  -38.0910  -43.6220 C   0  0  0  0  0
   -8.4830  -38.8670  -44.8790 C   0  0  0  0  0
   -7.6380  -40.1650  -44.9960 C   0  0  0  0  0
   -7.6250  -40.7730  -46.3790 C   0  0  0  0  0
   -6.6500  -41.9590  -46.5240 C   0  0  0  0  0
   -7.0010  -42.7230  -47.8230 C   0  0  0  0  0
   -6.1660  -43.9530  -48.1700 C   0  0  0  0  0
   -6.1040  -44.9450  -46.9970 C   0  0  0  0  0
   -5.3860  -46.2550  -47.3970 C   0  0  0  0  0
  -12.6028  -41.4646  -46.5533 H   0  0  0  0  0
  -14.0236  -45.2653  -47.6762 H   0  0  0  0  0
  -16.1007  -40.8418  -44.1409 H   0  0  0  0  0
  -16.4839  -43.3030  -44.1690 H   0  0  0  0  0
  -13.0800  -43.8985  -46.6739 H   0  0  0  0  0
  -15.2971  -45.5542  -44.3880 H   0  0  0  0  0
  -14.0635  -45.7287  -45.6728 H   0  0  0  0  0
  -17.0065  -45.2493  -45.9609 H   0  0  0  0  0
  -16.0189  -46.7017  -46.4781 H   0  0  0  0  0
  -14.8383  -38.9962  -45.8007 H   0  0  0  0  0
  -13.1807  -39.4464  -46.2230 H   0  0  0  0  0
  -13.9535  -37.3917  -43.2775 H   0  0  0  0  0
  -13.6325  -37.2137  -45.0173 H   0  0  0  0  0
   -9.2849  -36.5691  -42.4825 H   0  0  0  0  0
   -9.0661  -36.2105  -44.2774 H   0  0  0  0  0
   -8.5965  -38.7759  -42.8041 H   0  0  0  0  0
   -7.3691  -37.6671  -43.5960 H   0  0  0  0  0
   -8.1167  -38.2064  -45.6649 H   0  0  0  0  0
   -9.5232  -39.1877  -44.9360 H   0  0  0  0  0
   -8.0833  -40.9002  -44.3257 H   0  0  0  0  0
   -6.6090  -39.9021  -44.7506 H   0  0  0  0  0
   -7.3015  -39.9976  -47.0734 H   0  0  0  0  0
   -8.6283  -41.1487  -46.5799 H   0  0  0  0  0
   -6.7399  -42.6233  -45.6645 H   0  0  0  0  0
   -5.6237  -41.5948  -46.5710 H   0  0  0  0  0
   -6.8285  -42.0150  -48.6336 H   0  0  0  0  0
   -8.0170  -43.0909  -47.6797 H   0  0  0  0  0
   -5.1514  -43.6268  -48.3989 H   0  0  0  0  0
   -6.6283  -44.4541  -49.0204 H   0  0  0  0  0
   -7.1234  -45.1885  -46.6975 H   0  0  0  0  0
   -5.5467  -44.4815  -46.1829 H   0  0  0  0  0
   -5.9244  -46.7265  -48.2192 H   0  0  0  0  0
   -4.3671  -46.0281  -47.7109 H   0  0  0  0  0
   -5.3622  -46.9305  -46.5419 H   0  0  0  0  0
  1  3  4  0  0  0
  9  1  4  0  0  0
 12  2  1  0  0  0
  5  3  4  0  0  0
  3 13  1  0  0  0
 12  4  2  0  0  0
  7  5  4  0  0  0
 13  6  1  0  0  0
  6 14  1  0  0  0
  8  7  4  0  0  0
  8  9  4  0  0  0
 10  8  1  0  0  0
 11 10  1  0  0  0
 11 12  1  0  0  0
 14 15  1  0  0  0
 15 16  3  0  0  0
 16 17  1  0  0  0
 17 18  1  0  0  0
 18 19  1  0  0  0
 19 20  1  0  0  0
 20 21  1  0  0  0
 21 22  1  0  0  0
 22 23  1  0  0  0
 23 24  1  0  0  0
 24 25  1  0  0  0
 25 26  1  0  0  0
  1 27  1  0  0  0
  2 28  1  0  0  0
  5 29  1  0  0  0
  7 30  1  0  0  0
  9 31  1  0  0  0
 10 32  1  0  0  0
 10 33  1  0  0  0
 11 34  1  0  0  0
 11 35  1  0  0  0
 13 36  1  0  0  0
 13 37  1  0  0  0
 14 38  1  0  0  0
 14 39  1  0  0  0
 17 40  1  0  0  0
 17 41  1  0  0  0
 18 42  1  0  0  0
 18 43  1  0  0  0
 19 44  1  0  0  0
 19 45  1  0  0  0
 20 46  1  0  0  0
 20 47  1  0  0  0
 21 48  1  0  0  0
 21 49  1  0  0  0
 22 50  1  0  0  0
 22 51  1  0  0  0
 23 52  1  0  0  0
 23 53  1  0  0  0
 24 54  1  0  0  0
 24 55  1  0  0  0
 25 56  1  0  0  0
 25 57  1  0  0  0
 26 58  1  0  0  0
 26 59  1  0  0  0
 26 60  1  0  0  0
M  END
$$$$
