2aia_ligand
  -I-interpret- 

 39 40  0  0  0  0  0  0  0  0999 V2000
   -4.9100   25.1530   -3.2030 C   0  0  0  0  0
   -5.7870   25.3700   -2.1060 C   0  0  0  0  0
   -5.2930   26.0020   -0.9390 C   0  0  0  0  0
   -3.9390   26.4140   -0.8390 C   0  0  0  0  0
   -3.0790   26.1880   -1.9480 C   0  0  0  0  0
   -3.5630   25.5600   -3.1220 C   0  0  0  0  0
   -7.1970   24.9340   -2.2050 C   0  0  0  0  0
   -8.0960   25.7520   -2.0280 O   0  0  0  0  0
   -7.5330   23.5080   -2.4850 C   0  0  0  0  0
   -6.9660   22.4120   -1.7490 C   0  0  0  0  0
   -7.3250   21.0810   -2.0570 C   0  0  0  0  0
   -8.3260   20.8290   -3.1870 C   0  0  0  0  0
   -8.8550   21.9330   -3.8830 C   0  0  0  0  0
   -8.4610   23.2450   -3.5350 C   0  0  0  0  0
   -3.5220   27.0430    0.3650 O   0  0  0  0  0
   -4.4750   27.2260    1.4190 C   0  0  0  0  0
   -3.8050   27.9110    2.6120 C   0  0  0  0  0
   -3.4270   29.2850    2.2810 N   0  3  0  0  0
   -4.4090   30.2820    2.1580 O   0  0  0  0  0
   -2.1070   29.5520    2.1030 C   0  0  0  0  0
   -1.6700   30.5360    1.5310 O   0  0  0  0  0
   -5.2795   24.6712   -4.1082 H   0  0  0  0  0
   -5.9670   26.1756   -0.1001 H   0  0  0  0  0
   -2.0363   26.5011   -1.8945 H   0  0  0  0  0
   -2.8923   25.3912   -3.9645 H   0  0  0  0  0
   -6.2540   22.6090   -0.9475 H   0  0  0  0  0
   -6.8966   20.2480   -1.4996 H   0  0  0  0  0
   -8.6240   19.8136   -3.4483 H   0  0  0  0  0
   -9.5693   21.7755   -4.6912 H   0  0  0  0  0
   -8.8811   24.0848   -4.0885 H   0  0  0  0  0
   -4.8583   26.2543    1.7305 H   0  0  0  0  0
   -5.2940   27.8490    1.0596 H   0  0  0  0  0
   -2.9059   27.3542    2.8761 H   0  0  0  0  0
   -4.5085   27.9320    3.4444 H   0  0  0  0  0
   -3.8242   30.2000    2.0681 H   0  0  0  0  0
   -3.9896   31.1173    1.9391 H   0  0  0  0  0
   -1.7887   28.7395    1.4498 H   0  0  0  0  0
   -1.7569   29.6990    3.1247 H   0  0  0  0  0
   -0.7105   30.5048    1.5307 H   0  0  0  0  0
  1  2  4  0  0  0
  1  6  4  0  0  0
  2  3  4  0  0  0
  2  7  1  0  0  0
  3  4  4  0  0  0
  4  5  4  0  0  0
  4 15  1  0  0  0
  5  6  4  0  0  0
  7  8  2  0  0  0
  7  9  1  0  0  0
  9 10  4  0  0  0
  9 14  4  0  0  0
 10 11  4  0  0  0
 11 12  4  0  0  0
 12 13  4  0  0  0
 13 14  4  0  0  0
 15 16  1  0  0  0
 16 17  1  0  0  0
 17 18  1  0  0  0
 18 19  1  0  0  0
 18 20  1  0  0  0
 20 21  1  0  0  0
  1 22  1  0  0  0
  3 23  1  0  0  0
  5 24  1  0  0  0
  6 25  1  0  0  0
 10 26  1  0  0  0
 11 27  1  0  0  0
 12 28  1  0  0  0
 13 29  1  0  0  0
 14 30  1  0  0  0
 16 31  1  0  0  0
 16 32  1  0  0  0
 17 33  1  0  0  0
 17 34  1  0  0  0
 18 35  1  0  0  0
 19 36  1  0  0  0
 20 37  1  0  0  0
 20 38  1  0  0  0
 21 39  1  0  0  0
M  END
$$$$
