3fci_ligand
  -I-interpret- 

 44 45  0  0  0  0  0  0  0  0999 V2000
  -12.9750   -4.8020   -5.5910 C   0  0  0  0  0
  -13.0810   -3.6930   -4.7500 C   0  0  0  0  0
  -12.8910   -3.8110   -3.3720 C   0  0  0  0  0
  -12.5960   -5.0200   -2.7450 C   0  0  0  0  0
  -12.4980   -6.1530   -3.6160 C   0  0  0  0  0
  -12.6850   -6.0430   -5.0170 C   0  0  0  0  0
  -11.6310   -7.7600   -2.0980 O   0  0  0  0  0
  -12.1950   -7.5490   -3.1390 C   0  0  0  0  0
  -12.6360   -8.5580   -4.0020 O   0  0  0  0  0
  -13.0600   -2.4860   -2.6670 C   0  0  0  0  0
  -12.5520   -1.2670   -2.5120 N   0  0  0  0  0
  -13.0850   -0.2560   -1.7000 O   0  0  0  0  0
  -13.2500    0.9440   -2.4090 C   0  0  0  0  0
  -12.9030    2.0730   -1.4860 C   0  0  0  0  0
  -14.1910    2.5380   -0.7730 C   0  0  0  0  0
  -14.3870    1.8700    0.5110 N   0  3  0  0  0
  -15.7080    1.7780    1.1730 C   0  0  0  0  0
  -15.5710    1.0750    2.5440 C   0  0  0  0  0
  -15.8920    1.6000    3.7940 N   0  0  0  0  0
  -15.0350   -0.2150    2.3200 C   0  0  0  0  0
  -14.8680   -0.8860    3.5140 C   0  0  0  0  0
  -14.3750   -2.0980    3.4240 O   0  0  0  0  0
  -15.1600   -0.4790    4.7470 N   0  0  0  0  0
  -15.6740    0.7900    4.8990 C   0  0  0  0  0
  -15.9190    1.1780    6.0550 O   0  0  0  0  0
  -13.1148   -4.7028   -6.6674 H   0  0  0  0  0
  -13.3162   -2.7179   -5.1766 H   0  0  0  0  0
  -12.4501   -5.0981   -1.6676 H   0  0  0  0  0
  -12.6025   -6.9280   -5.6479 H   0  0  0  0  0
  -13.0566   -8.1610   -4.7682 H   0  0  0  0  0
  -13.9473   -2.5569   -2.0379 H   0  0  0  0  0
  -14.2791    1.0407   -2.7549 H   0  0  0  0  0
  -12.6013    0.9583   -3.2849 H   0  0  0  0  0
  -12.4737    2.8986   -2.0537 H   0  0  0  0  0
  -12.1706    1.7401   -0.7506 H   0  0  0  0  0
  -15.0385    2.2941   -1.4135 H   0  0  0  0  0
  -14.1065    3.6087   -0.5873 H   0  0  0  0  0
  -13.8408    2.4399    1.1570 H   0  0  0  0  0
  -14.1600    0.8970    0.3056 H   0  0  0  0  0
  -16.3837    1.2006    0.5420 H   0  0  0  0  0
  -16.1014    2.7831    1.3253 H   0  0  0  0  0
  -14.0651   -0.1146    1.8328 H   0  0  0  0  0
  -15.7239   -0.7792    1.6913 H   0  0  0  0  0
  -15.0083   -1.0863    5.5524 H   0  0  0  0  0
  1  2  4  0  0  0
  1  6  4  0  0  0
  2  3  4  0  0  0
  3  4  4  0  0  0
  3 10  1  0  0  0
  4  5  4  0  0  0
  5  6  4  0  0  0
  5  8  1  0  0  0
  8  7  2  0  0  0
  8  9  1  0  0  0
 10 11  2  0  0  0
 11 12  1  0  0  0
 12 13  1  0  0  0
 13 14  1  0  0  0
 14 15  1  0  0  0
 15 16  1  0  0  0
 16 17  1  0  0  0
 17 18  1  0  0  0
 18 19  2  0  0  0
 18 20  1  0  0  0
 19 24  1  0  0  0
 20 21  1  0  0  0
 21 22  2  0  0  0
 21 23  1  0  0  0
 23 24  1  0  0  0
 24 25  2  0  0  0
  1 26  1  0  0  0
  2 27  1  0  0  0
  4 28  1  0  0  0
  6 29  1  0  0  0
  9 30  1  0  0  0
 10 31  1  0  0  0
 13 32  1  0  0  0
 13 33  1  0  0  0
 14 34  1  0  0  0
 14 35  1  0  0  0
 15 36  1  0  0  0
 15 37  1  0  0  0
 16 38  1  0  0  0
 16 39  1  0  0  0
 17 40  1  0  0  0
 17 41  1  0  0  0
 20 42  1  0  0  0
 20 43  1  0  0  0
 23 44  1  0  0  0
M  END
$$$$
