3skg_ligand
  -I-interpret- 

 95 99  0  0  0  0  0  0  0  0999 V2000
   -1.5440   16.6310   23.1560 C   0  0  0  0  0
   -9.8050   18.5760   30.4490 C   0  0  0  0  0
   -9.4670   20.0100   30.5480 C   0  0  0  0  0
   -2.2240   17.7460   23.7180 C   0  0  0  0  0
   -0.8310   15.6690   23.9750 C   0  0  0  0  0
   -8.9530   17.6270   30.8610 C   0  0  0  0  0
   -8.2730   20.2330   31.1110 C   0  0  0  0  0
   -2.1540   17.8640   25.1370 C   0  0  0  0  0
   -0.7910   15.8030   25.3690 C   0  0  0  0  0
   -1.9510   11.8190   33.1080 C   0  0  0  0  0
   -3.8930   12.0070   31.8480 C   0  0  0  0  0
   -2.5440   10.0750   31.4990 C   0  0  0  0  0
   -7.6380   17.9110   31.4680 C   0  0  0  0  0
   -7.3060   19.1570   31.5750 C   0  0  0  0  0
   -1.4540   16.9060   25.9280 C   0  0  0  0  0
   -3.0660   12.5370   32.8080 C   0  0  0  0  0
   -1.7010   10.6130   32.4410 C   0  0  0  0  0
   -3.6440   10.8100   31.2060 C   0  0  0  0  0
    0.2030   15.2720   30.0840 C   0  0  0  0  0
    2.6100   14.4490   28.4230 C   0  0  0  0  0
   -3.1840   15.3310   30.3790 C   0  0  0  0  0
   -6.8120   16.7550   31.9400 C   0  0  0  0  0
   -5.9590   19.5720   32.1480 C   0  0  0  0  0
    0.3720   12.8260   29.6650 C   0  0  0  0  0
   -0.9850   13.4510   29.2990 C   0  0  0  0  0
   -5.3950   17.0640   32.4840 C   0  0  0  0  0
    1.0500   14.0570   30.3360 C   0  0  0  0  0
    1.6310   14.4990   27.2780 C   0  0  0  0  0
    3.2930   12.5860   32.2210 C   0  0  0  0  0
    1.4590   12.1110   33.4640 C   0  0  0  0  0
   -1.4190   17.0960   27.4410 C   0  0  0  0  0
   -3.4220   13.8330   33.5330 C   0  0  0  0  0
    1.2410   13.8370   31.8500 C   0  0  0  0  0
   -2.3940   16.0860   28.0160 C   0  0  0  0  0
   -2.0320   15.8200   29.4730 C   0  0  0  0  0
   -4.6940   16.0010   33.4080 C   0  0  0  0  0
    1.8010   12.4530   32.0540 C   0  0  0  0  0
   -4.0740   14.8630   32.6060 C   0  0  0  0  0
   -5.2610   18.5100   32.9990 N   0  3  0  0  0
   -0.9340   14.9170   29.5370 N   0  0  0  0  0
    2.3120   14.2750   29.7040 N   0  0  0  0  0
   -3.0240   15.3180   31.7210 N   0  0  0  0  0
    0.5080   16.3810   30.4150 O   0  0  0  0  0
    3.7800   14.5910   28.1590 O   0  0  0  0  0
   -4.2730   15.0100   29.9070 O   0  0  0  0  0
   -5.4720   15.4580   34.4830 O   0  0  0  0  0
   -0.5770    9.9130   32.7080 F   0  0  0  0  0
   -4.4890   10.3920   30.2770 F   0  0  0  0  0
   -1.5589   16.4946   22.0747 H   0  0  0  0  0
  -10.7684   18.2829   30.0318 H   0  0  0  0  0
  -10.1234   20.8067   30.1980 H   0  0  0  0  0
   -2.7647   18.4652   23.1028 H   0  0  0  0  0
   -0.3201   14.8315   23.4999 H   0  0  0  0  0
   -9.2485   16.5847   30.7408 H   0  0  0  0  0
   -7.9700   21.2711   31.2476 H   0  0  0  0  0
   -2.6458   18.7040   25.6275 H   0  0  0  0  0
   -0.2664   15.0801   25.9937 H   0  0  0  0  0
   -1.2545   12.1805   33.8645 H   0  0  0  0  0
   -4.7929   12.5601   31.5788 H   0  0  0  0  0
   -2.3410    9.1181   31.0181 H   0  0  0  0  0
   -6.6590   16.1261   31.0630 H   0  0  0  0  0
   -7.3607   16.3249   32.7778 H   0  0  0  0  0
   -6.1450   20.4248   32.8008 H   0  0  0  0  0
   -5.3055   19.7733   31.2992 H   0  0  0  0  0
    0.9219   12.4071   28.8223 H   0  0  0  0  0
    0.3091   11.9405   30.2974 H   0  0  0  0  0
   -1.7673   13.0092   29.9162 H   0  0  0  0  0
   -1.2017   13.2604   28.2479 H   0  0  0  0  0
   -4.7907   16.9639   31.5824 H   0  0  0  0  0
    1.7016   15.4677   26.7833 H   0  0  0  0  0
    1.8661   13.7080   26.5659 H   0  0  0  0  0
    0.6199   14.3573   27.6597 H   0  0  0  0  0
    3.5076   13.3705   32.9467 H   0  0  0  0  0
    3.7035   11.6401   32.5745 H   0  0  0  0  0
    3.7431   12.8432   31.2622 H   0  0  0  0  0
    1.9710   11.1916   33.7480 H   0  0  0  0  0
    1.7751   12.9220   34.1201 H   0  0  0  0  0
    0.3817   11.9702   33.5513 H   0  0  0  0  0
   -1.6982   18.1130   27.7163 H   0  0  0  0  0
   -0.4142   16.9404   27.8338 H   0  0  0  0  0
   -2.4999   14.2657   33.9210 H   0  0  0  0  0
   -4.1342   13.5923   34.3223 H   0  0  0  0  0
    0.2870   13.9367   32.3678 H   0  0  0  0  0
    1.9249   14.5829   32.2550 H   0  0  0  0  0
   -2.3385   15.1573   27.4481 H   0  0  0  0  0
   -3.4088   16.4792   27.9554 H   0  0  0  0  0
   -1.7663   16.7955   29.8803 H   0  0  0  0  0
   -3.9213   16.5987   33.8915 H   0  0  0  0  0
    1.4664   11.7841   31.2611 H   0  0  0  0  0
   -4.8957   14.4342   32.0325 H   0  0  0  0  0
   -5.7019   18.5353   33.9184 H   0  0  0  0  0
   -4.2659   18.7336   32.9880 H   0  0  0  0  0
    3.1107   14.3010   30.3379 H   0  0  0  0  0
   -2.1410   15.6369   32.1197 H   0  0  0  0  0
   -4.9414   14.8254   34.9727 H   0  0  0  0  0
  4  1  4  0  0  0
  5  1  4  0  0  0
  2  3  4  0  0  0
  6  2  4  0  0  0
  7  3  4  0  0  0
  8  4  4  0  0  0
  9  5  4  0  0  0
 13  6  4  0  0  0
 14  7  4  0  0  0
 15  8  4  0  0  0
 15  9  4  0  0  0
 16 10  4  0  0  0
 10 17  4  0  0  0
 16 11  4  0  0  0
 11 18  4  0  0  0
 17 12  4  0  0  0
 18 12  4  0  0  0
 13 14  4  0  0  0
 22 13  1  0  0  0
 23 14  1  0  0  0
 31 15  1  0  0  0
 32 16  1  0  0  0
 17 47  1  0  0  0
 18 48  1  0  0  0
 19 27  1  0  0  0
 40 19  1  0  0  0
 19 43  2  0  0  0
 20 28  1  0  0  0
 41 20  1  0  0  0
 20 44  2  0  0  0
 21 35  1  0  0  0
 42 21  1  0  0  0
 21 45  2  0  0  0
 26 22  1  0  0  0
 39 23  1  0  0  0
 25 24  1  0  0  0
 24 27  1  0  0  0
 40 25  1  0  0  0
 36 26  1  0  0  0
 26 39  1  0  0  0
 27 33  1  0  0  0
 27 41  1  0  0  0
 37 29  1  0  0  0
 37 30  1  0  0  0
 34 31  1  0  0  0
 38 32  1  0  0  0
 33 37  1  0  0  0
 35 34  1  0  0  0
 35 40  1  0  0  0
 38 36  1  0  0  0
 36 46  1  0  0  0
 38 42  1  0  0  0
  1 49  1  0  0  0
  2 50  1  0  0  0
  3 51  1  0  0  0
  4 52  1  0  0  0
  5 53  1  0  0  0
  6 54  1  0  0  0
  7 55  1  0  0  0
  8 56  1  0  0  0
  9 57  1  0  0  0
 10 58  1  0  0  0
 11 59  1  0  0  0
 12 60  1  0  0  0
 22 61  1  0  0  0
 22 62  1  0  0  0
 23 63  1  0  0  0
 23 64  1  0  0  0
 24 65  1  0  0  0
 24 66  1  0  0  0
 25 67  1  0  0  0
 25 68  1  0  0  0
 26 69  1  0  0  0
 28 70  1  0  0  0
 28 71  1  0  0  0
 28 72  1  0  0  0
 29 73  1  0  0  0
 29 74  1  0  0  0
 29 75  1  0  0  0
 30 76  1  0  0  0
 30 77  1  0  0  0
 30 78  1  0  0  0
 31 79  1  0  0  0
 31 80  1  0  0  0
 32 81  1  0  0  0
 32 82  1  0  0  0
 33 83  1  0  0  0
 33 84  1  0  0  0
 34 85  1  0  0  0
 34 86  1  0  0  0
 35 87  1  0  0  0
 36 88  1  0  0  0
 37 89  1  0  0  0
 38 90  1  0  0  0
 39 91  1  0  0  0
 39 92  1  0  0  0
 41 93  1  0  0  0
 42 94  1  0  0  0
 46 95  1  0  0  0
M  END
$$$$
