4zsr_ligand
  -I-interpret- 

 44 47  0  0  0  0  0  0  0  0999 V2000
   22.2660   54.7010   89.7130 C   0  0  0  0  0
   20.0890   56.5010   86.2840 O   0  0  0  0  0
   20.1160   55.3240   87.1280 C   0  0  0  0  0
   21.6550   57.1890   88.7790 C   0  0  0  0  0
   22.1270   56.5320   87.4860 C   0  0  0  0  0
   21.3430   57.2070   86.3820 C   0  0  0  0  0
   30.3800   56.4510   86.1910 C   0  0  0  0  0
   29.0890   56.5280   85.7080 C   0  0  0  0  0
   30.6560   55.5960   87.2330 C   0  0  0  0  0
   28.3390   54.9100   87.2860 C   0  0  0  0  0
   28.0710   55.7770   86.2430 C   0  0  0  0  0
   29.6310   54.8350   87.7680 C   0  0  0  0  0
   26.6990   55.8950   85.6930 C   0  0  0  0  0
   23.7290   54.3130   86.3380 C   0  0  0  0  0
   22.2170   54.3450   86.2400 C   0  0  0  0  0
   23.6410   56.6620   87.2850 C   0  0  0  0  0
   24.3020   55.6980   86.2960 C   0  0  0  0  0
   21.5980   55.1180   87.3980 C   0  0  0  0  0
   21.8880   54.2580   88.5480 N   0  0  0  0  0
   22.5740   53.8150   90.7300 N   0  0  0  0  0
   25.7190   55.5860   86.6000 N   0  0  0  0  0
   26.5300   56.2160   84.5170 O   0  0  0  0  0
   22.3470   56.3810   90.2340 S   0  0  0  0  0
   30.0180   53.7660   89.0710 Cl  0  0  0  0  0
   19.6524   54.4585   86.6546 H   0  0  0  0  0
   19.5375   55.4515   88.0430 H   0  0  0  0  0
   20.5690   57.1084   88.8270 H   0  0  0  0  0
   21.9852   58.2278   88.7751 H   0  0  0  0  0
   21.1820   58.2618   86.6047 H   0  0  0  0  0
   21.8868   57.1720   85.4380 H   0  0  0  0  0
   31.1706   57.0598   85.7524 H   0  0  0  0  0
   28.8718   57.2028   84.8800 H   0  0  0  0  0
   31.6676   55.5190   87.6316 H   0  0  0  0  0
   27.5472   54.2985   87.7188 H   0  0  0  0  0
   24.1214   53.7474   85.4929 H   0  0  0  0  0
   24.0075   53.8488   87.2841 H   0  0  0  0  0
   21.8473   53.3201   86.2725 H   0  0  0  0  0
   21.9420   54.8399   85.3086 H   0  0  0  0  0
   24.0878   56.4428   88.2548 H   0  0  0  0  0
   23.8003   57.6599   86.8764 H   0  0  0  0  0
   24.1213   56.1145   85.3050 H   0  0  0  0  0
   21.7877   53.2499   88.4290 H   0  0  0  0  0
   22.5055   52.8101   90.5691 H   0  0  0  0  0
   25.9957   55.2639   87.5274 H   0  0  0  0  0
  1 19  1  0  0  0
  1 20  2  0  0  0
 23  1  1  0  0  0
  3  2  1  0  0  0
  6  2  1  0  0  0
 18  3  1  0  0  0
  5  4  1  0  0  0
  4 23  1  0  0  0
  5  6  1  0  0  0
 16  5  1  0  0  0
  5 18  1  0  0  0
  8  7  4  0  0  0
  7  9  4  0  0  0
 11  8  4  0  0  0
 12  9  4  0  0  0
 11 10  4  0  0  0
 10 12  4  0  0  0
 13 11  1  0  0  0
 12 24  1  0  0  0
 21 13  1  0  0  0
 13 22  2  0  0  0
 14 15  1  0  0  0
 17 14  1  0  0  0
 15 18  1  0  0  0
 17 16  1  0  0  0
 17 21  1  0  0  0
 18 19  1  0  0  0
  3 25  1  0  0  0
  3 26  1  0  0  0
  4 27  1  0  0  0
  4 28  1  0  0  0
  6 29  1  0  0  0
  6 30  1  0  0  0
  7 31  1  0  0  0
  8 32  1  0  0  0
  9 33  1  0  0  0
 10 34  1  0  0  0
 14 35  1  0  0  0
 14 36  1  0  0  0
 15 37  1  0  0  0
 15 38  1  0  0  0
 16 39  1  0  0  0
 16 40  1  0  0  0
 17 41  1  0  0  0
 19 42  1  0  0  0
 20 43  1  0  0  0
 21 44  1  0  0  0
M  END
$$$$
