6h7l_ligand
  -I-interpret- 

 46 47  0  0  0  0  0  0  0  0999 V2000
  -42.0220   25.8830   -2.8610 O   0  0  0  0  0
  -42.2350   26.1080   -4.1770 C   0  0  0  0  0
  -43.5260   26.0060   -4.6990 C   0  0  0  0  0
  -43.7460   26.2320   -6.0560 C   0  0  0  0  0
  -41.1610   26.4380   -4.9920 C   0  0  0  0  0
  -41.3740   26.6470   -6.3490 C   0  0  0  0  0
  -42.6700   26.5540   -6.8840 C   0  0  0  0  0
  -42.9110   26.7930   -8.3580 C   0  0  0  0  0
  -42.8430   28.2930   -8.6240 C   0  0  0  0  0
  -42.8990   28.6260  -10.1140 C   0  0  0  0  0
  -43.0940   30.1350  -10.2660 C   0  0  0  0  0
  -41.7110   28.1510  -10.8230 N   0  3  0  0  0
  -41.7230   28.0030  -12.2670 C   0  0  0  0  0
  -40.3820   27.6110  -12.8790 C   0  0  0  0  0
  -40.3970   27.8660  -14.3810 C   0  0  0  0  0
  -41.4260   27.3420  -15.1910 C   0  0  0  0  0
  -41.4440   27.5810  -16.5640 C   0  0  0  0  0
  -42.4340   27.0790  -17.3560 O   0  0  0  0  0
  -40.3570   28.3960  -17.1560 C   0  0  0  0  0
  -40.3560   28.6440  -18.4920 O   0  0  0  0  0
  -39.3610   28.9000  -16.3250 C   0  0  0  0  0
  -39.3780   28.6340  -14.9560 C   0  0  0  0  0
  -41.0885   25.9926   -2.6658 H   0  0  0  0  0
  -44.3603   25.7500   -4.0459 H   0  0  0  0  0
  -44.7523   26.1578   -6.4683 H   0  0  0  0  0
  -40.1599   26.5323   -4.5714 H   0  0  0  0  0
  -40.5330   26.8839   -7.0007 H   0  0  0  0  0
  -43.8912   26.4095   -8.6412 H   0  0  0  0  0
  -42.1530   26.2765   -8.9469 H   0  0  0  0  0
  -41.8948   28.6614   -8.2325 H   0  0  0  0  0
  -43.7027   28.7592   -8.1426 H   0  0  0  0  0
  -43.7416   28.1071  -10.5710 H   0  0  0  0  0
  -44.0253   30.4302   -9.7826 H   0  0  0  0  0
  -42.2591   30.6569   -9.7984 H   0  0  0  0  0
  -43.1361   30.3898  -11.3250 H   0  0  0  0  0
  -41.5741   27.2021  -10.4749 H   0  0  0  0  0
  -41.0111   28.8727  -10.6508 H   0  0  0  0  0
  -41.9897   28.9745  -12.6832 H   0  0  0  0  0
  -42.4236   27.2005  -12.4978 H   0  0  0  0  0
  -40.2025   26.5512  -12.6980 H   0  0  0  0  0
  -39.5925   28.2082  -12.4228 H   0  0  0  0  0
  -42.2162   26.7433  -14.7380 H   0  0  0  0  0
  -42.2806   27.3453  -18.2655 H   0  0  0  0  0
  -39.5924   29.1810  -18.7161 H   0  0  0  0  0
  -38.5609   29.5077  -16.7476 H   0  0  0  0  0
  -38.5842   29.0310  -14.3232 H   0  0  0  0  0
  1  2  1  0  0  0
  2  3  4  0  0  0
  2  5  4  0  0  0
  3  4  4  0  0  0
  4  7  4  0  0  0
  5  6  4  0  0  0
  6  7  4  0  0  0
  7  8  1  0  0  0
  8  9  1  0  0  0
  9 10  1  0  0  0
 10 11  1  0  0  0
 10 12  1  0  0  0
 12 13  1  0  0  0
 13 14  1  0  0  0
 14 15  1  0  0  0
 15 16  4  0  0  0
 15 22  4  0  0  0
 16 17  4  0  0  0
 17 18  1  0  0  0
 17 19  4  0  0  0
 19 20  1  0  0  0
 19 21  4  0  0  0
 21 22  4  0  0  0
  1 23  1  0  0  0
  3 24  1  0  0  0
  4 25  1  0  0  0
  5 26  1  0  0  0
  6 27  1  0  0  0
  8 28  1  0  0  0
  8 29  1  0  0  0
  9 30  1  0  0  0
  9 31  1  0  0  0
 10 32  1  0  0  0
 11 33  1  0  0  0
 11 34  1  0  0  0
 11 35  1  0  0  0
 12 36  1  0  0  0
 12 37  1  0  0  0
 13 38  1  0  0  0
 13 39  1  0  0  0
 14 40  1  0  0  0
 14 41  1  0  0  0
 16 42  1  0  0  0
 18 43  1  0  0  0
 20 44  1  0  0  0
 21 45  1  0  0  0
 22 46  1  0  0  0
M  END
$$$$
