### 
### Created by X-TOOL on Mon Sep 10 21:13:29 2018
### 

@<TRIPOS>MOLECULE
4yjl_ligand
  200   203     1     0     0
SMALL
GAST_HUCK


@<TRIPOS>ATOM
      1 N           8.2230  -24.4350  -28.4810 N.4       1 PRO         0.2461
      2 CA          7.9180  -24.3460  -27.0560 C.3       1 PRO         0.0670
      3 C           7.7270  -22.8970  -26.6090 C.2       1 PRO         0.2268
      4 O           8.1760  -21.9820  -27.3020 O.2       1 PRO        -0.3907
      5 CB          9.1720  -24.9290  -26.3900 C.3       1 PRO         0.0127
      6 CG         10.0610  -25.4510  -27.5270 C.3       1 PRO        -0.0053
      7 CD          9.2210  -25.4770  -28.7610 C.3       1 PRO        -0.0313
      8 N           7.0620  -22.6950  -25.4720 N.am      1 ARG        -0.2610
      9 CA          7.0190  -21.3820  -24.8380 C.3       1 ARG         0.1312
     10 C           8.4390  -21.0020  -24.4320 C.2       1 ARG         0.2040
     11 O           9.2210  -21.8500  -24.0000 O.2       1 ARG        -0.3944
     12 CB          6.1260  -21.3760  -23.5830 C.3       1 ARG        -0.0092
     13 CG          4.6090  -21.3370  -23.8220 C.3       1 ARG        -0.0156
     14 CD          4.0340  -22.7380  -23.9440 C.3       1 ARG         0.0627
     15 NE          2.5700  -22.7780  -23.9340 N.pl3     1 ARG        -0.2723
     16 CZ          1.8400  -23.3370  -22.9720 C.cat     1 ARG         0.2882
     17 NH1         2.4250  -23.9180  -21.9320 N.pl3     1 ARG        -0.2849
     18 NH2         0.5210  -23.3220  -23.0490 N.pl3     1 ARG        -0.2849
     19 N           8.7720  -19.7280  -24.5880 N.am      1 ASP        -0.2622
     20 CA          9.9910  -19.1870  -24.0340 C.3       1 ASP         0.1423
     21 C           9.9090  -19.2010  -22.5090 C.2       1 ASP         0.2057
     22 O           8.8210  -19.1210  -21.9410 O.2       1 ASP        -0.3943
     23 CB         10.2080  -17.7600  -24.5410 C.3       1 ASP         0.0406
     24 CG         10.5180  -17.7100  -26.0300 C.2       1 ASP         0.0393
     25 OD1        11.0480  -18.7040  -26.5730 O.co2     1 ASP        -0.5688
     26 OD2        10.2260  -16.6780  -26.6620 O.co2     1 ASP        -0.5688
     27 N          11.0570  -19.3300  -21.8540 N.am      1 SER        -0.2615
     28 CA         11.1170  -19.1700  -20.4070 C.3       1 SER         0.1539
     29 C          11.7220  -17.8000  -20.0560 C.2       1 SER         0.2063
     30 O          12.2270  -17.0900  -20.9300 O.2       1 SER        -0.3943
     31 CB         11.9050  -20.3120  -19.7660 C.3       1 SER         0.0843
     32 OG         13.2120  -20.3610  -20.3000 O.3       1 SER        -0.3903
     33 N          11.6610  -17.4460  -18.7770 N.am      1 TYR        -0.2621
     34 CA         12.0110  -16.1030  -18.3050 C.3       1 TYR         0.1390
     35 C          12.7400  -16.2000  -16.9770 C.2       1 TYR         0.2058
     36 O          12.5760  -17.1770  -16.2450 O.2       1 TYR        -0.3942
     37 CB         10.7420  -15.2640  -18.1000 C.3       1 TYR         0.0163
     38 CG          9.8620  -15.1260  -19.3270 C.ar      1 TYR        -0.0493
     39 CD1         8.9180  -16.0960  -19.6470 C.ar      1 TYR        -0.0685
     40 CD2         9.9670  -14.0120  -20.1650 C.ar      1 TYR        -0.0685
     41 CE1         8.1140  -15.9740  -20.7770 C.ar      1 TYR        -0.0398
     42 CE2         9.1530  -13.8760  -21.2970 C.ar      1 TYR        -0.0398
     43 CZ          8.2370  -14.8610  -21.5980 C.ar      1 TYR         0.0805
     44 OH          7.4290  -14.7380  -22.7170 O.3       1 TYR        -0.3376
     45 N          13.5310  -15.1780  -16.6610 N.am      1 SER        -0.2614
     46 CA         14.1130  -15.0620  -15.3290 C.3       1 SER         0.1539
     47 C          13.2160  -14.2650  -14.3790 C.2       1 SER         0.2060
     48 O          13.4200  -14.2980  -13.1680 O.2       1 SER        -0.3943
     49 CB         15.5100  -14.4300  -15.3740 C.3       1 SER         0.0843
     50 OG         15.4570  -13.0420  -15.6600 O.3       1 SER        -0.3903
     51 N          12.2450  -13.5380  -14.9280 N.am      1 GLY        -0.2663
     52 CA         11.3610  -12.7030  -14.1020 C.3       1 GLY         0.1201
     53 C          12.0430  -11.4010  -13.6950 C.2       1 GLY         0.2008
     54 O          12.9070  -10.8910  -14.4280 O.2       1 GLY        -0.3947
     55 N          11.6570  -10.8670  -12.5340 N.am      1 ASP        -0.2624
     56 CA         12.2600   -9.6410  -11.9980 C.3       1 ASP         0.1423
     57 C          12.5570   -9.7560  -10.5010 C.2       1 ASP         0.2056
     58 O          12.1770  -10.7400   -9.8730 O.2       1 ASP        -0.3943
     59 CB         11.4110   -8.3960  -12.3440 C.3       1 ASP         0.0406
     60 CG         10.0630   -8.3360  -11.6000 C.2       1 ASP         0.0393
     61 OD1         9.6810   -9.2730  -10.8570 O.co2     1 ASP        -0.5688
     62 OD2         9.3610   -7.3190  -11.7770 O.co2     1 ASP        -0.5688
     63 N          13.2550   -8.7730   -9.9310 N.am      1 ALA        -0.2639
     64 CA         13.6350   -8.8540   -8.5230 C.3       1 ALA         0.1282
     65 C          14.0890   -7.5180   -7.9600 C.2       1 ALA         0.2036
     66 O          14.5100   -6.6310   -8.6940 O.2       1 ALA        -0.3944
     67 CB         14.7250   -9.9180   -8.3060 C.3       1 ALA        -0.0244
     68 N          13.9830   -7.3910   -6.6430 N.am      1 LEU        -0.2637
     69 CA         14.6830   -6.3430   -5.9070 C.3       1 LEU         0.1312
     70 C          16.1850   -6.5440   -6.1350 C.2       1 LEU         0.2040
     71 O          16.6220   -7.6540   -6.4680 O.2       1 LEU        -0.3944
     72 CB         14.3460   -6.4430   -4.4160 C.3       1 LEU        -0.0101
     73 CG         12.9150   -6.0660   -4.0070 C.3       1 LEU        -0.0425
     74 CD1        12.6650   -6.3970   -2.5300 C.3       1 LEU        -0.0625
     75 CD2        12.6100   -4.5850   -4.3080 C.3       1 LEU        -0.0625
     76 N          16.9670   -5.4830   -5.9760 N.am      1 TYR        -0.2621
     77 CA         18.4080   -5.5780   -6.1960 C.3       1 TYR         0.1390
     78 C          19.0900   -6.6000   -5.2760 C.2       1 TYR         0.2057
     79 O          18.8100   -6.6630   -4.0750 O.2       1 TYR        -0.3942
     80 CB         19.0990   -4.2040   -6.0920 C.3       1 TYR         0.0163
     81 CG         20.5830   -4.3240   -6.3370 C.ar      1 TYR        -0.0493
     82 CD1        21.0930   -4.4090   -7.6430 C.ar      1 TYR        -0.0685
     83 CD2        21.4740   -4.4330   -5.2680 C.ar      1 TYR        -0.0685
     84 CE1        22.4520   -4.5690   -7.8680 C.ar      1 TYR        -0.0398
     85 CE2        22.8310   -4.5870   -5.4850 C.ar      1 TYR        -0.0398
     86 CZ         23.3150   -4.6570   -6.7830 C.ar      1 TYR         0.0805
     87 OH         24.6640   -4.8050   -6.9760 O.3       1 TYR        -0.3376
     88 N          19.9790   -7.3990   -5.8610 N.am      1 GLU        -0.2635
     89 CA         20.8900   -8.2660   -5.1060 C.3       1 GLU         0.1324
     90 C          22.2750   -8.1950   -5.7390 C.2       1 GLU         0.2036
     91 O          22.3810   -8.1220   -6.9680 O.2       1 GLU        -0.3944
     92 CB         20.4240   -9.7250   -5.1320 C.3       1 GLU        -0.0008
     93 CG         18.9190   -9.9510   -5.2180 C.3       1 GLU         0.0044
     94 CD         18.5610  -11.4240   -5.3080 C.2       1 GLU         0.0350
     95 OE1        17.6330  -11.7610   -6.0790 O.co2     1 GLU        -0.5690
     96 OE2        19.2070  -12.2450   -4.6100 O.co2     1 GLU        -0.5690
     97 N          23.3340   -8.2130   -4.9260 N.am      1 PHE        -0.2677
     98 CA         24.6610   -8.2430   -5.5270 C.3       1 PHE         0.1039
     99 C          24.9920   -9.6230   -6.0650 C.2       1 PHE         0.0621
    100 O          24.7770  -10.6450   -5.4210 O.co2     1 PHE        -0.5664
    101 CB         25.7690   -7.7640   -4.6020 C.3       1 PHE         0.0159
    102 CG         27.1260   -7.8080   -5.2470 C.ar      1 PHE        -0.0392
    103 CD1        27.3390   -7.1800   -6.4660 C.ar      1 PHE        -0.0602
    104 CD2        28.1720   -8.4980   -4.6610 C.ar      1 PHE        -0.0602
    105 CE1        28.5700   -7.2220   -7.0760 C.ar      1 PHE        -0.0686
    106 CE2        29.4110   -8.5420   -5.2670 C.ar      1 PHE        -0.0686
    107 CZ         29.6110   -7.9030   -6.4770 C.ar      1 PHE        -0.0687
    108 OXT        25.4920   -9.7910   -7.1730 O.co2     1 PHE        -0.5664
    109 H1          8.5821  -23.5467  -28.7940 H         1 PRO         0.2035
    110 H2          7.3761  -24.6509  -28.9832 H         1 PRO         0.2035
    111 H3          7.0214  -24.9329  -26.8075 H         1 PRO         0.1099
    112 H4          8.8965  -25.7517  -25.7138 H         1 PRO         0.0347
    113 H5          9.6994  -24.1484  -25.8221 H         1 PRO         0.0347
    114 H6         10.4186  -26.4644  -27.2921 H         1 PRO         0.0320
    115 H7         10.9224  -24.7822  -27.6705 H         1 PRO         0.0320
    116 H8          9.8154  -25.2302  -29.6530 H         1 PRO         0.0814
    117 H9          8.7444  -26.4589  -28.8981 H         1 PRO         0.0814
    118 H10         6.5818  -23.4606  -25.0439 H         1 ARG         0.1884
    119 H11         6.6292  -20.6474  -25.5579 H         1 ARG         0.0800
    120 H12         6.3933  -20.4911  -22.9867 H         1 ARG         0.0313
    121 H13         6.3506  -22.2868  -23.0085 H         1 ARG         0.0313
    122 H14         4.4066  -20.7843  -24.7513 H         1 ARG         0.0301
    123 H15         4.1261  -20.8237  -22.9774 H         1 ARG         0.0301
    124 H16         4.4033  -23.3394  -23.1002 H         1 ARG         0.0689
    125 H17         4.3866  -23.1767  -24.8891 H         1 ARG         0.0689
    126 H18         2.0721  -22.3444  -24.7245 H         1 ARG         0.2642
    127 H19         1.8514  -24.3480  -21.1924 H         1 ARG         0.2615
    128 H20         3.4526  -23.9389  -21.8645 H         1 ARG         0.2615
    129 H21         0.0571  -22.8737  -23.8519 H         1 ARG         0.2615
    130 H22        -0.0432  -23.7586  -22.3061 H         1 ARG         0.2615
    131 H23         8.1625  -19.1255  -25.1032 H         1 ASP         0.1884
    132 H24        10.8387  -19.8113  -24.3529 H         1 ASP         0.0819
    133 H25        11.0497  -17.3145  -23.9906 H         1 ASP         0.0478
    134 H26         9.2955  -17.1758  -24.3512 H         1 ASP         0.0478
    135 H27        11.8927  -19.5401  -22.3614 H         1 SER         0.1884
    136 H28        10.0905  -19.2027  -20.0130 H         1 SER         0.0823
    137 H29        11.3938  -21.2648  -19.9680 H         1 SER         0.0606
    138 H30        11.9620  -20.1495  -18.6796 H         1 SER         0.0606
    139 H31        13.6919  -21.0737  -19.8948 H         1 SER         0.2097
    140 H32        11.3632  -18.1257  -18.1067 H         1 TYR         0.1885
    141 H33        12.6589  -15.6146  -19.0477 H         1 TYR         0.0821
    142 H34        11.0466  -14.2557  -17.7831 H         1 TYR         0.0453
    143 H35        10.1464  -15.7344  -17.3037 H         1 TYR         0.0453
    144 H36         8.8063  -16.9624  -19.0052 H         1 TYR         0.0530
    145 H37        10.6915  -13.2393  -19.9347 H         1 TYR         0.0530
    146 H38         7.3927  -16.7472  -21.0157 H         1 TYR         0.0525
    147 H39         9.2429  -13.0020  -21.9319 H         1 TYR         0.0525
    148 H40         6.8592  -15.4956  -22.7796 H         1 TYR         0.2458
    149 H41        13.7295  -14.4785  -17.3476 H         1 SER         0.1884
    150 H42        14.2146  -16.0793  -14.9231 H         1 SER         0.0823
    151 H43        16.1013  -14.9309  -16.1547 H         1 SER         0.0606
    152 H44        15.9959  -14.5729  -14.3976 H         1 SER         0.0606
    153 H45        16.3391  -12.6898  -15.6789 H         1 SER         0.2097
    154 H46        12.1148  -13.5604  -15.9192 H         1 GLY         0.1881
    155 H47        11.0863  -13.2615  -13.1950 H         1 GLY         0.0763
    156 H48        10.4530  -12.4667  -14.6762 H         1 GLY         0.0763
    157 H49        10.9327  -11.3174  -12.0120 H         1 ASP         0.1884
    158 H50        13.2291   -9.5142  -12.5027 H         1 ASP         0.0819
    159 H51        11.2101   -8.4028  -13.4255 H         1 ASP         0.0478
    160 H52        11.9906   -7.4979  -12.0843 H         1 ASP         0.0478
    161 H53        13.5202   -7.9746  -10.4715 H         1 ALA         0.1883
    162 H54        12.7429   -9.1650   -7.9597 H         1 ALA         0.0797
    163 H55        14.9915   -9.9576   -7.2395 H         1 ALA         0.0277
    164 H56        15.6153   -9.6568   -8.8969 H         1 ALA         0.0277
    165 H57        14.3475  -10.9003   -8.6263 H         1 ALA         0.0277
    166 H58        13.4055   -8.0335   -6.1394 H         1 LEU         0.1883
    167 H59        14.3792   -5.3548   -6.2826 H         1 LEU         0.0800
    168 H60        15.0341   -5.7783   -3.8732 H         1 LEU         0.0315
    169 H61        14.5189   -7.4836   -4.1040 H         1 LEU         0.0315
    170 H62        12.2246   -6.6758   -4.6082 H         1 LEU         0.0298
    171 H63        11.6354   -6.1186   -2.2611 H         1 LEU         0.0232
    172 H64        13.3725   -5.8343   -1.9033 H         1 LEU         0.0232
    173 H65        12.8078   -7.4754   -2.3666 H         1 LEU         0.0232
    174 H66        12.7988   -4.3808   -5.3723 H         1 LEU         0.0232
    175 H67        13.2576   -3.9445   -3.6913 H         1 LEU         0.0232
    176 H68        11.5560   -4.3730   -4.0753 H         1 LEU         0.0232
    177 H69        16.5651   -4.6091   -5.7026 H         1 TYR         0.1885
    178 H70        18.5470   -5.9332   -7.2277 H         1 TYR         0.0821
    179 H71        18.9329   -3.7933   -5.0852 H         1 TYR         0.0453
    180 H72        18.6647   -3.5255   -6.8410 H         1 TYR         0.0453
    181 H73        20.4150   -4.3487   -8.4866 H         1 TYR         0.0530
    182 H74        21.0965   -4.3964   -4.2525 H         1 TYR         0.0530
    183 H75        22.8368   -4.6248   -8.8799 H         1 TYR         0.0525
    184 H76        23.5130   -4.6527   -4.6450 H         1 TYR         0.0525
    185 H77        24.8478   -4.8376   -7.9075 H         1 TYR         0.2458
    186 H78        20.0282   -7.4088   -6.8597 H         1 GLU         0.1883
    187 H79        20.9384   -7.9186   -4.0634 H         1 GLU         0.0801
    188 H80        20.7835  -10.2083   -4.2116 H         1 GLU         0.0330
    189 H81        20.8861  -10.2091   -6.0050 H         1 GLU         0.0330
    190 H82        18.5350   -9.4385   -6.1123 H         1 GLU         0.0433
    191 H83        18.4458   -9.5263   -4.3204 H         1 GLU         0.0433
    192 H84        23.2196   -8.2061   -3.9326 H         1 PHE         0.1877
    193 H85        24.6364   -7.5520   -6.3825 H         1 PHE         0.0749
    194 H86        25.7834   -8.4061   -3.7090 H         1 PHE         0.0467
    195 H87        25.5548   -6.7269   -4.3046 H         1 PHE         0.0467
    196 H88        26.5235   -6.6491   -6.9436 H         1 PHE         0.0557
    197 H89        28.0170   -9.0086   -3.7174 H         1 PHE         0.0557
    198 H90        28.7232   -6.7215   -8.0253 H         1 PHE         0.0599
    199 H91        30.2270   -9.0771   -4.7949 H         1 PHE         0.0599
    200 H92        30.5836   -7.9367   -6.9545 H         1 PHE         0.0559
@<TRIPOS>BOND
     1    1    2 1  
     2    1    7 1  
     3    2    3 1  
     4    2    5 1  
     5    3    4 2  
     6    3    8 am 
     7    5    6 1  
     8    6    7 1  
     9    8    9 1  
    10    9   10 1  
    11    9   12 1  
    12   10   11 2  
    13   10   19 am 
    14   12   13 1  
    15   13   14 1  
    16   14   15 1  
    17   15   16 ar 
    18   16   17 ar 
    19   16   18 ar 
    20   19   20 1  
    21   20   21 1  
    22   20   23 1  
    23   21   22 2  
    24   21   27 am 
    25   23   24 1  
    26   24   25 ar 
    27   24   26 ar 
    28   27   28 1  
    29   28   29 1  
    30   28   31 1  
    31   29   30 2  
    32   29   33 am 
    33   31   32 1  
    34   33   34 1  
    35   34   35 1  
    36   34   37 1  
    37   35   36 2  
    38   35   45 am 
    39   37   38 1  
    40   38   39 ar 
    41   38   40 ar 
    42   39   41 ar 
    43   40   42 ar 
    44   41   43 ar 
    45   42   43 ar 
    46   43   44 1  
    47   45   46 1  
    48   46   47 1  
    49   46   49 1  
    50   47   48 2  
    51   47   51 am 
    52   49   50 1  
    53   51   52 1  
    54   52   53 1  
    55   53   54 2  
    56   53   55 am 
    57   55   56 1  
    58   56   57 1  
    59   56   59 1  
    60   57   58 2  
    61   57   63 am 
    62   59   60 1  
    63   60   61 ar 
    64   60   62 ar 
    65   63   64 1  
    66   64   65 1  
    67   64   67 1  
    68   65   66 2  
    69   65   68 am 
    70   68   69 1  
    71   69   70 1  
    72   69   72 1  
    73   70   71 2  
    74   70   76 am 
    75   72   73 1  
    76   73   74 1  
    77   73   75 1  
    78   76   77 1  
    79   77   78 1  
    80   77   80 1  
    81   78   79 2  
    82   78   88 am 
    83   80   81 1  
    84   81   82 ar 
    85   81   83 ar 
    86   82   84 ar 
    87   83   85 ar 
    88   84   86 ar 
    89   85   86 ar 
    90   86   87 1  
    91   88   89 1  
    92   89   90 1  
    93   89   92 1  
    94   90   91 2  
    95   90   97 am 
    96   92   93 1  
    97   93   94 1  
    98   94   95 ar 
    99   94   96 ar 
   100   97   98 1  
   101   98   99 1  
   102   98  101 1  
   103   99  100 ar 
   104   99  108 ar 
   105  101  102 1  
   106  102  103 ar 
   107  102  104 ar 
   108  103  105 ar 
   109  104  106 ar 
   110  105  107 ar 
   111  106  107 ar 
   112    1  109 1  
   113    1  110 1  
   114    2  111 1  
   115    5  112 1  
   116    5  113 1  
   117    6  114 1  
   118    6  115 1  
   119    7  116 1  
   120    7  117 1  
   121    8  118 1  
   122    9  119 1  
   123   12  120 1  
   124   12  121 1  
   125   13  122 1  
   126   13  123 1  
   127   14  124 1  
   128   14  125 1  
   129   15  126 1  
   130   17  127 1  
   131   17  128 1  
   132   18  129 1  
   133   18  130 1  
   134   19  131 1  
   135   20  132 1  
   136   23  133 1  
   137   23  134 1  
   138   27  135 1  
   139   28  136 1  
   140   31  137 1  
   141   31  138 1  
   142   32  139 1  
   143   33  140 1  
   144   34  141 1  
   145   37  142 1  
   146   37  143 1  
   147   39  144 1  
   148   40  145 1  
   149   41  146 1  
   150   42  147 1  
   151   44  148 1  
   152   45  149 1  
   153   46  150 1  
   154   49  151 1  
   155   49  152 1  
   156   50  153 1  
   157   51  154 1  
   158   52  155 1  
   159   52  156 1  
   160   55  157 1  
   161   56  158 1  
   162   59  159 1  
   163   59  160 1  
   164   63  161 1  
   165   64  162 1  
   166   67  163 1  
   167   67  164 1  
   168   67  165 1  
   169   68  166 1  
   170   69  167 1  
   171   72  168 1  
   172   72  169 1  
   173   73  170 1  
   174   74  171 1  
   175   74  172 1  
   176   74  173 1  
   177   75  174 1  
   178   75  175 1  
   179   75  176 1  
   180   76  177 1  
   181   77  178 1  
   182   80  179 1  
   183   80  180 1  
   184   82  181 1  
   185   83  182 1  
   186   84  183 1  
   187   85  184 1  
   188   87  185 1  
   189   88  186 1  
   190   89  187 1  
   191   92  188 1  
   192   92  189 1  
   193   93  190 1  
   194   93  191 1  
   195   97  192 1  
   196   98  193 1  
   197  101  194 1  
   198  101  195 1  
   199  103  196 1  
   200  104  197 1  
   201  105  198 1  
   202  106  199 1  
   203  107  200 1  
@<TRIPOS>SUBSTRUCTURE
     1 PRO         1

