4yjl_ligand
  -I-interpret- 

203206  0  0  0  0  0  0  0  0999 V2000
    8.2230  -24.4350  -28.4810 N   0  3  0  0  0
    7.9180  -24.3460  -27.0560 C   0  0  0  0  0
    7.7270  -22.8970  -26.6090 C   0  0  0  0  0
    8.1760  -21.9820  -27.3020 O   0  0  0  0  0
    9.1720  -24.9290  -26.3900 C   0  0  0  0  0
   10.0610  -25.4510  -27.5270 C   0  0  0  0  0
    9.2210  -25.4770  -28.7610 C   0  0  0  0  0
    7.0620  -22.6950  -25.4720 N   0  0  0  0  0
    7.0190  -21.3820  -24.8380 C   0  0  0  0  0
    8.4390  -21.0020  -24.4320 C   0  0  0  0  0
    9.2210  -21.8500  -24.0000 O   0  0  0  0  0
    6.1260  -21.3760  -23.5830 C   0  0  0  0  0
    4.6090  -21.3370  -23.8220 C   0  0  0  0  0
    4.0340  -22.7380  -23.9440 C   0  0  0  0  0
    2.5700  -22.7780  -23.9340 N   0  0  0  0  0
    1.8400  -23.3370  -22.9720 C   0  0  0  0  0
    2.4250  -23.9180  -21.9320 N   0  0  0  0  0
    0.5210  -23.3220  -23.0490 N   0  0  0  0  0
    8.7720  -19.7280  -24.5880 N   0  0  0  0  0
    9.9910  -19.1870  -24.0340 C   0  0  0  0  0
    9.9090  -19.2010  -22.5090 C   0  0  0  0  0
    8.8210  -19.1210  -21.9410 O   0  0  0  0  0
   10.2080  -17.7600  -24.5410 C   0  0  0  0  0
   10.5180  -17.7100  -26.0300 C   0  0  0  0  0
   11.0480  -18.7040  -26.5730 O   0  0  0  0  0
   10.2260  -16.6780  -26.6620 O   0  0  0  0  0
   11.0570  -19.3300  -21.8540 N   0  0  0  0  0
   11.1170  -19.1700  -20.4070 C   0  0  0  0  0
   11.7220  -17.8000  -20.0560 C   0  0  0  0  0
   12.2270  -17.0900  -20.9300 O   0  0  0  0  0
   11.9050  -20.3120  -19.7660 C   0  0  0  0  0
   13.2120  -20.3610  -20.3000 O   0  0  0  0  0
   11.6610  -17.4460  -18.7770 N   0  0  0  0  0
   12.0110  -16.1030  -18.3050 C   0  0  0  0  0
   12.7400  -16.2000  -16.9770 C   0  0  0  0  0
   12.5760  -17.1770  -16.2450 O   0  0  0  0  0
   10.7420  -15.2640  -18.1000 C   0  0  0  0  0
    9.8620  -15.1260  -19.3270 C   0  0  0  0  0
    8.9180  -16.0960  -19.6470 C   0  0  0  0  0
    9.9670  -14.0120  -20.1650 C   0  0  0  0  0
    8.1140  -15.9740  -20.7770 C   0  0  0  0  0
    9.1530  -13.8760  -21.2970 C   0  0  0  0  0
    8.2370  -14.8610  -21.5980 C   0  0  0  0  0
    7.4290  -14.7380  -22.7170 O   0  0  0  0  0
   13.5310  -15.1780  -16.6610 N   0  0  0  0  0
   14.1130  -15.0620  -15.3290 C   0  0  0  0  0
   13.2160  -14.2650  -14.3790 C   0  0  0  0  0
   13.4200  -14.2980  -13.1680 O   0  0  0  0  0
   15.5100  -14.4300  -15.3740 C   0  0  0  0  0
   15.4570  -13.0420  -15.6600 O   0  0  0  0  0
   12.2450  -13.5380  -14.9280 N   0  0  0  0  0
   11.3610  -12.7030  -14.1020 C   0  0  0  0  0
   12.0430  -11.4010  -13.6950 C   0  0  0  0  0
   12.9070  -10.8910  -14.4280 O   0  0  0  0  0
   11.6570  -10.8670  -12.5340 N   0  0  0  0  0
   12.2600   -9.6410  -11.9980 C   0  0  0  0  0
   12.5570   -9.7560  -10.5010 C   0  0  0  0  0
   12.1770  -10.7400   -9.8730 O   0  0  0  0  0
   11.4110   -8.3960  -12.3440 C   0  0  0  0  0
   10.0630   -8.3360  -11.6000 C   0  0  0  0  0
    9.6810   -9.2730  -10.8570 O   0  0  0  0  0
    9.3610   -7.3190  -11.7770 O   0  0  0  0  0
   13.2550   -8.7730   -9.9310 N   0  0  0  0  0
   13.6350   -8.8540   -8.5230 C   0  0  0  0  0
   14.0890   -7.5180   -7.9600 C   0  0  0  0  0
   14.5100   -6.6310   -8.6940 O   0  0  0  0  0
   14.7250   -9.9180   -8.3060 C   0  0  0  0  0
   13.9830   -7.3910   -6.6430 N   0  0  0  0  0
   14.6830   -6.3430   -5.9070 C   0  0  0  0  0
   16.1850   -6.5440   -6.1350 C   0  0  0  0  0
   16.6220   -7.6540   -6.4680 O   0  0  0  0  0
   14.3460   -6.4430   -4.4160 C   0  0  0  0  0
   12.9150   -6.0660   -4.0070 C   0  0  0  0  0
   12.6650   -6.3970   -2.5300 C   0  0  0  0  0
   12.6100   -4.5850   -4.3080 C   0  0  0  0  0
   16.9670   -5.4830   -5.9760 N   0  0  0  0  0
   18.4080   -5.5780   -6.1960 C   0  0  0  0  0
   19.0900   -6.6000   -5.2760 C   0  0  0  0  0
   18.8100   -6.6630   -4.0750 O   0  0  0  0  0
   19.0990   -4.2040   -6.0920 C   0  0  0  0  0
   20.5830   -4.3240   -6.3370 C   0  0  0  0  0
   21.0930   -4.4090   -7.6430 C   0  0  0  0  0
   21.4740   -4.4330   -5.2680 C   0  0  0  0  0
   22.4520   -4.5690   -7.8680 C   0  0  0  0  0
   22.8310   -4.5870   -5.4850 C   0  0  0  0  0
   23.3150   -4.6570   -6.7830 C   0  0  0  0  0
   24.6640   -4.8050   -6.9760 O   0  0  0  0  0
   19.9790   -7.3990   -5.8610 N   0  0  0  0  0
   20.8900   -8.2660   -5.1060 C   0  0  0  0  0
   22.2750   -8.1950   -5.7390 C   0  0  0  0  0
   22.3810   -8.1220   -6.9680 O   0  0  0  0  0
   20.4240   -9.7250   -5.1320 C   0  0  0  0  0
   18.9190   -9.9510   -5.2180 C   0  0  0  0  0
   18.5610  -11.4240   -5.3080 C   0  0  0  0  0
   17.6330  -11.7610   -6.0790 O   0  0  0  0  0
   19.2070  -12.2450   -4.6100 O   0  0  0  0  0
   23.3340   -8.2130   -4.9260 N   0  0  0  0  0
   24.6610   -8.2430   -5.5270 C   0  0  0  0  0
   24.9920   -9.6230   -6.0650 C   0  0  0  0  0
   24.7770  -10.6450   -5.4210 O   0  0  0  0  0
   25.7690   -7.7640   -4.6020 C   0  0  0  0  0
   27.1260   -7.8080   -5.2470 C   0  0  0  0  0
   27.3390   -7.1800   -6.4660 C   0  0  0  0  0
   28.1720   -8.4980   -4.6610 C   0  0  0  0  0
   28.5700   -7.2220   -7.0760 C   0  0  0  0  0
   29.4110   -8.5420   -5.2670 C   0  0  0  0  0
   29.6110   -7.9030   -6.4770 C   0  0  0  0  0
   25.4920   -9.7910   -7.1730 O   0  0  0  0  0
    8.6020  -23.5380  -28.7846 H   0  0  0  0  0
    7.3645  -24.6710  -28.9787 H   0  0  0  0  0
    6.9948  -24.8659  -26.8001 H   0  0  0  0  0
    8.9117  -25.7292  -25.6972 H   0  0  0  0  0
    9.6915  -24.1721  -25.8024 H   0  0  0  0  0
   10.4376  -26.4474  -27.2957 H   0  0  0  0  0
   10.9291  -24.8063  -27.6649 H   0  0  0  0  0
    9.7904  -25.2924  -29.6719 H   0  0  0  0  0
    8.7785  -26.4533  -28.9586 H   0  0  0  0  0
    6.5722  -23.4759  -25.0353 H   0  0  0  0  0
    6.6000  -20.6701  -25.5491 H   0  0  0  0  0
    6.3703  -20.4613  -23.0429 H   0  0  0  0  0
    6.3262  -22.3142  -23.0654 H   0  0  0  0  0
    4.4176  -20.8009  -24.7515 H   0  0  0  0  0
    4.1366  -20.8403  -22.9745 H   0  0  0  0  0
    4.3810  -23.3083  -23.0824 H   0  0  0  0  0
    4.3641  -23.1430  -24.9006 H   0  0  0  0  0
    2.0769  -22.3486  -24.7169 H   0  0  0  0  0
    1.8571  -24.3475  -21.2017 H   0  0  0  0  0
    3.4425  -23.9350  -21.8630 H   0  0  0  0  0
    0.0616  -22.8817  -23.8462 H   0  0  0  0  0
    8.1503  -19.1134  -25.1136 H   0  0  0  0  0
   10.8350  -19.7999  -24.3505 H   0  0  0  0  0
   11.0597  -17.3395  -24.0063 H   0  0  0  0  0
    9.2888  -17.1996  -24.3703 H   0  0  0  0  0
   11.1902  -19.3886  -25.9153 H   0  0  0  0  0
   11.9094  -19.5443  -22.3716 H   0  0  0  0  0
   10.1050  -19.2092  -20.0040 H   0  0  0  0  0
   11.3991  -21.2552  -19.9724 H   0  0  0  0  0
   11.9645  -20.1455  -18.6904 H   0  0  0  0  0
   13.6970  -21.0812  -19.8905 H   0  0  0  0  0
   11.3572  -18.1393  -18.0932 H   0  0  0  0  0
   12.6484  -15.6309  -19.0526 H   0  0  0  0  0
   11.0683  -14.2593  -17.8314 H   0  0  0  0  0
   10.1472  -15.7722  -17.3410 H   0  0  0  0  0
    8.8057  -16.9672  -19.0016 H   0  0  0  0  0
   10.6955  -13.2350  -19.9334 H   0  0  0  0  0
    7.3887  -16.7514  -21.0170 H   0  0  0  0  0
    9.2434  -12.9972  -21.9354 H   0  0  0  0  0
    7.6379  -13.9193  -23.1727 H   0  0  0  0  0
   13.7335  -14.4646  -17.3613 H   0  0  0  0  0
   14.2018  -16.0784  -14.9454 H   0  0  0  0  0
   16.0797  -14.9190  -16.1642 H   0  0  0  0  0
   15.9737  -14.5587  -14.3960 H   0  0  0  0  0
   16.3484  -12.6861  -15.6791 H   0  0  0  0  0
   12.1122  -13.5608  -15.9391 H   0  0  0  0  0
   11.1071  -13.2573  -13.1984 H   0  0  0  0  0
   10.4720  -12.4601  -14.6840 H   0  0  0  0  0
   10.9182  -11.3265  -12.0016 H   0  0  0  0  0
   13.2246   -9.5084  -12.4880 H   0  0  0  0  0
   11.1918   -8.4384  -13.4109 H   0  0  0  0  0
   11.9853   -7.5183  -12.0473 H   0  0  0  0  0
   10.3486   -9.9628  -10.8449 H   0  0  0  0  0
   13.5255   -7.9586  -10.4823 H   0  0  0  0  0
   12.7368   -9.1465   -7.9792 H   0  0  0  0  0
   14.3498  -10.8908   -8.6238 H   0  0  0  0  0
   15.6065   -9.6580   -8.8921 H   0  0  0  0  0
   14.9882   -9.9563   -7.2490 H   0  0  0  0  0
   13.3939   -8.0463   -6.1293 H   0  0  0  0  0
   14.3799   -5.3548   -6.2530 H   0  0  0  0  0
   15.0001   -5.7318   -3.9115 H   0  0  0  0  0
   14.4680   -7.4930   -4.1499 H   0  0  0  0  0
   12.2302   -6.6645   -4.6077 H   0  0  0  0  0
   12.8068   -7.4657   -2.3694 H   0  0  0  0  0
   13.3667   -5.8389   -1.9101 H   0  0  0  0  0
   11.6445   -6.1207   -2.2647 H   0  0  0  0  0
   13.3044   -3.9527   -3.7548 H   0  0  0  0  0
   12.7225   -4.4021   -5.3766 H   0  0  0  0  0
   11.5882   -4.3569   -4.0046 H   0  0  0  0  0
   16.5571   -4.5916   -5.6971 H   0  0  0  0  0
   18.5252   -5.9409   -7.2171 H   0  0  0  0  0
   18.9415   -3.8088   -5.0884 H   0  0  0  0  0
   18.6731   -3.5409   -6.8450 H   0  0  0  0  0
   20.4112   -4.3484   -8.4913 H   0  0  0  0  0
   21.0944   -4.3962   -4.2469 H   0  0  0  0  0
   22.8389   -4.6251   -8.8855 H   0  0  0  0  0
   23.5168   -4.6530   -4.6404 H   0  0  0  0  0
   25.1051   -4.8483   -6.1244 H   0  0  0  0  0
   20.0291   -7.4090   -6.8797 H   0  0  0  0  0
   20.9083   -7.9222   -4.0718 H   0  0  0  0  0
   20.7434  -10.1629   -4.1863 H   0  0  0  0  0
   20.8492  -10.1637   -6.0347 H   0  0  0  0  0
   18.5544   -9.4589   -6.1196 H   0  0  0  0  0
   18.4644   -9.5474   -4.3133 H   0  0  0  0  0
   19.8680  -11.7757   -4.0958 H   0  0  0  0  0
   23.2173   -8.2059   -3.9127 H   0  0  0  0  0
   24.6165   -7.5323   -6.3523 H   0  0  0  0  0
   25.7896   -8.4251   -3.7356 H   0  0  0  0  0
   25.5585   -6.7277   -4.3377 H   0  0  0  0  0
   26.5190   -6.6462   -6.9463 H   0  0  0  0  0
   28.0162   -9.0115   -3.7122 H   0  0  0  0  0
   28.7240   -6.7188   -8.0305 H   0  0  0  0  0
   30.2315   -9.0801   -4.7923 H   0  0  0  0  0
   30.5890   -7.9369   -6.9571 H   0  0  0  0  0
   25.6214   -8.9394   -7.5969 H   0  0  0  0  0
  1  2  1  0  0  0
  1  7  1  0  0  0
  2  3  1  0  0  0
  2  5  1  0  0  0
  3  4  2  0  0  0
  3  8  1  0  0  0
  5  6  1  0  0  0
  6  7  1  0  0  0
  8  9  1  0  0  0
  9 10  1  0  0  0
  9 12  1  0  0  0
 10 11  2  0  0  0
 10 19  1  0  0  0
 12 13  1  0  0  0
 13 14  1  0  0  0
 14 15  1  0  0  0
 15 16  1  0  0  0
 16 17  1  0  0  0
 16 18  2  0  0  0
 19 20  1  0  0  0
 20 21  1  0  0  0
 20 23  1  0  0  0
 21 22  2  0  0  0
 21 27  1  0  0  0
 23 24  1  0  0  0
 24 25  1  0  0  0
 24 26  2  0  0  0
 27 28  1  0  0  0
 28 29  1  0  0  0
 28 31  1  0  0  0
 29 30  2  0  0  0
 29 33  1  0  0  0
 31 32  1  0  0  0
 33 34  1  0  0  0
 34 35  1  0  0  0
 34 37  1  0  0  0
 35 36  2  0  0  0
 35 45  1  0  0  0
 37 38  1  0  0  0
 38 39  4  0  0  0
 38 40  4  0  0  0
 39 41  4  0  0  0
 40 42  4  0  0  0
 41 43  4  0  0  0
 42 43  4  0  0  0
 43 44  1  0  0  0
 45 46  1  0  0  0
 46 47  1  0  0  0
 46 49  1  0  0  0
 47 48  2  0  0  0
 47 51  1  0  0  0
 49 50  1  0  0  0
 51 52  1  0  0  0
 52 53  1  0  0  0
 53 54  2  0  0  0
 53 55  1  0  0  0
 55 56  1  0  0  0
 56 57  1  0  0  0
 56 59  1  0  0  0
 57 58  2  0  0  0
 57 63  1  0  0  0
 59 60  1  0  0  0
 60 61  1  0  0  0
 60 62  2  0  0  0
 63 64  1  0  0  0
 64 65  1  0  0  0
 64 67  1  0  0  0
 65 66  2  0  0  0
 65 68  1  0  0  0
 68 69  1  0  0  0
 69 70  1  0  0  0
 69 72  1  0  0  0
 70 71  2  0  0  0
 70 76  1  0  0  0
 72 73  1  0  0  0
 73 74  1  0  0  0
 73 75  1  0  0  0
 76 77  1  0  0  0
 77 78  1  0  0  0
 77 80  1  0  0  0
 78 79  2  0  0  0
 78 88  1  0  0  0
 80 81  1  0  0  0
 81 82  4  0  0  0
 81 83  4  0  0  0
 82 84  4  0  0  0
 83 85  4  0  0  0
 84 86  4  0  0  0
 85 86  4  0  0  0
 86 87  1  0  0  0
 88 89  1  0  0  0
 89 90  1  0  0  0
 89 92  1  0  0  0
 90 91  2  0  0  0
 90 97  1  0  0  0
 92 93  1  0  0  0
 93 94  1  0  0  0
 94 95  2  0  0  0
 94 96  1  0  0  0
 97 98  1  0  0  0
 98 99  1  0  0  0
 98101  1  0  0  0
 99100  2  0  0  0
 99108  1  0  0  0
101102  1  0  0  0
102103  4  0  0  0
102104  4  0  0  0
103105  4  0  0  0
104106  4  0  0  0
105107  4  0  0  0
106107  4  0  0  0
  1109  1  0  0  0
  1110  1  0  0  0
  2111  1  0  0  0
  5112  1  0  0  0
  5113  1  0  0  0
  6114  1  0  0  0
  6115  1  0  0  0
  7116  1  0  0  0
  7117  1  0  0  0
  8118  1  0  0  0
  9119  1  0  0  0
 12120  1  0  0  0
 12121  1  0  0  0
 13122  1  0  0  0
 13123  1  0  0  0
 14124  1  0  0  0
 14125  1  0  0  0
 15126  1  0  0  0
 17127  1  0  0  0
 17128  1  0  0  0
 18129  1  0  0  0
 19130  1  0  0  0
 20131  1  0  0  0
 23132  1  0  0  0
 23133  1  0  0  0
 25134  1  0  0  0
 27135  1  0  0  0
 28136  1  0  0  0
 31137  1  0  0  0
 31138  1  0  0  0
 32139  1  0  0  0
 33140  1  0  0  0
 34141  1  0  0  0
 37142  1  0  0  0
 37143  1  0  0  0
 39144  1  0  0  0
 40145  1  0  0  0
 41146  1  0  0  0
 42147  1  0  0  0
 44148  1  0  0  0
 45149  1  0  0  0
 46150  1  0  0  0
 49151  1  0  0  0
 49152  1  0  0  0
 50153  1  0  0  0
 51154  1  0  0  0
 52155  1  0  0  0
 52156  1  0  0  0
 55157  1  0  0  0
 56158  1  0  0  0
 59159  1  0  0  0
 59160  1  0  0  0
 61161  1  0  0  0
 63162  1  0  0  0
 64163  1  0  0  0
 67164  1  0  0  0
 67165  1  0  0  0
 67166  1  0  0  0
 68167  1  0  0  0
 69168  1  0  0  0
 72169  1  0  0  0
 72170  1  0  0  0
 73171  1  0  0  0
 74172  1  0  0  0
 74173  1  0  0  0
 74174  1  0  0  0
 75175  1  0  0  0
 75176  1  0  0  0
 75177  1  0  0  0
 76178  1  0  0  0
 77179  1  0  0  0
 80180  1  0  0  0
 80181  1  0  0  0
 82182  1  0  0  0
 83183  1  0  0  0
 84184  1  0  0  0
 85185  1  0  0  0
 87186  1  0  0  0
 88187  1  0  0  0
 89188  1  0  0  0
 92189  1  0  0  0
 92190  1  0  0  0
 93191  1  0  0  0
 93192  1  0  0  0
 96193  1  0  0  0
 97194  1  0  0  0
 98195  1  0  0  0
101196  1  0  0  0
101197  1  0  0  0
103198  1  0  0  0
104199  1  0  0  0
105200  1  0  0  0
106201  1  0  0  0
107202  1  0  0  0
108203  1  0  0  0
M  END
$$$$
