3l0k_ligand
  -I-interpret- 

 41 42  0  0  0  0  0  0  0  0999 V2000
   27.2930  -10.7730   13.7680 O   0  0  0  0  0
   26.2690  -11.0760   14.8420 P   0  0  0  0  0
   25.0380  -11.7150   14.3130 O   0  0  0  0  0
   26.9060  -11.8150   15.9800 O   0  0  0  0  0
   25.8970   -9.6760   15.5360 O   0  0  0  0  0
   25.0770   -8.7090   14.8900 C   0  0  0  0  0
   25.0710   -7.4640   15.7860 C   0  0  0  0  0
   24.2560   -7.6510   17.0510 C   0  0  0  0  0
   22.9130   -7.0770   16.6780 C   0  0  0  0  0
   22.2360   -6.5950   17.8250 O   0  0  0  0  0
   23.2730   -5.9870   15.6600 C   0  0  0  0  0
   24.5220   -6.3380   15.0870 O   0  0  0  0  0
   22.2770   -5.7520   14.5990 N   0  0  0  0  0
   21.6650   -4.4770   14.4270 C   0  0  0  0  0
   22.4430   -3.2290   14.5500 C   0  0  0  0  0
   23.9050   -3.2730   14.4800 C   0  0  0  0  0
   21.8140   -2.0880   14.6520 O   0  0  0  0  0
   20.5310   -4.3480   13.5510 C   0  0  0  0  0
   20.1930   -5.4480   12.8050 C   0  0  0  0  0
   19.2890   -5.3790   11.9520 O   0  0  0  0  0
   20.8760   -6.5830   12.9140 N   0  0  0  0  0
   21.8760   -6.7850   13.7850 C   0  0  0  0  0
   22.4060   -7.9040   13.8430 O   0  0  0  0  0
   24.8430   -6.9370   18.1610 O   0  0  0  0  0
   28.0631  -10.3628   14.1683 H   0  0  0  0  0
   27.6917  -11.3436   16.2663 H   0  0  0  0  0
   24.0656   -9.0902   14.7492 H   0  0  0  0  0
   25.4645   -8.4718   13.8992 H   0  0  0  0  0
   26.1132   -7.2933   16.0558 H   0  0  0  0  0
   24.2010   -8.6897   17.3769 H   0  0  0  0  0
   22.2152   -7.7989   16.2537 H   0  0  0  0  0
   21.3850   -6.2347   17.5651 H   0  0  0  0  0
   23.3081   -5.0431   16.2041 H   0  0  0  0  0
   21.2478   -4.5770   15.4290 H   0  0  0  0  0
   24.2427   -2.7142   13.6071 H   0  0  0  0  0
   24.3242   -2.8280   15.3824 H   0  0  0  0  0
   24.2325   -4.3094   14.3986 H   0  0  0  0  0
   20.7958   -3.5714   12.8334 H   0  0  0  0  0
   19.6757   -4.1526   14.1978 H   0  0  0  0  0
   20.6228   -7.3521   12.2937 H   0  0  0  0  0
   24.3078   -7.0728   18.9463 H   0  0  0  0  0
  1  2  1  0  0  0
  2  3  2  0  0  0
  2  4  1  0  0  0
  2  5  1  0  0  0
  5  6  1  0  0  0
  6  7  1  0  0  0
  7  8  1  0  0  0
  7 12  1  0  0  0
  8  9  1  0  0  0
  8 24  1  0  0  0
  9 10  1  0  0  0
  9 11  1  0  0  0
 11 12  1  0  0  0
 11 13  1  0  0  0
 13 14  1  0  0  0
 13 22  1  0  0  0
 14 15  1  0  0  0
 14 18  1  0  0  0
 15 16  1  0  0  0
 15 17  2  0  0  0
 18 19  1  0  0  0
 19 20  2  0  0  0
 19 21  1  0  0  0
 21 22  1  0  0  0
 22 23  2  0  0  0
  1 25  1  0  0  0
  4 26  1  0  0  0
  6 27  1  0  0  0
  6 28  1  0  0  0
  7 29  1  0  0  0
  8 30  1  0  0  0
  9 31  1  0  0  0
 10 32  1  0  0  0
 11 33  1  0  0  0
 14 34  1  0  0  0
 16 35  1  0  0  0
 16 36  1  0  0  0
 16 37  1  0  0  0
 18 38  1  0  0  0
 18 39  1  0  0  0
 21 40  1  0  0  0
 24 41  1  0  0  0
M  END
$$$$
