### 
### Created by X-TOOL on Mon Sep 10 21:13:02 2018
### 

@<TRIPOS>MOLECULE
3l0k_ligand
   39    40     1     0     0
SMALL
GAST_HUCK


@<TRIPOS>ATOM
      1 O3P        27.2930  -10.7730   13.7680 O.co2     1 6AU        -0.5537
      2 P          26.2690  -11.0760   14.8420 P.3       1 6AU         0.2008
      3 O1P        25.0380  -11.7150   14.3130 O.co2     1 6AU        -0.5537
      4 O2P        26.9060  -11.8150   15.9800 O.co2     1 6AU        -0.5537
      5 O5'        25.8970   -9.6760   15.5360 O.3       1 6AU        -0.2734
      6 C5'        25.0770   -8.7090   14.8900 C.3       1 6AU         0.1071
      7 C4'        25.0710   -7.4640   15.7860 C.3       1 6AU         0.1174
      8 C3'        24.2560   -7.6510   17.0510 C.3       1 6AU         0.1141
      9 C2'        22.9130   -7.0770   16.6780 C.3       1 6AU         0.1310
     10 O2'        22.2360   -6.5950   17.8250 O.3       1 6AU        -0.3844
     11 C1'        23.2730   -5.9870   15.6600 C.3       1 6AU         0.1777
     12 O4'        24.5220   -6.3380   15.0870 O.3       1 6AU        -0.3431
     13 N1         22.2770   -5.7520   14.5990 N.am      1 6AU        -0.2028
     14 C6         21.6650   -4.4770   14.4270 C.3       1 6AU         0.1379
     15 C7         22.4430   -3.2290   14.5500 C.2       1 6AU         0.1296
     16 C72        23.9050   -3.2730   14.4800 C.3       1 6AU         0.0119
     17 O71        21.8140   -2.0880   14.6520 O.2       1 6AU        -0.3893
     18 C5         20.5310   -4.3480   13.5510 C.3       1 6AU         0.0815
     19 C4         20.1930   -5.4480   12.8050 C.2       1 6AU         0.2089
     20 O4         19.2890   -5.3790   11.9520 O.2       1 6AU        -0.3866
     21 N3         20.8760   -6.5830   12.9140 N.am      1 6AU        -0.1848
     22 C2         21.8760   -6.7850   13.7850 C.2       1 6AU         0.2948
     23 O2         22.4060   -7.9040   13.8430 O.2       1 6AU        -0.3912
     24 O3'        24.8430   -6.9370   18.1610 O.3       1 6AU        -0.3864
     25 H1         24.0542   -9.0967   14.7736 H         1 6AU         0.0639
     26 H2         25.4903   -8.4618   13.9010 H         1 6AU         0.0639
     27 H3         26.1111   -7.2417   16.0666 H         1 6AU         0.0650
     28 H4         24.1696   -8.7168   17.3091 H         1 6AU         0.0648
     29 H5         22.2844   -7.8427   16.2000 H         1 6AU         0.0668
     30 H6         21.3938   -6.2384   17.5678 H         1 6AU         0.2101
     31 H7         23.3892   -5.0417   16.2104 H         1 6AU         0.0897
     32 H8         21.1407   -4.4403   15.3933 H         1 6AU         0.0818
     33 H9         24.3081   -2.2555   14.5905 H         1 6AU         0.0459
     34 H10        24.2133   -3.6860   13.5082 H         1 6AU         0.0459
     35 H11        24.2918   -3.9104   15.2887 H         1 6AU         0.0459
     36 H12        20.7432   -3.5255   12.8522 H         1 6AU         0.0556
     37 H13        19.6606   -4.0872   14.1709 H         1 6AU         0.0556
     38 H14        20.6277   -7.3370   12.3059 H         1 6AU         0.2254
     39 H15        25.6861   -7.3205   18.3725 H         1 6AU         0.2100
@<TRIPOS>BOND
     1    1    2 ar 
     2    2    3 ar 
     3    2    4 ar 
     4    2    5 1  
     5    5    6 1  
     6    6    7 1  
     7    7    8 1  
     8    7   12 1  
     9    8    9 1  
    10    8   24 1  
    11    9   10 1  
    12    9   11 1  
    13   11   12 1  
    14   11   13 1  
    15   13   14 1  
    16   13   22 am 
    17   14   15 1  
    18   14   18 1  
    19   15   16 1  
    20   15   17 2  
    21   18   19 1  
    22   19   20 2  
    23   19   21 am 
    24   21   22 am 
    25   22   23 2  
    26    6   25 1  
    27    6   26 1  
    28    7   27 1  
    29    8   28 1  
    30    9   29 1  
    31   10   30 1  
    32   11   31 1  
    33   14   32 1  
    34   16   33 1  
    35   16   34 1  
    36   16   35 1  
    37   18   36 1  
    38   18   37 1  
    39   21   38 1  
    40   24   39 1  
@<TRIPOS>SUBSTRUCTURE
     1 6AU         1

