1ikx_ligand
  -I-interpret- 

 31 33  0  0  0  0  0  0  0  0999 V2000
   -9.8980  142.8870  172.6230 C   0  0  0  0  0
   -8.9790  142.6990  171.6160 N   0  0  0  0  0
   -7.6580  143.0290  171.8440 C   0  0  0  0  0
   -7.2730  143.5580  173.1240 C   0  0  0  0  0
   -8.2380  143.7390  174.1410 C   0  0  0  0  0
   -9.5790  143.3720  173.8190 N   0  0  0  0  0
  -11.6200  139.7180  176.7090 C   0  0  0  0  0
  -12.2700  139.3770  175.4940 C   0  0  0  0  0
  -12.4940  140.3980  174.6020 N   0  0  0  0  0
  -12.1170  141.7040  174.8430 C   0  0  0  0  0
  -11.4550  142.0780  176.0500 C   0  0  0  0  0
  -11.2230  141.0410  176.9760 C   0  0  0  0  0
  -10.5920  140.9460  178.3440 C   0  0  0  0  0
  -11.3020  138.8280  177.7580 O   0  0  0  0  0
  -10.6960  139.6410  178.6880 C   0  0  0  0  0
  -12.4030  142.8710  173.9000 C   0  0  0  0  0
  -11.6010  142.4600  172.2990 S   0  0  0  0  0
   -6.6820  142.8480  170.8110 N   0  0  0  0  0
   -7.9040  144.3060  175.5650 Cl  0  0  0  0  0
  -13.9480  143.0030  173.7150 C   0  0  0  0  0
   -6.2319  143.8208  173.3113 H   0  0  0  0  0
  -12.5770  138.3535  175.2787 H   0  0  0  0  0
  -11.1467  143.1052  176.2447 H   0  0  0  0  0
  -10.1490  141.7528  178.9278 H   0  0  0  0  0
  -10.3242  139.2594  179.6389 H   0  0  0  0  0
  -12.0210  143.8148  174.2892 H   0  0  0  0  0
   -6.9624  142.4744  169.9042 H   0  0  0  0  0
   -5.7067  143.0927  170.9823 H   0  0  0  0  0
  -14.1603  143.7948  172.9967 H   0  0  0  0  0
  -14.3505  142.0593  173.3469 H   0  0  0  0  0
  -14.4078  143.2467  174.6728 H   0  0  0  0  0
  1  2  4  0  0  0
  1  6  4  0  0  0
 17  1  1  0  0  0
  2  3  4  0  0  0
  3  4  4  0  0  0
  3 18  1  0  0  0
  5  4  4  0  0  0
  6  5  4  0  0  0
  5 19  1  0  0  0
  8  7  4  0  0  0
 12  7  4  0  0  0
  7 14  4  0  0  0
  9  8  4  0  0  0
 10  9  4  0  0  0
 10 11  4  0  0  0
 16 10  1  0  0  0
 11 12  4  0  0  0
 12 13  4  0  0  0
 13 15  4  0  0  0
 15 14  4  0  0  0
 16 17  1  0  0  0
 16 20  1  0  0  0
  4 21  1  0  0  0
  8 22  1  0  0  0
 11 23  1  0  0  0
 13 24  1  0  0  0
 15 25  1  0  0  0
 16 26  1  0  0  0
 18 27  1  0  0  0
 18 28  1  0  0  0
 20 29  1  0  0  0
 20 30  1  0  0  0
 20 31  1  0  0  0
M  END
$$$$
