5ely_ligand
  -I-interpret- 

 35 35  0  0  0  0  0  0  0  0999 V2000
   23.1410   46.9490   41.4860 C   0  0  0  0  0
   23.8430   46.3120   40.4210 C   0  0  0  0  0
   24.3990   45.0650   40.6780 C   0  0  0  0  0
   25.2440   44.2830   39.6150 C   0  0  0  0  0
   25.3360   44.8170   38.5430 O   0  0  0  0  0
   25.8490   43.2300   39.9730 O   0  0  0  0  0
   24.3160   44.4760   41.9120 C   0  0  0  0  0
   23.6300   45.0700   42.9690 C   0  0  0  0  0
   23.0520   46.3170   42.7340 C   0  0  0  0  0
   22.3000   46.9600   43.9440 C   0  0  0  0  0
   20.7670   47.1240   43.6950 C   0  0  0  0  0
   20.1980   47.8770   44.9330 C   0  0  0  0  0
   19.8180   47.2020   45.8920 O   0  0  0  0  0
   20.3320   49.1060   44.9080 O   0  0  0  0  0
   20.1220   45.7300   43.5920 C   0  0  0  0  0
   18.6420   45.7430   43.0740 C   0  0  0  0  0
   18.0950   44.3070   43.2380 C   0  0  0  0  0
   18.5620   43.3280   42.6150 O   0  0  0  0  0
   17.0910   44.1830   44.0810 N   0  0  0  0  0
   16.6950   42.9370   44.5000 O   0  0  0  0  0
   22.6759   47.9225   41.3305 H   0  0  0  0  0
   23.9397   46.7848   39.4436 H   0  0  0  0  0
   25.6033   43.0121   40.8751 H   0  0  0  0  0
   24.8015   43.5133   42.0717 H   0  0  0  0  0
   23.5485   44.5803   43.9394 H   0  0  0  0  0
   22.7180   47.9540   44.1036 H   0  0  0  0  0
   22.4276   46.3000   44.8020 H   0  0  0  0  0
   20.5626   47.6704   42.7743 H   0  0  0  0  0
   20.6410   49.3755   44.0400 H   0  0  0  0  0
   20.1073   45.3075   44.5967 H   0  0  0  0  0
   20.7088   45.1565   42.8745 H   0  0  0  0  0
   18.6008   46.0552   42.0305 H   0  0  0  0  0
   18.0403   46.4527   43.6418 H   0  0  0  0  0
   16.6072   45.0133   44.4229 H   0  0  0  0  0
   15.9565   43.0245   45.1071 H   0  0  0  0  0
  1  2  4  0  0  0
  1  9  4  0  0  0
  2  3  4  0  0  0
  3  4  1  0  0  0
  3  7  4  0  0  0
  4  5  2  0  0  0
  4  6  1  0  0  0
  7  8  4  0  0  0
  8  9  4  0  0  0
  9 10  1  0  0  0
 10 11  1  0  0  0
 11 12  1  0  0  0
 11 15  1  0  0  0
 12 13  2  0  0  0
 12 14  1  0  0  0
 15 16  1  0  0  0
 16 17  1  0  0  0
 17 18  2  0  0  0
 17 19  1  0  0  0
 19 20  1  0  0  0
  1 21  1  0  0  0
  2 22  1  0  0  0
  6 23  1  0  0  0
  7 24  1  0  0  0
  8 25  1  0  0  0
 10 26  1  0  0  0
 10 27  1  0  0  0
 11 28  1  0  0  0
 14 29  1  0  0  0
 15 30  1  0  0  0
 15 31  1  0  0  0
 16 32  1  0  0  0
 16 33  1  0  0  0
 19 34  1  0  0  0
 20 35  1  0  0  0
M  END
$$$$
