### 
### Created by X-TOOL on Wed Jan  1 15:39:37 2020
### 

@<TRIPOS>MOLECULE
5wjj_ligand
   53    57     1     0     0
SMALL
GAST_HUCK


@<TRIPOS>ATOM
      1 C4         19.0010   -6.1470    1.9990 C.ar      1 AQY         0.0130
      2 C5         18.9320   -7.3550    2.7220 C.ar      1 AQY        -0.0455
      3 C6         20.0880   -7.9380    3.2080 C.ar      1 AQY        -0.0195
      4 C7         21.3060   -7.3320    2.9310 C.ar      1 AQY         0.1492
      5 C13        14.4200   -4.1860   -1.1590 C.2       1 AQY         0.0087
      6 C17        16.5880   -5.1890    2.1340 C.2       1 AQY         0.2190
      7 C20        17.0040   -4.8660    5.8690 C.ar      1 AQY         0.0147
      8 C22        14.7250   -4.8680    5.4100 C.ar      1 AQY         0.1590
      9 C24        12.2830   -4.4700    5.3370 C.2       1 AQY         0.2449
     10 C26        11.0840   -4.4260    6.2000 C.ar      1 AQY         0.0698
     11 C28         8.8650   -3.6640    6.7240 C.ar      1 AQY         0.0344
     12 C1         22.7020   -5.4910    1.9190 C.3       1 AQY        -0.0272
     13 C2         21.3740   -6.1410    2.1980 C.ar      1 AQY         0.0014
     14 C3         20.2280   -5.5540    1.7140 C.ar      1 AQY        -0.0394
     15 F8         22.4310   -7.8860    3.4070 F         1 AQY        -0.1755
     16 C9         17.7480   -5.5910    1.4680 C.2       1 AQY         0.1190
     17 N10        17.5680   -5.4530    0.1490 N.2       1 AQY        -0.2504
     18 C11        16.3610   -4.9800   -0.0640 C.2       1 AQY         0.2236
     19 C12        15.6880   -4.6620   -1.2610 C.2       1 AQY         0.0420
     20 C14        13.7780   -4.0290    0.0780 C.2       1 AQY         0.0927
     21 N15        14.4150   -4.3030    1.1850 N.2       1 AQY        -0.0919
     22 N16        15.7210   -4.7930    1.1400 N.pl3     1 AQY        -0.0503
     23 C18        16.2880   -5.0900    3.5760 C.ar      1 AQY         0.0765
     24 C19        17.3200   -4.9900    4.5310 C.ar      1 AQY        -0.0137
     25 N21        15.7430   -4.8130    6.2690 N.ar      1 AQY        -0.2633
     26 N23        13.4490   -4.7760    5.9550 N.am      1 AQY        -0.2126
     27 O25        12.1960   -4.2430    4.1410 O.2       1 AQY        -0.3656
     28 C27         9.9460   -3.6690    5.8540 C.ar      1 AQY        -0.0192
     29 N29         8.9150   -4.3470    7.8650 N.ar      1 AQY        -0.1624
     30 O30         7.7790   -4.3000    8.7140 O.2       1 AQY        -0.1925
     31 C31         9.9690   -5.0700    8.2330 C.ar      1 AQY         0.0565
     32 C32         9.9940   -5.8340    9.5390 C.3       1 AQY        -0.0125
     33 C33        11.0820   -5.1310    7.4150 C.ar      1 AQY        -0.0108
     34 C34        14.9600   -5.0000    4.0390 C.ar      1 AQY         0.0217
     35 H1         17.9722   -7.8273    2.8972 H         1 AQY         0.0650
     36 H2         20.0440   -8.8494    3.7932 H         1 AQY         0.0630
     37 H3         13.8840   -3.9173   -2.0681 H         1 AQY         0.0969
     38 H4         17.7999   -4.8112    6.6029 H         1 AQY         0.0823
     39 H5          7.9740   -3.1001    6.4726 H         1 AQY         0.0834
     40 H6         22.5450   -4.5727    1.3342 H         1 AQY         0.0389
     41 H7         23.3372   -6.1847    1.3487 H         1 AQY         0.0389
     42 H8         23.1946   -5.2403    2.8701 H         1 AQY         0.0389
     43 H9         20.2792   -4.6473    1.1221 H         1 AQY         0.0617
     44 H10        16.1664   -4.7930   -2.2305 H         1 AQY         0.0884
     45 H11        12.7477   -3.6784    0.1156 H         1 AQY         0.1033
     46 H12        18.3571   -5.0104    4.2161 H         1 AQY         0.0746
     47 H13        13.3832   -4.9607    6.9356 H         1 AQY         0.2309
     48 H14         9.9162   -3.1038    4.9295 H         1 AQY         0.0701
     49 H15        10.9560   -6.3580    9.6389 H         1 AQY         0.0421
     50 H16         9.1742   -6.5673    9.5506 H         1 AQY         0.0421
     51 H17         9.8701   -5.1321   10.3769 H         1 AQY         0.0421
     52 H18        11.9451   -5.7175    7.7086 H         1 AQY         0.0701
     53 H19        14.1316   -5.0328    3.3406 H         1 AQY         0.0740
@<TRIPOS>BOND
     1    1    2 ar 
     2    1   14 ar 
     3   16    1 1  
     4    2    3 ar 
     5    3    4 ar 
     6   13    4 ar 
     7    4   15 1  
     8   19    5 2  
     9   20    5 1  
    10    6   16 2  
    11    6   22 1  
    12   23    6 1  
    13   24    7 ar 
    14    7   25 ar 
    15   25    8 ar 
    16    8   26 1  
    17    8   34 ar 
    18    9   10 1  
    19   26    9 am 
    20    9   27 2  
    21   10   28 ar 
    22   10   33 ar 
    23   28   11 ar 
    24   11   29 ar 
    25   13   12 1  
    26   14   13 ar 
    27   16   17 1  
    28   18   17 2  
    29   18   19 1  
    30   22   18 1  
    31   21   20 2  
    32   22   21 1  
    33   23   24 ar 
    34   23   34 ar 
    35   29   30 2  
    36   29   31 ar 
    37   31   32 1  
    38   31   33 ar 
    39    2   35 1  
    40    3   36 1  
    41    5   37 1  
    42    7   38 1  
    43   11   39 1  
    44   12   40 1  
    45   12   41 1  
    46   12   42 1  
    47   14   43 1  
    48   19   44 1  
    49   20   45 1  
    50   24   46 1  
    51   26   47 1  
    52   28   48 1  
    53   32   49 1  
    54   32   50 1  
    55   32   51 1  
    56   33   52 1  
    57   34   53 1  
@<TRIPOS>SUBSTRUCTURE
     1 AQY         1

