5wjj_ligand
  -I-interpret- 

 53 57  0  0  0  0  0  0  0  0999 V2000
   19.0010   -6.1470    1.9990 C   0  0  0  0  0
   18.9320   -7.3550    2.7220 C   0  0  0  0  0
   20.0880   -7.9380    3.2080 C   0  0  0  0  0
   21.3060   -7.3320    2.9310 C   0  0  0  0  0
   14.4200   -4.1860   -1.1590 C   0  0  0  0  0
   16.5880   -5.1890    2.1340 C   0  0  0  0  0
   17.0040   -4.8660    5.8690 C   0  0  0  0  0
   14.7250   -4.8680    5.4100 C   0  0  0  0  0
   12.2830   -4.4700    5.3370 C   0  0  0  0  0
   11.0840   -4.4260    6.2000 C   0  0  0  0  0
    8.8650   -3.6640    6.7240 C   0  0  0  0  0
   22.7020   -5.4910    1.9190 C   0  0  0  0  0
   21.3740   -6.1410    2.1980 C   0  0  0  0  0
   20.2280   -5.5540    1.7140 C   0  0  0  0  0
   22.4310   -7.8860    3.4070 F   0  0  0  0  0
   17.7480   -5.5910    1.4680 C   0  0  0  0  0
   17.5680   -5.4530    0.1490 N   0  0  0  0  0
   16.3610   -4.9800   -0.0640 C   0  0  0  0  0
   15.6880   -4.6620   -1.2610 C   0  0  0  0  0
   13.7780   -4.0290    0.0780 C   0  0  0  0  0
   14.4150   -4.3030    1.1850 N   0  0  0  0  0
   15.7210   -4.7930    1.1400 N   0  0  0  0  0
   16.2880   -5.0900    3.5760 C   0  0  0  0  0
   17.3200   -4.9900    4.5310 C   0  0  0  0  0
   15.7430   -4.8130    6.2690 N   0  0  0  0  0
   13.4490   -4.7760    5.9550 N   0  0  0  0  0
   12.1960   -4.2430    4.1410 O   0  0  0  0  0
    9.9460   -3.6690    5.8540 C   0  0  0  0  0
    8.9150   -4.3470    7.8650 N   0  0  0  0  0
    7.7790   -4.3000    8.7140 O   0  0  0  0  0
    9.9690   -5.0700    8.2330 C   0  0  0  0  0
    9.9940   -5.8340    9.5390 C   0  0  0  0  0
   11.0820   -5.1310    7.4150 C   0  0  0  0  0
   14.9600   -5.0000    4.0390 C   0  0  0  0  0
   17.9669   -7.8299    2.8982 H   0  0  0  0  0
   20.0438   -8.8545    3.7964 H   0  0  0  0  0
   13.8835   -3.9170   -2.0689 H   0  0  0  0  0
   17.8043   -4.8109    6.6070 H   0  0  0  0  0
    7.9691   -3.0970    6.4712 H   0  0  0  0  0
   23.1890   -5.2431    2.8621 H   0  0  0  0  0
   23.3305   -6.1794    1.3540 H   0  0  0  0  0
   22.5452   -4.5812    1.3395 H   0  0  0  0  0
   20.2795   -4.6423    1.1189 H   0  0  0  0  0
   16.1668   -4.7931   -2.2314 H   0  0  0  0  0
   12.7467   -3.6781    0.1157 H   0  0  0  0  0
   18.3628   -5.0105    4.2144 H   0  0  0  0  0
   13.3819   -4.9644    6.9552 H   0  0  0  0  0
    9.9160   -3.1007    4.9244 H   0  0  0  0  0
    9.8711   -5.1374   10.3683 H   0  0  0  0  0
    9.1812   -6.5602    9.5493 H   0  0  0  0  0
   10.9476   -6.3528    9.6368 H   0  0  0  0  0
   11.9499   -5.7207    7.7102 H   0  0  0  0  0
   14.1270   -5.0329    3.3367 H   0  0  0  0  0
  1  2  4  0  0  0
  1 14  4  0  0  0
 16  1  1  0  0  0
  2  3  4  0  0  0
  3  4  4  0  0  0
 13  4  4  0  0  0
  4 15  1  0  0  0
 19  5  4  0  0  0
 20  5  4  0  0  0
  6 16  4  0  0  0
  6 22  4  0  0  0
 23  6  1  0  0  0
 24  7  4  0  0  0
  7 25  4  0  0  0
 25  8  4  0  0  0
  8 26  1  0  0  0
  8 34  4  0  0  0
  9 10  1  0  0  0
 26  9  1  0  0  0
  9 27  2  0  0  0
 10 28  4  0  0  0
 10 33  4  0  0  0
 28 11  4  0  0  0
 11 29  4  0  0  0
 13 12  1  0  0  0
 14 13  4  0  0  0
 16 17  4  0  0  0
 18 17  4  0  0  0
 18 19  4  0  0  0
 22 18  4  0  0  0
 21 20  4  0  0  0
 22 21  4  0  0  0
 23 24  4  0  0  0
 23 34  4  0  0  0
 29 30  2  0  0  0
 29 31  4  0  0  0
 31 32  1  0  0  0
 31 33  4  0  0  0
  2 35  1  0  0  0
  3 36  1  0  0  0
  5 37  1  0  0  0
  7 38  1  0  0  0
 11 39  1  0  0  0
 12 40  1  0  0  0
 12 41  1  0  0  0
 12 42  1  0  0  0
 14 43  1  0  0  0
 19 44  1  0  0  0
 20 45  1  0  0  0
 24 46  1  0  0  0
 26 47  1  0  0  0
 28 48  1  0  0  0
 32 49  1  0  0  0
 32 50  1  0  0  0
 32 51  1  0  0  0
 33 52  1  0  0  0
 34 53  1  0  0  0
M  END
$$$$
