5mev_ligand
  -I-interpret- 

 95 99  0  0  0  0  0  0  0  0999 V2000
   95.7700   34.6930   54.6140 C   0  0  0  0  0
   97.2170   34.8790   55.0380 C   0  0  0  0  0
   97.4680   35.8610   56.1740 C   0  0  0  0  0
  100.1210   28.0430   60.5640 O   0  0  0  0  0
   99.7610   28.9270   62.8310 O   0  0  0  0  0
   94.5130   30.3120   59.5250 C   0  0  0  0  0
   93.8730   29.8100   60.8280 C   0  0  0  0  0
   93.3280   28.3750   60.7100 C   0  0  0  0  0
   94.2300   27.4570   59.9200 C   0  0  0  0  0
   94.9000   26.4310   60.5800 C   0  0  0  0  0
   95.7480   25.5790   59.8920 C   0  0  0  0  0
   95.9500   25.7470   58.5400 C   0  0  0  0  0
   95.3080   26.7680   57.8590 C   0  0  0  0  0
   94.4410   27.6160   58.5430 C   0  0  0  0  0
   93.6880   29.9520   58.2840 C   0  0  0  0  0
   95.7480   30.3800   54.5070 C   0  0  0  0  0
   95.0560   31.7270   54.2960 C   0  0  0  0  0
   95.7610   32.5950   53.2740 C   0  0  0  0  0
   97.2310   30.5110   54.8910 C   0  0  0  0  0
   98.0300   28.8380   56.6070 C   0  0  0  0  0
   98.9170   27.1300   54.6290 C   0  0  0  0  0
   98.4280   32.8790   59.7590 C   0  0  0  0  0
   98.1230   32.5820   61.0810 C   0  0  0  0  0
   98.3820   31.3310   61.6150 C   0  0  0  0  0
   98.9510   30.3550   60.8130 C   0  0  0  0  0
   99.2610   30.6260   59.4890 C   0  0  0  0  0
   98.9910   31.8820   58.9730 C   0  0  0  0  0
   99.2860   28.7560   61.4880 S   0  0  0  0  0
   97.7220   27.9720   61.5500 C   0  0  0  0  0
   98.1310   34.2440   59.1860 C   0  0  0  0  0
   97.0240   34.2470   58.1210 C   0  0  0  0  0
   96.9020   35.5790   57.4980 N   0  3  0  0  0
   95.6850   33.8270   58.7280 C   0  0  0  0  0
   95.4510   32.3390   58.5800 C   0  0  0  0  0
   95.8640   31.7230   57.6020 O   0  0  0  0  0
   94.7760   31.7390   59.5670 N   0  0  0  0  0
   93.0110   30.7910   57.7160 O   0  0  0  0  0
   93.7850   28.6680   57.8250 N   0  0  0  0  0
   93.1930   28.3710   56.5230 C   0  0  0  0  0
   93.8690   28.9910   55.3110 C   0  0  0  0  0
   93.3540   28.9070   54.2000 O   0  0  0  0  0
   95.0340   29.6130   55.5260 N   0  0  0  0  0
   96.4030   32.0820   52.3680 O   0  0  0  0  0
   95.6150   33.9350   53.3690 N   0  0  0  0  0
   95.3160   34.7140   52.1750 C   0  0  0  0  0
   97.8770   29.2030   55.2760 C   0  0  0  0  0
   98.3260   28.3330   54.2880 C   0  0  0  0  0
   99.4640   26.0850   53.3570 Cl  0  0  0  0  0
   99.0670   26.7750   55.9650 C   0  0  0  0  0
   99.8110   25.2730   56.4180 Cl  0  0  0  0  0
   98.6190   27.6350   56.9540 C   0  0  0  0  0
   95.3487   35.6844   54.4472 H   0  0  0  0  0
   95.2684   34.1319   55.4024 H   0  0  0  0  0
   97.7379   35.2814   54.1692 H   0  0  0  0  0
   97.5546   33.9070   55.3977 H   0  0  0  0  0
   96.9884   36.7865   55.8555 H   0  0  0  0  0
   98.5478   35.8480   56.3222 H   0  0  0  0  0
   95.4674   29.7921   59.4414 H   0  0  0  0  0
   93.0358   30.4670   61.0636 H   0  0  0  0  0
   94.6419   29.8128   61.6005 H   0  0  0  0  0
   92.3724   28.4272   60.1882 H   0  0  0  0  0
   93.2467   27.9694   61.7184 H   0  0  0  0  0
   94.7555   26.2963   61.6519 H   0  0  0  0  0
   96.2567   24.7736   60.4218 H   0  0  0  0  0
   96.6182   25.0734   58.0035 H   0  0  0  0  0
   95.4808   26.9071   56.7918 H   0  0  0  0  0
   95.7202   29.8580   53.5505 H   0  0  0  0  0
   95.0631   32.2587   55.2475 H   0  0  0  0  0
   94.0484   31.5310   53.9294 H   0  0  0  0  0
   97.2857   31.1687   55.7585 H   0  0  0  0  0
   97.7610   30.8911   54.0176 H   0  0  0  0  0
   97.6805   29.5099   57.3909 H   0  0  0  0  0
   97.6710   33.3486   61.7104 H   0  0  0  0  0
   98.1406   31.1162   62.6560 H   0  0  0  0  0
   99.7126   29.8581   58.8609 H   0  0  0  0  0
   99.2249   32.0925   57.9294 H   0  0  0  0  0
   97.2715   27.9837   60.5575 H   0  0  0  0  0
   97.8466   26.9412   61.8817 H   0  0  0  0  0
   97.0775   28.5046   62.2493 H   0  0  0  0  0
   99.0429   34.5985   58.7055 H   0  0  0  0  0
   97.7902   34.8728   60.0085 H   0  0  0  0  0
   97.2980   33.5256   57.3512 H   0  0  0  0  0
   95.8975   35.6935   57.3628 H   0  0  0  0  0
   97.4287   36.1893   58.1230 H   0  0  0  0  0
   94.8880   34.3555   58.2050 H   0  0  0  0  0
   95.6960   34.0707   59.7903 H   0  0  0  0  0
   94.4425   32.2903   60.3577 H   0  0  0  0  0
   92.1846   28.7840   56.5495 H   0  0  0  0  0
   93.2749   27.2917   56.3942 H   0  0  0  0  0
   95.4483   29.5481   56.4558 H   0  0  0  0  0
   96.1169   34.5831   51.4473 H   0  0  0  0  0
   94.3741   34.3720   51.7460 H   0  0  0  0  0
   95.2340   35.7678   52.4413 H   0  0  0  0  0
   98.2113   28.6012   53.2378 H   0  0  0  0  0
   98.7303   27.3645   58.0040 H   0  0  0  0  0
  1  2  1  0  0  0
 44  1  1  0  0  0
  2  3  1  0  0  0
  3 32  1  0  0  0
 28  4  2  0  0  0
 28  5  2  0  0  0
  6  7  1  0  0  0
 15  6  1  0  0  0
  6 36  1  0  0  0
  7  8  1  0  0  0
  9  8  1  0  0  0
  9 10  4  0  0  0
 14  9  4  0  0  0
 10 11  4  0  0  0
 12 11  4  0  0  0
 13 12  4  0  0  0
 14 13  4  0  0  0
 38 14  1  0  0  0
 15 37  2  0  0  0
 38 15  1  0  0  0
 16 17  1  0  0  0
 19 16  1  0  0  0
 16 42  1  0  0  0
 17 18  1  0  0  0
 18 43  2  0  0  0
 18 44  1  0  0  0
 46 19  1  0  0  0
 46 20  4  0  0  0
 20 51  4  0  0  0
 47 21  4  0  0  0
 21 48  1  0  0  0
 21 49  4  0  0  0
 22 23  4  0  0  0
 22 27  4  0  0  0
 30 22  1  0  0  0
 23 24  4  0  0  0
 24 25  4  0  0  0
 26 25  4  0  0  0
 25 28  1  0  0  0
 27 26  4  0  0  0
 28 29  1  0  0  0
 31 30  1  0  0  0
 32 31  1  0  0  0
 31 33  1  0  0  0
 34 33  1  0  0  0
 34 35  2  0  0  0
 36 34  1  0  0  0
 39 38  1  0  0  0
 40 39  1  0  0  0
 40 41  2  0  0  0
 42 40  1  0  0  0
 44 45  1  0  0  0
 46 47  4  0  0  0
 49 50  1  0  0  0
 49 51  4  0  0  0
  1 52  1  0  0  0
  1 53  1  0  0  0
  2 54  1  0  0  0
  2 55  1  0  0  0
  3 56  1  0  0  0
  3 57  1  0  0  0
  6 58  1  0  0  0
  7 59  1  0  0  0
  7 60  1  0  0  0
  8 61  1  0  0  0
  8 62  1  0  0  0
 10 63  1  0  0  0
 11 64  1  0  0  0
 12 65  1  0  0  0
 13 66  1  0  0  0
 16 67  1  0  0  0
 17 68  1  0  0  0
 17 69  1  0  0  0
 19 70  1  0  0  0
 19 71  1  0  0  0
 20 72  1  0  0  0
 23 73  1  0  0  0
 24 74  1  0  0  0
 26 75  1  0  0  0
 27 76  1  0  0  0
 29 77  1  0  0  0
 29 78  1  0  0  0
 29 79  1  0  0  0
 30 80  1  0  0  0
 30 81  1  0  0  0
 31 82  1  0  0  0
 32 83  1  0  0  0
 32 84  1  0  0  0
 33 85  1  0  0  0
 33 86  1  0  0  0
 36 87  1  0  0  0
 39 88  1  0  0  0
 39 89  1  0  0  0
 42 90  1  0  0  0
 45 91  1  0  0  0
 45 92  1  0  0  0
 45 93  1  0  0  0
 47 94  1  0  0  0
 51 95  1  0  0  0
M  END
$$$$
