4zyz_ligand
  -I-interpret- 

 52 53  0  0  0  0  0  0  0  0999 V2000
  -22.3710   16.9520   23.8900 N   0  0  0  0  0
  -21.9590   15.8880   24.6740 C   0  0  0  0  0
  -22.7530   14.7120   24.7690 N   0  0  0  0  0
  -23.9090   14.5640   24.0160 C   0  0  0  0  0
  -24.2120   17.5770   22.3450 N   0  0  0  0  0
  -25.2530   17.0840   21.8790 C   0  0  0  0  0
  -25.4060   15.9120   22.3580 C   0  0  0  0  0
  -24.3400   15.5890   23.2370 C   0  0  0  0  0
  -23.4900   16.8110   23.2030 C   0  0  0  0  0
  -24.5030   13.5040   24.1350 O   0  0  0  0  0
  -20.7620   15.9810   25.4380 N   0  0  0  0  0
  -22.0020   18.2750   16.9360 C   0  0  0  0  0
  -22.9680   17.0750   17.0780 C   0  0  0  0  0
  -24.3690   17.5320   17.5560 C   0  0  0  0  0
  -24.4900   17.3780   19.0800 C   0  0  0  0  0
  -25.9710   17.2130   19.4750 C   0  0  0  0  0
  -20.9210   17.9100   15.8870 C   0  0  0  0  0
  -20.9900   16.8060   15.3940 O   0  0  0  0  0
  -19.8350   18.7720   15.4440 N   0  0  0  0  0
  -19.4910   20.1260   15.8410 C   0  0  0  0  0
  -20.6340   21.0930   15.6850 C   0  0  0  0  0
  -20.8270   21.5460   14.2420 C   0  0  0  0  0
  -22.1120   22.3490   14.1730 C   0  0  0  0  0
  -23.1860   21.7870   13.8230 O   0  0  0  0  0
  -22.1110   23.5730   14.4680 O   0  0  0  0  0
  -18.9660   20.1940   17.2540 C   0  0  0  0  0
  -17.8200   19.7580   17.5160 O   0  0  0  0  0
  -19.6650   20.7090   18.1700 O   0  0  0  0  0
  -26.2180   17.7620   20.8900 C   0  0  0  0  0
  -21.8291   17.8149   23.8445 H   0  0  0  0  0
  -26.2400   15.2502   22.1245 H   0  0  0  0  0
  -20.4828   15.2098   26.0444 H   0  0  0  0  0
  -21.5328   18.4922   17.8956 H   0  0  0  0  0
  -22.5508   19.1600   16.6141 H   0  0  0  0  0
  -22.5580   16.3855   17.8159 H   0  0  0  0  0
  -23.0730   16.5975   16.1038 H   0  0  0  0  0
  -25.1276   16.9146   17.0749 H   0  0  0  0  0
  -24.5102   18.5801   17.2923 H   0  0  0  0  0
  -24.0857   18.2669   19.5643 H   0  0  0  0  0
  -23.9330   16.4965   19.3975 H   0  0  0  0  0
  -26.2252   16.1532   19.4580 H   0  0  0  0  0
  -26.5889   17.7670   18.7683 H   0  0  0  0  0
  -19.2180   18.3599   14.7441 H   0  0  0  0  0
  -18.6976   20.4256   15.1563 H   0  0  0  0  0
  -20.4115   21.9746   16.2861 H   0  0  0  0  0
  -21.5461   20.5878   16.0025 H   0  0  0  0  0
  -20.8858   20.6821   13.5799 H   0  0  0  0  0
  -19.9827   22.1567   13.9221 H   0  0  0  0  0
  -23.0148   20.8614   13.6343 H   0  0  0  0  0
  -20.5082   20.9905   17.8076 H   0  0  0  0  0
  -26.0481   18.8387   20.8968 H   0  0  0  0  0
  -27.2464   17.5546   21.1858 H   0  0  0  0  0
  1  2  1  0  0  0
  9  1  1  0  0  0
  3  2  4  0  0  0
  2 11  2  0  0  0
  4  3  1  0  0  0
  8  4  1  0  0  0
  4 10  2  0  0  0
  6  5  4  0  0  0
  5  9  4  0  0  0
  6  7  4  0  0  0
 29  6  1  0  0  0
  7  8  4  0  0  0
  8  9  4  0  0  0
 13 12  1  0  0  0
 12 17  1  0  0  0
 14 13  1  0  0  0
 15 14  1  0  0  0
 16 15  1  0  0  0
 16 29  1  0  0  0
 17 18  2  0  0  0
 17 19  1  0  0  0
 19 20  1  0  0  0
 20 21  1  0  0  0
 20 26  1  0  0  0
 21 22  1  0  0  0
 22 23  1  0  0  0
 23 24  1  0  0  0
 23 25  2  0  0  0
 26 27  2  0  0  0
 26 28  1  0  0  0
  1 30  1  0  0  0
  7 31  1  0  0  0
 11 32  1  0  0  0
 12 33  1  0  0  0
 12 34  1  0  0  0
 13 35  1  0  0  0
 13 36  1  0  0  0
 14 37  1  0  0  0
 14 38  1  0  0  0
 15 39  1  0  0  0
 15 40  1  0  0  0
 16 41  1  0  0  0
 16 42  1  0  0  0
 19 43  1  0  0  0
 20 44  1  0  0  0
 21 45  1  0  0  0
 21 46  1  0  0  0
 22 47  1  0  0  0
 22 48  1  0  0  0
 24 49  1  0  0  0
 28 50  1  0  0  0
 29 51  1  0  0  0
 29 52  1  0  0  0
M  END
$$$$
