### 
### Created by X-TOOL on Mon Sep 10 21:13:28 2018
### 

@<TRIPOS>MOLECULE
5hf1_ligand
  120   121     1     0     0
SMALL
GAST_HUCK


@<TRIPOS>ATOM
      1 N          36.7250   42.9670   24.4440 N.4       1 ASN         0.2377
      2 CA         35.8550   43.9480   25.0810 C.3       1 ASN         0.0621
      3 C          36.3730   45.3690   24.8750 C.2       1 ASN         0.2265
      4 O          35.6160   46.3340   24.9500 O.2       1 ASN        -0.3907
      5 CB         35.7310   43.6530   26.5780 C.3       1 ASN        -0.0040
      6 N          37.6630   45.4820   24.5810 N.am      1 TYR        -0.2594
      7 CA         38.3840   46.7480   24.6850 C.3       1 TYR         0.1391
      8 C          38.3400   47.6560   23.4480 C.2       1 TYR         0.2057
      9 O          38.3530   47.1830   22.3120 O.2       1 TYR        -0.3942
     10 CB         39.8470   46.4460   25.0230 C.3       1 TYR         0.0164
     11 CG         40.8110   47.5130   24.5720 C.ar      1 TYR        -0.0493
     12 CD1        41.1160   48.5890   25.3910 C.ar      1 TYR        -0.0685
     13 CD2        41.4170   47.4440   23.3230 C.ar      1 TYR        -0.0685
     14 CE1        41.9930   49.5680   24.9790 C.ar      1 TYR        -0.0398
     15 CE2        42.2930   48.4180   22.9040 C.ar      1 TYR        -0.0398
     16 CZ         42.5790   49.4740   23.7350 C.ar      1 TYR         0.0805
     17 OH         43.4560   50.4390   23.3070 O.3       1 TYR        -0.3376
     18 N          38.3310   48.9640   23.6940 N.am      1 LYS        -0.2636
     19 CA         38.4510   49.9570   22.6330 C.3       1 LYS         0.1310
     20 C          38.9260   51.2850   23.2220 C.2       1 LYS         0.2039
     21 O          38.7080   51.5620   24.4020 O.2       1 LYS        -0.3944
     22 CB         37.1150   50.1330   21.9070 C.3       1 LYS        -0.0122
     23 CG         37.1390   51.0980   20.7320 C.3       1 LYS        -0.0440
     24 CD         38.0850   50.6540   19.6300 C.3       1 LYS        -0.0124
     25 CE         37.6080   51.1560   18.2750 C.3       1 LYS        -0.0354
     26 NZ         38.7300   51.5370   17.3780 N.4       1 LYS         0.2185
     27 N          39.5700   52.1020   22.3940 N.am      1 GLN        -0.2636
     28 CA         40.1220   53.3750   22.8410 C.3       1 GLN         0.1330
     29 C          39.7170   54.4930   21.8830 C.2       1 GLN         0.2042
     30 O          39.7860   54.3320   20.6630 O.2       1 GLN        -0.3944
     31 CB         41.6460   53.2780   22.9560 C.3       1 GLN         0.0045
     32 CG         42.2960   54.4480   23.6910 C.3       1 GLN         0.0412
     33 CD         43.7710   54.2350   24.0190 C.2       1 GLN         0.1737
     34 OE1        44.4970   55.2010   24.2600 O.2       1 GLN        -0.3973
     35 NE2        44.2190   52.9800   24.0370 N.am      1 GLN        -0.3009
     36 N          39.2870   55.6180   22.4480 N.am      1 PHE        -0.2619
     37 CA         38.7750   56.7420   21.6710 C.3       1 PHE         0.1404
     38 C          39.4940   58.0400   22.0160 C.2       1 PHE         0.2060
     39 O          39.8420   58.2760   23.1730 O.2       1 PHE        -0.3942
     40 CB         37.2720   56.9230   21.9180 C.3       1 PHE         0.0214
     41 CG         36.4210   55.8180   21.3600 C.ar      1 PHE        -0.0386
     42 CD1        35.8790   55.9210   20.0900 C.ar      1 PHE        -0.0601
     43 CD2        36.1530   54.6860   22.1070 C.ar      1 PHE        -0.0601
     44 CE1        35.0900   54.9080   19.5720 C.ar      1 PHE        -0.0686
     45 CE2        35.3650   53.6690   21.5960 C.ar      1 PHE        -0.0686
     46 CZ         34.8340   53.7800   20.3260 C.ar      1 PHE        -0.0687
     47 N          39.7070   58.8780   21.0050 N.am      1 SER        -0.2614
     48 CA         40.1750   60.2450   21.2150 C.3       1 SER         0.1539
     49 C          38.9760   61.1740   21.3680 C.2       1 SER         0.2056
     50 O          37.9980   61.0590   20.6290 O.2       1 SER        -0.3943
     51 CB         41.0560   60.7140   20.0520 C.3       1 SER         0.0843
     52 OG         42.3390   60.1230   20.1080 O.3       1 SER        -0.3903
     53 N          39.0490   62.0960   22.3230 N.am      1 VAL        -0.2692
     54 CA         37.9440   63.0150   22.5640 C.3       1 VAL         0.0967
     55 C          38.4510   64.4490   22.7150 C.2       1 VAL         0.0603
     56 O          37.6740   65.4020   22.6280 O.co2     1 VAL        -0.5666
     57 CB         37.1300   62.5840   23.8020 C.3       1 VAL        -0.0118
     58 CG1        36.5870   61.1750   23.6130 C.3       1 VAL        -0.0590
     59 CG2        37.9720   62.6580   25.0640 C.3       1 VAL        -0.0590
     60 OXT        39.6410   64.6980   22.9170 O.co2     1 VAL        -0.5666
     61 H1         36.3568   42.0414   24.5977 H         1 ASN         0.2015
     62 H2         37.6498   43.0307   24.8399 H         1 ASN         0.2015
     63 H3         36.7700   43.1505   23.4539 H         1 ASN         0.2015
     64 H4         34.8571   43.8728   24.6244 H         1 ASN         0.1095
     65 H5         35.0726   44.3999   27.0456 H         1 ASN         0.0310
     66 H6         36.7262   43.6984   27.0444 H         1 ASN         0.0310
     67 H7         35.3050   42.6488   26.7198 H         1 ASN         0.0310
     68 H8         38.1599   44.6692   24.2768 H         1 TYR         0.1886
     69 H9         37.9374   47.3108   25.5179 H         1 TYR         0.0821
     70 H10        40.1263   45.4993   24.5374 H         1 TYR         0.0453
     71 H11        39.9353   46.3384   26.1142 H         1 TYR         0.0453
     72 H12        40.6574   48.6611   26.3706 H         1 TYR         0.0530
     73 H13        41.1955   46.6088   22.6684 H         1 TYR         0.0530
     74 H14        42.2205   50.4059   25.6281 H         1 TYR         0.0525
     75 H15        42.7544   48.3529   21.9253 H         1 TYR         0.0525
     76 H16        43.5535   51.0991   23.9832 H         1 TYR         0.2458
     77 H17        38.2387   49.2766   24.6394 H         1 LYS         0.1883
     78 H18        39.1989   49.6072   21.9062 H         1 LYS         0.0800
     79 H19        36.3779   50.5020   22.6353 H         1 LYS         0.0312
     80 H20        36.7990   49.1483   21.5322 H         1 LYS         0.0312
     81 H21        37.4593   52.0860   21.0942 H         1 LYS         0.0269
     82 H22        36.1234   51.1715   20.3158 H         1 LYS         0.0269
     83 H23        38.1284   49.5550   19.6127 H         1 LYS         0.0317
     84 H24        39.0883   51.0575   19.8314 H         1 LYS         0.0317
     85 H25        36.9676   52.0366   18.4313 H         1 LYS         0.0813
     86 H26        37.0244   50.3596   17.7900 H         1 LYS         0.0813
     87 H27        38.3612   51.8611   16.4977 H         1 LYS         0.1994
     88 H28        39.3209   50.7358   17.2201 H         1 LYS         0.1994
     89 H29        39.2689   52.2725   17.8077 H         1 LYS         0.1994
     90 H30        39.6789   51.8353   21.4364 H         1 GLN         0.1883
     91 H31        39.7122   53.6045   23.8357 H         1 GLN         0.0801
     92 H32        42.0661   53.2330   21.9404 H         1 GLN         0.0337
     93 H33        41.8926   52.3520   23.4962 H         1 GLN         0.0337
     94 H34        41.7522   54.6090   24.6335 H         1 GLN         0.0504
     95 H35        42.2085   55.3444   23.0595 H         1 GLN         0.0504
     96 H36        45.1789   52.7947   24.2473 H         1 GLN         0.1814
     97 H37        43.5952   52.2236   23.8402 H         1 GLN         0.1814
     98 H38        39.3158   55.6965   23.4445 H         1 PHE         0.1885
     99 H39        38.9356   56.5257   20.6045 H         1 PHE         0.0823
    100 H40        36.9572   57.8693   21.4539 H         1 PHE         0.0474
    101 H41        37.1040   56.9735   23.0039 H         1 PHE         0.0474
    102 H42        36.0747   56.8052   19.4942 H         1 PHE         0.0557
    103 H43        36.5651   54.5936   23.1054 H         1 PHE         0.0557
    104 H44        34.6736   55.0004   18.5754 H         1 PHE         0.0599
    105 H45        35.1649   52.7861   22.1923 H         1 PHE         0.0599
    106 H46        34.2183   52.9843   19.9225 H         1 PHE         0.0559
    107 H47        39.5412   58.5614   20.0710 H         1 SER         0.1884
    108 H48        40.7701   60.2755   22.1396 H         1 SER         0.0823
    109 H49        41.1629   61.8076   20.1020 H         1 SER         0.0606
    110 H50        40.5745   60.4356   19.1030 H         1 SER         0.0606
    111 H51        42.7619   60.3635   20.9240 H         1 SER         0.2097
    112 H52        39.8742   62.1598   22.8842 H         1 VAL         0.1875
    113 H53        37.2767   62.9809   21.6902 H         1 VAL         0.0729
    114 H54        36.2798   63.2730   23.9132 H         1 VAL         0.0336
    115 H55        36.0098   60.8822   24.5024 H         1 VAL         0.0234
    116 H56        37.4240   60.4753   23.4724 H         1 VAL         0.0234
    117 H57        35.9347   61.1491   22.7277 H         1 VAL         0.0234
    118 H58        38.3576   63.6807   25.1880 H         1 VAL         0.0234
    119 H59        38.8148   61.9556   24.9842 H         1 VAL         0.0234
    120 H60        37.3535   62.3914   25.9337 H         1 VAL         0.0234
@<TRIPOS>BOND
     1    1    2 1  
     2    2    3 1  
     3    2    5 1  
     4    3    4 2  
     5    3    6 am 
     6    6    7 1  
     7    7    8 1  
     8    7   10 1  
     9    8    9 2  
    10    8   18 am 
    11   10   11 1  
    12   11   12 ar 
    13   11   13 ar 
    14   12   14 ar 
    15   13   15 ar 
    16   14   16 ar 
    17   15   16 ar 
    18   16   17 1  
    19   18   19 1  
    20   19   20 1  
    21   19   22 1  
    22   20   21 2  
    23   20   27 am 
    24   22   23 1  
    25   23   24 1  
    26   24   25 1  
    27   25   26 1  
    28   27   28 1  
    29   28   29 1  
    30   28   31 1  
    31   29   30 2  
    32   29   36 am 
    33   31   32 1  
    34   32   33 1  
    35   33   34 2  
    36   33   35 am 
    37   36   37 1  
    38   37   38 1  
    39   37   40 1  
    40   38   39 2  
    41   38   47 am 
    42   40   41 1  
    43   41   42 ar 
    44   41   43 ar 
    45   42   44 ar 
    46   43   45 ar 
    47   44   46 ar 
    48   45   46 ar 
    49   47   48 1  
    50   48   49 1  
    51   48   51 1  
    52   49   50 2  
    53   49   53 am 
    54   51   52 1  
    55   53   54 1  
    56   54   55 1  
    57   54   57 1  
    58   55   56 ar 
    59   55   60 ar 
    60   57   58 1  
    61   57   59 1  
    62    1   61 1  
    63    1   62 1  
    64    1   63 1  
    65    2   64 1  
    66    5   65 1  
    67    5   66 1  
    68    5   67 1  
    69    6   68 1  
    70    7   69 1  
    71   10   70 1  
    72   10   71 1  
    73   12   72 1  
    74   13   73 1  
    75   14   74 1  
    76   15   75 1  
    77   17   76 1  
    78   18   77 1  
    79   19   78 1  
    80   22   79 1  
    81   22   80 1  
    82   23   81 1  
    83   23   82 1  
    84   24   83 1  
    85   24   84 1  
    86   25   85 1  
    87   25   86 1  
    88   26   87 1  
    89   26   88 1  
    90   26   89 1  
    91   27   90 1  
    92   28   91 1  
    93   31   92 1  
    94   31   93 1  
    95   32   94 1  
    96   32   95 1  
    97   35   96 1  
    98   35   97 1  
    99   36   98 1  
   100   37   99 1  
   101   40  100 1  
   102   40  101 1  
   103   42  102 1  
   104   43  103 1  
   105   44  104 1  
   106   45  105 1  
   107   46  106 1  
   108   47  107 1  
   109   48  108 1  
   110   51  109 1  
   111   51  110 1  
   112   52  111 1  
   113   53  112 1  
   114   54  113 1  
   115   57  114 1  
   116   58  115 1  
   117   58  116 1  
   118   58  117 1  
   119   59  118 1  
   120   59  119 1  
   121   59  120 1  
@<TRIPOS>SUBSTRUCTURE
     1 ASN         1

