5hf1_ligand
  -I-interpret- 

121122  0  0  0  0  0  0  0  0999 V2000
   36.7250   42.9670   24.4440 N   0  3  0  0  0
   35.8550   43.9480   25.0810 C   0  0  0  0  0
   36.3730   45.3690   24.8750 C   0  0  0  0  0
   35.6160   46.3340   24.9500 O   0  0  0  0  0
   35.7310   43.6530   26.5780 C   0  0  0  0  0
   37.6630   45.4820   24.5810 N   0  0  0  0  0
   38.3840   46.7480   24.6850 C   0  0  0  0  0
   38.3400   47.6560   23.4480 C   0  0  0  0  0
   38.3530   47.1830   22.3120 O   0  0  0  0  0
   39.8470   46.4460   25.0230 C   0  0  0  0  0
   40.8110   47.5130   24.5720 C   0  0  0  0  0
   41.1160   48.5890   25.3910 C   0  0  0  0  0
   41.4170   47.4440   23.3230 C   0  0  0  0  0
   41.9930   49.5680   24.9790 C   0  0  0  0  0
   42.2930   48.4180   22.9040 C   0  0  0  0  0
   42.5790   49.4740   23.7350 C   0  0  0  0  0
   43.4560   50.4390   23.3070 O   0  0  0  0  0
   38.3310   48.9640   23.6940 N   0  0  0  0  0
   38.4510   49.9570   22.6330 C   0  0  0  0  0
   38.9260   51.2850   23.2220 C   0  0  0  0  0
   38.7080   51.5620   24.4020 O   0  0  0  0  0
   37.1150   50.1330   21.9070 C   0  0  0  0  0
   37.1390   51.0980   20.7320 C   0  0  0  0  0
   38.0850   50.6540   19.6300 C   0  0  0  0  0
   37.6080   51.1560   18.2750 C   0  0  0  0  0
   38.7300   51.5370   17.3780 N   0  3  0  0  0
   39.5700   52.1020   22.3940 N   0  0  0  0  0
   40.1220   53.3750   22.8410 C   0  0  0  0  0
   39.7170   54.4930   21.8830 C   0  0  0  0  0
   39.7860   54.3320   20.6630 O   0  0  0  0  0
   41.6460   53.2780   22.9560 C   0  0  0  0  0
   42.2960   54.4480   23.6910 C   0  0  0  0  0
   43.7710   54.2350   24.0190 C   0  0  0  0  0
   44.4970   55.2010   24.2600 O   0  0  0  0  0
   44.2190   52.9800   24.0370 N   0  0  0  0  0
   39.2870   55.6180   22.4480 N   0  0  0  0  0
   38.7750   56.7420   21.6710 C   0  0  0  0  0
   39.4940   58.0400   22.0160 C   0  0  0  0  0
   39.8420   58.2760   23.1730 O   0  0  0  0  0
   37.2720   56.9230   21.9180 C   0  0  0  0  0
   36.4210   55.8180   21.3600 C   0  0  0  0  0
   35.8790   55.9210   20.0900 C   0  0  0  0  0
   36.1530   54.6860   22.1070 C   0  0  0  0  0
   35.0900   54.9080   19.5720 C   0  0  0  0  0
   35.3650   53.6690   21.5960 C   0  0  0  0  0
   34.8340   53.7800   20.3260 C   0  0  0  0  0
   39.7070   58.8780   21.0050 N   0  0  0  0  0
   40.1750   60.2450   21.2150 C   0  0  0  0  0
   38.9760   61.1740   21.3680 C   0  0  0  0  0
   37.9980   61.0590   20.6290 O   0  0  0  0  0
   41.0560   60.7140   20.0520 C   0  0  0  0  0
   42.3390   60.1230   20.1080 O   0  0  0  0  0
   39.0490   62.0960   22.3230 N   0  0  0  0  0
   37.9440   63.0150   22.5640 C   0  0  0  0  0
   38.4510   64.4490   22.7150 C   0  0  0  0  0
   37.6740   65.4020   22.6280 O   0  0  0  0  0
   37.1300   62.5840   23.8020 C   0  0  0  0  0
   36.5870   61.1750   23.6130 C   0  0  0  0  0
   37.9720   62.6580   25.0640 C   0  0  0  0  0
   39.6410   64.6980   22.9170 O   0  0  0  0  0
   36.7985   43.1754   23.4482 H   0  0  0  0  0
   37.6507   43.0077   24.8704 H   0  0  0  0  0
   36.3324   42.0340   24.5693 H   0  0  0  0  0
   34.8727   43.8730   24.6146 H   0  0  0  0  0
   36.7090   43.7525   27.0489 H   0  0  0  0  0
   35.0352   44.3599   27.0299 H   0  0  0  0  0
   35.3608   42.6373   26.7174 H   0  0  0  0  0
   38.1698   44.6530   24.2707 H   0  0  0  0  0
   37.8696   47.3094   25.4649 H   0  0  0  0  0
   40.1162   45.5259   24.5043 H   0  0  0  0  0
   39.9218   46.3795   26.1084 H   0  0  0  0  0
   40.6548   48.6615   26.3760 H   0  0  0  0  0
   41.1943   46.6042   22.6648 H   0  0  0  0  0
   42.2218   50.4105   25.6317 H   0  0  0  0  0
   42.7569   48.3526   21.9198 H   0  0  0  0  0
   43.7671   50.2189   22.4259 H   0  0  0  0  0
   38.2369   49.2829   24.6583 H   0  0  0  0  0
   39.1853   49.6119   21.9051 H   0  0  0  0  0
   36.4150   50.5433   22.6348 H   0  0  0  0  0
   36.8465   49.1563   21.5045 H   0  0  0  0  0
   37.4827   52.0650   21.0994 H   0  0  0  0  0
   36.1336   51.1414   20.3133 H   0  0  0  0  0
   38.1160   49.5646   19.6106 H   0  0  0  0  0
   39.0747   51.0651   19.8290 H   0  0  0  0  0
   36.9970   52.0430   18.4425 H   0  0  0  0  0
   37.0544   50.3492   17.7948 H   0  0  0  0  0
   38.3556   51.8648   16.4876 H   0  0  0  0  0
   39.2745   52.2812   17.8139 H   0  0  0  0  0
   39.3272   50.7255   17.2190 H   0  0  0  0  0
   39.6811   51.8300   21.4172 H   0  0  0  0  0
   39.7191   53.6095   23.8263 H   0  0  0  0  0
   42.0448   53.2749   21.9416 H   0  0  0  0  0
   41.8679   52.3768   23.5276 H   0  0  0  0  0
   41.7689   54.5673   24.6376 H   0  0  0  0  0
   42.2335   55.3161   23.0348 H   0  0  0  0  0
   45.1970   52.7907   24.2564 H   0  0  0  0  0
   43.5839   52.2088   23.8314 H   0  0  0  0  0
   39.3164   55.6980   23.4644 H   0  0  0  0  0
   38.9543   56.5139   20.6203 H   0  0  0  0  0
   36.9719   57.8444   21.4189 H   0  0  0  0  0
   37.1215   56.9320   22.9975 H   0  0  0  0  0
   36.0758   56.8101   19.4910 H   0  0  0  0  0
   36.5673   54.5931   23.1109 H   0  0  0  0  0
   34.6713   55.0009   18.5699 H   0  0  0  0  0
   35.1638   52.7813   22.1956 H   0  0  0  0  0
   34.2149   52.9799   19.9202 H   0  0  0  0  0
   39.5379   58.5551   20.0523 H   0  0  0  0  0
   40.7773   60.2686   22.1231 H   0  0  0  0  0
   41.1695   61.7961   20.1174 H   0  0  0  0  0
   40.5799   60.4212   19.1163 H   0  0  0  0  0
   42.8663   60.4350   19.3689 H   0  0  0  0  0
   39.8907   62.1611   22.8954 H   0  0  0  0  0
   37.2823   62.9818   21.6985 H   0  0  0  0  0
   36.7850   65.0753   22.4714 H   0  0  0  0  0
   36.2933   63.2739   23.9124 H   0  0  0  0  0
   35.9409   61.1507   22.7355 H   0  0  0  0  0
   37.4173   60.4827   23.4737 H   0  0  0  0  0
   36.0153   60.8860   24.4949 H   0  0  0  0  0
   38.8324   61.9963   24.9645 H   0  0  0  0  0
   38.3148   63.6822   25.2110 H   0  0  0  0  0
   37.3709   62.3484   25.9190 H   0  0  0  0  0
  1  2  1  0  0  0
  2  3  1  0  0  0
  2  5  1  0  0  0
  3  4  2  0  0  0
  3  6  1  0  0  0
  6  7  1  0  0  0
  7  8  1  0  0  0
  7 10  1  0  0  0
  8  9  2  0  0  0
  8 18  1  0  0  0
 10 11  1  0  0  0
 11 12  4  0  0  0
 11 13  4  0  0  0
 12 14  4  0  0  0
 13 15  4  0  0  0
 14 16  4  0  0  0
 15 16  4  0  0  0
 16 17  1  0  0  0
 18 19  1  0  0  0
 19 20  1  0  0  0
 19 22  1  0  0  0
 20 21  2  0  0  0
 20 27  1  0  0  0
 22 23  1  0  0  0
 23 24  1  0  0  0
 24 25  1  0  0  0
 25 26  1  0  0  0
 27 28  1  0  0  0
 28 29  1  0  0  0
 28 31  1  0  0  0
 29 30  2  0  0  0
 29 36  1  0  0  0
 31 32  1  0  0  0
 32 33  1  0  0  0
 33 34  2  0  0  0
 33 35  1  0  0  0
 36 37  1  0  0  0
 37 38  1  0  0  0
 37 40  1  0  0  0
 38 39  2  0  0  0
 38 47  1  0  0  0
 40 41  1  0  0  0
 41 42  4  0  0  0
 41 43  4  0  0  0
 42 44  4  0  0  0
 43 45  4  0  0  0
 44 46  4  0  0  0
 45 46  4  0  0  0
 47 48  1  0  0  0
 48 49  1  0  0  0
 48 51  1  0  0  0
 49 50  2  0  0  0
 49 53  1  0  0  0
 51 52  1  0  0  0
 53 54  1  0  0  0
 54 55  1  0  0  0
 54 57  1  0  0  0
 55 56  1  0  0  0
 55 60  2  0  0  0
 57 58  1  0  0  0
 57 59  1  0  0  0
  1 61  1  0  0  0
  1 62  1  0  0  0
  1 63  1  0  0  0
  2 64  1  0  0  0
  5 65  1  0  0  0
  5 66  1  0  0  0
  5 67  1  0  0  0
  6 68  1  0  0  0
  7 69  1  0  0  0
 10 70  1  0  0  0
 10 71  1  0  0  0
 12 72  1  0  0  0
 13 73  1  0  0  0
 14 74  1  0  0  0
 15 75  1  0  0  0
 17 76  1  0  0  0
 18 77  1  0  0  0
 19 78  1  0  0  0
 22 79  1  0  0  0
 22 80  1  0  0  0
 23 81  1  0  0  0
 23 82  1  0  0  0
 24 83  1  0  0  0
 24 84  1  0  0  0
 25 85  1  0  0  0
 25 86  1  0  0  0
 26 87  1  0  0  0
 26 88  1  0  0  0
 26 89  1  0  0  0
 27 90  1  0  0  0
 28 91  1  0  0  0
 31 92  1  0  0  0
 31 93  1  0  0  0
 32 94  1  0  0  0
 32 95  1  0  0  0
 35 96  1  0  0  0
 35 97  1  0  0  0
 36 98  1  0  0  0
 37 99  1  0  0  0
 40100  1  0  0  0
 40101  1  0  0  0
 42102  1  0  0  0
 43103  1  0  0  0
 44104  1  0  0  0
 45105  1  0  0  0
 46106  1  0  0  0
 47107  1  0  0  0
 48108  1  0  0  0
 51109  1  0  0  0
 51110  1  0  0  0
 52111  1  0  0  0
 53112  1  0  0  0
 54113  1  0  0  0
 56114  1  0  0  0
 57115  1  0  0  0
 58116  1  0  0  0
 58117  1  0  0  0
 58118  1  0  0  0
 59119  1  0  0  0
 59120  1  0  0  0
 59121  1  0  0  0
M  END
$$$$
