1tni_ligand
  -I-interpret- 

 27 27  0  0  0  0  0  0  0  0999 V2000
   29.0920   15.5130   14.1370 C   0  0  0  0  0
   29.8140   15.8390   15.4380 C   0  0  0  0  0
   28.8910   15.4650   16.5610 C   0  0  0  0  0
   29.5580   14.6080   17.6300 C   0  0  0  0  0
   30.1700   13.2680   17.1930 C   0  0  0  0  0
   29.5220   12.4630   16.2720 C   0  0  0  0  0
   29.8790   11.1320   16.1840 C   0  0  0  0  0
   30.8630   10.5610   16.9830 C   0  0  0  0  0
   31.5100   11.3480   17.9030 C   0  0  0  0  0
   31.1550   12.6880   17.9960 C   0  0  0  0  0
   29.8680   14.9520   13.0270 N   0  3  0  0  0
   28.7209   16.4699   13.7699 H   0  0  0  0  0
   28.3694   14.7400   14.3985 H   0  0  0  0  0
   30.0653   16.8987   15.4833 H   0  0  0  0  0
   30.7496   15.2842   15.5081 H   0  0  0  0  0
   28.0734   14.8832   16.1354 H   0  0  0  0  0
   28.5612   16.3882   17.0375 H   0  0  0  0  0
   28.7661   14.3511   18.3336 H   0  0  0  0  0
   30.3929   15.2025   18.0011 H   0  0  0  0  0
   28.7439   12.8724   15.6278 H   0  0  0  0  0
   29.3672   10.5018   15.4567 H   0  0  0  0  0
   31.1166    9.5059   16.8806 H   0  0  0  0  0
   32.2849   10.9310   18.5462 H   0  0  0  0  0
   31.6671   13.3137   18.7270 H   0  0  0  0  0
   29.2513   14.7882   12.2312 H   0  0  0  0  0
   30.6017   15.6086   12.7606 H   0  0  0  0  0
   30.2891   14.0702   13.3196 H   0  0  0  0  0
  2  1  1  0  0  0
  1 11  1  0  0  0
  2  3  1  0  0  0
  3  4  1  0  0  0
  4  5  1  0  0  0
  5  6  4  0  0  0
  5 10  4  0  0  0
  6  7  4  0  0  0
  7  8  4  0  0  0
  8  9  4  0  0  0
  9 10  4  0  0  0
  1 12  1  0  0  0
  1 13  1  0  0  0
  2 14  1  0  0  0
  2 15  1  0  0  0
  3 16  1  0  0  0
  3 17  1  0  0  0
  4 18  1  0  0  0
  4 19  1  0  0  0
  6 20  1  0  0  0
  7 21  1  0  0  0
  8 22  1  0  0  0
  9 23  1  0  0  0
 10 24  1  0  0  0
 11 25  1  0  0  0
 11 26  1  0  0  0
 11 27  1  0  0  0
M  END
$$$$
