2pqj_ligand
  -I-interpret- 

 14 15  0  0  0  0  0  0  0  0999 V2000
  -33.7460   30.4290  -16.5350 N   0  0  0  0  0
  -32.4380   30.8020  -16.5640 C   0  0  0  0  0
  -32.3290   32.0060  -17.0410 N   0  0  0  0  0
  -33.5570   32.4920  -17.3380 C   0  0  0  0  0
  -34.0710   33.7140  -17.8900 C   0  0  0  0  0
  -33.2270   34.7630  -18.2290 N   0  0  0  0  0
  -35.4030   33.8350  -18.0550 N   0  0  0  0  0
  -36.2370   32.8470  -17.7370 C   0  0  0  0  0
  -35.8030   31.6940  -17.2330 N   0  0  0  0  0
  -34.4890   31.4740  -17.0250 C   0  0  0  0  0
  -31.6039   30.1820  -16.2354 H   0  0  0  0  0
  -32.2208   34.6743  -18.0873 H   0  0  0  0  0
  -33.6131   35.6224  -18.6198 H   0  0  0  0  0
  -37.3066   32.9865  -17.8940 H   0  0  0  0  0
  1  2  4  0  0  0
  1 10  4  0  0  0
  2  3  4  0  0  0
  3  4  4  0  0  0
  4  5  4  0  0  0
  4 10  4  0  0  0
  5  6  1  0  0  0
  5  7  4  0  0  0
  7  8  4  0  0  0
  8  9  4  0  0  0
  9 10  4  0  0  0
  2 11  1  0  0  0
  6 12  1  0  0  0
  6 13  1  0  0  0
  8 14  1  0  0  0
M  END
$$$$
