1l7x_ligand
  -I-interpret- 

 24 25  0  0  0  0  0  0  0  0999 V2000
   38.4150  -58.1290  101.3380 N   0  0  0  0  0
   37.1970  -57.8480  102.2260 C   0  0  0  0  0
   39.7250  -57.7790  101.9580 C   0  0  0  0  0
   38.3750  -58.6650  100.0580 C   0  0  0  0  0
   36.0530  -58.1770  101.6350 N   0  0  0  0  0
   37.3970  -57.3820  103.3120 O   0  0  0  0  0
   34.7770  -57.9510  102.4020 C   0  0  0  0  0
   35.9590  -58.7380  100.3080 C   0  0  0  0  0
   37.0660  -58.9750   99.5480 C   0  0  0  0  0
   34.8650  -59.0830   99.6810 N   0  0  0  0  0
   39.4730  -58.8510   99.4210 O   0  0  0  0  0
   36.5970  -59.5200   98.3420 N   0  0  0  0  0
   35.2690  -59.5550   98.4940 C   0  0  0  0  0
   37.3910  -59.9520   97.1840 C   0  0  0  0  0
   40.3438  -58.6737  102.0264 H   0  0  0  0  0
   40.2289  -57.0333  101.3430 H   0  0  0  0  0
   39.5567  -57.3750  102.9563 H   0  0  0  0  0
   34.1389  -57.2622  101.8484 H   0  0  0  0  0
   34.2600  -58.9016  102.5329 H   0  0  0  0  0
   35.0116  -57.5262  103.3780 H   0  0  0  0  0
   34.5859  -59.9288   97.7313 H   0  0  0  0  0
   37.9578  -59.1050   96.7973 H   0  0  0  0  0
   38.0778  -60.7411   97.4900 H   0  0  0  0  0
   36.7245  -60.3293   96.4084 H   0  0  0  0  0
  1  2  1  0  0  0
  1  3  1  0  0  0
  1  4  1  0  0  0
  2  5  1  0  0  0
  2  6  2  0  0  0
  4  9  1  0  0  0
  4 11  2  0  0  0
  5  7  1  0  0  0
  5  8  1  0  0  0
  8  9  4  0  0  0
  8 10  4  0  0  0
  9 12  4  0  0  0
 10 13  4  0  0  0
 12 13  4  0  0  0
 12 14  1  0  0  0
  3 15  1  0  0  0
  3 16  1  0  0  0
  3 17  1  0  0  0
  7 18  1  0  0  0
  7 19  1  0  0  0
  7 20  1  0  0  0
 13 21  1  0  0  0
 14 22  1  0  0  0
 14 23  1  0  0  0
 14 24  1  0  0  0
M  END
$$$$
