6nti_ligand
  -I-interpret- 

 75 77  0  0  0  0  0  0  0  0999 V2000
   45.4300   -8.5410  178.0140 C   0  0  0  0  0
   46.5350   -9.0330  178.9640 C   0  0  0  0  0
   46.8250  -10.5040  178.6380 C   0  0  0  0  0
   45.5500  -11.3400  178.6960 C   0  0  0  0  0
   44.4250  -10.7370  177.8390 C   0  0  0  0  0
   43.1240  -11.5040  178.0880 C   0  0  0  0  0
   45.4370   -5.9210  173.6300 C   0  0  0  0  0
   44.4020   -5.7380  174.7440 C   0  0  0  0  0
   44.9370   -6.4770  175.9660 C   0  0  0  0  0
   45.1950   -7.9150  175.6370 C   0  0  0  0  0
   46.0790   -8.1130  174.3700 C   0  0  0  0  0
   45.5190   -7.3780  173.1890 C   0  0  0  0  0
   42.9720   -3.7150  174.8610 C   0  0  0  0  0
   43.2900   -2.2220  174.6180 C   0  0  0  0  0
   43.6740   -1.5240  175.9390 C   0  0  0  0  0
   42.6000   -1.7520  177.0290 C   0  0  0  0  0
   42.4810   -3.2630  177.2230 C   0  0  0  0  0
   41.4550   -3.6970  178.2770 C   0  0  0  0  0
   41.9790  -10.8280  177.4440 N   0  3  0  0  0
   46.0840   -9.5880  174.2920 N   0  3  0  0  0
   44.9650   -5.0380  172.5740 N   0  3  0  0  0
   43.8990   -0.0890  175.6850 N   0  3  0  0  0
   44.2720   -9.3740  178.2020 O   0  0  0  0  0
   47.7670  -11.0050  179.6080 O   0  0  0  0  0
   45.8370  -12.6510  178.1690 O   0  0  0  0  0
   45.9130   -8.6260  176.6740 O   0  0  0  0  0
   43.9180   -6.3580  176.9700 O   0  0  0  0  0
   44.2300   -4.3670  175.0990 O   0  0  0  0  0
   42.0980   -3.8670  175.9760 O   0  0  0  0  0
   44.4450   -2.1630  173.7440 O   0  0  0  0  0
   43.0530   -1.1390  178.2440 O   0  0  0  0  0
   40.1300   -3.2450  177.9730 O   0  0  0  0  0
   47.7780   -8.2640  178.7670 N   0  3  0  0  0
   45.1577   -7.5059  178.2200 H   0  0  0  0  0
   46.2002   -8.9075  179.9937 H   0  0  0  0  0
   47.2310  -10.5732  177.6288 H   0  0  0  0  0
   45.2224  -11.3734  179.7351 H   0  0  0  0  0
   44.6704  -10.8101  176.7795 H   0  0  0  0  0
   42.9446  -11.5486  179.1622 H   0  0  0  0  0
   43.2217  -12.5043  177.6662 H   0  0  0  0  0
   46.4529   -5.6747  173.9387 H   0  0  0  0  0
   43.4394   -6.1172  174.4010 H   0  0  0  0  0
   45.8834   -6.0586  176.3086 H   0  0  0  0  0
   44.1857   -8.3024  175.4983 H   0  0  0  0  0
   47.0883   -7.7025  174.3990 H   0  0  0  0  0
   46.1466   -7.4969  172.3058 H   0  0  0  0  0
   44.5429   -7.7666  172.8984 H   0  0  0  0  0
   42.4642   -4.1549  174.0027 H   0  0  0  0  0
   42.4161   -1.7302  174.1908 H   0  0  0  0  0
   44.5982   -1.9604  176.3178 H   0  0  0  0  0
   41.6369   -1.3242  176.7505 H   0  0  0  0  0
   43.4601   -3.5892  177.5737 H   0  0  0  0  0
   41.7484   -3.2598  179.2314 H   0  0  0  0  0
   41.4405   -4.7866  178.3030 H   0  0  0  0  0
   41.1268  -11.3585  177.6250 H   0  0  0  0  0
   41.8827   -9.8870  177.8257 H   0  0  0  0  0
   42.1397  -10.7734  176.4382 H   0  0  0  0  0
   46.6389   -9.8829  173.4885 H   0  0  0  0  0
   46.4896   -9.9711  175.1459 H   0  0  0  0  0
   45.1269   -9.9250  174.1879 H   0  0  0  0  0
   45.6000   -5.0926  171.7776 H   0  0  0  0  0
   44.0299   -5.3251  172.2850 H   0  0  0  0  0
   44.9354   -4.0796  172.9218 H   0  0  0  0  0
   44.1530    0.3738  176.5578 H   0  0  0  0  0
   44.6541    0.0209  175.0082 H   0  0  0  0  0
   43.0450    0.3274  175.3140 H   0  0  0  0  0
   48.5701  -10.4802  179.5731 H   0  0  0  0  0
   46.5383  -13.0555  178.6848 H   0  0  0  0  0
   44.2028   -6.8086  177.7684 H   0  0  0  0  0
   44.6690   -1.2453  173.5731 H   0  0  0  0  0
   42.3967   -1.2716  178.9320 H   0  0  0  0  0
   39.5270   -3.5406  178.6590 H   0  0  0  0  0
   47.6057   -7.2813  178.9791 H   0  0  0  0  0
   48.5019   -8.6253  179.3881 H   0  0  0  0  0
   48.0830   -8.3555  177.7980 H   0  0  0  0  0
  1  2  1  0  0  0
  1 23  1  0  0  0
 26  1  1  0  0  0
  2  3  1  0  0  0
  2 33  1  0  0  0
  3  4  1  0  0  0
  3 24  1  0  0  0
  5  4  1  0  0  0
  4 25  1  0  0  0
  5  6  1  0  0  0
 23  5  1  0  0  0
  6 19  1  0  0  0
  8  7  1  0  0  0
  7 12  1  0  0  0
  7 21  1  0  0  0
  8  9  1  0  0  0
 28  8  1  0  0  0
  9 10  1  0  0  0
  9 27  1  0  0  0
 10 11  1  0  0  0
 10 26  1  0  0  0
 12 11  1  0  0  0
 11 20  1  0  0  0
 13 14  1  0  0  0
 13 28  1  0  0  0
 13 29  1  0  0  0
 14 15  1  0  0  0
 14 30  1  0  0  0
 15 16  1  0  0  0
 15 22  1  0  0  0
 16 17  1  0  0  0
 16 31  1  0  0  0
 17 18  1  0  0  0
 17 29  1  0  0  0
 18 32  1  0  0  0
  1 34  1  0  0  0
  2 35  1  0  0  0
  3 36  1  0  0  0
  4 37  1  0  0  0
  5 38  1  0  0  0
  6 39  1  0  0  0
  6 40  1  0  0  0
  7 41  1  0  0  0
  8 42  1  0  0  0
  9 43  1  0  0  0
 10 44  1  0  0  0
 11 45  1  0  0  0
 12 46  1  0  0  0
 12 47  1  0  0  0
 13 48  1  0  0  0
 14 49  1  0  0  0
 15 50  1  0  0  0
 16 51  1  0  0  0
 17 52  1  0  0  0
 18 53  1  0  0  0
 18 54  1  0  0  0
 19 55  1  0  0  0
 19 56  1  0  0  0
 19 57  1  0  0  0
 20 58  1  0  0  0
 20 59  1  0  0  0
 20 60  1  0  0  0
 21 61  1  0  0  0
 21 62  1  0  0  0
 21 63  1  0  0  0
 22 64  1  0  0  0
 22 65  1  0  0  0
 22 66  1  0  0  0
 24 67  1  0  0  0
 25 68  1  0  0  0
 27 69  1  0  0  0
 30 70  1  0  0  0
 31 71  1  0  0  0
 32 72  1  0  0  0
 33 73  1  0  0  0
 33 74  1  0  0  0
 33 75  1  0  0  0
M  END
$$$$
