3t6b_ligand
  -I-interpret- 

 94 97  0  0  0  0  0  0  0  0999 V2000
   22.6620   14.8870   56.5560 N   0  3  0  0  0
   21.9220   16.1400   56.4230 C   0  0  0  0  0
   21.6820   16.5190   54.9610 C   0  0  0  0  0
   22.5490   16.3480   54.1050 O   0  0  0  0  0
   22.6340   17.3000   57.1240 C   0  0  0  0  0
   21.8320   18.5630   56.9450 C   0  0  0  0  0
   22.8120   16.9930   58.5990 C   0  0  0  0  0
   20.5010   17.0510   54.6840 N   0  0  0  0  0
   20.0580   17.2340   53.3110 C   0  0  0  0  0
   19.9000   18.7040   52.9200 C   0  0  0  0  0
   19.6540   19.5620   53.7670 O   0  0  0  0  0
   18.7280   16.4790   53.0850 C   0  0  0  0  0
   17.8770   17.1760   52.0560 C   0  0  0  0  0
   18.9940   15.0180   52.7040 C   0  0  0  0  0
   20.0950   18.9860   51.6340 N   0  0  0  0  0
   19.6810   20.2480   51.0370 C   0  0  0  0  0
   18.5990   19.9510   50.0020 C   0  0  0  0  0
   18.8740   19.3250   48.9770 O   0  0  0  0  0
   20.8580   20.9520   50.3660 C   0  0  0  0  0
   20.5330   22.3520   49.8830 C   0  0  0  0  0
   20.9330   23.4690   50.6070 C   0  0  0  0  0
   19.8150   22.5550   48.7090 C   0  0  0  0  0
   20.6350   24.7450   50.1710 C   0  0  0  0  0
   19.5150   23.8240   48.2640 C   0  0  0  0  0
   19.9250   24.9170   48.9970 C   0  0  0  0  0
   19.6220   26.1860   48.5540 O   0  0  0  0  0
   17.3600   20.3870   50.2710 N   0  0  0  0  0
   16.2200   20.1250   49.3890 C   0  0  0  0  0
   16.2120   21.0490   48.1780 C   0  0  0  0  0
   16.7760   22.1390   48.2350 O   0  0  0  0  0
   15.0290   20.4560   50.2810 C   0  0  0  0  0
   15.5330   21.5740   51.1240 C   0  0  0  0  0
   16.9730   21.2220   51.4220 C   0  0  0  0  0
   15.5690   20.6280   47.0980 N   0  0  0  0  0
   15.4040   21.5100   45.9510 C   0  0  0  0  0
   14.1120   22.3030   46.1010 C   0  0  0  0  0
   13.6180   22.4530   47.2190 O   0  0  0  0  0
   15.4240   20.7260   44.6370 C   0  0  0  0  0
   14.5810   19.4960   44.6520 C   0  0  0  0  0
   14.9780   18.2370   44.9940 C   0  0  0  0  0
   13.1930   19.4010   44.3120 C   0  0  0  0  0
   13.9230   17.3620   44.8870 N   0  0  0  0  0
   12.8160   18.0510   44.4690 C   0  0  0  0  0
   12.2320   20.3270   43.8920 C   0  0  0  0  0
   11.5230   17.6020   44.2200 C   0  0  0  0  0
   10.9450   19.8800   43.6460 C   0  0  0  0  0
   10.6030   18.5290   43.8080 C   0  0  0  0  0
   13.5430   22.8180   45.1350 O   0  0  0  0  0
   22.1559   14.1421   56.0770 H   0  0  0  0  0
   23.5868   14.9938   56.1392 H   0  0  0  0  0
   22.7580   14.6535   57.5443 H   0  0  0  0  0
   20.9596   15.9651   56.9040 H   0  0  0  0  0
   23.6203   17.4366   56.6806 H   0  0  0  0  0
   20.8512   18.4371   57.4035 H   0  0  0  0  0
   22.3532   19.3934   57.4213 H   0  0  0  0  0
   21.7135   18.7689   55.8812 H   0  0  0  0  0
   23.3361   17.8189   59.0800 H   0  0  0  0  0
   21.8340   16.8625   59.0623 H   0  0  0  0  0
   23.3934   16.0778   58.7107 H   0  0  0  0  0
   19.8902   17.3380   55.4488 H   0  0  0  0  0
   20.8377   16.8234   52.6694 H   0  0  0  0  0
   18.1693   16.4812   54.0209 H   0  0  0  0  0
   17.6515   18.1864   52.3970 H   0  0  0  0  0
   18.4174   17.2223   51.1105 H   0  0  0  0  0
   16.9485   16.6218   51.9185 H   0  0  0  0  0
   19.5801   14.9843   51.7856 H   0  0  0  0  0
   19.5459   14.5292   53.5068 H   0  0  0  0  0
   18.0445   14.5055   52.5496 H   0  0  0  0  0
   20.5522   18.2911   51.0437 H   0  0  0  0  0
   19.2998   20.9085   51.8157 H   0  0  0  0  0
   21.1372   20.3618   49.4932 H   0  0  0  0  0
   21.6527   21.0383   51.1070 H   0  0  0  0  0
   21.4909   23.3357   51.5339 H   0  0  0  0  0
   19.4832   21.6933   48.1298 H   0  0  0  0  0
   20.9575   25.6112   50.7487 H   0  0  0  0  0
   18.9569   23.9628   47.3381 H   0  0  0  0  0
   19.1299   26.1277   47.7318 H   0  0  0  0  0
   16.2285   19.1099   48.9919 H   0  0  0  0  0
   14.6967   19.6021   50.8713 H   0  0  0  0  0
   14.1405   20.7277   49.7110 H   0  0  0  0  0
   14.9479   21.6870   52.0367 H   0  0  0  0  0
   15.4492   22.5337   50.6140 H   0  0  0  0  0
   17.6064   22.1018   51.5353 H   0  0  0  0  0
   17.0914   20.7060   52.3748 H   0  0  0  0  0
   15.1881   19.6822   47.0702 H   0  0  0  0  0
   16.2433   22.2047   45.9191 H   0  0  0  0  0
   16.4530   20.4108   44.4641 H   0  0  0  0  0
   15.0254   21.3818   43.8630 H   0  0  0  0  0
   15.9858   17.9640   45.3069 H   0  0  0  0  0
   12.4910   21.3777   43.7613 H   0  0  0  0  0
   11.2529   16.5538   44.3478 H   0  0  0  0  0
   10.1844   20.5898   43.3209 H   0  0  0  0  0
    9.5815   18.2099   43.6012 H   0  0  0  0  0
   14.0341   22.6217   44.3338 H   0  0  0  0  0
  1  2  1  0  0  0
  2  3  1  0  0  0
  2  5  1  0  0  0
  3  4  2  0  0  0
  3  8  1  0  0  0
  5  6  1  0  0  0
  5  7  1  0  0  0
  8  9  1  0  0  0
  9 10  1  0  0  0
  9 12  1  0  0  0
 10 11  2  0  0  0
 10 15  1  0  0  0
 12 13  1  0  0  0
 12 14  1  0  0  0
 15 16  1  0  0  0
 16 17  1  0  0  0
 16 19  1  0  0  0
 17 18  2  0  0  0
 17 27  1  0  0  0
 19 20  1  0  0  0
 20 21  4  0  0  0
 20 22  4  0  0  0
 21 23  4  0  0  0
 22 24  4  0  0  0
 23 25  4  0  0  0
 24 25  4  0  0  0
 25 26  1  0  0  0
 27 28  1  0  0  0
 27 33  1  0  0  0
 28 29  1  0  0  0
 28 31  1  0  0  0
 29 30  2  0  0  0
 29 34  1  0  0  0
 31 32  1  0  0  0
 32 33  1  0  0  0
 34 35  1  0  0  0
 35 36  1  0  0  0
 35 38  1  0  0  0
 36 37  2  0  0  0
 36 48  1  0  0  0
 38 39  1  0  0  0
 39 40  4  0  0  0
 39 41  4  0  0  0
 40 42  4  0  0  0
 41 43  4  0  0  0
 41 44  4  0  0  0
 42 43  4  0  0  0
 43 45  4  0  0  0
 44 46  4  0  0  0
 45 47  4  0  0  0
 46 47  4  0  0  0
  1 49  1  0  0  0
  1 50  1  0  0  0
  1 51  1  0  0  0
  2 52  1  0  0  0
  5 53  1  0  0  0
  6 54  1  0  0  0
  6 55  1  0  0  0
  6 56  1  0  0  0
  7 57  1  0  0  0
  7 58  1  0  0  0
  7 59  1  0  0  0
  8 60  1  0  0  0
  9 61  1  0  0  0
 12 62  1  0  0  0
 13 63  1  0  0  0
 13 64  1  0  0  0
 13 65  1  0  0  0
 14 66  1  0  0  0
 14 67  1  0  0  0
 14 68  1  0  0  0
 15 69  1  0  0  0
 16 70  1  0  0  0
 19 71  1  0  0  0
 19 72  1  0  0  0
 21 73  1  0  0  0
 22 74  1  0  0  0
 23 75  1  0  0  0
 24 76  1  0  0  0
 26 77  1  0  0  0
 28 78  1  0  0  0
 31 79  1  0  0  0
 31 80  1  0  0  0
 32 81  1  0  0  0
 32 82  1  0  0  0
 33 83  1  0  0  0
 33 84  1  0  0  0
 34 85  1  0  0  0
 35 86  1  0  0  0
 38 87  1  0  0  0
 38 88  1  0  0  0
 40 89  1  0  0  0
 44 90  1  0  0  0
 45 91  1  0  0  0
 46 92  1  0  0  0
 47 93  1  0  0  0
 48 94  1  0  0  0
M  END
$$$$
