1qhr_ligand
  -I-interpret- 

 38 38  0  0  0  0  0  0  0  0999 V2000
    8.3700   22.2400   50.9960 C   0  0  0  0  0
    9.1030   23.4970   50.5890 C   0  0  0  0  0
   10.2230   23.1310   49.6730 C   0  0  0  0  0
    9.7290   22.4680   48.4120 C   0  0  0  0  0
   10.8360   22.2680   47.4350 C   0  0  0  0  0
   11.2260   23.2610   46.6640 N   0  0  0  0  0
   11.4170   21.1090   47.2730 N   0  0  0  0  0
    8.5250   23.6270   54.0650 O   0  0  0  0  0
    5.3320   22.5210   54.4660 O   0  0  0  0  0
    6.3410   21.6400   52.4660 C   0  0  0  0  0
    5.1020   19.5650   52.5160 C   0  0  0  0  0
    6.2690   20.2570   51.8370 C   0  0  0  0  0
    5.8490   21.3700   53.8790 C   0  0  0  0  0
    4.7300   20.3800   53.7430 C   0  0  0  0  0
    7.7370   22.2450   52.3860 C   0  0  0  0  0
    7.7660   23.5490   53.1390 C   0  0  0  0  0
    9.1146   21.4440   51.0047 H   0  0  0  0  0
    7.5484   22.1256   50.2890 H   0  0  0  0  0
    9.4995   23.9943   51.4742 H   0  0  0  0  0
    8.4173   24.1738   50.0792 H   0  0  0  0  0
   10.8737   22.4290   50.1944 H   0  0  0  0  0
   10.7474   24.0450   49.3942 H   0  0  0  0  0
    8.9754   23.1096   47.9554 H   0  0  0  0  0
    9.3157   21.4934   48.6718 H   0  0  0  0  0
   11.9582   23.1106   45.9699 H   0  0  0  0  0
   10.7961   24.1809   46.7606 H   0  0  0  0  0
   12.1456   20.9979   46.5679 H   0  0  0  0  0
    5.0308   22.3180   55.3546 H   0  0  0  0  0
    5.7429   22.3964   51.9579 H   0  0  0  0  0
    5.3788   18.5510   52.8045 H   0  0  0  0  0
    4.2537   19.4971   51.8350 H   0  0  0  0  0
    7.1982   19.7048   51.9775 H   0  0  0  0  0
    6.1266   20.3153   50.7579 H   0  0  0  0  0
    6.6714   21.0128   54.4988 H   0  0  0  0  0
    4.6195   19.7589   54.6319 H   0  0  0  0  0
    3.7606   20.8666   53.6356 H   0  0  0  0  0
    8.4292   21.5773   52.8989 H   0  0  0  0  0
    7.1261   24.3846   52.8554 H   0  0  0  0  0
  1  2  1  0  0  0
 15  1  1  0  0  0
  2  3  1  0  0  0
  3  4  1  0  0  0
  4  5  1  0  0  0
  5  6  1  0  0  0
  5  7  2  0  0  0
 16  8  2  0  0  0
 13  9  1  0  0  0
 10 12  1  0  0  0
 10 13  1  0  0  0
 15 10  1  0  0  0
 12 11  1  0  0  0
 14 11  1  0  0  0
 13 14  1  0  0  0
 15 16  1  0  0  0
  1 17  1  0  0  0
  1 18  1  0  0  0
  2 19  1  0  0  0
  2 20  1  0  0  0
  3 21  1  0  0  0
  3 22  1  0  0  0
  4 23  1  0  0  0
  4 24  1  0  0  0
  6 25  1  0  0  0
  6 26  1  0  0  0
  7 27  1  0  0  0
  9 28  1  0  0  0
 10 29  1  0  0  0
 11 30  1  0  0  0
 11 31  1  0  0  0
 12 32  1  0  0  0
 12 33  1  0  0  0
 13 34  1  0  0  0
 14 35  1  0  0  0
 14 36  1  0  0  0
 15 37  1  0  0  0
 16 38  1  0  0  0
M  END
$$$$
