5jf4_ligand
  -I-interpret- 

 28 29  0  0  0  0  0  0  0  0999 V2000
   -5.4060   -3.6480   11.8010 N   0  0  0  0  0
   -4.3600   -4.6250   11.6790 O   0  0  0  0  0
   -5.1620   -2.4560   12.3980 C   0  0  0  0  0
   -4.0680   -2.1490   12.8670 O   0  0  0  0  0
   -6.3490   -1.4650   12.4390 C   0  0  0  0  0
   -6.4290   -0.7300   11.0970 C   0  0  0  0  0
   -6.9430   -1.6470    9.9460 C   0  0  0  0  0
   -7.4700    0.1720   11.5010 C   0  0  0  0  0
   -8.7710    0.1240   11.2870 O   0  0  0  0  0
   -7.1350    1.4200   11.7510 N   0  0  0  0  0
   -9.2650    1.3450   11.4330 N   0  0  0  0  0
   -8.2560    2.1450   11.7160 C   0  0  0  0  0
   -6.9930   -1.1100    8.7110 C   0  0  0  0  0
   -7.4350   -1.7630    7.6360 C   0  0  0  0  0
   -6.5980    0.1150    8.3400 C   0  0  0  0  0
   -6.7960    0.2370    7.0350 C   0  0  0  0  0
   -7.3110   -0.9170    6.6010 C   0  0  0  0  0
   -6.3366   -3.8523   11.4367 H   0  0  0  0  0
   -4.7019   -5.4044   11.2349 H   0  0  0  0  0
   -6.2007   -0.7458   13.2446 H   0  0  0  0  0
   -7.2768   -2.0087   12.6170 H   0  0  0  0  0
   -5.4966   -0.3213   10.7075 H   0  0  0  0  0
   -7.2484   -2.6767   10.1318 H   0  0  0  0  0
   -8.3252    3.2185   11.8920 H   0  0  0  0  0
   -7.8207   -2.7820    7.6038 H   0  0  0  0  0
   -6.1850    0.8797    8.9978 H   0  0  0  0  0
   -6.5789    1.1161    6.4282 H   0  0  0  0  0
   -7.5868   -1.1368    5.5696 H   0  0  0  0  0
  1  2  1  0  0  0
  1  3  1  0  0  0
  3  4  2  0  0  0
  3  5  1  0  0  0
  5  6  1  0  0  0
  6  7  1  0  0  0
  6  8  1  0  0  0
  7 13  2  0  0  0
  8  9  4  0  0  0
  8 10  4  0  0  0
  9 11  4  0  0  0
 10 12  4  0  0  0
 11 12  4  0  0  0
 13 14  1  0  0  0
 13 15  1  0  0  0
 14 17  2  0  0  0
 15 16  2  0  0  0
 16 17  1  0  0  0
  1 18  1  0  0  0
  2 19  1  0  0  0
  5 20  1  0  0  0
  5 21  1  0  0  0
  6 22  1  0  0  0
  7 23  1  0  0  0
 12 24  1  0  0  0
 14 25  1  0  0  0
 15 26  1  0  0  0
 16 27  1  0  0  0
 17 28  1  0  0  0
M  END
$$$$
