4djw_ligand
  -I-interpret- 

 44 47  0  0  0  0  0  0  0  0999 V2000
   22.3600   13.0630   22.3480 O   0  0  0  0  0
   22.4950   11.8750   22.5810 C   0  0  0  0  0
   22.3390   10.6680   21.5610 C   0  0  0  0  0
   22.5380    9.4930   22.4640 N   0  0  0  0  0
   22.7800    9.9140   23.7010 C   0  0  0  0  0
   22.7860   11.3350   23.8120 N   0  0  0  0  0
   22.9970    9.1110   24.7490 N   0  0  0  0  0
   23.0220   12.1410   25.0180 C   0  0  0  0  0
   20.9020   10.6270   21.0050 C   0  0  0  0  0
   20.2720    9.4140   20.7470 C   0  0  0  0  0
   18.9690    9.3760   20.2600 C   0  0  0  0  0
   18.2800   10.5440   20.0210 C   0  0  0  0  0
   18.8920   11.7530   20.2590 C   0  0  0  0  0
   20.1950   11.7970   20.7440 C   0  0  0  0  0
   23.4880   10.6920   20.5300 C   0  0  0  0  0
   23.2110   10.7890   19.1730 C   0  0  0  0  0
   24.2350   10.8650   18.2430 C   0  0  0  0  0
   25.5500   10.8410   18.6560 C   0  0  0  0  0
   25.8710   10.7460   20.0070 C   0  0  0  0  0
   24.8260   10.6610   20.9430 C   0  0  0  0  0
   29.8540   10.9130   21.4510 C   0  0  0  0  0
   29.1260    9.8230   21.7090 N   0  0  0  0  0
   27.8830    9.7800   21.2080 C   0  0  0  0  0
   27.3000   10.8010   20.4650 C   0  0  0  0  0
   28.0930   11.9190   20.2200 C   0  0  0  0  0
   29.3850   11.9780   20.7130 C   0  0  0  0  0
   22.4946    8.5160   22.1743 H   0  0  0  0  0
   23.1752    9.5114   25.6700 H   0  0  0  0  0
   22.2687   11.8996   25.7679 H   0  0  0  0  0
   24.0136   11.9199   25.4129 H   0  0  0  0  0
   22.9581   13.1992   24.7645 H   0  0  0  0  0
   20.8058    8.4812   20.9286 H   0  0  0  0  0
   18.4908    8.4158   20.0665 H   0  0  0  0  0
   17.2571   10.5110   19.6459 H   0  0  0  0  0
   18.3533   12.6808   20.0666 H   0  0  0  0  0
   20.6693   12.7621   20.9223 H   0  0  0  0  0
   22.1748   10.8056   18.8351 H   0  0  0  0  0
   24.0002   10.9440   17.1815 H   0  0  0  0  0
   26.3480   10.8971   17.9156 H   0  0  0  0  0
   25.0598   10.5698   22.0037 H   0  0  0  0  0
   30.8696   10.9624   21.8438 H   0  0  0  0  0
   27.2898    8.8850   21.3956 H   0  0  0  0  0
   27.6951   12.7504   19.6381 H   0  0  0  0  0
   30.0162   12.8459   20.5221 H   0  0  0  0  0
  2  1  2  0  0  0
  3  2  1  0  0  0
  2  6  1  0  0  0
  3  4  1  0  0  0
  3  9  1  0  0  0
 15  3  1  0  0  0
  4  5  1  0  0  0
  5  6  4  0  0  0
  5  7  2  0  0  0
  6  8  1  0  0  0
  9 10  4  0  0  0
  9 14  4  0  0  0
 10 11  4  0  0  0
 11 12  4  0  0  0
 13 12  4  0  0  0
 14 13  4  0  0  0
 15 16  4  0  0  0
 20 15  4  0  0  0
 17 16  4  0  0  0
 18 17  4  0  0  0
 19 18  4  0  0  0
 19 20  4  0  0  0
 24 19  1  0  0  0
 22 21  4  0  0  0
 21 26  4  0  0  0
 23 22  4  0  0  0
 23 24  4  0  0  0
 24 25  4  0  0  0
 25 26  4  0  0  0
  4 27  1  0  0  0
  7 28  1  0  0  0
  8 29  1  0  0  0
  8 30  1  0  0  0
  8 31  1  0  0  0
 10 32  1  0  0  0
 11 33  1  0  0  0
 12 34  1  0  0  0
 13 35  1  0  0  0
 14 36  1  0  0  0
 16 37  1  0  0  0
 17 38  1  0  0  0
 18 39  1  0  0  0
 20 40  1  0  0  0
 21 41  1  0  0  0
 23 42  1  0  0  0
 25 43  1  0  0  0
 26 44  1  0  0  0
M  END
$$$$
