1cbx_ligand
  -I-interpret- 

 27 27  0  0  0  0  0  0  0  0999 V2000
   -3.1400   29.2320   -6.2390 C   0  0  0  0  0
   -2.9080   30.4600   -7.1040 C   0  0  0  0  0
   -2.4310   29.9480   -8.4960 C   0  0  0  0  0
   -0.8810   29.5390   -8.4040 C   0  0  0  0  0
   -2.4990   31.1490   -9.4890 C   0  0  0  0  0
   -2.3840   30.3750  -10.8520 C   0  0  0  0  0
   -1.1270   30.1830  -11.4430 C   0  0  0  0  0
   -3.5270   29.9620  -11.5680 C   0  0  0  0  0
   -1.0840   29.5700  -12.7240 C   0  0  0  0  0
   -3.4510   29.3590  -12.7630 C   0  0  0  0  0
   -2.2380   29.2010  -13.3510 C   0  0  0  0  0
   -2.1330   28.7490   -5.8540 O   0  0  0  0  0
   -4.2260   28.7800   -5.9400 O   0  0  0  0  0
   -0.4790   28.3510   -8.8140 O   0  0  0  0  0
   -0.1130   30.3680   -7.8260 O   0  0  0  0  0
   -2.1605   31.1141   -6.6551 H   0  0  0  0  0
   -3.8229   31.0448   -7.1993 H   0  0  0  0  0
   -3.0461   29.1047   -8.8099 H   0  0  0  0  0
   -1.7326   31.9084   -9.3338 H   0  0  0  0  0
   -3.3926   31.7656   -9.3928 H   0  0  0  0  0
   -0.2132   30.4937  -10.9365 H   0  0  0  0  0
   -4.5103   30.1400  -11.1328 H   0  0  0  0  0
   -0.1237   29.3936  -13.2085 H   0  0  0  0  0
   -4.3537   28.9995  -13.2570 H   0  0  0  0  0
   -2.1845   28.7681  -14.3499 H   0  0  0  0  0
   -4.9150   29.3087   -6.3490 H   0  0  0  0  0
   -1.2148   27.8886   -9.2220 H   0  0  0  0  0
  1  2  1  0  0  0
  1 12  2  0  0  0
  1 13  1  0  0  0
  2  3  1  0  0  0
  3  4  1  0  0  0
  3  5  1  0  0  0
  4 14  1  0  0  0
  4 15  2  0  0  0
  5  6  1  0  0  0
  6  7  4  0  0  0
  6  8  4  0  0  0
  7  9  4  0  0  0
  8 10  4  0  0  0
  9 11  4  0  0  0
 10 11  4  0  0  0
  2 16  1  0  0  0
  2 17  1  0  0  0
  3 18  1  0  0  0
  5 19  1  0  0  0
  5 20  1  0  0  0
  7 21  1  0  0  0
  8 22  1  0  0  0
  9 23  1  0  0  0
 10 24  1  0  0  0
 11 25  1  0  0  0
 13 26  1  0  0  0
 14 27  1  0  0  0
M  END
$$$$
