### 
### Created by X-TOOL on Mon Sep 10 21:13:05 2018
### 

@<TRIPOS>MOLECULE
2rr4_ligand
  180   179     1     0     0
SMALL
GAST_HUCK


@<TRIPOS>ATOM
      1 N         -12.2980    5.0340    1.1990 N.4       1 ALA         0.2377
      2 CA        -10.9640    4.3900    1.2840 C.3       1 ALA         0.0621
      3 C          -9.9510    5.1830    0.4520 C.2       1 ALA         0.2264
      4 O         -10.0570    5.2030   -0.7770 O.2       1 ALA        -0.3907
      5 CB        -11.0170    2.9160    0.8250 C.3       1 ALA        -0.0040
      6 N          -8.9790    5.8570    1.0890 N.am      1 ARG        -0.2610
      7 CA         -7.9120    6.5620    0.3570 C.3       1 ARG         0.1312
      8 C          -6.9170    5.5820   -0.2720 C.2       1 ARG         0.2040
      9 O          -6.6730    4.4900    0.2510 O.2       1 ARG        -0.3944
     10 CB         -7.1580    7.5740    1.2350 C.3       1 ARG        -0.0092
     11 CG         -7.9960    8.8250    1.5260 C.3       1 ARG        -0.0156
     12 CD         -7.1710    9.8810    2.2720 C.3       1 ARG         0.0627
     13 NE         -7.9740   11.0810    2.5730 N.pl3     1 ARG        -0.2723
     14 CZ         -8.1720   12.1330    1.7830 C.cat     1 ARG         0.2882
     15 NH1        -7.6490   12.2150    0.5760 N.pl3     1 ARG        -0.2849
     16 NH2        -8.9130   13.1330    2.2060 N.pl3     1 ARG        -0.2849
     17 N          -6.3210    6.0230   -1.3790 N.am      1 THR        -0.2613
     18 CA         -5.3160    5.3130   -2.1790 C.3       1 THR         0.1565
     19 C          -4.2040    6.2730   -2.5740 C.2       1 THR         0.2065
     20 O          -4.4330    7.4660   -2.7850 O.2       1 THR        -0.3943
     21 CB         -5.9330    4.6740   -3.4320 C.3       1 THR         0.0924
     22 OG1        -6.8010    5.5700   -4.0930 O.3       1 THR        -0.3874
     23 CG2        -6.6980    3.3950   -3.0990 C.3       1 THR        -0.0346
     24 N          -2.9930    5.7290   -2.6730 N.am      1 M3L        -0.2637
     25 CA         -1.7840    6.4140   -3.1570 C.3       1 M3L         0.1310
     26 CB         -1.0980    7.1880   -2.0020 C.3       1 M3L        -0.0122
     27 CG         -0.3140    6.2740   -1.0470 C.3       1 M3L        -0.0440
     28 CD          0.4220    7.0120    0.0760 C.3       1 M3L        -0.0123
     29 CE          1.4280    6.0200    0.7060 C.3       1 M3L        -0.0309
     30 NZ          2.0900    6.4730    1.9410 N.4       1 M3L         0.2369
     31 C          -0.8260    5.4380   -3.8540 C.2       1 M3L         0.2039
     32 O          -1.0230    4.2220   -3.8390 O.2       1 M3L        -0.3944
     33 CM1         3.0140    5.4210    2.3510 C.3       1 M3L        -0.0418
     34 CM2         1.1380    6.6650    3.0330 C.3       1 M3L        -0.0418
     35 CM3         2.8560    7.7020    1.7340 C.3       1 M3L        -0.0418
     36 N           0.2580    5.9920   -4.3830 N.am      1 GLN        -0.2636
     37 CA          1.4070    5.2560   -4.9030 C.3       1 GLN         0.1330
     38 C           2.7010    5.9120   -4.4080 C.2       1 GLN         0.2041
     39 O           2.7490    7.1310   -4.2110 O.2       1 GLN        -0.3944
     40 CB          1.3660    5.2220   -6.4390 C.3       1 GLN         0.0045
     41 CG          0.1640    4.4320   -6.9820 C.3       1 GLN         0.0412
     42 CD          0.4160    3.9260   -8.4010 C.2       1 GLN         0.1737
     43 OE1        -0.0880    4.4500   -9.3870 O.2       1 GLN        -0.3973
     44 NE2         1.2150    2.8890   -8.5480 N.am      1 GLN        -0.3009
     45 N           3.7530    5.1020   -4.2300 N.am      1 THR        -0.2613
     46 CA          5.1110    5.5550   -3.8900 C.3       1 THR         0.1565
     47 C           6.1290    4.8710   -4.8040 C.2       1 THR         0.2065
     48 O           5.8130    3.8900   -5.4820 O.2       1 THR        -0.3943
     49 CB          5.4610    5.3450   -2.4070 C.3       1 THR         0.0924
     50 OG1         5.5190    3.9700   -2.1020 O.3       1 THR        -0.3874
     51 CG2         4.4750    6.0210   -1.4560 C.3       1 THR        -0.0346
     52 N           7.3580    5.3870   -4.8330 N.am      1 ALA        -0.2639
     53 CA          8.4940    4.7330   -5.4860 C.3       1 ALA         0.1282
     54 C           9.1870    3.7620   -4.5120 C.2       1 ALA         0.2036
     55 O           9.3250    4.0690   -3.3230 O.2       1 ALA        -0.3944
     56 CB          9.4490    5.8200   -5.9990 C.3       1 ALA        -0.0244
     57 N           9.6560    2.6090   -5.0120 N.am      1 ARG        -0.2637
     58 CA         10.4260    1.6340   -4.2220 C.3       1 ARG         0.1311
     59 C          11.8600    2.1490   -3.9950 C.2       1 ARG         0.2039
     60 O          12.7740    1.8530   -4.7680 O.2       1 ARG        -0.3944
     61 CB         10.3960    0.2420   -4.8840 C.3       1 ARG        -0.0092
     62 CG          8.9850   -0.3710   -4.9440 C.3       1 ARG        -0.0156
     63 CD          9.0220   -1.8430   -5.3850 C.3       1 ARG         0.0627
     64 NE          9.5870   -2.7040   -4.3280 N.pl3     1 ARG        -0.2723
     65 CZ         10.0670   -3.9360   -4.4600 C.cat     1 ARG         0.2882
     66 NH1        10.1170   -4.5660   -5.6150 N.pl3     1 ARG        -0.2849
     67 NH2        10.5210   -4.5710   -3.4010 N.pl3     1 ARG        -0.2849
     68 N          12.0420    2.9580   -2.9470 N.am      1 LYS        -0.2637
     69 CA         13.2500    3.7490   -2.6410 C.3       1 LYS         0.1309
     70 C          13.5270    3.8320   -1.1190 C.2       1 LYS         0.2034
     71 O          12.6530    3.5280   -0.3000 O.2       1 LYS        -0.3944
     72 CB         13.0750    5.1740   -3.2260 C.3       1 LYS        -0.0122
     73 CG         12.9750    5.2800   -4.7610 C.3       1 LYS        -0.0440
     74 CD         14.2530    4.8950   -5.5300 C.3       1 LYS        -0.0124
     75 CE         15.4650    5.8020   -5.2510 C.3       1 LYS        -0.0354
     76 NZ         15.2750    7.1870   -5.7640 N.4       1 LYS         0.2185
     77 N          14.7350    4.2880   -0.7540 N.am      1 SER        -0.2672
     78 CA         15.2060    4.5440    0.6270 C.3       1 SER         0.1173
     79 C          15.8570    5.9270    0.7490 C.2       1 SER         0.0623
     80 O          15.4870    6.6800    1.6770 O.co2     1 SER        -0.5665
     81 CB         16.2120    3.4790    1.0750 C.3       1 SER         0.0789
     82 OG         15.6050    2.1970    1.0760 O.3       1 SER        -0.3910
     83 OXT        16.7240    6.2580   -0.0930 O.co2     1 SER        -0.5665
     84 H         -12.2266    6.0033    1.5085 H         1 ALA         0.2015
     85 H         -12.6262    5.0074    0.2336 H         1 ALA         0.2015
     86 H         -12.9550    4.5325    1.7967 H         1 ALA         0.2015
     87 H         -10.6477    4.3930    2.3271 H         1 ALA         0.1095
     88 H         -11.3126    2.8736   -0.2233 H         1 ALA         0.0310
     89 H         -10.0325    2.4639    0.9448 H         1 ALA         0.0310
     90 H         -11.7432    2.3740    1.4308 H         1 ALA         0.0310
     91 H          -8.9796    5.8814    2.1087 H         1 ARG         0.1884
     92 H          -8.4137    7.1169   -0.4358 H         1 ARG         0.0800
     93 H          -6.2599    7.8839    0.7007 H         1 ARG         0.0313
     94 H          -6.9259    7.0925    2.1849 H         1 ARG         0.0313
     95 H          -8.8434    8.5399    2.1495 H         1 ARG         0.0301
     96 H          -8.3306    9.2487    0.5791 H         1 ARG         0.0301
     97 H          -6.3340   10.1756    1.6390 H         1 ARG         0.0689
     98 H          -6.8283    9.4501    3.2127 H         1 ARG         0.0689
     99 H          -8.4270   11.1072    3.4865 H         1 ARG         0.2642
    100 H          -7.0698   11.4553    0.2185 H         1 ARG         0.2615
    101 H          -7.8235   13.0381   -0.0006 H         1 ARG         0.2615
    102 H          -9.3324   13.0996    3.1352 H         1 ARG         0.2615
    103 H          -9.0685   13.9424    1.6050 H         1 ARG         0.2615
    104 H          -6.5914    6.9511   -1.7045 H         1 THR         0.1884
    105 H          -4.9066    4.5083   -1.5682 H         1 THR         0.0826
    106 H          -5.1011    4.4257   -4.0910 H         1 THR         0.0639
    107 H          -7.1696    5.1425   -4.8696 H         1 THR         0.2101
    108 H          -6.0177    2.6737   -2.6462 H         1 THR         0.0257
    109 H          -7.5024    3.6257   -2.4006 H         1 THR         0.0257
    110 H          -7.1180    2.9759   -4.0133 H         1 THR         0.0257
    111 H          -2.8948    4.7542   -2.3891 H         1 M3L         0.1883
    112 H          -2.0813    7.1447   -3.9092 H         1 M3L         0.0800
    113 H          -1.8793    7.6803   -1.4229 H         1 M3L         0.0312
    114 H          -0.3905    7.8880   -2.4464 H         1 M3L         0.0312
    115 H           0.4425    5.7633   -1.6429 H         1 M3L         0.0269
    116 H          -1.0380    5.6115   -0.5728 H         1 M3L         0.0269
    117 H          -0.2852    7.3647    0.8267 H         1 M3L         0.0317
    118 H           0.9440    7.8833   -0.3197 H         1 M3L         0.0317
    119 H           2.2183    5.8749   -0.0305 H         1 M3L         0.0815
    120 H           0.8566    5.1308    0.9723 H         1 M3L         0.0815
    121 H           2.4582    4.5006    2.5304 H         1 M3L         0.0778
    122 H           3.7478    5.2559    1.5621 H         1 M3L         0.0778
    123 H           3.5239    5.7232    3.2658 H         1 M3L         0.0778
    124 H           0.4029    7.4164    2.7446 H         1 M3L         0.0778
    125 H           0.6327    5.7222    3.2428 H         1 M3L         0.0778
    126 H           1.6708    6.9991    3.9233 H         1 M3L         0.0778
    127 H           3.6238    7.5275    0.9802 H         1 M3L         0.0778
    128 H           2.1867    8.4932    1.3963 H         1 M3L         0.0778
    129 H           3.3263    7.9978    2.6718 H         1 M3L         0.0778
    130 H           0.2910    7.0104   -4.4299 H         1 GLN         0.1883
    131 H           1.3724    4.2284   -4.5412 H         1 GLN         0.0801
    132 H           2.2747    4.7312   -6.7877 H         1 GLN         0.0337
    133 H           1.2804    6.2488   -6.7947 H         1 GLN         0.0337
    134 H          -0.7017    5.0940   -7.0018 H         1 GLN         0.0504
    135 H          -0.0023    3.5710   -6.3345 H         1 GLN         0.0504
    136 H           1.4121    2.5251   -9.4803 H         1 GLN         0.1814
    137 H           1.6366    2.4499   -7.7295 H         1 GLN         0.1814
    138 H           3.6017    4.0991   -4.3379 H         1 THR         0.1884
    139 H           5.1471    6.6320   -4.0537 H         1 THR         0.0826
    140 H           6.4360    5.8096   -2.2602 H         1 THR         0.0639
    141 H           5.7382    3.8582   -1.1741 H         1 THR         0.2101
    142 H           4.4677    7.0945   -1.6450 H         1 THR         0.0257
    143 H           3.4769    5.6150   -1.6207 H         1 THR         0.0257
    144 H           4.7793    5.8342   -0.4261 H         1 THR         0.0257
    145 H           7.5154    6.2852   -4.3760 H         1 ALA         0.1883
    146 H           8.1566    4.1362   -6.3334 H         1 ALA         0.0797
    147 H           8.9240    6.4563   -6.7115 H         1 ALA         0.0277
    148 H           9.7965    6.4222   -5.1595 H         1 ALA         0.0277
    149 H          10.3021    5.3506   -6.4889 H         1 ALA         0.0277
    150 H           9.4692    2.3964   -5.9919 H         1 ARG         0.1883
    151 H           9.9612    1.5220   -3.2424 H         1 ARG         0.0800
    152 H          11.0193   -0.4220   -4.2851 H         1 ARG         0.0313
    153 H          10.7504    0.3558   -5.9085 H         1 ARG         0.0313
    154 H           8.3977    0.1903   -5.6707 H         1 ARG         0.0301
    155 H           8.5471   -0.3224   -3.9470 H         1 ARG         0.0301
    156 H           9.6502   -1.9243   -6.2721 H         1 ARG         0.0689
    157 H           8.0028   -2.1696   -5.5914 H         1 ARG         0.0689
    158 H           9.6119   -2.3080   -3.3883 H         1 ARG         0.2642
    159 H           9.7777   -4.1080   -6.4609 H         1 ARG         0.2615
    160 H          10.4950   -5.5121   -5.6639 H         1 ARG         0.2615
    161 H          10.5028   -4.1174   -2.4876 H         1 ARG         0.2615
    162 H          10.8912   -5.5170   -3.4933 H         1 ARG         0.2615
    163 H          11.2655    3.0371   -2.2904 H         1 LYS         0.1883
    164 H          14.1073    3.2513   -3.0942 H         1 LYS         0.0800
    165 H          13.9697    5.7285   -2.9428 H         1 LYS         0.0312
    166 H          12.1280    5.5464   -2.8354 H         1 LYS         0.0312
    167 H          12.7755    6.3268   -4.9900 H         1 LYS         0.0269
    168 H          12.1995    4.5805   -5.0730 H         1 LYS         0.0269
    169 H          14.0252    4.9855   -6.5921 H         1 LYS         0.0317
    170 H          14.5269    3.8898   -5.2096 H         1 LYS         0.0317
    171 H          16.3289    5.3724   -5.7582 H         1 LYS         0.0813
    172 H          15.5984    5.8601   -4.1708 H         1 LYS         0.0813
    173 H          16.1038    7.7430   -5.5534 H         1 LYS         0.1994
    174 H          15.1312    7.1577   -6.7734 H         1 LYS         0.1994
    175 H          14.4603    7.6057   -5.3153 H         1 LYS         0.1994
    176 H          15.3979    4.4781   -1.5055 H         1 SER         0.1876
    177 H          14.3279    4.5050    1.2716 H         1 SER         0.0749
    178 H          16.5514    3.7126    2.0841 H         1 SER         0.0599
    179 H          17.0548    3.4729    0.3838 H         1 SER         0.0599
    180 H          16.2463    1.5408    1.3584 H         1 SER         0.2096
@<TRIPOS>BOND
     1    1    2 1  
     2    2    3 1  
     3    2    5 1  
     4    3    4 2  
     5    3    6 am 
     6    6    7 1  
     7    7    8 1  
     8    7   10 1  
     9    8    9 2  
    10    8   17 am 
    11   10   11 1  
    12   11   12 1  
    13   12   13 1  
    14   13   14 ar 
    15   14   15 ar 
    16   14   16 ar 
    17   17   18 1  
    18   18   19 1  
    19   18   21 1  
    20   19   20 2  
    21   19   24 am 
    22   21   22 1  
    23   21   23 1  
    24   24   25 1  
    25   25   26 1  
    26   25   31 1  
    27   26   27 1  
    28   27   28 1  
    29   28   29 1  
    30   29   30 1  
    31   30   33 1  
    32   30   34 1  
    33   30   35 1  
    34   31   32 2  
    35   31   36 am 
    36   36   37 1  
    37   37   38 1  
    38   37   40 1  
    39   38   39 2  
    40   38   45 am 
    41   40   41 1  
    42   41   42 1  
    43   42   43 2  
    44   42   44 am 
    45   45   46 1  
    46   46   47 1  
    47   46   49 1  
    48   47   48 2  
    49   47   52 am 
    50   49   50 1  
    51   49   51 1  
    52   52   53 1  
    53   53   54 1  
    54   53   56 1  
    55   54   55 2  
    56   54   57 am 
    57   57   58 1  
    58   58   59 1  
    59   58   61 1  
    60   59   60 2  
    61   59   68 am 
    62   61   62 1  
    63   62   63 1  
    64   63   64 1  
    65   64   65 ar 
    66   65   66 ar 
    67   65   67 ar 
    68   68   69 1  
    69   69   70 1  
    70   69   72 1  
    71   70   71 2  
    72   70   77 am 
    73   72   73 1  
    74   73   74 1  
    75   74   75 1  
    76   75   76 1  
    77   77   78 1  
    78   78   79 1  
    79   78   81 1  
    80   79   80 ar 
    81   79   83 ar 
    82   81   82 1  
    83    1   84 1  
    84    1   85 1  
    85    1   86 1  
    86    2   87 1  
    87    5   88 1  
    88    5   89 1  
    89    5   90 1  
    90    6   91 1  
    91    7   92 1  
    92   10   93 1  
    93   10   94 1  
    94   11   95 1  
    95   11   96 1  
    96   12   97 1  
    97   12   98 1  
    98   13   99 1  
    99   15  100 1  
   100   15  101 1  
   101   16  102 1  
   102   16  103 1  
   103   17  104 1  
   104   18  105 1  
   105   21  106 1  
   106   22  107 1  
   107   23  108 1  
   108   23  109 1  
   109   23  110 1  
   110   24  111 1  
   111   25  112 1  
   112   26  113 1  
   113   26  114 1  
   114   27  115 1  
   115   27  116 1  
   116   28  117 1  
   117   28  118 1  
   118   29  119 1  
   119   29  120 1  
   120   33  121 1  
   121   33  122 1  
   122   33  123 1  
   123   34  124 1  
   124   34  125 1  
   125   34  126 1  
   126   35  127 1  
   127   35  128 1  
   128   35  129 1  
   129   36  130 1  
   130   37  131 1  
   131   40  132 1  
   132   40  133 1  
   133   41  134 1  
   134   41  135 1  
   135   44  136 1  
   136   44  137 1  
   137   45  138 1  
   138   46  139 1  
   139   49  140 1  
   140   50  141 1  
   141   51  142 1  
   142   51  143 1  
   143   51  144 1  
   144   52  145 1  
   145   53  146 1  
   146   56  147 1  
   147   56  148 1  
   148   56  149 1  
   149   57  150 1  
   150   58  151 1  
   151   61  152 1  
   152   61  153 1  
   153   62  154 1  
   154   62  155 1  
   155   63  156 1  
   156   63  157 1  
   157   64  158 1  
   158   66  159 1  
   159   66  160 1  
   160   67  161 1  
   161   67  162 1  
   162   68  163 1  
   163   69  164 1  
   164   72  165 1  
   165   72  166 1  
   166   73  167 1  
   167   73  168 1  
   168   74  169 1  
   169   74  170 1  
   170   75  171 1  
   171   75  172 1  
   172   76  173 1  
   173   76  174 1  
   174   76  175 1  
   175   77  176 1  
   176   78  177 1  
   177   81  178 1  
   178   81  179 1  
   179   82  180 1  
@<TRIPOS>SUBSTRUCTURE
     1 ALA         1

