2rr4_ligand
  -I-interpret- 

179178  0  0  0  0  0  0  0  0999 V2000
  -12.2980    5.0340    1.1990 N   0  3  0  0  0
  -10.9640    4.3900    1.2840 C   0  0  0  0  0
   -9.9510    5.1830    0.4520 C   0  0  0  0  0
  -10.0570    5.2030   -0.7770 O   0  0  0  0  0
  -11.0170    2.9160    0.8250 C   0  0  0  0  0
   -8.9790    5.8570    1.0890 N   0  0  0  0  0
   -7.9120    6.5620    0.3570 C   0  0  0  0  0
   -6.9170    5.5820   -0.2720 C   0  0  0  0  0
   -6.6730    4.4900    0.2510 O   0  0  0  0  0
   -7.1580    7.5740    1.2350 C   0  0  0  0  0
   -7.9960    8.8250    1.5260 C   0  0  0  0  0
   -7.1710    9.8810    2.2720 C   0  0  0  0  0
   -7.9740   11.0810    2.5730 N   0  0  0  0  0
   -8.1720   12.1330    1.7830 C   0  0  0  0  0
   -7.6490   12.2150    0.5760 N   0  0  0  0  0
   -8.9130   13.1330    2.2060 N   0  0  0  0  0
   -6.3210    6.0230   -1.3790 N   0  0  0  0  0
   -5.3160    5.3130   -2.1790 C   0  0  0  0  0
   -4.2040    6.2730   -2.5740 C   0  0  0  0  0
   -4.4330    7.4660   -2.7850 O   0  0  0  0  0
   -5.9330    4.6740   -3.4320 C   0  0  0  0  0
   -6.8010    5.5700   -4.0930 O   0  0  0  0  0
   -6.6980    3.3950   -3.0990 C   0  0  0  0  0
   -2.9930    5.7290   -2.6730 N   0  0  0  0  0
   -1.7840    6.4140   -3.1570 C   0  0  0  0  0
   -1.0980    7.1880   -2.0020 C   0  0  0  0  0
   -0.3140    6.2740   -1.0470 C   0  0  0  0  0
    0.4220    7.0120    0.0760 C   0  0  0  0  0
    1.4280    6.0200    0.7060 C   0  0  0  0  0
    2.0900    6.4730    1.9410 N   0  3  0  0  0
   -0.8260    5.4380   -3.8540 C   0  0  0  0  0
   -1.0230    4.2220   -3.8390 O   0  0  0  0  0
    3.0140    5.4210    2.3510 C   0  0  0  0  0
    1.1380    6.6650    3.0330 C   0  0  0  0  0
    2.8560    7.7020    1.7340 C   0  0  0  0  0
    0.2580    5.9920   -4.3830 N   0  0  0  0  0
    1.4070    5.2560   -4.9030 C   0  0  0  0  0
    2.7010    5.9120   -4.4080 C   0  0  0  0  0
    2.7490    7.1310   -4.2110 O   0  0  0  0  0
    1.3660    5.2220   -6.4390 C   0  0  0  0  0
    0.1640    4.4320   -6.9820 C   0  0  0  0  0
    0.4160    3.9260   -8.4010 C   0  0  0  0  0
   -0.0880    4.4500   -9.3870 O   0  0  0  0  0
    1.2150    2.8890   -8.5480 N   0  0  0  0  0
    3.7530    5.1020   -4.2300 N   0  0  0  0  0
    5.1110    5.5550   -3.8900 C   0  0  0  0  0
    6.1290    4.8710   -4.8040 C   0  0  0  0  0
    5.8130    3.8900   -5.4820 O   0  0  0  0  0
    5.4610    5.3450   -2.4070 C   0  0  0  0  0
    5.5190    3.9700   -2.1020 O   0  0  0  0  0
    4.4750    6.0210   -1.4560 C   0  0  0  0  0
    7.3580    5.3870   -4.8330 N   0  0  0  0  0
    8.4940    4.7330   -5.4860 C   0  0  0  0  0
    9.1870    3.7620   -4.5120 C   0  0  0  0  0
    9.3250    4.0690   -3.3230 O   0  0  0  0  0
    9.4490    5.8200   -5.9990 C   0  0  0  0  0
    9.6560    2.6090   -5.0120 N   0  0  0  0  0
   10.4260    1.6340   -4.2220 C   0  0  0  0  0
   11.8600    2.1490   -3.9950 C   0  0  0  0  0
   12.7740    1.8530   -4.7680 O   0  0  0  0  0
   10.3960    0.2420   -4.8840 C   0  0  0  0  0
    8.9850   -0.3710   -4.9440 C   0  0  0  0  0
    9.0220   -1.8430   -5.3850 C   0  0  0  0  0
    9.5870   -2.7040   -4.3280 N   0  0  0  0  0
   10.0670   -3.9360   -4.4600 C   0  0  0  0  0
   10.1170   -4.5660   -5.6150 N   0  0  0  0  0
   10.5210   -4.5710   -3.4010 N   0  0  0  0  0
   12.0420    2.9580   -2.9470 N   0  0  0  0  0
   13.2500    3.7490   -2.6410 C   0  0  0  0  0
   13.5270    3.8320   -1.1190 C   0  0  0  0  0
   12.6530    3.5280   -0.3000 O   0  0  0  0  0
   13.0750    5.1740   -3.2260 C   0  0  0  0  0
   12.9750    5.2800   -4.7610 C   0  0  0  0  0
   14.2530    4.8950   -5.5300 C   0  0  0  0  0
   15.4650    5.8020   -5.2510 C   0  0  0  0  0
   15.2750    7.1870   -5.7640 N   0  3  0  0  0
   14.7350    4.2880   -0.7540 N   0  0  0  0  0
   15.2060    4.5440    0.6270 C   0  0  0  0  0
   15.8570    5.9270    0.7490 C   0  0  0  0  0
   15.4870    6.6800    1.6770 O   0  0  0  0  0
   16.2120    3.4790    1.0750 C   0  0  0  0  0
   15.6050    2.1970    1.0760 O   0  0  0  0  0
   16.7240    6.2580   -0.0930 O   0  0  0  0  0
  -12.2266    6.0033    1.5085 H   0  0  0  0  0
  -12.6262    5.0074    0.2336 H   0  0  0  0  0
  -12.9550    4.5325    1.7967 H   0  0  0  0  0
  -10.6477    4.3930    2.3271 H   0  0  0  0  0
  -11.3126    2.8736   -0.2233 H   0  0  0  0  0
  -10.0325    2.4639    0.9448 H   0  0  0  0  0
  -11.7432    2.3740    1.4308 H   0  0  0  0  0
   -8.9796    5.8814    2.1087 H   0  0  0  0  0
   -8.4137    7.1169   -0.4358 H   0  0  0  0  0
   -6.2599    7.8839    0.7007 H   0  0  0  0  0
   -6.9259    7.0925    2.1849 H   0  0  0  0  0
   -8.8434    8.5399    2.1495 H   0  0  0  0  0
   -8.3306    9.2487    0.5791 H   0  0  0  0  0
   -6.3340   10.1756    1.6390 H   0  0  0  0  0
   -6.8283    9.4501    3.2127 H   0  0  0  0  0
   -8.4270   11.1072    3.4865 H   0  0  0  0  0
   -7.8239   13.0379   -0.0008 H   0  0  0  0  0
   -7.0693   11.4556    0.2187 H   0  0  0  0  0
   -9.3324   13.0996    3.1352 H   0  0  0  0  0
   -6.5914    6.9511   -1.7045 H   0  0  0  0  0
   -4.9066    4.5083   -1.5682 H   0  0  0  0  0
   -5.1011    4.4257   -4.0910 H   0  0  0  0  0
   -7.1696    5.1425   -4.8696 H   0  0  0  0  0
   -6.0177    2.6737   -2.6462 H   0  0  0  0  0
   -7.5024    3.6257   -2.4006 H   0  0  0  0  0
   -7.1180    2.9759   -4.0133 H   0  0  0  0  0
   -2.8948    4.7542   -2.3891 H   0  0  0  0  0
   -2.0813    7.1447   -3.9092 H   0  0  0  0  0
   -1.8793    7.6803   -1.4229 H   0  0  0  0  0
   -0.3905    7.8880   -2.4464 H   0  0  0  0  0
    0.4425    5.7633   -1.6429 H   0  0  0  0  0
   -1.0380    5.6115   -0.5728 H   0  0  0  0  0
   -0.2852    7.3647    0.8267 H   0  0  0  0  0
    0.9440    7.8833   -0.3197 H   0  0  0  0  0
    2.2183    5.8749   -0.0305 H   0  0  0  0  0
    0.8566    5.1308    0.9723 H   0  0  0  0  0
    2.4582    4.5006    2.5304 H   0  0  0  0  0
    3.7478    5.2559    1.5621 H   0  0  0  0  0
    3.5239    5.7232    3.2658 H   0  0  0  0  0
    0.4029    7.4164    2.7446 H   0  0  0  0  0
    0.6327    5.7222    3.2428 H   0  0  0  0  0
    1.6708    6.9991    3.9233 H   0  0  0  0  0
    3.6238    7.5275    0.9802 H   0  0  0  0  0
    2.1867    8.4932    1.3963 H   0  0  0  0  0
    3.3263    7.9978    2.6718 H   0  0  0  0  0
    0.2910    7.0104   -4.4299 H   0  0  0  0  0
    1.3724    4.2284   -4.5412 H   0  0  0  0  0
    2.2747    4.7312   -6.7877 H   0  0  0  0  0
    1.2804    6.2488   -6.7947 H   0  0  0  0  0
   -0.7017    5.0940   -7.0018 H   0  0  0  0  0
   -0.0023    3.5710   -6.3345 H   0  0  0  0  0
    1.4121    2.5251   -9.4803 H   0  0  0  0  0
    1.6366    2.4499   -7.7295 H   0  0  0  0  0
    3.6017    4.0991   -4.3379 H   0  0  0  0  0
    5.1471    6.6320   -4.0537 H   0  0  0  0  0
    6.4360    5.8096   -2.2602 H   0  0  0  0  0
    5.7382    3.8582   -1.1741 H   0  0  0  0  0
    4.4677    7.0945   -1.6450 H   0  0  0  0  0
    3.4769    5.6150   -1.6207 H   0  0  0  0  0
    4.7793    5.8342   -0.4261 H   0  0  0  0  0
    7.5154    6.2852   -4.3760 H   0  0  0  0  0
    8.1566    4.1362   -6.3334 H   0  0  0  0  0
    8.9240    6.4563   -6.7115 H   0  0  0  0  0
    9.7965    6.4222   -5.1595 H   0  0  0  0  0
   10.3021    5.3506   -6.4889 H   0  0  0  0  0
    9.4692    2.3964   -5.9919 H   0  0  0  0  0
    9.9612    1.5220   -3.2424 H   0  0  0  0  0
   11.0193   -0.4220   -4.2851 H   0  0  0  0  0
   10.7504    0.3558   -5.9085 H   0  0  0  0  0
    8.3977    0.1903   -5.6707 H   0  0  0  0  0
    8.5471   -0.3224   -3.9470 H   0  0  0  0  0
    9.6502   -1.9243   -6.2721 H   0  0  0  0  0
    8.0028   -2.1696   -5.5914 H   0  0  0  0  0
    9.6119   -2.3080   -3.3883 H   0  0  0  0  0
   10.4976   -5.5111   -5.6644 H   0  0  0  0  0
    9.7752   -4.1090   -6.4604 H   0  0  0  0  0
   10.5028   -4.1174   -2.4876 H   0  0  0  0  0
   11.2655    3.0371   -2.2904 H   0  0  0  0  0
   14.1073    3.2513   -3.0942 H   0  0  0  0  0
   13.9697    5.7285   -2.9428 H   0  0  0  0  0
   12.1280    5.5464   -2.8354 H   0  0  0  0  0
   12.7755    6.3268   -4.9900 H   0  0  0  0  0
   12.1995    4.5805   -5.0730 H   0  0  0  0  0
   14.0252    4.9855   -6.5921 H   0  0  0  0  0
   14.5269    3.8898   -5.2096 H   0  0  0  0  0
   16.3289    5.3724   -5.7582 H   0  0  0  0  0
   15.5984    5.8601   -4.1708 H   0  0  0  0  0
   16.1038    7.7430   -5.5534 H   0  0  0  0  0
   15.1312    7.1577   -6.7734 H   0  0  0  0  0
   14.4603    7.6057   -5.3153 H   0  0  0  0  0
   15.3979    4.4781   -1.5055 H   0  0  0  0  0
   14.3279    4.5050    1.2716 H   0  0  0  0  0
   16.5514    3.7126    2.0841 H   0  0  0  0  0
   17.0548    3.4729    0.3838 H   0  0  0  0  0
   16.2463    1.5408    1.3584 H   0  0  0  0  0
   16.8575    5.5376   -0.7133 H   0  0  0  0  0
  1  2  1  0  0  0
  2  3  1  0  0  0
  2  5  1  0  0  0
  3  4  2  0  0  0
  3  6  1  0  0  0
  6  7  1  0  0  0
  7  8  1  0  0  0
  7 10  1  0  0  0
  8  9  2  0  0  0
  8 17  1  0  0  0
 10 11  1  0  0  0
 11 12  1  0  0  0
 12 13  1  0  0  0
 13 14  1  0  0  0
 14 15  1  0  0  0
 14 16  2  0  0  0
 17 18  1  0  0  0
 18 19  1  0  0  0
 18 21  1  0  0  0
 19 20  2  0  0  0
 19 24  1  0  0  0
 21 22  1  0  0  0
 21 23  1  0  0  0
 24 25  1  0  0  0
 25 26  1  0  0  0
 25 31  1  0  0  0
 26 27  1  0  0  0
 27 28  1  0  0  0
 28 29  1  0  0  0
 29 30  1  0  0  0
 30 33  1  0  0  0
 30 34  1  0  0  0
 30 35  1  0  0  0
 31 32  2  0  0  0
 31 36  1  0  0  0
 36 37  1  0  0  0
 37 38  1  0  0  0
 37 40  1  0  0  0
 38 39  2  0  0  0
 38 45  1  0  0  0
 40 41  1  0  0  0
 41 42  1  0  0  0
 42 43  2  0  0  0
 42 44  1  0  0  0
 45 46  1  0  0  0
 46 47  1  0  0  0
 46 49  1  0  0  0
 47 48  2  0  0  0
 47 52  1  0  0  0
 49 50  1  0  0  0
 49 51  1  0  0  0
 52 53  1  0  0  0
 53 54  1  0  0  0
 53 56  1  0  0  0
 54 55  2  0  0  0
 54 57  1  0  0  0
 57 58  1  0  0  0
 58 59  1  0  0  0
 58 61  1  0  0  0
 59 60  2  0  0  0
 59 68  1  0  0  0
 61 62  1  0  0  0
 62 63  1  0  0  0
 63 64  1  0  0  0
 64 65  1  0  0  0
 65 66  1  0  0  0
 65 67  2  0  0  0
 68 69  1  0  0  0
 69 70  1  0  0  0
 69 72  1  0  0  0
 70 71  2  0  0  0
 70 77  1  0  0  0
 72 73  1  0  0  0
 73 74  1  0  0  0
 74 75  1  0  0  0
 75 76  1  0  0  0
 77 78  1  0  0  0
 78 79  1  0  0  0
 78 81  1  0  0  0
 79 80  2  0  0  0
 79 83  1  0  0  0
 81 82  1  0  0  0
  1 84  1  0  0  0
  1 85  1  0  0  0
  1 86  1  0  0  0
  2 87  1  0  0  0
  5 88  1  0  0  0
  5 89  1  0  0  0
  5 90  1  0  0  0
  6 91  1  0  0  0
  7 92  1  0  0  0
 10 93  1  0  0  0
 10 94  1  0  0  0
 11 95  1  0  0  0
 11 96  1  0  0  0
 12 97  1  0  0  0
 12 98  1  0  0  0
 13 99  1  0  0  0
 15100  1  0  0  0
 15101  1  0  0  0
 16102  1  0  0  0
 17103  1  0  0  0
 18104  1  0  0  0
 21105  1  0  0  0
 22106  1  0  0  0
 23107  1  0  0  0
 23108  1  0  0  0
 23109  1  0  0  0
 24110  1  0  0  0
 25111  1  0  0  0
 26112  1  0  0  0
 26113  1  0  0  0
 27114  1  0  0  0
 27115  1  0  0  0
 28116  1  0  0  0
 28117  1  0  0  0
 29118  1  0  0  0
 29119  1  0  0  0
 33120  1  0  0  0
 33121  1  0  0  0
 33122  1  0  0  0
 34123  1  0  0  0
 34124  1  0  0  0
 34125  1  0  0  0
 35126  1  0  0  0
 35127  1  0  0  0
 35128  1  0  0  0
 36129  1  0  0  0
 37130  1  0  0  0
 40131  1  0  0  0
 40132  1  0  0  0
 41133  1  0  0  0
 41134  1  0  0  0
 44135  1  0  0  0
 44136  1  0  0  0
 45137  1  0  0  0
 46138  1  0  0  0
 49139  1  0  0  0
 50140  1  0  0  0
 51141  1  0  0  0
 51142  1  0  0  0
 51143  1  0  0  0
 52144  1  0  0  0
 53145  1  0  0  0
 56146  1  0  0  0
 56147  1  0  0  0
 56148  1  0  0  0
 57149  1  0  0  0
 58150  1  0  0  0
 61151  1  0  0  0
 61152  1  0  0  0
 62153  1  0  0  0
 62154  1  0  0  0
 63155  1  0  0  0
 63156  1  0  0  0
 64157  1  0  0  0
 66158  1  0  0  0
 66159  1  0  0  0
 67160  1  0  0  0
 68161  1  0  0  0
 69162  1  0  0  0
 72163  1  0  0  0
 72164  1  0  0  0
 73165  1  0  0  0
 73166  1  0  0  0
 74167  1  0  0  0
 74168  1  0  0  0
 75169  1  0  0  0
 75170  1  0  0  0
 76171  1  0  0  0
 76172  1  0  0  0
 76173  1  0  0  0
 77174  1  0  0  0
 78175  1  0  0  0
 81176  1  0  0  0
 81177  1  0  0  0
 82178  1  0  0  0
 83179  1  0  0  0
M  END
$$$$
