2r8q_ligand
  -I-interpret- 

 29 30  0  0  0  0  0  0  0  0999 V2000
   32.4900   -1.6050   12.1320 N   0  0  0  0  0
   33.8010   -1.5470   11.7270 C   0  0  0  0  0
   34.4880   -0.5900   12.2990 N   0  0  0  0  0
   33.5670    0.0220   13.1370 C   0  0  0  0  0
   32.3360   -0.5890   13.0460 C   0  0  0  0  0
   31.2070   -0.2650   13.7140 N   0  0  0  0  0
   31.3340    0.7960   14.5650 C   0  0  0  0  0
   32.5460    1.4770   14.7220 N   0  0  0  0  0
   33.6580    1.0920   14.0130 C   0  0  0  0  0
   34.7180    1.6830   14.1510 O   0  0  0  0  0
   30.3570    1.1630   15.2090 O   0  0  0  0  0
   32.6300    2.6010   15.6430 C   0  0  0  0  0
   29.9610   -0.9930   13.5420 C   0  0  0  0  0
   30.1370   -2.4230   14.0610 C   0  0  0  0  0
   29.7710   -2.5140   15.5360 C   0  0  0  0  0
   29.3140   -3.4020   13.2360 C   0  0  0  0  0
   34.2299   -2.2337   10.9972 H   0  0  0  0  0
   31.9276    3.3753   15.3343 H   0  0  0  0  0
   32.3818    2.2638   16.6494 H   0  0  0  0  0
   33.6432    3.0027   15.6326 H   0  0  0  0  0
   29.6948   -1.0177   12.4853 H   0  0  0  0  0
   29.1674   -0.4965   14.1003 H   0  0  0  0  0
   31.1878   -2.6936   13.9580 H   0  0  0  0  0
   30.4164   -1.8498   16.1108 H   0  0  0  0  0
   28.7307   -2.2173   15.6699 H   0  0  0  0  0
   29.9047   -3.5397   15.8796 H   0  0  0  0  0
   28.2599   -3.1318   13.2989 H   0  0  0  0  0
   29.6392   -3.3622   12.1964 H   0  0  0  0  0
   29.4556   -4.4108   13.6239 H   0  0  0  0  0
  1  2  4  0  0  0
  1  5  4  0  0  0
  2  3  4  0  0  0
  3  4  4  0  0  0
  4  5  4  0  0  0
  4  9  1  0  0  0
  5  6  1  0  0  0
  6  7  1  0  0  0
  6 13  1  0  0  0
  7  8  1  0  0  0
  7 11  2  0  0  0
  8  9  1  0  0  0
  8 12  1  0  0  0
  9 10  2  0  0  0
 13 14  1  0  0  0
 14 15  1  0  0  0
 14 16  1  0  0  0
  2 17  1  0  0  0
 12 18  1  0  0  0
 12 19  1  0  0  0
 12 20  1  0  0  0
 13 21  1  0  0  0
 13 22  1  0  0  0
 14 23  1  0  0  0
 15 24  1  0  0  0
 15 25  1  0  0  0
 15 26  1  0  0  0
 16 27  1  0  0  0
 16 28  1  0  0  0
 16 29  1  0  0  0
M  END
$$$$
