5zob_ligand
  -I-interpret- 

116117  0  0  0  0  0  0  0  0999 V2000
   17.1590   23.3060   41.8660 C   0  0  0  0  0
   17.9730   20.9890   47.5940 N   0  0  0  0  0
   15.2610   24.1380   43.0960 O   0  0  0  0  0
   15.7550   23.9050   41.9940 C   0  0  0  0  0
   18.5970   21.9040   49.6350 N   0  0  0  0  0
   17.6230   22.8920   43.1120 C   0  0  0  0  0
   16.7920   20.4520   49.5200 N   0  0  0  0  0
   18.3810   23.7600   43.8890 C   0  0  0  0  0
   17.3370   21.6130   43.5780 C   0  0  0  0  0
   18.8500   23.3520   45.1310 C   0  0  0  0  0
   18.5620   22.0760   45.6010 C   0  0  0  0  0
   17.8050   21.2050   44.8230 C   0  0  0  0  0
   19.0360   21.6750   46.8460 C   0  0  0  0  0
   17.7870   21.1150   48.9160 C   0  0  0  0  0
   15.1390   24.1450   40.8270 N   0  0  0  0  0
   13.7840   24.7130   40.7560 C   0  0  0  0  0
   12.7750   23.5690   40.6490 C   0  0  0  0  0
   11.5650   23.7770   40.7350 O   0  0  0  0  0
   13.6730   25.6310   39.5370 C   0  0  0  0  0
   14.0580   24.8550   38.2770 C   0  0  0  0  0
   14.8880   25.7550   37.3600 C   0  0  0  0  0
   14.0240   26.7890   36.7730 N   0  0  0  0  0
   14.4740   27.8140   36.0380 C   0  0  0  0  0
   15.7860   27.9440   35.8010 N   0  0  0  0  0
   13.6120   28.7100   35.5410 N   0  0  0  0  0
   13.3200   22.3560   40.4700 N   0  0  0  0  0
   12.5070   21.1340   40.3730 C   0  0  0  0  0
   13.0230   20.1130   41.3870 C   0  0  0  0  0
   14.2300   19.9380   41.5550 O   0  0  0  0  0
   12.5820   20.5540   38.9590 C   0  0  0  0  0
   11.3910   21.0700   38.1510 C   0  0  0  0  0
   11.8700   21.5910   36.7970 C   0  0  0  0  0
   10.7250   22.1680   36.0790 N   0  0  0  0  0
   10.2980   21.7440   34.8820 C   0  0  0  0  0
    9.2410   22.3290   34.3030 N   0  0  0  0  0
   10.9300   20.7370   34.2640 N   0  0  0  0  0
   12.0680   19.4590   42.0610 N   0  0  0  0  0
   12.3850   18.4550   43.0880 C   0  0  0  0  0
   12.2530   17.0490   42.5050 C   0  0  0  0  0
   11.9700   16.0930   43.2230 O   0  0  0  0  0
   11.4240   18.6230   44.2680 C   0  0  0  0  0
   11.7600   19.9270   44.9910 C   0  0  0  0  0
   13.2340   19.8970   45.3940 C   0  0  0  0  0
   13.9180   21.1060   44.9180 N   0  0  0  0  0
   14.3530   22.0810   45.7260 C   0  0  0  0  0
   14.9760   23.1500   45.2130 N   0  0  0  0  0
   14.1620   21.9890   47.0490 N   0  0  0  0  0
   12.4570   16.9630   41.1840 N   0  0  0  0  0
   12.3780   15.6850   40.4650 C   0  0  0  0  0
   13.6410   15.1090   40.4560 C   0  0  0  0  0
   14.7660   15.9210   40.3750 C   0  0  0  0  0
   16.0340   15.3510   40.3690 C   0  0  0  0  0
   16.1740   13.9700   40.4460 C   0  0  0  0  0
   17.4420   13.4020   40.4410 C   0  0  0  0  0
   18.4960   14.2100   40.3770 N   0  0  0  0  0
   17.5400   12.0770   40.5110 N   0  0  0  0  0
   15.0500   13.1590   40.5290 C   0  0  0  0  0
   13.7820   13.7290   40.5350 C   0  0  0  0  0
   17.8343   24.0636   41.4684 H   0  0  0  0  0
   17.1195   22.4462   41.1972 H   0  0  0  0  0
   17.3387   20.3806   47.0765 H   0  0  0  0  0
   18.4555   21.9990   50.6406 H   0  0  0  0  0
   19.3551   22.4095   49.1767 H   0  0  0  0  0
   16.6518   20.5482   50.5257 H   0  0  0  0  0
   18.6075   24.7616   43.5234 H   0  0  0  0  0
   16.7460   20.9302   42.9676 H   0  0  0  0  0
   19.4452   24.0338   45.7384 H   0  0  0  0  0
   17.5789   20.2035   45.1890 H   0  0  0  0  0
   19.8737   20.9916   46.7067 H   0  0  0  0  0
   19.3581   22.5530   47.4059 H   0  0  0  0  0
   15.6271   23.9260   39.9586 H   0  0  0  0  0
   13.5773   25.2980   41.6522 H   0  0  0  0  0
   14.3449   26.4805   39.6598 H   0  0  0  0  0
   12.6476   25.9887   39.4440 H   0  0  0  0  0
   13.1554   24.5371   37.7552 H   0  0  0  0  0
   14.6436   23.9784   38.5540 H   0  0  0  0  0
   15.3277   25.1546   36.5636 H   0  0  0  0  0
   15.6805   26.2299   37.9383 H   0  0  0  0  0
   13.0193   26.7217   36.9355 H   0  0  0  0  0
   16.1283   28.7255   35.2420 H   0  0  0  0  0
   16.4427   27.2615   36.1796 H   0  0  0  0  0
   12.6131   28.6117   35.7223 H   0  0  0  0  0
   14.3345   22.2785   40.3986 H   0  0  0  0  0
   11.4658   21.3736   40.5890 H   0  0  0  0  0
   12.5537   19.4653   39.0043 H   0  0  0  0  0
   13.5128   20.8617   38.4824 H   0  0  0  0  0
   10.9083   21.8798   38.6982 H   0  0  0  0  0
   10.6829   20.2564   37.9938 H   0  0  0  0  0
   12.2957   20.7727   36.2162 H   0  0  0  0  0
   12.6354   22.3530   36.9444 H   0  0  0  0  0
   10.2240   22.9396   36.5195 H   0  0  0  0  0
    8.7618   23.0967   34.7735 H   0  0  0  0  0
   10.6064   20.4151   33.3518 H   0  0  0  0  0
   11.7347   20.2923   34.7057 H   0  0  0  0  0
   11.0901   19.6637   41.8556 H   0  0  0  0  0
   13.4106   18.5961   43.4291 H   0  0  0  0  0
   11.5283   17.7819   44.9534 H   0  0  0  0  0
   10.3959   18.6538   43.9071 H   0  0  0  0  0
   11.1353   20.0305   45.8782 H   0  0  0  0  0
   11.5731   20.7749   44.3320 H   0  0  0  0  0
   13.7068   19.0220   44.9479 H   0  0  0  0  0
   13.3046   19.8531   46.4808 H   0  0  0  0  0
   14.0704   21.2089   43.9147 H   0  0  0  0  0
   15.1195   23.2220   44.2057 H   0  0  0  0  0
   14.4909   22.7327   47.6647 H   0  0  0  0  0
   13.6877   21.1753   47.4404 H   0  0  0  0  0
   12.6740   17.8115   40.6612 H   0  0  0  0  0
   12.0368   15.8521   39.4434 H   0  0  0  0  0
   11.6688   15.0216   40.9600 H   0  0  0  0  0
   14.6543   17.0037   40.3162 H   0  0  0  0  0
   16.9174   15.9862   40.3040 H   0  0  0  0  0
   18.3622   15.2202   40.3331 H   0  0  0  0  0
   18.4584   11.6332   40.5175 H   0  0  0  0  0
   16.6968   11.5050   40.5582 H   0  0  0  0  0
   15.1617   12.0764   40.5894 H   0  0  0  0  0
   12.8989   13.0936   40.6016 H   0  0  0  0  0
  1  4  1  0  0  0
  6  1  1  0  0  0
 13  2  1  0  0  0
  2 14  1  0  0  0
  4  3  2  0  0  0
  4 15  1  0  0  0
 14  5  1  0  0  0
  8  6  4  0  0  0
  9  6  4  0  0  0
 14  7  2  0  0  0
 10  8  4  0  0  0
 12  9  4  0  0  0
 11 10  4  0  0  0
 11 12  4  0  0  0
 11 13  1  0  0  0
 15 16  1  0  0  0
 16 17  1  0  0  0
 16 19  1  0  0  0
 17 18  2  0  0  0
 17 26  1  0  0  0
 19 20  1  0  0  0
 20 21  1  0  0  0
 21 22  1  0  0  0
 22 23  1  0  0  0
 23 24  1  0  0  0
 23 25  2  0  0  0
 26 27  1  0  0  0
 27 28  1  0  0  0
 27 30  1  0  0  0
 28 29  2  0  0  0
 28 37  1  0  0  0
 30 31  1  0  0  0
 31 32  1  0  0  0
 32 33  1  0  0  0
 33 34  1  0  0  0
 34 35  2  0  0  0
 34 36  1  0  0  0
 37 38  1  0  0  0
 38 39  1  0  0  0
 38 41  1  0  0  0
 39 40  2  0  0  0
 39 48  1  0  0  0
 41 42  1  0  0  0
 42 43  1  0  0  0
 43 44  1  0  0  0
 44 45  1  0  0  0
 45 46  2  0  0  0
 45 47  1  0  0  0
 48 49  1  0  0  0
 49 50  1  0  0  0
 50 51  4  0  0  0
 50 58  4  0  0  0
 51 52  4  0  0  0
 52 53  4  0  0  0
 53 54  1  0  0  0
 53 57  4  0  0  0
 54 55  2  0  0  0
 54 56  1  0  0  0
 57 58  4  0  0  0
  1 59  1  0  0  0
  1 60  1  0  0  0
  2 61  1  0  0  0
  5 62  1  0  0  0
  5 63  1  0  0  0
  7 64  1  0  0  0
  8 65  1  0  0  0
  9 66  1  0  0  0
 10 67  1  0  0  0
 12 68  1  0  0  0
 13 69  1  0  0  0
 13 70  1  0  0  0
 15 71  1  0  0  0
 16 72  1  0  0  0
 19 73  1  0  0  0
 19 74  1  0  0  0
 20 75  1  0  0  0
 20 76  1  0  0  0
 21 77  1  0  0  0
 21 78  1  0  0  0
 22 79  1  0  0  0
 24 80  1  0  0  0
 24 81  1  0  0  0
 25 82  1  0  0  0
 26 83  1  0  0  0
 27 84  1  0  0  0
 30 85  1  0  0  0
 30 86  1  0  0  0
 31 87  1  0  0  0
 31 88  1  0  0  0
 32 89  1  0  0  0
 32 90  1  0  0  0
 33 91  1  0  0  0
 35 92  1  0  0  0
 36 93  1  0  0  0
 36 94  1  0  0  0
 37 95  1  0  0  0
 38 96  1  0  0  0
 41 97  1  0  0  0
 41 98  1  0  0  0
 42 99  1  0  0  0
 42100  1  0  0  0
 43101  1  0  0  0
 43102  1  0  0  0
 44103  1  0  0  0
 46104  1  0  0  0
 47105  1  0  0  0
 47106  1  0  0  0
 48107  1  0  0  0
 49108  1  0  0  0
 49109  1  0  0  0
 51110  1  0  0  0
 52111  1  0  0  0
 55112  1  0  0  0
 56113  1  0  0  0
 56114  1  0  0  0
 57115  1  0  0  0
 58116  1  0  0  0
M  END
$$$$
