### 
### Created by X-TOOL on Wed Jan  1 15:39:38 2020
### 

@<TRIPOS>MOLECULE
5zob_ligand
  121   122     1     0     0
SMALL
GAST_HUCK


@<TRIPOS>ATOM
      1 C1         17.1590   23.3060   41.8660 C.3       1 2UE         0.0674
      2 N1         17.9730   20.9890   47.5940 N.pl3     1 2UE        -0.2619
      3 O1         15.2610   24.1380   43.0960 O.2       1 2UE        -0.3942
      4 C2         15.7550   23.9050   41.9940 C.2       1 2UE         0.1887
      5 N2         18.5970   21.9040   49.6350 N.pl3     1 2UE        -0.2847
      6 C3         17.6230   22.8920   43.1120 C.ar      1 2UE        -0.0310
      7 N3         16.7920   20.4520   49.5200 N.pl3     1 2UE        -0.2847
      8 C4         18.3810   23.7600   43.8890 C.ar      1 2UE        -0.0643
      9 C5         17.3370   21.6130   43.5780 C.ar      1 2UE        -0.0643
     10 C6         18.8500   23.3520   45.1310 C.ar      1 2UE        -0.0631
     11 C7         18.5620   22.0760   45.6010 C.ar      1 2UE        -0.0134
     12 C8         17.8050   21.2050   44.8230 C.ar      1 2UE        -0.0631
     13 C9         19.0360   21.6750   46.8460 C.3       1 2UE         0.0933
     14 C10        17.7870   21.1150   48.9160 C.cat     1 2UE         0.2900
     15 N          15.1390   24.1450   40.8270 N.am      1 ARG        -0.2641
     16 CA         13.7840   24.7130   40.7560 C.3       1 ARG         0.1311
     17 C          12.7750   23.5690   40.6490 C.2       1 ARG         0.2039
     18 O          11.5650   23.7770   40.7350 O.2       1 ARG        -0.3944
     19 CB         13.6730   25.6310   39.5370 C.3       1 ARG        -0.0092
     20 CG         14.0580   24.8550   38.2770 C.3       1 ARG        -0.0156
     21 CD         14.8880   25.7550   37.3600 C.3       1 ARG         0.0627
     22 NE         14.0240   26.7890   36.7730 N.pl3     1 ARG        -0.2723
     23 CZ         14.4740   27.8140   36.0380 C.cat     1 ARG         0.2882
     24 NH1        15.7860   27.9440   35.8010 N.pl3     1 ARG        -0.2849
     25 NH2        13.6120   28.7100   35.5410 N.pl3     1 ARG        -0.2849
     26 N          13.3200   22.3560   40.4700 N.am      1 ARG        -0.2637
     27 CA         12.5070   21.1340   40.3730 C.3       1 ARG         0.1311
     28 C          13.0230   20.1130   41.3870 C.2       1 ARG         0.2039
     29 O          14.2300   19.9380   41.5550 O.2       1 ARG        -0.3944
     30 CB         12.5820   20.5540   38.9590 C.3       1 ARG        -0.0092
     31 CG         11.3910   21.0700   38.1510 C.3       1 ARG        -0.0156
     32 CD         11.8700   21.5910   36.7970 C.3       1 ARG         0.0627
     33 NE         10.7250   22.1680   36.0790 N.pl3     1 ARG        -0.2723
     34 CZ         10.2980   21.7440   34.8820 C.cat     1 ARG         0.2882
     35 NH1         9.2410   22.3290   34.3030 N.pl3     1 ARG        -0.2849
     36 NH2        10.9300   20.7370   34.2640 N.pl3     1 ARG        -0.2849
     37 N          12.0680   19.4590   42.0610 N.am      1 ARG        -0.2637
     38 CA         12.3850   18.4550   43.0880 C.3       1 ARG         0.1311
     39 C          12.2530   17.0490   42.5050 C.2       1 ARG         0.2035
     40 O          11.9700   16.0930   43.2230 O.2       1 ARG        -0.3944
     41 CB         11.4240   18.6230   44.2680 C.3       1 ARG        -0.0092
     42 CG         11.7600   19.9270   44.9910 C.3       1 ARG        -0.0156
     43 CD         13.2340   19.8970   45.3940 C.3       1 ARG         0.0627
     44 NE         13.9180   21.1060   44.9180 N.pl3     1 ARG        -0.2723
     45 CZ         14.3530   22.0810   45.7260 C.cat     1 ARG         0.2882
     46 NH1        14.9760   23.1500   45.2130 N.pl3     1 ARG        -0.2849
     47 NH2        14.1620   21.9890   47.0490 N.pl3     1 ARG        -0.2849
     48 N23        12.4570   16.9630   41.1840 N.am      1 00S        -0.2737
     49 C16        12.3780   15.6850   40.4650 C.3       1 00S         0.0645
     50 C17        13.6410   15.1090   40.4560 C.ar      1 00S        -0.0210
     51 C22        14.7660   15.9210   40.3750 C.ar      1 00S        -0.0584
     52 C21        16.0340   15.3510   40.3690 C.ar      1 00S        -0.0633
     53 C24        16.1740   13.9700   40.4460 C.ar      1 00S         0.0188
     54 C27        17.4420   13.4020   40.4410 C.cat     1 00S         0.2318
     55 N35        18.4960   14.2100   40.3770 N.pl3     1 00S        -0.2729
     56 N34        17.5400   12.0770   40.5110 N.pl3     1 00S        -0.2729
     57 C19        15.0500   13.1590   40.5290 C.ar      1 00S        -0.0633
     58 C18        13.7820   13.7290   40.5350 C.ar      1 00S        -0.0584
     59 H1         17.8420   24.0659   41.4586 H         1 2UE         0.0646
     60 H2         17.1243   22.4419   41.1862 H         1 2UE         0.0646
     61 H3         17.3325   20.3746   47.0714 H         1 2UE         0.2664
     62 H4         18.4537   22.0004   50.6504 H         1 2UE         0.2615
     63 H5         19.3629   22.4140   49.1723 H         1 2UE         0.2615
     64 H6         16.1685   19.8451   48.9688 H         1 2UE         0.2615
     65 H7         16.6505   20.5491   50.5356 H         1 2UE         0.2615
     66 H8         18.6063   24.7561   43.5254 H         1 2UE         0.0544
     67 H9         16.7493   20.9340   42.9709 H         1 2UE         0.0544
     68 H10        19.4419   24.0301   45.7351 H         1 2UE         0.0542
     69 H11        17.5801   20.2090   45.1870 H         1 2UE         0.0542
     70 H12        19.8849   20.9891   46.7084 H         1 2UE         0.0842
     71 H13        19.3665   22.5588   47.4113 H         1 2UE         0.0842
     72 H14        15.6175   23.9303   39.9756 H         1 ARG         0.1884
     73 H15        13.5814   25.2949   41.6672 H         1 ARG         0.0800
     74 H16        14.3509   26.4884   39.6608 H         1 ARG         0.0313
     75 H17        12.6383   25.9922   39.4431 H         1 ARG         0.0313
     76 H18        13.1469   24.5349   37.7503 H         1 ARG         0.0301
     77 H19        14.6496   23.9709   38.5568 H         1 ARG         0.0301
     78 H20        15.3322   25.1493   36.5564 H         1 ARG         0.0689
     79 H21        15.6882   26.2340   37.9432 H         1 ARG         0.0689
     80 H22        13.0094   26.7210   36.9371 H         1 ARG         0.2642
     81 H23        16.1315   28.7326   35.2356 H         1 ARG         0.2615
     82 H24        16.4493   27.2554   36.1842 H         1 ARG         0.2615
     83 H25        12.6032   28.6101   35.7232 H         1 ARG         0.2615
     84 H26        13.9577   29.4991   34.9765 H         1 ARG         0.2615
     85 H27        14.3147   22.2800   40.4000 H         1 ARG         0.1883
     86 H28        11.4595   21.3774   40.6043 H         1 ARG         0.0800
     87 H29        12.5477   19.4556   39.0076 H         1 ARG         0.0313
     88 H30        13.5196   20.8707   38.4787 H         1 ARG         0.0313
     89 H31        10.9010   21.8854   38.7032 H         1 ARG         0.0301
     90 H32        10.6740   20.2508   37.9939 H         1 ARG         0.0301
     91 H33        12.2941   20.7623   36.2111 H         1 ARG         0.0689
     92 H34        12.6383   22.3634   36.9489 H         1 ARG         0.0689
     93 H35        10.2191   22.9471   36.5238 H         1 ARG         0.2642
     94 H36         8.9122   22.0035   33.3828 H         1 ARG         0.2615
     95 H37         8.7571   23.1043   34.7781 H         1 ARG         0.2615
     96 H38        11.7426   20.2879   34.7101 H         1 ARG         0.2615
     97 H39        10.6033   20.4120   33.3429 H         1 ARG         0.2615
     98 H40        11.1093   19.6597   41.8596 H         1 ARG         0.1883
     99 H41        13.4176   18.6052   43.4360 H         1 ARG         0.0800
    100 H42        11.5366   17.7760   44.9607 H         1 ARG         0.0313
    101 H43        10.3882   18.6602   43.8996 H         1 ARG         0.0313
    102 H44        11.1325   20.0248   45.8891 H         1 ARG         0.0301
    103 H45        11.5766   20.7798   44.3209 H         1 ARG         0.0301
    104 H46        13.7131   19.0112   44.9514 H         1 ARG         0.0689
    105 H47        13.3094   19.8455   46.4902 H         1 ARG         0.0689
    106 H48        14.0719   21.2099   43.9049 H         1 ARG         0.2642
    107 H49        15.3102   23.8993   45.8357 H         1 ARG         0.2615
    108 H50        15.1209   23.2227   44.1958 H         1 ARG         0.2615
    109 H51        13.6830   21.1673   47.4443 H         1 ARG         0.2615
    110 H52        14.4942   22.7400   47.6708 H         1 ARG         0.2615
    111 H53        12.6697   17.7949   40.6715 H         1 00S         0.1878
    112 H54        12.0420   15.8598   39.4323 H         1 00S         0.0683
    113 H55        11.6681   15.0159   40.9733 H         1 00S         0.0683
    114 H56        14.6549   16.9977   40.3166 H         1 00S         0.0557
    115 H57        16.9126   15.9827   40.3044 H         1 00S         0.0599
    116 H58        19.4476   13.8158   40.3718 H         1 00S         0.3180
    117 H59        18.3609   15.2301   40.3327 H         1 00S         0.3180
    118 H60        16.6885   11.4994   40.5586 H         1 00S         0.3180
    119 H61        18.4674   11.6288   40.5176 H         1 00S         0.3180
    120 H62        15.1611   12.0824   40.5891 H         1 00S         0.0599
    121 H63        12.9037   13.0971   40.6013 H         1 00S         0.0557
@<TRIPOS>BOND
     1    1    4 1  
     2    6    1 1  
     3   13    2 1  
     4    2   14 ar 
     5    4    3 2  
     6    4   15 am 
     7   14    5 ar 
     8    8    6 ar 
     9    9    6 ar 
    10   14    7 ar 
    11   10    8 ar 
    12   12    9 ar 
    13   11   10 ar 
    14   11   12 ar 
    15   11   13 1  
    16   15   16 1  
    17   16   17 1  
    18   16   19 1  
    19   17   18 2  
    20   17   26 am 
    21   19   20 1  
    22   20   21 1  
    23   21   22 1  
    24   22   23 ar 
    25   23   24 ar 
    26   23   25 ar 
    27   26   27 1  
    28   27   28 1  
    29   27   30 1  
    30   28   29 2  
    31   28   37 am 
    32   30   31 1  
    33   31   32 1  
    34   32   33 1  
    35   33   34 ar 
    36   34   35 ar 
    37   34   36 ar 
    38   37   38 1  
    39   38   39 1  
    40   38   41 1  
    41   39   40 2  
    42   39   48 am 
    43   41   42 1  
    44   42   43 1  
    45   43   44 1  
    46   44   45 ar 
    47   45   46 ar 
    48   45   47 ar 
    49   48   49 1  
    50   49   50 1  
    51   50   51 ar 
    52   50   58 ar 
    53   51   52 ar 
    54   52   53 ar 
    55   53   54 1  
    56   53   57 ar 
    57   54   55 ar 
    58   54   56 ar 
    59   57   58 ar 
    60    1   59 1  
    61    1   60 1  
    62    2   61 1  
    63    5   62 1  
    64    5   63 1  
    65    7   64 1  
    66    7   65 1  
    67    8   66 1  
    68    9   67 1  
    69   10   68 1  
    70   12   69 1  
    71   13   70 1  
    72   13   71 1  
    73   15   72 1  
    74   16   73 1  
    75   19   74 1  
    76   19   75 1  
    77   20   76 1  
    78   20   77 1  
    79   21   78 1  
    80   21   79 1  
    81   22   80 1  
    82   24   81 1  
    83   24   82 1  
    84   25   83 1  
    85   25   84 1  
    86   26   85 1  
    87   27   86 1  
    88   30   87 1  
    89   30   88 1  
    90   31   89 1  
    91   31   90 1  
    92   32   91 1  
    93   32   92 1  
    94   33   93 1  
    95   35   94 1  
    96   35   95 1  
    97   36   96 1  
    98   36   97 1  
    99   37   98 1  
   100   38   99 1  
   101   41  100 1  
   102   41  101 1  
   103   42  102 1  
   104   42  103 1  
   105   43  104 1  
   106   43  105 1  
   107   44  106 1  
   108   46  107 1  
   109   46  108 1  
   110   47  109 1  
   111   47  110 1  
   112   48  111 1  
   113   49  112 1  
   114   49  113 1  
   115   51  114 1  
   116   52  115 1  
   117   55  116 1  
   118   55  117 1  
   119   56  118 1  
   120   56  119 1  
   121   57  120 1  
   122   58  121 1  
@<TRIPOS>SUBSTRUCTURE
     1 2UE         1

