### 
### Created by X-TOOL on Mon Sep 10 21:13:11 2018
### 

@<TRIPOS>MOLECULE
4fi9_ligand
  230   236     1     0     0
SMALL
GAST_HUCK


@<TRIPOS>ATOM
      1 N           5.0960  -51.5020  -33.2120 N.4       1 PHE         0.2394
      2 CA          5.7780  -50.2250  -33.5760 C.3       1 PHE         0.0744
      3 C           7.0210  -50.0160  -32.7040 C.2       1 PHE         0.2289
      4 O           7.0250  -50.3860  -31.5250 O.2       1 PHE        -0.3905
      5 CB          4.7940  -49.0310  -33.5020 C.3       1 PHE         0.0416
      6 CG          4.3570  -48.6460  -32.0910 C.ar      1 PHE        -0.0353
      7 CD1         4.3350  -47.3000  -31.7060 C.ar      1 PHE        -0.0600
      8 CD2         3.9540  -49.6130  -31.1570 C.ar      1 PHE        -0.0600
      9 CE1         3.9290  -46.9200  -30.4130 C.ar      1 PHE        -0.0686
     10 CE2         3.5520  -49.2460  -29.8580 C.ar      1 PHE        -0.0686
     11 CZ          3.5380  -47.8960  -29.4880 C.ar      1 PHE        -0.0687
     12 N           8.0800  -49.4630  -33.2940 N.am      1 TYR        -0.2593
     13 CA          9.2900  -49.1250  -32.5310 C.3       1 TYR         0.1393
     14 C           9.9190  -47.7750  -32.9270 C.2       1 TYR         0.2082
     15 O          10.9370  -47.7290  -33.6350 O.2       1 TYR        -0.3940
     16 CB         10.3130  -50.2860  -32.5110 C.3       1 TYR         0.0164
     17 CG         10.6780  -50.8960  -33.8580 C.ar      1 TYR        -0.0493
     18 CD1        11.9240  -50.6400  -34.4480 C.ar      1 TYR        -0.0685
     19 CD2         9.7940  -51.7550  -34.5280 C.ar      1 TYR        -0.0685
     20 CE1        12.2710  -51.2030  -35.6780 C.ar      1 TYR        -0.0398
     21 CE2        10.1300  -52.3240  -35.7580 C.ar      1 TYR        -0.0398
     22 CZ         11.3700  -52.0450  -36.3260 C.ar      1 TYR         0.0805
     23 OH         11.7070  -52.6070  -37.5390 O.3       1 TYR        -0.3376
     24 N           9.3080  -46.6620  -32.4640 N.am      1 PRO        -0.2497
     25 CA          9.8580  -45.3360  -32.7390 C.3       1 PRO         0.1338
     26 C          10.8470  -44.8610  -31.6650 C.2       1 PRO         0.2041
     27 O          10.5430  -44.9050  -30.4680 O.2       1 PRO        -0.3944
     28 CB          8.6120  -44.4430  -32.7710 C.3       1 PRO        -0.0104
     29 CG          7.5780  -45.1680  -31.9330 C.3       1 PRO        -0.0281
     30 CD          8.0450  -46.5840  -31.7020 C.3       1 PRO         0.0369
     31 N          12.0250  -44.4230  -32.1060 N.am      1 MET        -0.2637
     32 CA         13.0320  -43.8390  -31.2170 C.3       1 MET         0.1317
     33 C          12.6890  -42.3820  -30.9110 C.2       1 MET         0.2039
     34 O          12.1470  -41.6710  -31.7640 O.2       1 MET        -0.3944
     35 CB         14.4440  -43.9730  -31.8300 C.3       1 MET        -0.0034
     36 CG         15.6280  -43.2930  -31.0770 C.3       1 MET        -0.0024
     37 SD         15.6690  -43.3240  -29.2510 S.3       1 MET        -0.1639
     38 CE         15.3710  -45.0560  -28.8430 C.3       1 MET        -0.0181
     39 N          12.9930  -41.9570  -29.6850 N.am      1 LEU        -0.2637
     40 CA         12.7480  -40.5860  -29.2420 C.3       1 LEU         0.1312
     41 C          14.0360  -39.8430  -28.8750 C.2       1 LEU         0.2039
     42 O          14.9320  -40.3910  -28.2220 O.2       1 LEU        -0.3944
     43 CB         11.7620  -40.5610  -28.0690 C.3       1 LEU        -0.0101
     44 CG         11.1340  -39.2060  -27.7280 C.3       1 LEU        -0.0425
     45 CD1        10.2760  -38.6890  -28.8760 C.3       1 LEU        -0.0625
     46 CD2        10.3210  -39.2910  -26.4440 C.3       1 LEU        -0.0625
     47 N          14.1040  -38.5870  -29.3050 N.am      1 ARG        -0.2637
     48 CA         15.2520  -37.7260  -29.0660 C.3       1 ARG         0.1311
     49 C          14.7740  -36.2890  -28.8870 C.2       1 ARG         0.2040
     50 O          13.8690  -35.8380  -29.5930 O.2       1 ARG        -0.3944
     51 CB         16.2410  -37.8280  -30.2350 C.3       1 ARG        -0.0092
     52 CG         17.5040  -36.9790  -30.0880 C.3       1 ARG        -0.0156
     53 CD         18.6340  -37.4640  -30.9940 C.3       1 ARG         0.0627
     54 NE         18.3190  -37.3630  -32.4220 N.pl3     1 ARG        -0.2723
     55 CZ         18.5470  -36.2880  -33.1760 C.cat     1 ARG         0.2882
     56 NH1        19.0870  -35.1890  -32.6520 N.pl3     1 ARG        -0.2849
     57 NH2        18.2270  -36.3120  -34.4650 N.pl3     1 ARG        -0.2849
     58 N          15.3770  -35.5850  -27.9310 N.am      1 TYR        -0.2621
     59 CA         15.0780  -34.1750  -27.6920 C.3       1 TYR         0.1390
     60 C          16.1820  -33.3000  -28.2940 C.2       1 TYR         0.2058
     61 O          17.2250  -33.0820  -27.6780 O.2       1 TYR        -0.3942
     62 CB         14.8820  -33.8980  -26.1920 C.3       1 TYR         0.0163
     63 CG         13.7190  -34.6440  -25.5570 C.ar      1 TYR        -0.0493
     64 CD1        13.8460  -35.9840  -25.1720 C.ar      1 TYR        -0.0685
     65 CD2        12.4970  -34.0120  -25.3310 C.ar      1 TYR        -0.0685
     66 CE1        12.7800  -36.6800  -24.5820 C.ar      1 TYR        -0.0398
     67 CE2        11.4230  -34.7020  -24.7420 C.ar      1 TYR        -0.0398
     68 CZ         11.5750  -36.0350  -24.3690 C.ar      1 TYR         0.0805
     69 OH         10.5280  -36.7210  -23.7950 O.3       1 TYR        -0.3376
     70 N          15.9430  -32.8200  -29.5140 N.am      1 THR        -0.2612
     71 CA         16.9260  -32.0220  -30.2540 C.3       1 THR         0.1565
     72 C          17.2270  -30.7230  -29.5210 C.2       1 THR         0.2066
     73 O          18.3900  -30.3910  -29.2880 O.2       1 THR        -0.3943
     74 CB         16.4740  -31.7080  -31.7060 C.3       1 THR         0.0924
     75 OG1        15.5180  -30.6330  -31.7030 O.3       1 THR        -0.3874
     76 CG2        15.8750  -32.9490  -32.3770 C.3       1 THR        -0.0346
     77 N          16.1750  -30.0000  -29.1500 N.am      1 ASN        -0.2615
     78 CA         16.3380  -28.7990  -28.3450 C.3       1 ASN         0.1476
     79 C          16.3500  -29.1000  -26.8500 C.2       1 ASN         0.2061
     80 O          16.8900  -30.1320  -26.4360 O.2       1 ASN        -0.3942
     81 CB         15.3060  -27.7430  -28.7220 C.3       1 ASN         0.0773
     82 CG         15.6510  -27.0580  -30.0190 C.2       1 ASN         0.1780
     83 OD1        15.4090  -27.5930  -31.1070 O.2       1 ASN        -0.3970
     84 ND2        16.2440  -25.8760  -29.9160 N.am      1 ASN        -0.3007
     85 N          15.7670  -28.2170  -26.0440 N.am      1 GLY        -0.2663
     86 CA         15.8590  -28.3410  -24.5890 C.3       1 GLY         0.1203
     87 C          15.0660  -29.4880  -23.9780 C.2       1 GLY         0.2032
     88 O          14.9210  -30.5520  -24.5870 O.2       1 GLY        -0.3945
     89 N          14.5780  -29.2900  -22.7420 N.am      1 PRO        -0.2501
     90 CA         13.5750  -30.1910  -22.1960 C.3       1 PRO         0.1340
     91 C          12.1860  -29.8230  -22.7260 C.2       1 PRO         0.2066
     92 O          12.0080  -28.7380  -23.2810 O.2       1 PRO        -0.3942
     93 CB         13.6570  -29.9260  -20.6890 C.3       1 PRO        -0.0104
     94 CG         14.1240  -28.5170  -20.5810 C.3       1 PRO        -0.0281
     95 CD         15.0500  -28.3110  -21.7430 C.3       1 PRO         0.0369
     96 N          11.2050  -30.7290  -22.5750 N.am      1 PRO        -0.2498
     97 CA          9.8220  -30.3650  -22.8490 C.3       1 PRO         0.1340
     98 C           9.2640  -29.5090  -21.7140 C.2       1 PRO         0.2066
     99 O           9.9260  -29.3540  -20.6840 O.2       1 PRO        -0.3942
    100 CB          9.1080  -31.7200  -22.9010 C.3       1 PRO        -0.0104
    101 CG          9.9280  -32.6100  -22.0630 C.3       1 PRO        -0.0281
    102 CD         11.3420  -32.1600  -22.2480 C.3       1 PRO         0.0369
    103 N           8.0670  -28.9330  -21.9050 N.am      1 PRO        -0.2498
    104 CA          7.3860  -28.2140  -20.8300 C.3       1 PRO         0.1337
    105 C           7.0690  -29.0820  -19.6000 C.2       1 PRO         0.2036
    106 O           6.7260  -30.2530  -19.7380 O.2       1 PRO        -0.3944
    107 CB          6.1030  -27.7360  -21.5090 C.3       1 PRO        -0.0104
    108 CG          6.4840  -27.5860  -22.9320 C.3       1 PRO        -0.0281
    109 CD          7.4080  -28.7150  -23.2060 C.3       1 PRO         0.0369
    110 N           7.1900  -28.5020  -18.4110 N.am      1 THR        -0.2670
    111 CA          7.0170  -29.2530  -17.1800 C.3       1 THR         0.1198
    112 C           6.2060  -28.4740  -16.1500 C.2       1 THR         0.0626
    113 O           6.5230  -28.3880  -14.9570 O.co2     1 THR        -0.5665
    114 CB          8.3780  -29.6890  -16.6210 C.3       1 THR         0.0869
    115 OG1         9.0570  -30.4570  -17.6190 O.3       1 THR        -0.3880
    116 CG2         8.2240  -30.5530  -15.3680 C.3       1 THR        -0.0352
    117 OXT         5.1680  -27.8990  -16.4880 O.co2     1 THR        -0.5665
    118 H1          4.2816  -51.6254  -33.7931 H         1 PHE         0.2017
    119 H2          4.8163  -51.4696  -32.2441 H         1 PHE         0.2017
    120 H3          5.7294  -52.2733  -33.3531 H         1 PHE         0.2017
    121 H4          6.1158  -50.3090  -34.6195 H         1 PHE         0.1122
    122 H5          3.8947  -49.2928  -34.0789 H         1 PHE         0.0507
    123 H6          5.2815  -48.1573  -33.9592 H         1 PHE         0.0507
    124 H7          4.6357  -46.5378  -32.4157 H         1 PHE         0.0557
    125 H8          3.9521  -50.6594  -31.4400 H         1 PHE         0.0557
    126 H9          3.9190  -45.8727  -30.1334 H         1 PHE         0.0599
    127 H10         3.2541  -50.0074  -29.1462 H         1 PHE         0.0599
    128 H11         3.2261  -47.6076  -28.4907 H         1 PHE         0.0559
    129 H12         8.0510  -49.2741  -34.2756 H         1 TYR         0.1886
    130 H13         8.9585  -49.0002  -31.4896 H         1 TYR         0.0821
    131 H14         9.8960  -51.0876  -31.8836 H         1 TYR         0.0453
    132 H15        11.2392  -49.9070  -32.0543 H         1 TYR         0.0453
    133 H16        12.6306  -49.9935  -33.9403 H         1 TYR         0.0530
    134 H17         8.8321  -51.9812  -34.0824 H         1 TYR         0.0530
    135 H18        13.2344  -50.9864  -36.1252 H         1 TYR         0.0525
    136 H19         9.4308  -52.9778  -36.2666 H         1 TYR         0.0525
    137 H20        12.5779  -52.3209  -37.7883 H         1 TYR         0.2458
    138 H21        10.3661  -45.3293  -33.7146 H         1 PRO         0.0802
    139 H22         8.2531  -44.3193  -33.8034 H         1 PRO         0.0313
    140 H23         8.8343  -43.4560  -32.3393 H         1 PRO         0.0313
    141 H24         6.6141  -45.1785  -32.4629 H         1 PRO         0.0287
    142 H25         7.4598  -44.6555  -30.9669 H         1 PRO         0.0287
    143 H26         8.2197  -46.7702  -30.6321 H         1 PRO         0.0524
    144 H27         7.3100  -47.3073  -32.0849 H         1 PRO         0.0524
    145 H28        12.2299  -44.4957  -33.0821 H         1 MET         0.1883
    146 H29        13.0193  -44.3978  -30.2696 H         1 MET         0.0800
    147 H30        14.4059  -43.5407  -32.8408 H         1 MET         0.0320
    148 H31        14.6718  -45.0469  -31.8988 H         1 MET         0.0320
    149 H32        15.6342  -42.2354  -31.3792 H         1 MET         0.0378
    150 H33        16.5508  -43.7795  -31.4260 H         1 MET         0.0378
    151 H34        15.3765  -45.1814  -27.7502 H         1 MET         0.0340
    152 H35        16.1614  -45.6787  -29.2875 H         1 MET         0.0340
    153 H36        14.3934  -45.3639  -29.2424 H         1 MET         0.0340
    154 H37        13.4055  -42.6024  -29.0421 H         1 LEU         0.1883
    155 H38        12.2851  -40.0475  -30.0820 H         1 LEU         0.0800
    156 H39        12.2975  -40.9146  -27.1756 H         1 LEU         0.0315
    157 H40        10.9441  -41.2574  -28.3059 H         1 LEU         0.0315
    158 H41        11.9505  -38.4870  -27.5657 H         1 LEU         0.0298
    159 H42         9.8409  -37.7172  -28.5998 H         1 LEU         0.0232
    160 H43         9.4685  -39.4068  -29.0824 H         1 LEU         0.0232
    161 H44        10.8991  -38.5696  -29.7746 H         1 LEU         0.0232
    162 H45        10.9591  -39.6658  -25.6302 H         1 LEU         0.0232
    163 H46         9.4738  -39.9769  -26.5912 H         1 LEU         0.0232
    164 H47         9.9427  -38.2917  -26.1827 H         1 LEU         0.0232
    165 H48        13.3292  -38.2164  -29.8171 H         1 ARG         0.1883
    166 H49        15.7586  -38.0507  -28.1452 H         1 ARG         0.0800
    167 H50        15.7210  -37.5104  -31.1508 H         1 ARG         0.0313
    168 H51        16.5465  -38.8802  -30.3329 H         1 ARG         0.0313
    169 H52        17.8430  -37.0264  -29.0426 H         1 ARG         0.0301
    170 H53        17.2633  -35.9378  -30.3486 H         1 ARG         0.0301
    171 H54        18.8434  -38.5175  -30.7568 H         1 ARG         0.0689
    172 H55        19.5288  -36.8575  -30.7906 H         1 ARG         0.0689
    173 H56        17.8903  -38.1824  -32.8756 H         1 ARG         0.2642
    174 H57        19.2577  -34.3653  -33.2464 H         1 ARG         0.2615
    175 H58        19.3339  -35.1628  -31.6524 H         1 ARG         0.2615
    176 H59        17.8091  -37.1589  -34.8762 H         1 ARG         0.2615
    177 H60        18.3968  -35.4837  -35.0533 H         1 ARG         0.2615
    178 H61        16.0588  -36.0375  -27.3562 H         1 TYR         0.1885
    179 H62        14.1350  -33.9328  -28.2040 H         1 TYR         0.0821
    180 H63        14.7096  -32.8194  -26.0619 H         1 TYR         0.0453
    181 H64        15.8036  -34.1881  -25.6662 H         1 TYR         0.0453
    182 H65        14.7883  -36.4950  -25.3332 H         1 TYR         0.0530
    183 H66        12.3731  -32.9729  -25.6137 H         1 TYR         0.0530
    184 H67        12.9002  -37.7182  -24.2945 H         1 TYR         0.0525
    185 H68        10.4778  -34.1970  -24.5784 H         1 TYR         0.0525
    186 H69        10.8006  -37.6108  -23.6041 H         1 TYR         0.2458
    187 H70        15.0594  -33.0113  -29.9413 H         1 THR         0.1884
    188 H71        17.8551  -32.6081  -30.3103 H         1 THR         0.0826
    189 H72        17.3550  -31.3923  -32.2840 H         1 THR         0.0639
    190 H73        15.9161  -29.8578  -31.3247 H         1 THR         0.2101
    191 H74        15.5643  -32.6977  -33.4019 H         1 THR         0.0257
    192 H75        15.0015  -33.2909  -31.8025 H         1 THR         0.0257
    193 H76        16.6293  -33.7490  -32.4083 H         1 THR         0.0257
    194 H77        15.2580  -30.2858  -29.4283 H         1 ASN         0.1885
    195 H78        17.3258  -28.3814  -28.5896 H         1 ASN         0.0826
    196 H79        15.2606  -26.9887  -27.9226 H         1 ASN         0.0551
    197 H80        14.3236  -28.2269  -28.8258 H         1 ASN         0.0551
    198 H81        16.4984  -25.3707  -30.7406 H         1 ASN         0.1814
    199 H82        16.4367  -25.4902  -29.0138 H         1 ASN         0.1814
    200 H83        15.2561  -27.4539  -26.4400 H         1 GLY         0.1881
    201 H84        15.4947  -27.4028  -24.1451 H         1 GLY         0.0763
    202 H85        16.9178  -28.4837  -24.3272 H         1 GLY         0.0763
    203 H86        13.8035  -31.2404  -22.4337 H         1 PRO         0.0802
    204 H87        14.3743  -30.6105  -20.2127 H         1 PRO         0.0313
    205 H88        12.6694  -30.0449  -20.2194 H         1 PRO         0.0313
    206 H89        14.6576  -28.3606  -19.6319 H         1 PRO         0.0287
    207 H90        13.2719  -27.8240  -20.6411 H         1 PRO         0.0287
    208 H91        14.9707  -27.2848  -22.1310 H         1 PRO         0.0524
    209 H92        16.0920  -28.5148  -21.4555 H         1 PRO         0.0524
    210 H93         9.7304  -29.8272  -23.8042 H         1 PRO         0.0802
    211 H94         9.0622  -32.0944  -23.9343 H         1 PRO         0.0313
    212 H95         8.0888  -31.6367  -22.4957 H         1 PRO         0.0313
    213 H96         9.8134  -33.6545  -22.3882 H         1 PRO         0.0287
    214 H97         9.6331  -32.5202  -21.0071 H         1 PRO         0.0287
    215 H98        11.9233  -32.2989  -21.3245 H         1 PRO         0.0524
    216 H99        11.8248  -32.7074  -23.0710 H         1 PRO         0.0524
    217 H100        7.9950  -27.3580  -20.5039 H         1 PRO         0.0802
    218 H101        5.7736  -26.7741  -21.0892 H         1 PRO         0.0313
    219 H102        5.3004  -28.4796  -21.3957 H         1 PRO         0.0313
    220 H103        6.9907  -26.6237  -23.0968 H         1 PRO         0.0287
    221 H104        5.5960  -27.6483  -23.5782 H         1 PRO         0.0287
    222 H105        6.8536  -29.6107  -23.5226 H         1 PRO         0.0524
    223 H106        8.1418  -28.4454  -23.9798 H         1 PRO         0.0524
    224 H107        7.4050  -27.5266  -18.3625 H         1 THR         0.1876
    225 H108        6.4500  -30.1638  -17.4230 H         1 THR         0.0752
    226 H109        8.9690  -28.7951  -16.3729 H         1 THR         0.0632
    227 H110        9.1815  -29.9249  -18.3961 H         1 THR         0.2100
    228 H111        9.2185  -30.8442  -14.9990 H         1 THR         0.0256
    229 H112        7.6454  -31.4556  -15.6138 H         1 THR         0.0256
    230 H113        7.6975  -29.9804  -14.5902 H         1 THR         0.0256
@<TRIPOS>BOND
     1    1    2 1  
     2    2    3 1  
     3    2    5 1  
     4    3    4 2  
     5    3   12 am 
     6    5    6 1  
     7    6    7 ar 
     8    6    8 ar 
     9    7    9 ar 
    10    8   10 ar 
    11    9   11 ar 
    12   10   11 ar 
    13   12   13 1  
    14   13   14 1  
    15   13   16 1  
    16   14   15 2  
    17   14   24 am 
    18   16   17 1  
    19   17   18 ar 
    20   17   19 ar 
    21   18   20 ar 
    22   19   21 ar 
    23   20   22 ar 
    24   21   22 ar 
    25   22   23 1  
    26   24   25 1  
    27   24   30 1  
    28   25   26 1  
    29   25   28 1  
    30   26   27 2  
    31   26   31 am 
    32   28   29 1  
    33   29   30 1  
    34   31   32 1  
    35   32   33 1  
    36   32   35 1  
    37   33   34 2  
    38   33   39 am 
    39   35   36 1  
    40   36   37 1  
    41   37   38 1  
    42   39   40 1  
    43   40   41 1  
    44   40   43 1  
    45   41   42 2  
    46   41   47 am 
    47   43   44 1  
    48   44   45 1  
    49   44   46 1  
    50   47   48 1  
    51   48   49 1  
    52   48   51 1  
    53   49   50 2  
    54   49   58 am 
    55   51   52 1  
    56   52   53 1  
    57   53   54 1  
    58   54   55 ar 
    59   55   56 ar 
    60   55   57 ar 
    61   58   59 1  
    62   59   60 1  
    63   59   62 1  
    64   60   61 2  
    65   60   70 am 
    66   62   63 1  
    67   63   64 ar 
    68   63   65 ar 
    69   64   66 ar 
    70   65   67 ar 
    71   66   68 ar 
    72   67   68 ar 
    73   68   69 1  
    74   70   71 1  
    75   71   72 1  
    76   71   74 1  
    77   72   73 2  
    78   72   77 am 
    79   74   75 1  
    80   74   76 1  
    81   77   78 1  
    82   78   79 1  
    83   78   81 1  
    84   79   80 2  
    85   79   85 am 
    86   81   82 1  
    87   82   83 2  
    88   82   84 am 
    89   85   86 1  
    90   86   87 1  
    91   87   88 2  
    92   87   89 am 
    93   89   90 1  
    94   89   95 1  
    95   90   91 1  
    96   90   93 1  
    97   91   92 2  
    98   91   96 am 
    99   93   94 1  
   100   94   95 1  
   101   96   97 1  
   102   96  102 1  
   103   97   98 1  
   104   97  100 1  
   105   98   99 2  
   106   98  103 am 
   107  100  101 1  
   108  101  102 1  
   109  103  104 1  
   110  103  109 1  
   111  104  105 1  
   112  104  107 1  
   113  105  106 2  
   114  105  110 am 
   115  107  108 1  
   116  108  109 1  
   117  110  111 1  
   118  111  112 1  
   119  111  114 1  
   120  112  113 ar 
   121  112  117 ar 
   122  114  115 1  
   123  114  116 1  
   124    1  118 1  
   125    1  119 1  
   126    1  120 1  
   127    2  121 1  
   128    5  122 1  
   129    5  123 1  
   130    7  124 1  
   131    8  125 1  
   132    9  126 1  
   133   10  127 1  
   134   11  128 1  
   135   12  129 1  
   136   13  130 1  
   137   16  131 1  
   138   16  132 1  
   139   18  133 1  
   140   19  134 1  
   141   20  135 1  
   142   21  136 1  
   143   23  137 1  
   144   25  138 1  
   145   28  139 1  
   146   28  140 1  
   147   29  141 1  
   148   29  142 1  
   149   30  143 1  
   150   30  144 1  
   151   31  145 1  
   152   32  146 1  
   153   35  147 1  
   154   35  148 1  
   155   36  149 1  
   156   36  150 1  
   157   38  151 1  
   158   38  152 1  
   159   38  153 1  
   160   39  154 1  
   161   40  155 1  
   162   43  156 1  
   163   43  157 1  
   164   44  158 1  
   165   45  159 1  
   166   45  160 1  
   167   45  161 1  
   168   46  162 1  
   169   46  163 1  
   170   46  164 1  
   171   47  165 1  
   172   48  166 1  
   173   51  167 1  
   174   51  168 1  
   175   52  169 1  
   176   52  170 1  
   177   53  171 1  
   178   53  172 1  
   179   54  173 1  
   180   56  174 1  
   181   56  175 1  
   182   57  176 1  
   183   57  177 1  
   184   58  178 1  
   185   59  179 1  
   186   62  180 1  
   187   62  181 1  
   188   64  182 1  
   189   65  183 1  
   190   66  184 1  
   191   67  185 1  
   192   69  186 1  
   193   70  187 1  
   194   71  188 1  
   195   74  189 1  
   196   75  190 1  
   197   76  191 1  
   198   76  192 1  
   199   76  193 1  
   200   77  194 1  
   201   78  195 1  
   202   81  196 1  
   203   81  197 1  
   204   84  198 1  
   205   84  199 1  
   206   85  200 1  
   207   86  201 1  
   208   86  202 1  
   209   90  203 1  
   210   93  204 1  
   211   93  205 1  
   212   94  206 1  
   213   94  207 1  
   214   95  208 1  
   215   95  209 1  
   216   97  210 1  
   217  100  211 1  
   218  100  212 1  
   219  101  213 1  
   220  101  214 1  
   221  102  215 1  
   222  102  216 1  
   223  104  217 1  
   224  107  218 1  
   225  107  219 1  
   226  108  220 1  
   227  108  221 1  
   228  109  222 1  
   229  109  223 1  
   230  110  224 1  
   231  111  225 1  
   232  114  226 1  
   233  115  227 1  
   234  116  228 1  
   235  116  229 1  
   236  116  230 1  
@<TRIPOS>SUBSTRUCTURE
     1 PHE         1

