4fi9_ligand
  -I-interpret- 

230236  0  0  0  0  0  0  0  0999 V2000
    5.0960  -51.5020  -33.2120 N   0  3  0  0  0
    5.7780  -50.2250  -33.5760 C   0  0  0  0  0
    7.0210  -50.0160  -32.7040 C   0  0  0  0  0
    7.0250  -50.3860  -31.5250 O   0  0  0  0  0
    4.7940  -49.0310  -33.5020 C   0  0  0  0  0
    4.3570  -48.6460  -32.0910 C   0  0  0  0  0
    4.3350  -47.3000  -31.7060 C   0  0  0  0  0
    3.9540  -49.6130  -31.1570 C   0  0  0  0  0
    3.9290  -46.9200  -30.4130 C   0  0  0  0  0
    3.5520  -49.2460  -29.8580 C   0  0  0  0  0
    3.5380  -47.8960  -29.4880 C   0  0  0  0  0
    8.0800  -49.4630  -33.2940 N   0  0  0  0  0
    9.2900  -49.1250  -32.5310 C   0  0  0  0  0
    9.9190  -47.7750  -32.9270 C   0  0  0  0  0
   10.9370  -47.7290  -33.6350 O   0  0  0  0  0
   10.3130  -50.2860  -32.5110 C   0  0  0  0  0
   10.6780  -50.8960  -33.8580 C   0  0  0  0  0
   11.9240  -50.6400  -34.4480 C   0  0  0  0  0
    9.7940  -51.7550  -34.5280 C   0  0  0  0  0
   12.2710  -51.2030  -35.6780 C   0  0  0  0  0
   10.1300  -52.3240  -35.7580 C   0  0  0  0  0
   11.3700  -52.0450  -36.3260 C   0  0  0  0  0
   11.7070  -52.6070  -37.5390 O   0  0  0  0  0
    9.3080  -46.6620  -32.4640 N   0  0  0  0  0
    9.8580  -45.3360  -32.7390 C   0  0  0  0  0
   10.8470  -44.8610  -31.6650 C   0  0  0  0  0
   10.5430  -44.9050  -30.4680 O   0  0  0  0  0
    8.6120  -44.4430  -32.7710 C   0  0  0  0  0
    7.5780  -45.1680  -31.9330 C   0  0  0  0  0
    8.0450  -46.5840  -31.7020 C   0  0  0  0  0
   12.0250  -44.4230  -32.1060 N   0  0  0  0  0
   13.0320  -43.8390  -31.2170 C   0  0  0  0  0
   12.6890  -42.3820  -30.9110 C   0  0  0  0  0
   12.1470  -41.6710  -31.7640 O   0  0  0  0  0
   14.4440  -43.9730  -31.8300 C   0  0  0  0  0
   15.6280  -43.2930  -31.0770 C   0  0  0  0  0
   15.6690  -43.3240  -29.2510 S   0  0  0  0  0
   15.3710  -45.0560  -28.8430 C   0  0  0  0  0
   12.9930  -41.9570  -29.6850 N   0  0  0  0  0
   12.7480  -40.5860  -29.2420 C   0  0  0  0  0
   14.0360  -39.8430  -28.8750 C   0  0  0  0  0
   14.9320  -40.3910  -28.2220 O   0  0  0  0  0
   11.7620  -40.5610  -28.0690 C   0  0  0  0  0
   11.1340  -39.2060  -27.7280 C   0  0  0  0  0
   10.2760  -38.6890  -28.8760 C   0  0  0  0  0
   10.3210  -39.2910  -26.4440 C   0  0  0  0  0
   14.1040  -38.5870  -29.3050 N   0  0  0  0  0
   15.2520  -37.7260  -29.0660 C   0  0  0  0  0
   14.7740  -36.2890  -28.8870 C   0  0  0  0  0
   13.8690  -35.8380  -29.5930 O   0  0  0  0  0
   16.2410  -37.8280  -30.2350 C   0  0  0  0  0
   17.5040  -36.9790  -30.0880 C   0  0  0  0  0
   18.6340  -37.4640  -30.9940 C   0  0  0  0  0
   18.3190  -37.3630  -32.4220 N   0  0  0  0  0
   18.5470  -36.2880  -33.1760 C   0  0  0  0  0
   19.0870  -35.1890  -32.6520 N   0  0  0  0  0
   18.2270  -36.3120  -34.4650 N   0  0  0  0  0
   15.3770  -35.5850  -27.9310 N   0  0  0  0  0
   15.0780  -34.1750  -27.6920 C   0  0  0  0  0
   16.1820  -33.3000  -28.2940 C   0  0  0  0  0
   17.2250  -33.0820  -27.6780 O   0  0  0  0  0
   14.8820  -33.8980  -26.1920 C   0  0  0  0  0
   13.7190  -34.6440  -25.5570 C   0  0  0  0  0
   13.8460  -35.9840  -25.1720 C   0  0  0  0  0
   12.4970  -34.0120  -25.3310 C   0  0  0  0  0
   12.7800  -36.6800  -24.5820 C   0  0  0  0  0
   11.4230  -34.7020  -24.7420 C   0  0  0  0  0
   11.5750  -36.0350  -24.3690 C   0  0  0  0  0
   10.5280  -36.7210  -23.7950 O   0  0  0  0  0
   15.9430  -32.8200  -29.5140 N   0  0  0  0  0
   16.9260  -32.0220  -30.2540 C   0  0  0  0  0
   17.2270  -30.7230  -29.5210 C   0  0  0  0  0
   18.3900  -30.3910  -29.2880 O   0  0  0  0  0
   16.4740  -31.7080  -31.7060 C   0  0  0  0  0
   15.5180  -30.6330  -31.7030 O   0  0  0  0  0
   15.8750  -32.9490  -32.3770 C   0  0  0  0  0
   16.1750  -30.0000  -29.1500 N   0  0  0  0  0
   16.3380  -28.7990  -28.3450 C   0  0  0  0  0
   16.3500  -29.1000  -26.8500 C   0  0  0  0  0
   16.8900  -30.1320  -26.4360 O   0  0  0  0  0
   15.3060  -27.7430  -28.7220 C   0  0  0  0  0
   15.6510  -27.0580  -30.0190 C   0  0  0  0  0
   15.4090  -27.5930  -31.1070 O   0  0  0  0  0
   16.2440  -25.8760  -29.9160 N   0  0  0  0  0
   15.7670  -28.2170  -26.0440 N   0  0  0  0  0
   15.8590  -28.3410  -24.5890 C   0  0  0  0  0
   15.0660  -29.4880  -23.9780 C   0  0  0  0  0
   14.9210  -30.5520  -24.5870 O   0  0  0  0  0
   14.5780  -29.2900  -22.7420 N   0  0  0  0  0
   13.5750  -30.1910  -22.1960 C   0  0  0  0  0
   12.1860  -29.8230  -22.7260 C   0  0  0  0  0
   12.0080  -28.7380  -23.2810 O   0  0  0  0  0
   13.6570  -29.9260  -20.6890 C   0  0  0  0  0
   14.1240  -28.5170  -20.5810 C   0  0  0  0  0
   15.0500  -28.3110  -21.7430 C   0  0  0  0  0
   11.2050  -30.7290  -22.5750 N   0  0  0  0  0
    9.8220  -30.3650  -22.8490 C   0  0  0  0  0
    9.2640  -29.5090  -21.7140 C   0  0  0  0  0
    9.9260  -29.3540  -20.6840 O   0  0  0  0  0
    9.1080  -31.7200  -22.9010 C   0  0  0  0  0
    9.9280  -32.6100  -22.0630 C   0  0  0  0  0
   11.3420  -32.1600  -22.2480 C   0  0  0  0  0
    8.0670  -28.9330  -21.9050 N   0  0  0  0  0
    7.3860  -28.2140  -20.8300 C   0  0  0  0  0
    7.0690  -29.0820  -19.6000 C   0  0  0  0  0
    6.7260  -30.2530  -19.7380 O   0  0  0  0  0
    6.1030  -27.7360  -21.5090 C   0  0  0  0  0
    6.4840  -27.5860  -22.9320 C   0  0  0  0  0
    7.4080  -28.7150  -23.2060 C   0  0  0  0  0
    7.1900  -28.5020  -18.4110 N   0  0  0  0  0
    7.0170  -29.2530  -17.1800 C   0  0  0  0  0
    6.2060  -28.4740  -16.1500 C   0  0  0  0  0
    6.5230  -28.3880  -14.9570 O   0  0  0  0  0
    8.3780  -29.6890  -16.6210 C   0  0  0  0  0
    9.0570  -30.4570  -17.6190 O   0  0  0  0  0
    8.2240  -30.5530  -15.3680 C   0  0  0  0  0
    5.1680  -27.8990  -16.4880 O   0  0  0  0  0
    5.7639  -52.2708  -33.2684 H   0  0  0  0  0
    4.7340  -51.4336  -32.2608 H   0  0  0  0  0
    4.3257  -51.6711  -33.8589 H   0  0  0  0  0
    6.1159  -50.2872  -34.6104 H   0  0  0  0  0
    3.8946  -49.3290  -34.0409 H   0  0  0  0  0
    5.3130  -48.1677  -33.9185 H   0  0  0  0  0
    4.6374  -46.5335  -32.4196 H   0  0  0  0  0
    3.9521  -50.6652  -31.4416 H   0  0  0  0  0
    3.9189  -45.8669  -30.1319 H   0  0  0  0  0
    3.2524  -50.0116  -29.1423 H   0  0  0  0  0
    3.2244  -47.6060  -28.4852 H   0  0  0  0  0
    8.0504  -49.2704  -34.2952 H   0  0  0  0  0
    8.9584  -48.9846  -31.5022 H   0  0  0  0  0
    9.8493  -51.0860  -31.9339 H   0  0  0  0  0
   11.2360  -49.8672  -32.1101 H   0  0  0  0  0
   12.6345  -49.9899  -33.9374 H   0  0  0  0  0
    8.8267  -51.9825  -34.0799 H   0  0  0  0  0
   13.2397  -50.9852  -36.1277 H   0  0  0  0  0
    9.4270  -52.9815  -36.2695 H   0  0  0  0  0
   10.9828  -53.1562  -37.8482 H   0  0  0  0  0
   10.4379  -45.3196  -33.6618 H   0  0  0  0  0
    8.2605  -44.2814  -33.7901 H   0  0  0  0  0
    8.8213  -43.4483  -32.3774 H   0  0  0  0  0
    6.6202  -45.1753  -32.4532 H   0  0  0  0  0
    7.4548  -44.6592  -30.9770 H   0  0  0  0  0
    8.1815  -46.8106  -30.6446 H   0  0  0  0  0
    7.3139  -47.3228  -32.0302 H   0  0  0  0  0
   12.2340  -44.4971  -33.1016 H   0  0  0  0  0
   13.0299  -44.3879  -30.2753 H   0  0  0  0  0
   14.3901  -43.4758  -32.7985 H   0  0  0  0  0
   14.6663  -45.0400  -31.8203 H   0  0  0  0  0
   15.5492  -42.2367  -31.3341 H   0  0  0  0  0
   16.5101  -43.8555  -31.3831 H   0  0  0  0  0
   14.4021  -45.3598  -29.2394 H   0  0  0  0  0
   16.1548  -45.6719  -29.2840 H   0  0  0  0  0
   15.3767  -45.1790  -27.7600 H   0  0  0  0  0
   13.4137  -42.6153  -29.0292 H   0  0  0  0  0
   12.3075  -40.0593  -30.0886 H   0  0  0  0  0
   12.3337  -40.8572  -27.1895 H   0  0  0  0  0
   10.9359  -41.2112  -28.3569 H   0  0  0  0  0
   11.9460  -38.4959  -27.5714 H   0  0  0  0  0
   10.8945  -38.5712  -29.7657 H   0  0  0  0  0
    9.4763  -39.4012  -29.0796 H   0  0  0  0  0
    9.8455  -37.7261  -28.6011 H   0  0  0  0  0
    9.5250  -40.0254  -26.5674 H   0  0  0  0  0
   10.9714  -39.5927  -25.6230 H   0  0  0  0  0
    9.8865  -38.3156  -26.2254 H   0  0  0  0  0
   13.3137  -38.2090  -29.8274 H   0  0  0  0  0
   15.7658  -38.0445  -28.1590 H   0  0  0  0  0
   15.7196  -37.4660  -31.1211 H   0  0  0  0  0
   16.5644  -38.8677  -30.2840 H   0  0  0  0  0
   17.8430  -37.0516  -29.0546 H   0  0  0  0  0
   17.2590  -35.9550  -30.3700 H   0  0  0  0  0
   18.8067  -38.5165  -30.7692 H   0  0  0  0  0
   19.5019  -36.8327  -30.8035 H   0  0  0  0  0
   17.8945  -38.1744  -32.8712 H   0  0  0  0  0
   19.2526  -34.3720  -33.2398 H   0  0  0  0  0
   19.3349  -35.1643  -31.6629 H   0  0  0  0  0
   17.8098  -37.1494  -34.8714 H   0  0  0  0  0
   16.0724  -36.0466  -27.3447 H   0  0  0  0  0
   14.1389  -33.9234  -28.1849 H   0  0  0  0  0
   14.6707  -32.8335  -26.0901 H   0  0  0  0  0
   15.7880  -34.2314  -25.6860 H   0  0  0  0  0
   14.7935  -36.4978  -25.3341 H   0  0  0  0  0
   12.3724  -32.9671  -25.6153 H   0  0  0  0  0
   12.9009  -37.7240  -24.2929 H   0  0  0  0  0
   10.4726  -34.1942  -24.5775 H   0  0  0  0  0
    9.7696  -36.1377  -23.7163 H   0  0  0  0  0
   15.0417  -33.0151  -29.9499 H   0  0  0  0  0
   17.8300  -32.6279  -30.3147 H   0  0  0  0  0
   17.3504  -31.4045  -32.2786 H   0  0  0  0  0
   15.2450  -30.4466  -32.6043 H   0  0  0  0  0
   16.6233  -33.7409  -32.4074 H   0  0  0  0  0
   15.0096  -33.2868  -31.8068 H   0  0  0  0  0
   15.5676  -32.6988  -33.3924 H   0  0  0  0  0
   15.2397  -30.2915  -29.4339 H   0  0  0  0  0
   17.3204  -28.3843  -28.5709 H   0  0  0  0  0
   15.2832  -26.9906  -27.9336 H   0  0  0  0  0
   14.3411  -28.2356  -28.8418 H   0  0  0  0  0
   16.5207  -25.3692  -30.7568 H   0  0  0  0  0
   16.4233  -25.4738  -28.9959 H   0  0  0  0  0
   15.2459  -27.4387  -26.4479 H   0  0  0  0  0
   15.4469  -27.4219  -24.1723 H   0  0  0  0  0
   16.9074  -28.5312  -24.3592 H   0  0  0  0  0
   13.7407  -31.2352  -22.4610 H   0  0  0  0  0
   14.3337  -30.6192  -20.1893 H   0  0  0  0  0
   12.6967  -30.0762  -20.1958 H   0  0  0  0  0
   14.6280  -28.3351  -19.6318 H   0  0  0  0  0
   13.2892  -27.8166  -20.6068 H   0  0  0  0  0
   15.0258  -27.2880  -22.1186 H   0  0  0  0  0
   16.0956  -28.4614  -21.4741 H   0  0  0  0  0
    9.7015  -29.7815  -23.7618 H   0  0  0  0  0
    9.0185  -32.0924  -23.9215 H   0  0  0  0  0
    8.0824  -31.6523  -22.5380 H   0  0  0  0  0
    9.8036  -33.6530  -22.3543 H   0  0  0  0  0
    9.6289  -32.5541  -21.0163 H   0  0  0  0  0
   11.9549  -32.3305  -21.3629 H   0  0  0  0  0
   11.8611  -32.7195  -23.0262 H   0  0  0  0  0
    8.0076  -27.4169  -20.4222 H   0  0  0  0  0
    5.7316  -26.8050  -21.0808 H   0  0  0  0  0
    5.2789  -28.4365  -21.3740 H   0  0  0  0  0
    6.9568  -26.6227  -23.1232 H   0  0  0  0  0
    5.6131  -27.6099  -23.5871 H   0  0  0  0  0
    6.8912  -29.6030  -23.5700 H   0  0  0  0  0
    8.1162  -28.4949  -24.0048 H   0  0  0  0  0
    7.4093  -27.5071  -18.3615 H   0  0  0  0  0
    6.4445  -30.1511  -17.4119 H   0  0  0  0  0
    7.3404  -28.8691  -14.8088 H   0  0  0  0  0
    8.9399  -28.7936  -16.3551 H   0  0  0  0  0
    9.9110  -30.7359  -17.2805 H   0  0  0  0  0
    7.7022  -29.9846  -14.5981 H   0  0  0  0  0
    7.6505  -31.4470  -15.6129 H   0  0  0  0  0
    9.2100  -30.8409  -15.0033 H   0  0  0  0  0
  1  2  1  0  0  0
  2  3  1  0  0  0
  2  5  1  0  0  0
  3  4  2  0  0  0
  3 12  1  0  0  0
  5  6  1  0  0  0
  6  7  4  0  0  0
  6  8  4  0  0  0
  7  9  4  0  0  0
  8 10  4  0  0  0
  9 11  4  0  0  0
 10 11  4  0  0  0
 12 13  1  0  0  0
 13 14  1  0  0  0
 13 16  1  0  0  0
 14 15  2  0  0  0
 14 24  1  0  0  0
 16 17  1  0  0  0
 17 18  4  0  0  0
 17 19  4  0  0  0
 18 20  4  0  0  0
 19 21  4  0  0  0
 20 22  4  0  0  0
 21 22  4  0  0  0
 22 23  1  0  0  0
 24 25  1  0  0  0
 24 30  1  0  0  0
 25 26  1  0  0  0
 25 28  1  0  0  0
 26 27  2  0  0  0
 26 31  1  0  0  0
 28 29  1  0  0  0
 29 30  1  0  0  0
 31 32  1  0  0  0
 32 33  1  0  0  0
 32 35  1  0  0  0
 33 34  2  0  0  0
 33 39  1  0  0  0
 35 36  1  0  0  0
 36 37  1  0  0  0
 37 38  1  0  0  0
 39 40  1  0  0  0
 40 41  1  0  0  0
 40 43  1  0  0  0
 41 42  2  0  0  0
 41 47  1  0  0  0
 43 44  1  0  0  0
 44 45  1  0  0  0
 44 46  1  0  0  0
 47 48  1  0  0  0
 48 49  1  0  0  0
 48 51  1  0  0  0
 49 50  2  0  0  0
 49 58  1  0  0  0
 51 52  1  0  0  0
 52 53  1  0  0  0
 53 54  1  0  0  0
 54 55  1  0  0  0
 55 56  1  0  0  0
 55 57  2  0  0  0
 58 59  1  0  0  0
 59 60  1  0  0  0
 59 62  1  0  0  0
 60 61  2  0  0  0
 60 70  1  0  0  0
 62 63  1  0  0  0
 63 64  4  0  0  0
 63 65  4  0  0  0
 64 66  4  0  0  0
 65 67  4  0  0  0
 66 68  4  0  0  0
 67 68  4  0  0  0
 68 69  1  0  0  0
 70 71  1  0  0  0
 71 72  1  0  0  0
 71 74  1  0  0  0
 72 73  2  0  0  0
 72 77  1  0  0  0
 74 75  1  0  0  0
 74 76  1  0  0  0
 77 78  1  0  0  0
 78 79  1  0  0  0
 78 81  1  0  0  0
 79 80  2  0  0  0
 79 85  1  0  0  0
 81 82  1  0  0  0
 82 83  2  0  0  0
 82 84  1  0  0  0
 85 86  1  0  0  0
 86 87  1  0  0  0
 87 88  2  0  0  0
 87 89  1  0  0  0
 89 90  1  0  0  0
 89 95  1  0  0  0
 90 91  1  0  0  0
 90 93  1  0  0  0
 91 92  2  0  0  0
 91 96  1  0  0  0
 93 94  1  0  0  0
 94 95  1  0  0  0
 96 97  1  0  0  0
 96102  1  0  0  0
 97 98  1  0  0  0
 97100  1  0  0  0
 98 99  2  0  0  0
 98103  1  0  0  0
100101  1  0  0  0
101102  1  0  0  0
103104  1  0  0  0
103109  1  0  0  0
104105  1  0  0  0
104107  1  0  0  0
105106  2  0  0  0
105110  1  0  0  0
107108  1  0  0  0
108109  1  0  0  0
110111  1  0  0  0
111112  1  0  0  0
111114  1  0  0  0
112113  1  0  0  0
112117  2  0  0  0
114115  1  0  0  0
114116  1  0  0  0
  1118  1  0  0  0
  1119  1  0  0  0
  1120  1  0  0  0
  2121  1  0  0  0
  5122  1  0  0  0
  5123  1  0  0  0
  7124  1  0  0  0
  8125  1  0  0  0
  9126  1  0  0  0
 10127  1  0  0  0
 11128  1  0  0  0
 12129  1  0  0  0
 13130  1  0  0  0
 16131  1  0  0  0
 16132  1  0  0  0
 18133  1  0  0  0
 19134  1  0  0  0
 20135  1  0  0  0
 21136  1  0  0  0
 23137  1  0  0  0
 25138  1  0  0  0
 28139  1  0  0  0
 28140  1  0  0  0
 29141  1  0  0  0
 29142  1  0  0  0
 30143  1  0  0  0
 30144  1  0  0  0
 31145  1  0  0  0
 32146  1  0  0  0
 35147  1  0  0  0
 35148  1  0  0  0
 36149  1  0  0  0
 36150  1  0  0  0
 38151  1  0  0  0
 38152  1  0  0  0
 38153  1  0  0  0
 39154  1  0  0  0
 40155  1  0  0  0
 43156  1  0  0  0
 43157  1  0  0  0
 44158  1  0  0  0
 45159  1  0  0  0
 45160  1  0  0  0
 45161  1  0  0  0
 46162  1  0  0  0
 46163  1  0  0  0
 46164  1  0  0  0
 47165  1  0  0  0
 48166  1  0  0  0
 51167  1  0  0  0
 51168  1  0  0  0
 52169  1  0  0  0
 52170  1  0  0  0
 53171  1  0  0  0
 53172  1  0  0  0
 54173  1  0  0  0
 56174  1  0  0  0
 56175  1  0  0  0
 57176  1  0  0  0
 58177  1  0  0  0
 59178  1  0  0  0
 62179  1  0  0  0
 62180  1  0  0  0
 64181  1  0  0  0
 65182  1  0  0  0
 66183  1  0  0  0
 67184  1  0  0  0
 69185  1  0  0  0
 70186  1  0  0  0
 71187  1  0  0  0
 74188  1  0  0  0
 75189  1  0  0  0
 76190  1  0  0  0
 76191  1  0  0  0
 76192  1  0  0  0
 77193  1  0  0  0
 78194  1  0  0  0
 81195  1  0  0  0
 81196  1  0  0  0
 84197  1  0  0  0
 84198  1  0  0  0
 85199  1  0  0  0
 86200  1  0  0  0
 86201  1  0  0  0
 90202  1  0  0  0
 93203  1  0  0  0
 93204  1  0  0  0
 94205  1  0  0  0
 94206  1  0  0  0
 95207  1  0  0  0
 95208  1  0  0  0
 97209  1  0  0  0
100210  1  0  0  0
100211  1  0  0  0
101212  1  0  0  0
101213  1  0  0  0
102214  1  0  0  0
102215  1  0  0  0
104216  1  0  0  0
107217  1  0  0  0
107218  1  0  0  0
108219  1  0  0  0
108220  1  0  0  0
109221  1  0  0  0
109222  1  0  0  0
110223  1  0  0  0
111224  1  0  0  0
113225  1  0  0  0
114226  1  0  0  0
115227  1  0  0  0
116228  1  0  0  0
116229  1  0  0  0
116230  1  0  0  0
M  END
$$$$
