3rtf_ligand
  -I-interpret- 

 24 24  0  0  0  0  0  0  0  0999 V2000
   18.5280  -21.0040  -26.5690 N   0  0  0  0  0
   17.9970  -21.1010  -25.3400 C   0  0  0  0  0
   18.6740  -21.2090  -24.3450 O   0  0  0  0  0
   16.6400  -21.1380  -25.1890 N   0  0  0  0  0
   15.8930  -21.0890  -26.3080 C   0  0  0  0  0
   14.5290  -21.0740  -26.1190 O   0  0  0  0  0
   16.4530  -20.9900  -27.5530 C   0  0  0  0  0
   15.4590  -20.9630  -29.0170 Cl  0  0  0  0  0
   17.7780  -20.9540  -27.7360 C   0  0  0  0  0
   19.9870  -20.8740  -26.6860 C   0  0  0  0  0
   20.4570  -19.4870  -26.2690 C   0  0  0  0  0
   20.2030  -18.4580  -27.2750 N   0  3  0  0  0
   21.9490  -19.5100  -25.9660 C   0  0  0  0  0
   22.7370  -18.8270  -26.5700 O   0  0  0  0  0
   22.3280  -20.4470  -25.0520 O   0  0  0  0  0
   16.2101  -21.2002  -24.2661 H   0  0  0  0  0
   18.2330  -20.8904  -28.7244 H   0  0  0  0  0
   20.2663  -21.0354  -27.7272 H   0  0  0  0  0
   20.4535  -21.6090  -26.0301 H   0  0  0  0  0
   19.8788  -19.2291  -25.3817 H   0  0  0  0  0
   20.5408  -17.5586  -26.9325 H   0  0  0  0  0
   20.6909  -18.6997  -28.1375 H   0  0  0  0  0
   19.2006  -18.4000  -27.4547 H   0  0  0  0  0
   21.5478  -20.8742  -24.6910 H   0  0  0  0  0
  1  2  1  0  0  0
  1  9  1  0  0  0
  1 10  1  0  0  0
  2  3  2  0  0  0
  2  4  1  0  0  0
  4  5  1  0  0  0
  5  6  2  0  0  0
  5  7  1  0  0  0
  7  8  1  0  0  0
  7  9  2  0  0  0
 10 11  1  0  0  0
 11 12  1  0  0  0
 11 13  1  0  0  0
 13 14  2  0  0  0
 13 15  1  0  0  0
  4 16  1  0  0  0
  9 17  1  0  0  0
 10 18  1  0  0  0
 10 19  1  0  0  0
 11 20  1  0  0  0
 12 21  1  0  0  0
 12 22  1  0  0  0
 12 23  1  0  0  0
 15 24  1  0  0  0
M  END
$$$$
