3rlq_ligand
  -I-interpret- 

 31 33  0  0  0  0  0  0  0  0999 V2000
   17.5740   -2.2510   49.8550 N   0  0  0  0  0
   17.5210    0.0570   49.1460 N   0  0  0  0  0
   12.5830   -1.2200   51.1210 C   0  0  0  0  0
   11.3640   -1.1260   51.8280 C   0  0  0  0  0
   11.3350   -1.3100   53.2260 C   0  0  0  0  0
   13.5310   -2.0160   56.1540 C   0  0  0  0  0
   15.1050   -1.6430   51.1220 C   0  0  0  0  0
   17.4080   -4.5430   50.7030 C   0  0  0  0  0
   15.6180    0.7690   50.0590 C   0  0  0  0  0
   14.5520    1.6520   50.4270 C   0  0  0  0  0
   13.7680   -1.6870   53.2290 C   0  0  0  0  0
   16.6970    1.1470   49.2930 C   0  0  0  0  0
   15.7840   -0.6130   50.3960 C   0  0  0  0  0
   13.8200   -1.5110   51.8130 C   0  0  0  0  0
   12.5330   -1.5880   53.9620 C   0  0  0  0  0
   16.9940   -1.0140   49.8040 C   0  0  0  0  0
   16.8520   -3.1520   50.5750 C   0  0  0  0  0
   13.6860    2.3450   50.7550 N   0  0  0  0  0
   15.6670   -2.9090   51.1960 N   0  0  0  0  0
   12.3870   -1.7390   55.3340 O   0  0  0  0  0
   12.5000   -0.9690   49.4020 Cl  0  0  0  0  0
    9.7980   -1.1840   53.9980 Cl  0  0  0  0  0
   10.4407   -0.9101   51.2904 H   0  0  0  0  0
   13.9878   -2.9524   55.8338 H   0  0  0  0  0
   14.2528   -1.2054   56.0542 H   0  0  0  0  0
   13.2186   -2.1000   57.1949 H   0  0  0  0  0
   17.5135   -4.9834   49.7115 H   0  0  0  0  0
   18.3830   -4.4999   51.1884 H   0  0  0  0  0
   16.7292   -5.1506   51.3015 H   0  0  0  0  0
   14.6893   -1.9024   53.7702 H   0  0  0  0  0
   16.8684    2.1391   48.8752 H   0  0  0  0  0
 16  1  4  0  0  0
  1 17  4  0  0  0
  2 12  4  0  0  0
 16  2  4  0  0  0
  4  3  4  0  0  0
 14  3  4  0  0  0
  3 21  1  0  0  0
  5  4  4  0  0  0
 15  5  4  0  0  0
  5 22  1  0  0  0
 20  6  1  0  0  0
  7 13  4  0  0  0
 14  7  1  0  0  0
  7 19  4  0  0  0
 17  8  1  0  0  0
  9 10  1  0  0  0
  9 12  4  0  0  0
 13  9  4  0  0  0
 10 18  3  0  0  0
 11 14  4  0  0  0
 15 11  4  0  0  0
 13 16  4  0  0  0
 15 20  1  0  0  0
 17 19  4  0  0  0
  4 23  1  0  0  0
  6 24  1  0  0  0
  6 25  1  0  0  0
  6 26  1  0  0  0
  8 27  1  0  0  0
  8 28  1  0  0  0
  8 29  1  0  0  0
 11 30  1  0  0  0
 12 31  1  0  0  0
M  END
$$$$
