### 
### Created by X-TOOL on Mon Sep 10 21:12:55 2018
### 

@<TRIPOS>MOLECULE
2e98_ligand
   44    47     1     0     0
SMALL
GAST_HUCK


@<TRIPOS>ATOM
      1 CAY        43.1330   34.0200   56.1400 C.ar      1 B29         0.0114
      2 CAP        44.0200   32.9500   56.1970 C.ar      1 B29        -0.0644
      3 CAI        44.1470   32.0800   55.1180 C.ar      1 B29        -0.0726
      4 CAH        43.3900   32.2830   53.9690 C.ar      1 B29        -0.0701
      5 CAO        42.5050   33.3540   53.9100 C.ar      1 B29        -0.0280
      6 CAX        42.3690   34.2160   54.9950 C.ar      1 B29         0.1262
      7 OAT        41.5870   35.3190   55.1950 O.3       1 B29        -0.2514
      8 CBA        41.8490   35.8420   56.4330 C.ar      1 B29         0.1352
      9 CAZ        42.8140   35.0390   57.0330 C.ar      1 B29         0.0129
     10 CAQ        43.3210   35.4000   58.2770 C.ar      1 B29        -0.0637
     11 CAK        42.8720   36.5520   58.9160 C.ar      1 B29        -0.0714
     12 CAN        41.9050   37.3470   58.3080 C.ar      1 B29        -0.0614
     13 CAW        41.3880   36.9940   57.0650 C.ar      1 B29         0.0156
     14 CAV        40.4030   37.7720   56.4580 C.ar      1 B29        -0.0273
     15 CAR        40.5270   39.1540   56.3450 C.ar      1 B29        -0.0551
     16 CAM        39.3000   37.1480   55.8810 C.ar      1 B29        -0.0632
     17 CAJ        38.3570   37.9050   55.1910 C.ar      1 B29        -0.0693
     18 CAL        38.4870   39.2850   55.0690 C.ar      1 B29        -0.0614
     19 CAU        39.5810   39.9140   55.6560 C.ar      1 B29        -0.0385
     20 CAS        39.7850   41.4150   55.4230 C.3       1 B29         0.0411
     21 CBB        39.2080   42.3040   56.5300 C.3       1 B29         0.2140
     22 PBC        39.9670   43.9970   56.3900 P.3       1 B29         0.1121
     23 OAD        39.5310   44.6800   55.0070 O.co2     1 B29        -0.5593
     24 OAE        39.3030   44.8710   57.5640 O.co2     1 B29        -0.5593
     25 OAA        41.4280   43.8580   56.6000 O.co2     1 B29        -0.5593
     26 PBD        37.3510   42.4850   56.4790 P.3       1 B29         0.1121
     27 OAF        36.9560   42.8560   54.9720 O.co2     1 B29        -0.5593
     28 OAG        36.8220   41.0300   56.9030 O.co2     1 B29        -0.5593
     29 OAB        36.9300   43.5720   57.3950 O.co2     1 B29        -0.5593
     30 OAC        39.5700   41.8060   57.8200 O.3       1 B29        -0.3579
     31 H1         44.6167   32.7926   57.0882 H         1 B29         0.0584
     32 H2         44.8356   31.2446   55.1731 H         1 B29         0.0532
     33 H3         43.4893   31.6105   53.1247 H         1 B29         0.0578
     34 H4         41.9175   33.5188   53.0140 H         1 B29         0.0561
     35 H5         44.0717   34.7792   58.7525 H         1 B29         0.0589
     36 H6         43.2741   36.8290   59.8838 H         1 B29         0.0536
     37 H7         41.5533   38.2443   58.8043 H         1 B29         0.0586
     38 H8         41.3759   39.6499   56.8016 H         1 B29         0.0546
     39 H9         39.1758   36.0747   55.9689 H         1 B29         0.0553
     40 H10        37.5048   37.4096   54.7400 H         1 B29         0.0597
     41 H11        37.7474   39.8614   54.5250 H         1 B29         0.0547
     42 H12        39.2997   41.6864   54.4739 H         1 B29         0.0483
     43 H13        40.8652   41.6098   55.3514 H         1 B29         0.0483
     44 H14        40.5166   41.7620   57.8870 H         1 B29         0.2134
@<TRIPOS>BOND
     1    1    2 ar 
     2    1    6 ar 
     3    1    9 1  
     4    2    3 ar 
     5    3    4 ar 
     6    4    5 ar 
     7    5    6 ar 
     8    6    7 1  
     9    7    8 1  
    10    8    9 ar 
    11    8   13 ar 
    12    9   10 ar 
    13   10   11 ar 
    14   11   12 ar 
    15   12   13 ar 
    16   13   14 1  
    17   14   15 ar 
    18   14   16 ar 
    19   15   19 ar 
    20   16   17 ar 
    21   17   18 ar 
    22   18   19 ar 
    23   19   20 1  
    24   20   21 1  
    25   21   22 1  
    26   21   26 1  
    27   21   30 1  
    28   22   23 ar 
    29   22   24 ar 
    30   22   25 ar 
    31   26   27 ar 
    32   26   28 ar 
    33   26   29 ar 
    34    2   31 1  
    35    3   32 1  
    36    4   33 1  
    37    5   34 1  
    38   10   35 1  
    39   11   36 1  
    40   12   37 1  
    41   15   38 1  
    42   16   39 1  
    43   17   40 1  
    44   18   41 1  
    45   20   42 1  
    46   20   43 1  
    47   30   44 1  
@<TRIPOS>SUBSTRUCTURE
     1 B29         1

