4y73_ligand
  -I-interpret- 

 52 55  0  0  0  0  0  0  0  0999 V2000
   33.3450    8.1620  -11.7200 C   0  0  0  0  0
   32.8450    9.4280  -11.5800 C   0  0  0  0  0
   31.8200    9.6160  -10.5870 C   0  0  0  0  0
   28.0290    7.1240   -4.5260 N   0  0  0  0  0
   29.3950   13.6470   -7.6080 C   0  0  0  0  0
   30.2900   12.5470   -7.0070 C   0  0  0  0  0
   31.2320   11.9510   -8.0540 C   0  0  0  0  0
   32.4680    5.2850   -9.9130 C   0  0  0  0  0
   31.5510    6.1680   -9.3150 C   0  0  0  0  0
   30.6380    5.7810   -8.2110 C   0  0  0  0  0
   29.2580    6.6290   -6.3460 C   0  0  0  0  0
   28.6670    7.6430   -5.5650 C   0  0  0  0  0
   28.7450    9.1240   -5.8130 C   0  0  0  0  0
   27.6860    4.9060   -3.5710 C   0  0  0  0  0
   27.9560    9.5010   -6.7940 F   0  0  0  0  0
   28.4060    9.8370   -4.7510 F   0  0  0  0  0
   29.9650    9.5120   -6.1440 F   0  0  0  0  0
   28.2090    5.7820   -4.6230 N   0  0  0  0  0
   28.9280    5.4280   -5.6930 C   0  0  0  0  0
   30.1000    6.8020   -7.4730 N   0  0  0  0  0
   30.4420    4.5930   -7.9650 O   0  0  0  0  0
   31.7940    7.4260   -9.9640 C   0  0  0  0  0
   33.2340    5.8920  -10.8490 N   0  0  0  0  0
   32.8180    7.1660  -10.8850 N   0  0  0  0  0
   31.2830    8.6520   -9.7860 N   0  0  0  0  0
   31.2990   11.0130  -10.4720 N   0  0  0  0  0
   30.4240   11.4640   -9.3330 C   0  0  0  0  0
   32.2880   12.9450   -8.4170 N   0  3  0  0  0
   28.6160   13.1350   -8.8070 C   0  0  0  0  0
   29.5620   12.5940   -9.8750 C   0  0  0  0  0
   34.1215    7.9367  -12.4510 H   0  0  0  0  0
   33.2058   10.2550  -12.1915 H   0  0  0  0  0
   30.0306   14.4702   -7.9343 H   0  0  0  0  0
   28.6851   13.9698   -6.8465 H   0  0  0  0  0
   29.6490   11.7509   -6.6283 H   0  0  0  0  0
   30.8930   12.9894   -6.2141 H   0  0  0  0  0
   31.7215   11.0748   -7.6289 H   0  0  0  0  0
   32.5522    4.2301   -9.6518 H   0  0  0  0  0
   28.1443    5.1709   -2.6182 H   0  0  0  0  0
   26.6051    5.0283   -3.5021 H   0  0  0  0  0
   27.9209    3.8695   -3.8129 H   0  0  0  0  0
   29.2018    4.4175   -5.9965 H   0  0  0  0  0
   30.3216    7.7568   -7.7552 H   0  0  0  0  0
   31.5467   11.6883  -11.1952 H   0  0  0  0  0
   29.8331   10.6168   -8.9848 H   0  0  0  0  0
   32.7847   13.2345   -7.5745 H   0  0  0  0  0
   32.9446   12.5183   -9.0706 H   0  0  0  0  0
   31.8526   13.7580   -8.8527 H   0  0  0  0  0
   28.0407   13.9582   -9.2306 H   0  0  0  0  0
   27.9564   12.3308   -8.4809 H   0  0  0  0  0
   28.9657   12.2082  -10.7019 H   0  0  0  0  0
   30.2163   13.4031  -10.1995 H   0  0  0  0  0
  2  1  4  0  0  0
  1 24  4  0  0  0
  3  2  4  0  0  0
  3 25  4  0  0  0
 26  3  1  0  0  0
 12  4  4  0  0  0
 18  4  4  0  0  0
  6  5  1  0  0  0
  5 29  1  0  0  0
  7  6  1  0  0  0
 27  7  1  0  0  0
  7 28  1  0  0  0
  9  8  4  0  0  0
 23  8  4  0  0  0
  9 10  1  0  0  0
 22  9  4  0  0  0
 10 20  1  0  0  0
 10 21  2  0  0  0
 11 12  4  0  0  0
 11 19  4  0  0  0
 20 11  1  0  0  0
 12 13  1  0  0  0
 13 15  1  0  0  0
 13 16  1  0  0  0
 13 17  1  0  0  0
 18 14  1  0  0  0
 19 18  4  0  0  0
 22 24  4  0  0  0
 25 22  4  0  0  0
 24 23  4  0  0  0
 26 27  1  0  0  0
 27 30  1  0  0  0
 29 30  1  0  0  0
  1 31  1  0  0  0
  2 32  1  0  0  0
  5 33  1  0  0  0
  5 34  1  0  0  0
  6 35  1  0  0  0
  6 36  1  0  0  0
  7 37  1  0  0  0
  8 38  1  0  0  0
 14 39  1  0  0  0
 14 40  1  0  0  0
 14 41  1  0  0  0
 19 42  1  0  0  0
 20 43  1  0  0  0
 26 44  1  0  0  0
 27 45  1  0  0  0
 28 46  1  0  0  0
 28 47  1  0  0  0
 28 48  1  0  0  0
 29 49  1  0  0  0
 29 50  1  0  0  0
 30 51  1  0  0  0
 30 52  1  0  0  0
M  END
$$$$
