2uyi_ligand
  -I-interpret- 

 49 51  0  0  0  0  0  0  0  0999 V2000
   20.1950   14.2710   32.2420 O   0  0  0  0  0
   19.1890   13.6690   31.8280 C   0  0  0  0  0
   18.1660   13.0830   32.7770 C   0  0  0  0  0
   18.5230   13.1810   34.4630 S   0  0  0  0  0
   17.1290   12.3700   35.0060 C   0  0  0  0  0
   16.4480   11.9850   33.8530 C   0  0  0  0  0
   17.0160   12.3470   32.6400 C   0  0  0  0  0
   19.0430   13.4500   30.5040 N   0  0  0  0  0
   19.7880   14.0760   29.5600 C   0  0  0  0  0
   21.3750   13.6300   29.2690 S   0  0  0  0  0
   21.5700   14.7720   28.0240 C   0  0  0  0  0
   20.4070   15.5060   27.8360 C   0  0  0  0  0
   20.3650   16.5920   26.7720 C   0  0  0  0  0
   21.7590   17.0090   26.3250 C   0  0  0  0  0
   21.5640   17.6830   24.9630 C   0  0  0  0  0
   22.8310   15.9090   26.1650 C   0  0  0  0  0
   22.9000   14.8640   27.2900 C   0  0  0  0  0
   19.3800   15.1060   28.7010 C   0  0  0  0  0
   18.0390   15.7960   28.6870 C   0  0  0  0  0
   17.3490   15.7420   27.7190 O   0  0  0  0  0
   17.5480   16.5000   29.7230 N   0  0  0  0  0
   16.1140   16.8740   29.7860 C   0  0  0  0  0
   15.4030   15.8340   30.6310 C   0  0  0  0  0
   18.3730   16.9170   30.8810 C   0  0  0  0  0
   18.5690   18.3970   30.8620 C   0  0  0  0  0
   16.8313   12.1896   36.0389 H   0  0  0  0  0
   15.5135   11.4260   33.9016 H   0  0  0  0  0
   16.5910   12.0739   31.6742 H   0  0  0  0  0
   18.3370   12.7802   30.1986 H   0  0  0  0  0
   19.8684   17.4647   27.1961 H   0  0  0  0  0
   19.8332   16.1989   25.9055 H   0  0  0  0  0
   22.1580   17.6337   27.1242 H   0  0  0  0  0
   21.1173   16.9721   24.2679 H   0  0  0  0  0
   20.9061   18.5447   25.0763 H   0  0  0  0  0
   22.5304   18.0101   24.5792 H   0  0  0  0  0
   23.7942   16.4193   26.1626 H   0  0  0  0  0
   22.5755   15.3634   25.2566 H   0  0  0  0  0
   23.1285   13.8918   26.8533 H   0  0  0  0  0
   23.6730   15.1610   27.9988 H   0  0  0  0  0
   15.6859   16.9060   28.7841 H   0  0  0  0  0
   15.9992   17.8642   30.2270 H   0  0  0  0  0
   15.5196   14.8526   30.1712 H   0  0  0  0  0
   15.8366   15.8220   31.6310 H   0  0  0  0  0
   14.3437   16.0827   30.6958 H   0  0  0  0  0
   19.3445   16.4259   30.8245 H   0  0  0  0  0
   17.8653   16.6344   31.8032 H   0  0  0  0  0
   19.0740   18.6835   29.9395 H   0  0  0  0  0
   17.5990   18.8914   30.9154 H   0  0  0  0  0
   19.1766   18.6928   31.7173 H   0  0  0  0  0
  1  2  2  0  0  0
  2  3  1  0  0  0
  2  8  1  0  0  0
  3  4  4  0  0  0
  3  7  4  0  0  0
  4  5  4  0  0  0
  5  6  4  0  0  0
  6  7  4  0  0  0
  8  9  1  0  0  0
  9 10  4  0  0  0
  9 18  4  0  0  0
 10 11  4  0  0  0
 11 12  4  0  0  0
 11 17  1  0  0  0
 12 13  1  0  0  0
 12 18  4  0  0  0
 13 14  1  0  0  0
 14 15  1  0  0  0
 14 16  1  0  0  0
 16 17  1  0  0  0
 18 19  1  0  0  0
 19 20  2  0  0  0
 19 21  1  0  0  0
 21 22  1  0  0  0
 21 24  1  0  0  0
 22 23  1  0  0  0
 24 25  1  0  0  0
  5 26  1  0  0  0
  6 27  1  0  0  0
  7 28  1  0  0  0
  8 29  1  0  0  0
 13 30  1  0  0  0
 13 31  1  0  0  0
 14 32  1  0  0  0
 15 33  1  0  0  0
 15 34  1  0  0  0
 15 35  1  0  0  0
 16 36  1  0  0  0
 16 37  1  0  0  0
 17 38  1  0  0  0
 17 39  1  0  0  0
 22 40  1  0  0  0
 22 41  1  0  0  0
 23 42  1  0  0  0
 23 43  1  0  0  0
 23 44  1  0  0  0
 24 45  1  0  0  0
 24 46  1  0  0  0
 25 47  1  0  0  0
 25 48  1  0  0  0
 25 49  1  0  0  0
M  END
$$$$
