5am4_ligand
  -I-interpret- 

 44 47  0  0  0  0  0  0  0  0999 V2000
  -15.8710  -10.0500   12.1920 C   0  0  0  0  0
  -14.6540  -10.2950   11.5850 C   0  0  0  0  0
  -14.5280   -9.9860   10.2460 C   0  0  0  0  0
  -15.5550   -9.4490    9.5170 C   0  0  0  0  0
  -16.7720   -9.2120   10.1310 C   0  0  0  0  0
  -16.9280   -9.5100   11.4760 C   0  0  0  0  0
  -18.2230   -9.2640   12.1860 C   0  0  0  0  0
  -18.5250   -7.7740   12.2450 C   0  0  0  0  0
  -19.8700   -7.4550   12.8870 C   0  0  0  0  0
  -21.0070   -8.3060   12.3490 C   0  0  0  0  0
  -20.6640   -9.7890   12.3170 C   0  0  0  0  0
  -19.3680  -10.0500   11.5640 C   0  0  0  0  0
  -15.1240   -9.2320    8.0970 C   0  0  0  0  0
  -15.1910   -7.7640    7.6910 C   0  0  0  0  0
  -16.5900   -7.3610    7.2360 C   0  0  0  0  0
  -17.0760   -8.2590    6.2350 O   0  0  0  0  0
  -17.2380   -9.5860    6.7450 C   0  0  0  0  0
  -15.8720  -10.1500    7.1300 C   0  0  0  0  0
  -13.6680   -9.6800    8.1650 C   0  0  0  0  0
  -12.8570   -9.6500    7.2450 O   0  0  0  0  0
  -13.4020  -10.1500    9.4380 N   0  0  0  0  0
  -16.0016  -10.2846   13.2484 H   0  0  0  0  0
  -13.8207  -10.7185   12.1456 H   0  0  0  0  0
  -17.6021   -8.7940    9.5614 H   0  0  0  0  0
  -18.1188   -9.6257   13.2089 H   0  0  0  0  0
  -18.5534   -7.4033   11.2204 H   0  0  0  0  0
  -17.7510   -7.3053   12.8528 H   0  0  0  0  0
  -20.1032   -6.4137   12.6648 H   0  0  0  0  0
  -19.7826   -7.6574   13.9545 H   0  0  0  0  0
  -21.2104   -7.9867   11.3269 H   0  0  0  0  0
  -21.8653   -8.1744   13.0079 H   0  0  0  0  0
  -21.4699  -10.3172   11.8075 H   0  0  0  0  0
  -20.5410  -10.1355   13.3431 H   0  0  0  0  0
  -19.1365  -11.1139   11.6155 H   0  0  0  0  0
  -19.4912   -9.7361   10.5275 H   0  0  0  0  0
  -14.5038   -7.6084    6.8593 H   0  0  0  0  0
  -14.9264   -7.1580    8.5575 H   0  0  0  0  0
  -16.5474   -6.3560    6.8162 H   0  0  0  0  0
  -17.2618   -7.3935    8.0937 H   0  0  0  0  0
  -17.6909  -10.2175    5.9807 H   0  0  0  0  0
  -17.8835   -9.5628    7.6230 H   0  0  0  0  0
  -16.0266  -11.1100    7.6226 H   0  0  0  0  0
  -15.2758  -10.2471    6.2227 H   0  0  0  0  0
  -12.5164  -10.5554    9.7408 H   0  0  0  0  0
  1  2  4  0  0  0
  1  6  4  0  0  0
  2  3  4  0  0  0
  3  4  4  0  0  0
  3 21  1  0  0  0
  4  5  4  0  0  0
  4 13  1  0  0  0
  5  6  4  0  0  0
  6  7  1  0  0  0
  7  8  1  0  0  0
  7 12  1  0  0  0
  8  9  1  0  0  0
  9 10  1  0  0  0
 10 11  1  0  0  0
 11 12  1  0  0  0
 13 14  1  0  0  0
 13 18  1  0  0  0
 13 19  1  0  0  0
 14 15  1  0  0  0
 15 16  1  0  0  0
 16 17  1  0  0  0
 17 18  1  0  0  0
 19 20  2  0  0  0
 19 21  1  0  0  0
  1 22  1  0  0  0
  2 23  1  0  0  0
  5 24  1  0  0  0
  7 25  1  0  0  0
  8 26  1  0  0  0
  8 27  1  0  0  0
  9 28  1  0  0  0
  9 29  1  0  0  0
 10 30  1  0  0  0
 10 31  1  0  0  0
 11 32  1  0  0  0
 11 33  1  0  0  0
 12 34  1  0  0  0
 12 35  1  0  0  0
 14 36  1  0  0  0
 14 37  1  0  0  0
 15 38  1  0  0  0
 15 39  1  0  0  0
 17 40  1  0  0  0
 17 41  1  0  0  0
 18 42  1  0  0  0
 18 43  1  0  0  0
 21 44  1  0  0  0
M  END
$$$$
