4gzt_ligand
  -I-interpret- 

 47 47  0  0  0  0  0  0  0  0999 V2000
   11.4330   24.2910   17.4950 C   0  0  0  0  0
   11.5100   23.0350   17.8090 O   0  0  0  0  0
   10.8330   25.1390   18.2100 O   0  0  0  0  0
   12.0390   24.8120   16.2530 C   0  0  0  0  0
   12.0830   26.3240   15.9360 C   0  0  0  0  0
   13.4730   26.6890   15.2890 C   0  0  0  0  0
   13.6260   25.7600   14.0960 C   0  0  0  0  0
   14.6490   26.2920   13.2110 N   0  0  0  0  0
   14.3880   26.4010   11.9310 C   0  0  0  0  0
   13.3310   25.9970   11.3790 O   0  0  0  0  0
   15.5210   26.8960   11.1770 C   0  0  0  0  0
   13.8030   24.3270   14.5730 C   0  0  0  0  0
   12.5950   23.9300   15.4090 C   0  0  0  0  0
   13.7270   23.4450   13.4740 O   0  0  0  0  0
   14.9010   22.6190   13.3790 C   0  0  0  0  0
   14.7000   21.5760   14.4940 C   0  0  0  0  0
   14.9260   21.9230   12.0220 C   0  0  0  0  0
   14.9050   22.9180   10.9030 C   0  0  0  0  0
   15.7880   20.5630   14.5780 C   0  0  0  0  0
   13.5450   28.0410   14.7570 N   0  3  0  0  0
   12.0070   22.5674   17.1337 H   0  0  0  0  0
   11.2683   25.5666   16.0959 H   0  0  0  0  0
   11.9528   26.8910   16.8578 H   0  0  0  0  0
   11.2829   26.5709   15.2381 H   0  0  0  0  0
   14.2367   26.5987   16.0615 H   0  0  0  0  0
   12.7257   25.7163   13.4831 H   0  0  0  0  0
   15.5563   26.5762   13.5804 H   0  0  0  0  0
   15.8838   26.1121   10.5122 H   0  0  0  0  0
   15.2142   27.7604   10.5881 H   0  0  0  0  0
   16.3147   27.1868   11.8652 H   0  0  0  0  0
   14.7514   24.2714   15.1073 H   0  0  0  0  0
   11.8138   23.7266   14.6765 H   0  0  0  0  0
   12.9627   23.1323   16.0544 H   0  0  0  0  0
   15.8312   23.1784   13.4786 H   0  0  0  0  0
   13.7761   21.0411   14.2740 H   0  0  0  0  0
   14.6851   22.1142   15.4417 H   0  0  0  0  0
   14.0436   21.2884   11.9400 H   0  0  0  0  0
   15.8415   21.3360   11.9487 H   0  0  0  0  0
   13.9980   23.5189   10.9698 H   0  0  0  0  0
   15.7781   23.5661   10.9784 H   0  0  0  0  0
   14.9236   22.3907    9.9492 H   0  0  0  0  0
   15.8502   20.0195   13.6352 H   0  0  0  0  0
   16.7358   21.0649   14.7728 H   0  0  0  0  0
   15.5717   19.8656   15.3873 H   0  0  0  0  0
   13.4473   28.7109   15.5199 H   0  0  0  0  0
   14.4452   28.1766   14.2970 H   0  0  0  0  0
   12.7927   28.1801   14.0823 H   0  0  0  0  0
  1  2  1  0  0  0
  1  3  2  0  0  0
  1  4  1  0  0  0
  4  5  1  0  0  0
  4 13  1  0  0  0
  5  6  1  0  0  0
  6  7  1  0  0  0
  6 20  1  0  0  0
  7  8  1  0  0  0
  7 12  1  0  0  0
  8  9  1  0  0  0
  9 10  2  0  0  0
  9 11  1  0  0  0
 12 13  1  0  0  0
 12 14  1  0  0  0
 14 15  1  0  0  0
 15 16  1  0  0  0
 15 17  1  0  0  0
 16 19  1  0  0  0
 17 18  1  0  0  0
  2 21  1  0  0  0
  4 22  1  0  0  0
  5 23  1  0  0  0
  5 24  1  0  0  0
  6 25  1  0  0  0
  7 26  1  0  0  0
  8 27  1  0  0  0
 11 28  1  0  0  0
 11 29  1  0  0  0
 11 30  1  0  0  0
 12 31  1  0  0  0
 13 32  1  0  0  0
 13 33  1  0  0  0
 15 34  1  0  0  0
 16 35  1  0  0  0
 16 36  1  0  0  0
 17 37  1  0  0  0
 17 38  1  0  0  0
 18 39  1  0  0  0
 18 40  1  0  0  0
 18 41  1  0  0  0
 19 42  1  0  0  0
 19 43  1  0  0  0
 19 44  1  0  0  0
 20 45  1  0  0  0
 20 46  1  0  0  0
 20 47  1  0  0  0
M  END
$$$$
