3eeb_ligand
  -I-interpret- 

 54 54  0  0  0  0  0  0  0  0999 V2000
  -49.0310   -2.3850    4.0380 C   0  0  0  0  0
  -47.7500   -2.4200    4.8560 C   0  0  0  0  0
  -46.9100   -3.6170    4.4390 C   0  0  0  0  0
  -46.5930   -3.5900    2.9330 C   0  0  0  0  0
  -47.9150   -3.5640    2.1590 C   0  0  0  0  0
  -48.7090   -2.3200    2.5500 C   0  0  0  0  0
  -49.7780   -1.2370    4.3950 O   0  0  0  0  0
  -51.0690   -1.3070    5.3700 P   0  0  0  0  0
  -51.6490    0.0700    5.1620 O   0  0  0  0  0
  -50.4940   -1.5660    6.7270 O   0  0  0  0  0
  -51.9240   -2.4330    4.8630 O   0  0  0  0  0
  -46.9970   -1.2400    4.6200 O   0  0  0  0  0
  -46.7620   -0.1240    5.7610 P   0  0  0  0  0
  -46.5650    1.1140    4.9410 O   0  0  0  0  0
  -48.0490   -0.1500    6.5440 O   0  0  0  0  0
  -45.5840   -0.5790    6.5810 O   0  0  0  0  0
  -45.7340   -3.6460    5.2340 O   0  0  0  0  0
  -45.3100   -4.9800    6.0210 P   0  0  0  0  0
  -43.9010   -5.2540    5.5400 O   0  0  0  0  0
  -46.3530   -5.9890    5.5820 O   0  0  0  0  0
  -45.3300   -4.5880    7.4760 O   0  0  0  0  0
  -45.8110   -4.7400    2.6150 O   0  0  0  0  0
  -44.2810   -4.6570    2.1060 P   0  0  0  0  0
  -43.4930   -4.2030    3.3060 O   0  0  0  0  0
  -43.9550   -6.0630    1.6450 O   0  0  0  0  0
  -44.3270   -3.6960    0.9250 O   0  0  0  0  0
  -47.7300   -3.5570    0.7450 O   0  0  0  0  0
  -48.4700   -4.5970   -0.2310 P   0  0  0  0  0
  -48.9330   -5.6980    0.6850 O   0  0  0  0  0
  -49.6010   -3.8830   -0.9170 O   0  0  0  0  0
  -47.3370   -5.0090   -1.1480 O   0  0  0  0  0
  -49.9200   -2.2030    1.7980 O   0  0  0  0  0
  -50.2140   -0.9490    0.8190 P   0  0  0  0  0
  -49.7230   -1.3300   -0.5520 O   0  0  0  0  0
  -51.7220   -0.8140    0.8790 O   0  0  0  0  0
  -49.4430    0.2120    1.3920 O   0  0  0  0  0
  -49.6040   -3.2898    4.2408 H   0  0  0  0  0
  -48.0093   -2.4924    5.9122 H   0  0  0  0  0
  -47.4737   -4.5345    4.6077 H   0  0  0  0  0
  -46.0211   -2.7038    2.6580 H   0  0  0  0  0
  -48.4518   -4.4759    2.4206 H   0  0  0  0  0
  -48.1006   -1.4428    2.3299 H   0  0  0  0  0
  -51.9910    0.1402    4.2677 H   0  0  0  0  0
  -52.2626   -2.2095    3.9929 H   0  0  0  0  0
  -48.1032   -0.9694    7.0413 H   0  0  0  0  0
  -45.8195   -1.3750    7.0631 H   0  0  0  0  0
  -43.9230   -5.5003    4.6124 H   0  0  0  0  0
  -46.2507   -6.1658    4.6440 H   0  0  0  0  0
  -44.4934   -6.2808    0.8806 H   0  0  0  0  0
  -44.8518   -4.0821    0.2200 H   0  0  0  0  0
  -48.1706   -6.1154    1.0926 H   0  0  0  0  0
  -46.6590   -5.4561   -0.6361 H   0  0  0  0  0
  -51.9852   -0.5709    1.7696 H   0  0  0  0  0
  -49.7855    0.4231    2.2636 H   0  0  0  0  0
  1  2  1  0  0  0
  1  6  1  0  0  0
  1  7  1  0  0  0
  2  3  1  0  0  0
  2 12  1  0  0  0
  3  4  1  0  0  0
  3 17  1  0  0  0
  4  5  1  0  0  0
  4 22  1  0  0  0
  5  6  1  0  0  0
  5 27  1  0  0  0
  6 32  1  0  0  0
  7  8  1  0  0  0
  8  9  1  0  0  0
  8 10  2  0  0  0
  8 11  1  0  0  0
 12 13  1  0  0  0
 13 14  2  0  0  0
 13 15  1  0  0  0
 13 16  1  0  0  0
 17 18  1  0  0  0
 18 19  1  0  0  0
 18 20  1  0  0  0
 18 21  2  0  0  0
 22 23  1  0  0  0
 23 24  2  0  0  0
 23 25  1  0  0  0
 23 26  1  0  0  0
 27 28  1  0  0  0
 28 29  1  0  0  0
 28 30  2  0  0  0
 28 31  1  0  0  0
 32 33  1  0  0  0
 33 34  2  0  0  0
 33 35  1  0  0  0
 33 36  1  0  0  0
  1 37  1  0  0  0
  2 38  1  0  0  0
  3 39  1  0  0  0
  4 40  1  0  0  0
  5 41  1  0  0  0
  6 42  1  0  0  0
  9 43  1  0  0  0
 11 44  1  0  0  0
 15 45  1  0  0  0
 16 46  1  0  0  0
 19 47  1  0  0  0
 20 48  1  0  0  0
 25 49  1  0  0  0
 26 50  1  0  0  0
 29 51  1  0  0  0
 31 52  1  0  0  0
 35 53  1  0  0  0
 36 54  1  0  0  0
M  END
$$$$
