1wtg_ligand
  -I-interpret- 

 78 80  0  0  0  0  0  0  0  0999 V2000
   35.7990    7.0160   10.2910 C   0  0  0  0  0
   34.8940    7.2350   11.0940 O   0  0  0  0  0
   35.8450    7.4860    9.0220 N   0  0  0  0  0
   34.7430    8.2670    8.5040 C   0  0  0  0  0
   34.8870    8.5250    7.0170 C   0  0  0  0  0
   36.1800    9.2600    6.6340 C   0  0  0  0  0
   33.4260    7.5020    8.7810 C   0  0  0  0  0
   33.3140    6.2890    8.6010 O   0  0  0  0  0
   32.4510    8.2970    9.2420 N   0  0  0  0  0
   31.1870    7.6600    9.4950 C   0  0  0  0  0
   31.7910    6.5070   11.6580 C   0  0  0  0  0
   31.5360    6.2620   13.0220 C   0  0  0  0  0
   30.4890    6.9410   13.6950 C   0  0  0  0  0
   29.6560    7.7930   12.9620 C   0  0  0  0  0
   29.8920    8.0170   11.6050 C   0  0  0  0  0
   30.9620    7.3840   10.9480 C   0  0  0  0  0
   30.2710    6.7680   15.1330 C   0  0  0  0  0
   30.8220    5.7580   15.7920 N   0  0  0  0  0
   36.0630    9.5590    5.1570 C   0  0  0  0  0
   35.8960    8.6690    4.3290 O   0  0  0  0  0
   36.0580   10.8540    4.8820 N   0  0  0  0  0
   38.0010    7.0940   11.3860 C   0  0  0  0  0
   36.5400    5.0990   11.5910 N   0  0  0  0  0
   37.0110    6.1530   10.7090 C   0  0  0  0  0
   36.3720    3.5130   10.9500 S   0  0  0  0  0
   35.7390    3.7160    9.6870 O   0  0  0  0  0
   35.7030    2.8060   11.9870 O   0  0  0  0  0
   37.9810    2.8520   10.7010 C   0  0  0  0  0
   38.5800    2.5600   12.0900 C   0  0  0  0  0
   29.4980    7.5940   15.8220 N   0  0  0  0  0
   40.2550    5.9640   11.1010 C   0  0  0  0  0
   39.1800    6.3580   11.9300 C   0  0  0  0  0
   39.2760    6.0170   13.2960 C   0  0  0  0  0
   40.3770    5.2820   13.7960 C   0  0  0  0  0
   41.4320    4.8550   12.9650 C   0  0  0  0  0
   41.3500    5.2350   11.6160 C   0  0  0  0  0
   44.9690    3.6190   13.7640 C   0  0  0  0  0
   43.8860    4.2960   13.1440 C   0  0  0  0  0
   42.5510    4.0440   13.4990 C   0  0  0  0  0
   42.3410    3.0250   14.4510 C   0  0  0  0  0
   43.4150    2.3380   15.0700 C   0  0  0  0  0
   44.7530    2.6470   14.7600 C   0  0  0  0  0
   36.6543    7.2899    8.4330 H   0  0  0  0  0
   34.7363    9.2365    9.0021 H   0  0  0  0  0
   34.0530    9.1590    6.7162 H   0  0  0  0  0
   34.9069    7.5548    6.5205 H   0  0  0  0  0
   37.0592    8.6518    6.8466 H   0  0  0  0  0
   36.3028   10.1742    7.2147 H   0  0  0  0  0
   32.5966    9.2935    9.4037 H   0  0  0  0  0
   31.1808    6.7061    8.9677 H   0  0  0  0  0
   30.3989    8.3321    9.1555 H   0  0  0  0  0
   32.6275    6.0174   11.1593 H   0  0  0  0  0
   32.1498    5.5434   13.5651 H   0  0  0  0  0
   28.8171    8.2851   13.4541 H   0  0  0  0  0
   29.2398    8.6899   11.0483 H   0  0  0  0  0
   30.6434    5.6419   16.7895 H   0  0  0  0  0
   31.4245    5.0971   15.3015 H   0  0  0  0  0
   35.9076   11.1714    3.9244 H   0  0  0  0  0
   36.2046   11.5343    5.6277 H   0  0  0  0  0
   37.4931    7.5883   12.2141 H   0  0  0  0  0
   38.3557    7.8100   10.6446 H   0  0  0  0  0
   36.3146    5.2953   12.5662 H   0  0  0  0  0
   37.5057    5.6678    9.8676 H   0  0  0  0  0
   38.6052    3.5613   10.1575 H   0  0  0  0  0
   37.9311    1.9393   10.1073 H   0  0  0  0  0
   38.6317    3.4853   12.6638 H   0  0  0  0  0
   37.9486    1.8416   12.6128 H   0  0  0  0  0
   39.5820    2.1472   11.9727 H   0  0  0  0  0
   29.0377    8.3733   15.3517 H   0  0  0  0  0
   40.2387    6.2279   10.0435 H   0  0  0  0  0
   38.4857    6.3262   13.9801 H   0  0  0  0  0
   40.4101    5.0383   14.8579 H   0  0  0  0  0
   42.1603    4.9576   10.9418 H   0  0  0  0  0
   45.9893    3.8565   13.4628 H   0  0  0  0  0
   44.0971    5.0333   12.3694 H   0  0  0  0  0
   41.3192    2.7570   14.7196 H   0  0  0  0  0
   43.2012    1.5564   15.7991 H   0  0  0  0  0
   45.5836    2.1565   15.2675 H   0  0  0  0  0
  1  2  2  0  0  0
  1  3  1  0  0  0
 24  1  1  0  0  0
  3  4  1  0  0  0
  4  5  1  0  0  0
  4  7  1  0  0  0
  5  6  1  0  0  0
  6 19  1  0  0  0
  7  8  2  0  0  0
  7  9  1  0  0  0
  9 10  1  0  0  0
 10 16  1  0  0  0
 11 12  4  0  0  0
 16 11  4  0  0  0
 12 13  4  0  0  0
 14 13  4  0  0  0
 13 17  1  0  0  0
 15 14  4  0  0  0
 16 15  4  0  0  0
 17 18  1  0  0  0
 17 30  2  0  0  0
 19 20  2  0  0  0
 19 21  1  0  0  0
 22 24  1  0  0  0
 32 22  1  0  0  0
 24 23  1  0  0  0
 23 25  1  0  0  0
 25 26  2  0  0  0
 25 27  2  0  0  0
 25 28  1  0  0  0
 28 29  1  0  0  0
 31 32  4  0  0  0
 36 31  4  0  0  0
 33 32  4  0  0  0
 34 33  4  0  0  0
 35 34  4  0  0  0
 35 36  4  0  0  0
 39 35  1  0  0  0
 38 37  4  0  0  0
 37 42  4  0  0  0
 38 39  4  0  0  0
 39 40  4  0  0  0
 40 41  4  0  0  0
 41 42  4  0  0  0
  3 43  1  0  0  0
  4 44  1  0  0  0
  5 45  1  0  0  0
  5 46  1  0  0  0
  6 47  1  0  0  0
  6 48  1  0  0  0
  9 49  1  0  0  0
 10 50  1  0  0  0
 10 51  1  0  0  0
 11 52  1  0  0  0
 12 53  1  0  0  0
 14 54  1  0  0  0
 15 55  1  0  0  0
 18 56  1  0  0  0
 18 57  1  0  0  0
 21 58  1  0  0  0
 21 59  1  0  0  0
 22 60  1  0  0  0
 22 61  1  0  0  0
 23 62  1  0  0  0
 24 63  1  0  0  0
 28 64  1  0  0  0
 28 65  1  0  0  0
 29 66  1  0  0  0
 29 67  1  0  0  0
 29 68  1  0  0  0
 30 69  1  0  0  0
 31 70  1  0  0  0
 33 71  1  0  0  0
 34 72  1  0  0  0
 36 73  1  0  0  0
 37 74  1  0  0  0
 38 75  1  0  0  0
 40 76  1  0  0  0
 41 77  1  0  0  0
 42 78  1  0  0  0
M  END
$$$$
