5mxr_ligand
  -I-interpret- 

 26 27  0  0  0  0  0  0  0  0999 V2000
   -5.1430  -16.7630   -5.8220 C   0  0  0  0  0
   -6.3650  -16.8110   -6.4130 C   0  0  0  0  0
   -6.3540  -17.6400   -7.4670 N   0  0  0  0  0
   -5.2080  -18.2180   -7.8450 C   0  0  0  0  0
   -7.5230  -16.2050   -5.9940 C   0  0  0  0  0
   -2.9050  -17.3990   -3.7060 O   0  0  0  0  0
   -1.9660  -15.1410   -5.2290 C   0  0  0  0  0
   -1.9350  -15.1720   -6.6330 C   0  0  0  0  0
   -7.5770  -15.4630   -4.9740 O   0  0  0  0  0
   -8.6200  -16.4150   -6.5950 O   0  0  0  0  0
   -4.0480  -17.7660   -6.7670 S   0  0  0  0  0
   -4.8290  -16.0510   -4.7390 N   0  0  0  0  0
   -3.2860  -15.9670   -4.1460 S   0  0  0  0  0
   -3.3750  -15.0440   -2.9420 O   0  0  0  0  0
   -0.9470  -14.4300   -4.5610 C   0  0  0  0  0
    0.0670  -13.7790   -5.2680 C   0  0  0  0  0
    0.0850  -13.8180   -6.6700 C   0  0  0  0  0
   -0.9270  -14.5070   -7.3490 C   0  0  0  0  0
   -5.0679  -18.8687   -8.7082 H   0  0  0  0  0
   -2.7053  -15.7207   -7.1748 H   0  0  0  0  0
   -8.4654  -16.9873   -7.3501 H   0  0  0  0  0
   -5.5680  -15.5386   -4.2577 H   0  0  0  0  0
   -0.9509  -14.3877   -3.4718 H   0  0  0  0  0
    0.8458  -13.2396   -4.7289 H   0  0  0  0  0
    0.8784  -13.3172   -7.2249 H   0  0  0  0  0
   -0.9323  -14.5272   -8.4388 H   0  0  0  0  0
  1  2  4  0  0  0
  1 11  4  0  0  0
 12  1  1  0  0  0
  2  3  4  0  0  0
  2  5  1  0  0  0
  4  3  4  0  0  0
 11  4  4  0  0  0
  5  9  2  0  0  0
  5 10  1  0  0  0
 13  6  2  0  0  0
  7  8  4  0  0  0
 13  7  1  0  0  0
  7 15  4  0  0  0
  8 18  4  0  0  0
 12 13  1  0  0  0
 13 14  2  0  0  0
 15 16  4  0  0  0
 16 17  4  0  0  0
 17 18  4  0  0  0
  4 19  1  0  0  0
  8 20  1  0  0  0
 10 21  1  0  0  0
 12 22  1  0  0  0
 15 23  1  0  0  0
 16 24  1  0  0  0
 17 25  1  0  0  0
 18 26  1  0  0  0
M  END
$$$$
