4fcf_ligand
  -I-interpret- 

 79 81  0  0  0  0  0  0  0  0999 V2000
   35.7500   25.2970    2.2420 C   0  0  0  0  0
   36.2950   24.6490    0.9940 C   0  0  0  0  0
   36.0170   23.1560    0.9360 C   0  0  0  0  0
   36.3770   22.4510    2.2240 C   0  0  0  0  0
   35.8360   23.1920    3.4420 C   0  0  0  0  0
   36.3300   22.5910    4.7570 C   0  0  0  0  0
   35.7180   25.3060   -0.1050 O   0  0  0  0  0
   36.7390   22.6180   -0.1800 O   0  0  0  0  0
   36.1910   24.5820    3.3940 O   0  0  0  0  0
   37.7640   22.5890    4.7500 O   0  0  0  0  0
   34.3250   25.2540    2.2030 O   0  0  0  0  0
   35.8450   21.1480    2.2500 O   0  0  0  0  0
   31.0590   27.6620    2.7180 C   0  0  0  0  0
   31.8770   27.9800    1.4810 C   0  0  0  0  0
   32.7680   26.7760    1.2120 C   0  0  0  0  0
   33.6300   26.4970    2.4350 C   0  0  0  0  0
   32.8120   26.3170    3.6940 C   0  0  0  0  0
   33.6510   26.2600    4.9310 C   0  0  0  0  0
   30.2850   28.7870    3.0290 O   0  0  0  0  0
   31.0360   28.2530    0.3720 O   0  0  0  0  0
   33.5890   27.0980    0.1200 O   0  0  0  0  0
   31.9700   27.4900    3.8280 O   0  0  0  0  0
   34.4730   27.4390    4.9560 O   0  0  0  0  0
   29.2930   28.4900    4.0560 C   0  0  0  0  0
   28.0020   28.2210    3.3690 C   0  0  0  0  0
   26.9230   27.7940    4.3630 C   0  0  0  0  0
   25.4980   28.1550    3.8540 C   0  0  0  0  0
   24.3470   27.4510    4.5190 C   0  0  0  0  0
   24.4270   27.3760    6.0360 C   0  0  0  0  0
   23.1180   27.0760    6.7280 C   0  0  0  0  0
   23.0700   28.0390    7.9400 C   0  0  0  0  0
   22.4570   27.5260    9.2370 C   0  0  0  0  0
   21.6140   26.3010    9.0040 C   0  0  0  0  0
   22.5180   25.2380    8.4390 C   0  0  0  0  0
   23.1190   25.5940    7.1140 C   0  0  0  0  0
   36.1021   26.3273    2.2922 H   0  0  0  0  0
   37.3807   24.7455    0.9862 H   0  0  0  0  0
   34.9471   22.9930    0.8066 H   0  0  0  0  0
   37.4659   22.4211    2.2630 H   0  0  0  0  0
   34.7515   23.0876    3.4086 H   0  0  0  0  0
   35.9583   21.5717    4.8616 H   0  0  0  0  0
   35.9641   23.1831    5.5959 H   0  0  0  0  0
   35.9052   26.2459   -0.0489 H   0  0  0  0  0
   36.4871   23.0871   -0.9788 H   0  0  0  0  0
   38.0864   22.2131    5.5724 H   0  0  0  0  0
   36.1694   20.6560    1.4922 H   0  0  0  0  0
   30.4480   26.7760    2.5456 H   0  0  0  0  0
   32.4812   28.8733    1.6391 H   0  0  0  0  0
   32.1696   25.8904    0.9980 H   0  0  0  0  0
   34.2973   27.3473    2.5755 H   0  0  0  0  0
   32.2630   25.3798    3.6026 H   0  0  0  0  0
   34.2723   25.3644    4.9271 H   0  0  0  0  0
   33.0178   26.2201    5.8174 H   0  0  0  0  0
   31.5760   28.4508   -0.3966 H   0  0  0  0  0
   34.1654   26.3556   -0.0755 H   0  0  0  0  0
   35.0233   27.4274    5.7425 H   0  0  0  0  0
   29.1911   29.3316    4.7412 H   0  0  0  0  0
   29.5998   27.6236    4.6420 H   0  0  0  0  0
   28.1520   27.4141    2.6517 H   0  0  0  0  0
   27.6753   29.1353    2.8736 H   0  0  0  0  0
   27.0951   28.3177    5.3033 H   0  0  0  0  0
   26.9796   26.7127    4.4884 H   0  0  0  0  0
   25.4682   27.8569    2.8060 H   0  0  0  0  0
   25.3634   29.2162    4.0635 H   0  0  0  0  0
   24.3531   26.4243    4.1531 H   0  0  0  0  0
   23.4495   28.0213    4.2797 H   0  0  0  0  0
   24.7501   28.3572    6.3838 H   0  0  0  0  0
   25.1056   26.5575    6.2761 H   0  0  0  0  0
   22.2300   27.2325    6.1156 H   0  0  0  0  0
   22.4336   28.8666    7.6268 H   0  0  0  0  0
   24.1112   28.2562    8.1783 H   0  0  0  0  0
   21.8209   28.3085    9.6507 H   0  0  0  0  0
   23.2650   27.2636    9.9199 H   0  0  0  0  0
   20.8013   26.5208    8.3117 H   0  0  0  0  0
   21.1617   25.9637    9.9366 H   0  0  0  0  0
   21.9133   24.3433    8.2908 H   0  0  0  0  0
   23.3399   25.1040    9.1423 H   0  0  0  0  0
   24.1675   25.3021    7.1740 H   0  0  0  0  0
   22.5086   25.0902    6.3646 H   0  0  0  0  0
  1  2  1  0  0  0
  1  9  1  0  0  0
 11  1  1  0  0  0
  2  3  1  0  0  0
  2  7  1  0  0  0
  3  4  1  0  0  0
  3  8  1  0  0  0
  5  4  1  0  0  0
  4 12  1  0  0  0
  5  6  1  0  0  0
  9  5  1  0  0  0
  6 10  1  0  0  0
 16 11  1  0  0  0
 14 13  1  0  0  0
 13 19  1  0  0  0
 13 22  1  0  0  0
 15 14  1  0  0  0
 14 20  1  0  0  0
 15 16  1  0  0  0
 15 21  1  0  0  0
 16 17  1  0  0  0
 17 18  1  0  0  0
 17 22  1  0  0  0
 18 23  1  0  0  0
 19 24  1  0  0  0
 24 25  1  0  0  0
 25 26  1  0  0  0
 26 27  1  0  0  0
 27 28  1  0  0  0
 28 29  1  0  0  0
 29 30  1  0  0  0
 30 31  1  0  0  0
 30 35  1  0  0  0
 31 32  1  0  0  0
 32 33  1  0  0  0
 33 34  1  0  0  0
 34 35  1  0  0  0
  1 36  1  0  0  0
  2 37  1  0  0  0
  3 38  1  0  0  0
  4 39  1  0  0  0
  5 40  1  0  0  0
  6 41  1  0  0  0
  6 42  1  0  0  0
  7 43  1  0  0  0
  8 44  1  0  0  0
 10 45  1  0  0  0
 12 46  1  0  0  0
 13 47  1  0  0  0
 14 48  1  0  0  0
 15 49  1  0  0  0
 16 50  1  0  0  0
 17 51  1  0  0  0
 18 52  1  0  0  0
 18 53  1  0  0  0
 20 54  1  0  0  0
 21 55  1  0  0  0
 23 56  1  0  0  0
 24 57  1  0  0  0
 24 58  1  0  0  0
 25 59  1  0  0  0
 25 60  1  0  0  0
 26 61  1  0  0  0
 26 62  1  0  0  0
 27 63  1  0  0  0
 27 64  1  0  0  0
 28 65  1  0  0  0
 28 66  1  0  0  0
 29 67  1  0  0  0
 29 68  1  0  0  0
 30 69  1  0  0  0
 31 70  1  0  0  0
 31 71  1  0  0  0
 32 72  1  0  0  0
 32 73  1  0  0  0
 33 74  1  0  0  0
 33 75  1  0  0  0
 34 76  1  0  0  0
 34 77  1  0  0  0
 35 78  1  0  0  0
 35 79  1  0  0  0
M  END
$$$$
