5q1g_ligand
  -I-interpret- 

 56 58  0  0  0  0  0  0  0  0999 V2000
   11.9140   62.0630   18.0330 C   0  0  0  0  0
   11.8770   63.9820   15.1090 C   0  0  0  0  0
    9.7430   62.6240   15.6680 C   0  0  0  0  0
   14.3230   60.8040   16.8160 C   0  0  0  0  0
   12.7580   61.0080   18.7660 C   0  0  0  0  0
   14.2140   61.0630   18.3100 C   0  0  0  0  0
    7.6530   63.7250   15.3660 C   0  0  0  0  0
   10.5420   66.7900   12.9610 C   0  0  0  0  0
   10.1340   66.0530   11.6810 C   0  0  0  0  0
    5.2580   64.2110   15.1970 C   0  0  0  0  0
    6.7680   65.7780   14.1970 C   0  0  0  0  0
    4.1830   64.9840   14.7980 C   0  0  0  0  0
    4.4320   66.1400   14.1080 C   0  0  0  0  0
    3.3890   66.8900   13.7230 F   0  0  0  0  0
    6.5680   64.5810   14.8980 C   0  0  0  0  0
    8.8990   63.5890   14.9360 C   0  0  0  0  0
    9.2560   61.6500   16.2400 O   0  0  0  0  0
   11.1650   62.8320   15.7510 N   0  0  0  0  0
   11.9940   61.8500   16.5090 C   0  0  0  0  0
   13.4550   61.7780   15.9990 C   0  0  0  0  0
   13.0840   64.1000   15.2110 O   0  0  0  0  0
   11.1050   64.8360   14.4300 N   0  0  0  0  0
   11.6510   66.0430   13.7260 C   0  0  0  0  0
   12.8410   65.6950   12.8050 C   0  0  0  0  0
   12.3920   64.9690   11.5210 C   0  0  0  0  0
   11.3470   65.7700   10.7740 C   0  0  0  0  0
    5.6920   66.5650   13.7950 C   0  0  0  0  0
   12.2975   63.0545   18.2737 H   0  0  0  0  0
   10.8754   61.9703   18.3506 H   0  0  0  0  0
   13.9759   59.7897   16.6190 H   0  0  0  0  0
   15.3629   60.9429   16.5203 H   0  0  0  0  0
   12.3570   60.0198   18.5408 H   0  0  0  0  0
   12.7180   61.2088   19.8366 H   0  0  0  0  0
   14.6118   62.0549   18.5243 H   0  0  0  0  0
   14.7775   60.2961   18.8413 H   0  0  0  0  0
    7.3948   63.0895   16.2131 H   0  0  0  0  0
    9.6679   66.8597   13.6084 H   0  0  0  0  0
   10.9217   67.7731   12.6828 H   0  0  0  0  0
    9.4339   66.6820   11.1312 H   0  0  0  0  0
    9.6858   65.0999   11.9619 H   0  0  0  0  0
    5.0771   63.2934   15.7569 H   0  0  0  0  0
    7.7831   66.0983   13.9625 H   0  0  0  0  0
    3.1617   64.6802   15.0274 H   0  0  0  0  0
    9.2799   64.1585   14.0882 H   0  0  0  0  0
   11.5562   60.8716   16.3110 H   0  0  0  0  0
   13.4324   61.4223   14.9689 H   0  0  0  0  0
   13.8909   62.7727   16.0917 H   0  0  0  0  0
   10.1012   64.6595   14.3887 H   0  0  0  0  0
   12.0367   66.7138   14.4937 H   0  0  0  0  0
   13.5107   65.0319   13.3526 H   0  0  0  0  0
   13.3286   66.6258   12.5151 H   0  0  0  0  0
   11.9597   64.0077   11.7987 H   0  0  0  0  0
   13.2593   64.8403   10.8735 H   0  0  0  0  0
   11.7843   66.7182   10.4613 H   0  0  0  0  0
   11.0154   65.1983    9.9072 H   0  0  0  0  0
    5.8505   67.4934   13.2464 H   0  0  0  0  0
  1  5  1  0  0  0
 19  1  1  0  0  0
  2 18  1  0  0  0
  2 21  2  0  0  0
 22  2  1  0  0  0
  3 16  1  0  0  0
  3 17  2  0  0  0
 18  3  1  0  0  0
  4  6  1  0  0  0
 20  4  1  0  0  0
  5  6  1  0  0  0
  7 15  1  0  0  0
 16  7  2  0  0  0
  8  9  1  0  0  0
 23  8  1  0  0  0
  9 26  1  0  0  0
 10 12  4  0  0  0
 15 10  4  0  0  0
 15 11  4  0  0  0
 11 27  4  0  0  0
 12 13  4  0  0  0
 13 14  1  0  0  0
 27 13  4  0  0  0
 18 19  1  0  0  0
 19 20  1  0  0  0
 22 23  1  0  0  0
 23 24  1  0  0  0
 24 25  1  0  0  0
 25 26  1  0  0  0
  1 28  1  0  0  0
  1 29  1  0  0  0
  4 30  1  0  0  0
  4 31  1  0  0  0
  5 32  1  0  0  0
  5 33  1  0  0  0
  6 34  1  0  0  0
  6 35  1  0  0  0
  7 36  1  0  0  0
  8 37  1  0  0  0
  8 38  1  0  0  0
  9 39  1  0  0  0
  9 40  1  0  0  0
 10 41  1  0  0  0
 11 42  1  0  0  0
 12 43  1  0  0  0
 16 44  1  0  0  0
 19 45  1  0  0  0
 20 46  1  0  0  0
 20 47  1  0  0  0
 22 48  1  0  0  0
 23 49  1  0  0  0
 24 50  1  0  0  0
 24 51  1  0  0  0
 25 52  1  0  0  0
 25 53  1  0  0  0
 26 54  1  0  0  0
 26 55  1  0  0  0
 27 56  1  0  0  0
M  END
$$$$
