6ke0_ligand
  -I-interpret- 

 46 50  0  0  0  0  0  0  0  0999 V2000
   26.9070    4.2290   56.4030 C   0  0  0  0  0
   26.7630    4.6310   55.0910 C   0  0  0  0  0
   25.8870    4.3350   57.3230 C   0  0  0  0  0
   25.5910    5.1630   54.6010 C   0  0  0  0  0
   24.6890    4.8620   56.8630 C   0  0  0  0  0
   24.5810    5.2550   55.5340 C   0  0  0  0  0
   19.8740    4.2580   59.3760 C   0  0  0  0  0
   18.6500    3.5560   60.9090 C   0  0  0  0  0
   22.7190    5.5840   56.6590 C   0  0  0  0  0
   16.3250    2.0030   60.6450 C   0  0  0  0  0
   17.0020    2.3710   59.5570 C   0  0  0  0  0
   16.9290    2.4930   61.9130 C   0  0  0  0  0
   20.4360    5.5480   57.3310 C   0  0  0  0  0
   22.4580    6.2630   54.4300 C   0  0  0  0  0
   21.2600    6.6650   55.2540 C   0  0  0  0  0
   16.5750    1.9870   58.1750 C   0  0  0  0  0
   16.2140    2.1170   63.1730 C   0  0  0  0  0
   21.2890    8.1660   55.4020 C   0  0  0  0  0
   20.9450    4.9230   58.6180 C   0  0  0  0  0
   23.5210    5.0750   57.5630 N   0  0  0  0  0
   19.7460    4.2730   60.7400 N   0  0  0  0  0
   18.9300    3.5800   58.7240 N   0  0  0  0  0
   18.0060    3.2120   62.0480 N   0  0  0  0  0
   23.2990    5.7070   55.4560 N   0  0  0  0  0
   18.1400    3.1280   59.7060 N   0  0  0  0  0
   21.4570    6.0590   56.5500 N   0  0  0  0  0
   19.2510    5.6010   57.0170 O   0  0  0  0  0
   27.8621    3.8126   56.7231 H   0  0  0  0  0
   27.6112    4.5232   54.4149 H   0  0  0  0  0
   26.0147    4.0210   58.3589 H   0  0  0  0  0
   25.4727    5.4832   53.5658 H   0  0  0  0  0
   15.4168    1.4013   60.6089 H   0  0  0  0  0
   22.9132    7.0813   53.8721 H   0  0  0  0  0
   22.2312    5.5756   53.6151 H   0  0  0  0  0
   20.3147    6.3576   54.8068 H   0  0  0  0  0
   16.5588    0.9005   58.0898 H   0  0  0  0  0
   15.5781    2.3828   57.9810 H   0  0  0  0  0
   17.2781    2.3990   57.4512 H   0  0  0  0  0
   15.2004    2.5170   63.1472 H   0  0  0  0  0
   16.1754    1.0309   63.2571 H   0  0  0  0  0
   16.7474    2.5302   64.0291 H   0  0  0  0  0
   22.2110    8.4628   55.9020 H   0  0  0  0  0
   21.2441    8.6280   54.4158 H   0  0  0  0  0
   20.4328    8.4880   55.9948 H   0  0  0  0  0
   21.6917    4.1728   58.3579 H   0  0  0  0  0
   21.3572    5.7174   59.2402 H   0  0  0  0  0
  2  1  4  0  0  0
  3  1  4  0  0  0
  4  2  4  0  0  0
  5  3  4  0  0  0
  6  4  4  0  0  0
  6  5  4  0  0  0
 20  5  4  0  0  0
 24  6  4  0  0  0
 19  7  1  0  0  0
  7 21  4  0  0  0
  7 22  4  0  0  0
 21  8  4  0  0  0
  8 23  4  0  0  0
  8 25  4  0  0  0
  9 20  4  0  0  0
 24  9  4  0  0  0
  9 26  1  0  0  0
 11 10  4  0  0  0
 12 10  4  0  0  0
 11 16  1  0  0  0
 25 11  4  0  0  0
 12 17  1  0  0  0
 23 12  4  0  0  0
 13 19  1  0  0  0
 26 13  1  0  0  0
 13 27  2  0  0  0
 14 15  1  0  0  0
 14 24  1  0  0  0
 15 18  1  0  0  0
 15 26  1  0  0  0
 22 25  4  0  0  0
  1 28  1  0  0  0
  2 29  1  0  0  0
  3 30  1  0  0  0
  4 31  1  0  0  0
 10 32  1  0  0  0
 14 33  1  0  0  0
 14 34  1  0  0  0
 15 35  1  0  0  0
 16 36  1  0  0  0
 16 37  1  0  0  0
 16 38  1  0  0  0
 17 39  1  0  0  0
 17 40  1  0  0  0
 17 41  1  0  0  0
 18 42  1  0  0  0
 18 43  1  0  0  0
 18 44  1  0  0  0
 19 45  1  0  0  0
 19 46  1  0  0  0
M  END
$$$$
