5anw_ligand
  -I-interpret- 

 41 43  0  0  0  0  0  0  0  0999 V2000
    8.7850   20.5660    2.9970 O   0  0  0  0  0
    9.4420   20.6420    4.0280 C   0  0  0  0  0
    9.7910   19.5350    4.7150 N   0  0  0  0  0
   10.6030   19.5280    5.9320 C   0  0  0  0  0
    9.3600   18.2070    4.2830 C   0  0  0  0  0
    9.9400   22.0040    4.4920 C   0  0  0  0  0
   11.4320   22.1290    4.2910 C   0  0  0  0  0
   12.0210   21.7810    3.0810 C   0  0  0  0  0
   13.3970   21.7320    2.9480 C   0  0  0  0  0
   14.2280   22.1050    4.0020 C   0  0  0  0  0
   13.6360   22.4030    5.2260 C   0  0  0  0  0
   12.2620   22.4290    5.3630 C   0  0  0  0  0
   15.6970   21.9620    3.9350 C   0  0  0  0  0
   16.2200   21.1370    4.8370 N   0  0  0  0  0
   17.5610   20.9810    4.8420 C   0  0  0  0  0
   18.0570   20.1670    5.7760 N   0  0  0  0  0
   18.4170   21.5120    3.9510 N   0  0  0  0  0
   17.8800   22.3460    3.0060 C   0  0  0  0  0
   16.4870   22.5860    2.9200 C   0  0  0  0  0
   18.7430   22.9700    2.0660 C   0  0  0  0  0
   18.2370   23.8110    1.1070 C   0  0  0  0  0
   16.8770   24.0990    1.0630 C   0  0  0  0  0
   16.0140   23.5110    1.9490 C   0  0  0  0  0
   10.0271   19.0934    6.7490 H   0  0  0  0  0
   11.5021   18.9351    5.7640 H   0  0  0  0  0
   10.8827   20.5503    6.1865 H   0  0  0  0  0
   10.2356   17.5892    4.0838 H   0  0  0  0  0
    8.7606   17.7474    5.0689 H   0  0  0  0  0
    8.7635   18.2975    3.3752 H   0  0  0  0  0
    9.7186   22.1154    5.5534 H   0  0  0  0  0
    9.4414   22.7774    3.9078 H   0  0  0  0  0
   11.3897   21.5434    2.2248 H   0  0  0  0  0
   13.8360   21.3978    2.0079 H   0  0  0  0  0
   14.2660   22.6190    6.0889 H   0  0  0  0  0
   11.8229   22.6887    6.3263 H   0  0  0  0  0
   17.4301   19.7041    6.4341 H   0  0  0  0  0
   19.0630   20.0078    5.8317 H   0  0  0  0  0
   19.8154   22.7793    2.1068 H   0  0  0  0  0
   18.9073   24.2576    0.3727 H   0  0  0  0  0
   16.4954   24.7975    0.3182 H   0  0  0  0  0
   14.9524   23.7548    1.9094 H   0  0  0  0  0
  1  2  2  0  0  0
  2  3  1  0  0  0
  2  6  1  0  0  0
  3  4  1  0  0  0
  3  5  1  0  0  0
  6  7  1  0  0  0
  7  8  4  0  0  0
  7 12  4  0  0  0
  8  9  4  0  0  0
  9 10  4  0  0  0
 10 11  4  0  0  0
 10 13  1  0  0  0
 11 12  4  0  0  0
 13 14  4  0  0  0
 13 19  4  0  0  0
 14 15  4  0  0  0
 15 16  1  0  0  0
 15 17  4  0  0  0
 17 18  4  0  0  0
 18 19  4  0  0  0
 18 20  4  0  0  0
 19 23  4  0  0  0
 20 21  4  0  0  0
 21 22  4  0  0  0
 22 23  4  0  0  0
  4 24  1  0  0  0
  4 25  1  0  0  0
  4 26  1  0  0  0
  5 27  1  0  0  0
  5 28  1  0  0  0
  5 29  1  0  0  0
  6 30  1  0  0  0
  6 31  1  0  0  0
  8 32  1  0  0  0
  9 33  1  0  0  0
 11 34  1  0  0  0
 12 35  1  0  0  0
 16 36  1  0  0  0
 16 37  1  0  0  0
 20 38  1  0  0  0
 21 39  1  0  0  0
 22 40  1  0  0  0
 23 41  1  0  0  0
M  END
$$$$
