6f34_ligand
  -I-interpret- 

 27 26  0  0  0  0  0  0  0  0999 V2000
  -11.1610   -0.7700   28.2790 N   0  3  0  0  0
  -12.6070   -0.8490   28.4480 C   0  0  0  0  0
  -13.0050   -0.5030   29.8780 C   0  0  0  0  0
  -14.1550   -0.1560   30.1500 O   0  0  0  0  0
  -13.1140   -2.2440   28.0840 C   0  0  0  0  0
  -13.4400   -2.4300   26.6130 C   0  0  0  0  0
  -13.7530   -3.8870   26.3060 C   0  0  0  0  0
  -13.8100   -4.1450   24.8700 N   0  0  0  0  0
  -13.5600   -5.3240   24.3120 C   0  0  0  0  0
  -13.2320   -6.3630   25.0690 N   0  0  0  0  0
  -13.6350   -5.4660   22.9960 N   0  0  0  0  0
  -12.1840   -0.5650   30.7940 O   0  0  0  0  0
  -10.8417    0.1666   28.5262 H   0  0  0  0  0
  -10.7110   -1.4552   28.8860 H   0  0  0  0  0
  -10.9223   -0.9664   27.3070 H   0  0  0  0  0
  -13.0655   -0.1230   27.7766 H   0  0  0  0  0
  -14.0388   -2.4026   28.6387 H   0  0  0  0  0
  -12.3167   -2.9468   28.3259 H   0  0  0  0  0
  -12.5768   -2.1248   26.0215 H   0  0  0  0  0
  -14.3130   -1.8249   26.3683 H   0  0  0  0  0
  -14.7277   -4.1229   26.7330 H   0  0  0  0  0
  -12.9600   -4.5023   26.7310 H   0  0  0  0  0
  -14.0579   -3.3695   24.2556 H   0  0  0  0  0
  -13.0386   -7.2671   24.6381 H   0  0  0  0  0
  -13.1733   -6.2577   26.0819 H   0  0  0  0  0
  -13.8850   -4.6691   22.4105 H   0  0  0  0  0
  -11.3357   -0.8461   30.4434 H   0  0  0  0  0
  1  2  1  0  0  0
  2  3  1  0  0  0
  2  5  1  0  0  0
  3  4  2  0  0  0
  3 12  1  0  0  0
  5  6  1  0  0  0
  6  7  1  0  0  0
  7  8  1  0  0  0
  8  9  1  0  0  0
  9 10  1  0  0  0
  9 11  2  0  0  0
  1 13  1  0  0  0
  1 14  1  0  0  0
  1 15  1  0  0  0
  2 16  1  0  0  0
  5 17  1  0  0  0
  5 18  1  0  0  0
  6 19  1  0  0  0
  6 20  1  0  0  0
  7 21  1  0  0  0
  7 22  1  0  0  0
  8 23  1  0  0  0
 10 24  1  0  0  0
 10 25  1  0  0  0
 11 26  1  0  0  0
 12 27  1  0  0  0
M  END
$$$$
