2q6f_ligand
  -I-interpret- 

 99101  0  0  0  0  0  0  0  0999 V2000
   31.6620  -68.9700    0.7750 N   0  0  0  0  0
   30.6400  -68.1650    0.3190 C   0  0  0  0  0
   30.8110  -67.8900   -1.0530 C   0  0  0  0  0
   31.9660  -68.5700   -1.4120 C   0  0  0  0  0
   32.5070  -69.2400   -0.3570 O   0  0  0  0  0
   29.5490  -67.6280    1.1860 C   0  0  0  0  0
   29.6760  -66.4700    1.5740 O   0  0  0  0  0
   28.5010  -68.3800    1.5360 N   0  0  0  0  0
   27.4400  -67.8820    2.4220 C   0  0  0  0  0
   26.3240  -68.9060    2.5370 C   0  0  0  0  0
   27.9630  -67.5810    3.8070 C   0  0  0  0  0
   28.9800  -68.1390    4.1740 O   0  0  0  0  0
   27.3000  -66.6790    4.5660 N   0  0  0  0  0
   27.6370  -66.2340    5.9280 C   0  0  0  0  0
   28.1010  -64.7570    5.8270 C   0  0  0  0  0
   28.6140  -64.1850    7.1400 C   0  0  0  0  0
   29.1390  -64.5230    4.7350 C   0  0  0  0  0
   26.4090  -66.2980    6.8130 C   0  0  0  0  0
   25.3300  -65.8550    6.4420 O   0  0  0  0  0
   26.5470  -66.8180    8.0230 N   0  0  0  0  0
   25.4510  -66.9210    8.9570 C   0  0  0  0  0
   26.0050  -67.9630    9.8970 C   0  0  0  0  0
   25.3460  -69.3260   10.0780 C   0  0  0  0  0
   24.5440  -69.9080    8.9140 C   0  0  0  0  0
   26.4780  -70.2620   10.4540 C   0  0  0  0  0
   24.0170  -63.7650   10.4630 C   0  0  0  0  0
   23.2770  -63.9880   11.7660 C   0  0  0  0  0
   24.0520  -64.7740   12.8280 C   0  0  0  0  0
   23.5630  -64.2790   14.1680 C   0  0  0  0  0
   22.6590  -63.4510   14.2110 O   0  0  0  0  0
   24.1910  -64.7400   15.4180 O   0  0  0  0  0
   24.2150  -66.1010   15.8250 C   0  0  0  0  0
   25.5590  -66.4860   16.4040 C   0  0  0  0  0
   23.1960  -62.8430    9.5680 C   0  0  0  0  0
   24.0540  -62.3400    8.4280 C   0  0  0  0  0
   25.1030  -61.2980    8.8550 C   0  0  0  0  0
   25.3910  -60.4970    7.5780 C   0  0  0  0  0
   24.1110  -60.6680    6.8810 N   0  0  0  0  0
   23.2940  -61.5920    7.3800 C   0  0  0  0  0
   22.1410  -61.8080    7.0650 O   0  0  0  0  0
   26.5690  -65.5270   16.5980 C   0  0  0  0  0
   27.8040  -65.8910   17.1310 C   0  0  0  0  0
   28.0290  -67.2290   17.4600 C   0  0  0  0  0
   27.0310  -68.1950   17.2530 C   0  0  0  0  0
   25.7880  -67.8250   16.7240 C   0  0  0  0  0
   32.5380  -68.5720   -2.8090 C   0  0  0  0  0
   25.3260  -65.5820    9.6570 C   0  0  0  0  0
   26.3210  -64.9850   10.0760 O   0  0  0  0  0
   24.1070  -65.0610    9.7900 N   0  0  0  0  0
   30.1751  -67.2773   -1.6920 H   0  0  0  0  0
   28.4355  -69.3320    1.1758 H   0  0  0  0  0
   27.0620  -66.9598    1.9807 H   0  0  0  0  0
   25.9034  -69.0956    1.5494 H   0  0  0  0  0
   26.7243  -69.8332    2.9470 H   0  0  0  0  0
   25.5463  -68.5214    3.1968 H   0  0  0  0  0
   26.4709  -66.2586    4.1462 H   0  0  0  0  0
   28.4128  -66.8705    6.3537 H   0  0  0  0  0
   27.1902  -64.2217    5.5585 H   0  0  0  0  0
   27.8213  -64.2261    7.8871 H   0  0  0  0  0
   29.4674  -64.7709    7.4813 H   0  0  0  0  0
   28.9195  -63.1496    6.9891 H   0  0  0  0  0
   30.0207  -65.1312    4.9372 H   0  0  0  0  0
   28.7176  -64.8017    3.7692 H   0  0  0  0  0
   29.4182  -63.4695    4.7207 H   0  0  0  0  0
   27.4652  -67.1597    8.3067 H   0  0  0  0  0
   24.4721  -67.1685    8.5465 H   0  0  0  0  0
   25.9052  -67.4995   10.8785 H   0  0  0  0  0
   26.9762  -68.2049    9.4653 H   0  0  0  0  0
   24.5673  -69.2020   10.8305 H   0  0  0  0  0
   23.7253  -69.2328    8.6650 H   0  0  0  0  0
   25.1958  -70.0256    8.0483 H   0  0  0  0  0
   24.1411  -70.8791    9.2017 H   0  0  0  0  0
   27.2178  -70.2752    9.6536 H   0  0  0  0  0
   26.9443  -69.9143   11.3758 H   0  0  0  0  0
   26.0828  -71.2670   10.6019 H   0  0  0  0  0
   24.9981  -63.3297   10.6529 H   0  0  0  0  0
   22.3903  -64.5749   11.5265 H   0  0  0  0  0
   23.0798  -63.0022   12.1873 H   0  0  0  0  0
   25.1258  -64.6191   12.7225 H   0  0  0  0  0
   23.8827  -65.8455   12.7219 H   0  0  0  0  0
   24.0249  -66.7249   14.9517 H   0  0  0  0  0
   23.4554  -66.2439   16.5935 H   0  0  0  0  0
   22.8402  -61.9950   10.1532 H   0  0  0  0  0
   22.3467  -63.3943    9.1644 H   0  0  0  0  0
   24.4881  -63.2713    8.0642 H   0  0  0  0  0
   26.0027  -61.7647    9.2561 H   0  0  0  0  0
   24.7417  -60.6622    9.6633 H   0  0  0  0  0
   26.2605  -60.8388    7.0166 H   0  0  0  0  0
   25.6768  -59.4593    7.7502 H   0  0  0  0  0
   23.8625  -60.1118    6.0629 H   0  0  0  0  0
   26.3838  -64.4872   16.3284 H   0  0  0  0  0
   28.5815  -65.1435   17.2884 H   0  0  0  0  0
   28.9890  -67.5268   17.8818 H   0  0  0  0  0
   27.2246  -69.2376   17.5052 H   0  0  0  0  0
   25.0106  -68.5722   16.5645 H   0  0  0  0  0
   31.8055  -68.9898   -3.4996 H   0  0  0  0  0
   32.7760  -67.5501   -3.1043 H   0  0  0  0  0
   33.4441  -69.1775   -2.8283 H   0  0  0  0  0
   23.2781  -65.5415    9.4402 H   0  0  0  0  0
  2  1  4  0  0  0
  1  5  4  0  0  0
  2  3  4  0  0  0
  6  2  1  0  0  0
  3  4  4  0  0  0
  4  5  4  0  0  0
  4 46  1  0  0  0
  6  7  2  0  0  0
  8  6  1  0  0  0
  9  8  1  0  0  0
  9 10  1  0  0  0
 11  9  1  0  0  0
 11 12  2  0  0  0
 13 11  1  0  0  0
 14 13  1  0  0  0
 14 15  1  0  0  0
 18 14  1  0  0  0
 15 16  1  0  0  0
 15 17  1  0  0  0
 18 19  2  0  0  0
 20 18  1  0  0  0
 21 20  1  0  0  0
 21 22  1  0  0  0
 47 21  1  0  0  0
 22 23  1  0  0  0
 23 24  1  0  0  0
 23 25  1  0  0  0
 26 27  1  0  0  0
 26 34  1  0  0  0
 49 26  1  0  0  0
 27 28  1  0  0  0
 28 29  1  0  0  0
 29 30  2  0  0  0
 29 31  1  0  0  0
 31 32  1  0  0  0
 32 33  1  0  0  0
 33 41  4  0  0  0
 33 45  4  0  0  0
 34 35  1  0  0  0
 35 36  1  0  0  0
 35 39  1  0  0  0
 36 37  1  0  0  0
 38 37  1  0  0  0
 39 38  1  0  0  0
 39 40  2  0  0  0
 41 42  4  0  0  0
 42 43  4  0  0  0
 44 43  4  0  0  0
 45 44  4  0  0  0
 47 48  2  0  0  0
 47 49  1  0  0  0
  3 50  1  0  0  0
  8 51  1  0  0  0
  9 52  1  0  0  0
 10 53  1  0  0  0
 10 54  1  0  0  0
 10 55  1  0  0  0
 13 56  1  0  0  0
 14 57  1  0  0  0
 15 58  1  0  0  0
 16 59  1  0  0  0
 16 60  1  0  0  0
 16 61  1  0  0  0
 17 62  1  0  0  0
 17 63  1  0  0  0
 17 64  1  0  0  0
 20 65  1  0  0  0
 21 66  1  0  0  0
 22 67  1  0  0  0
 22 68  1  0  0  0
 23 69  1  0  0  0
 24 70  1  0  0  0
 24 71  1  0  0  0
 24 72  1  0  0  0
 25 73  1  0  0  0
 25 74  1  0  0  0
 25 75  1  0  0  0
 26 76  1  0  0  0
 27 77  1  0  0  0
 27 78  1  0  0  0
 28 79  1  0  0  0
 28 80  1  0  0  0
 32 81  1  0  0  0
 32 82  1  0  0  0
 34 83  1  0  0  0
 34 84  1  0  0  0
 35 85  1  0  0  0
 36 86  1  0  0  0
 36 87  1  0  0  0
 37 88  1  0  0  0
 37 89  1  0  0  0
 38 90  1  0  0  0
 41 91  1  0  0  0
 42 92  1  0  0  0
 43 93  1  0  0  0
 44 94  1  0  0  0
 45 95  1  0  0  0
 46 96  1  0  0  0
 46 97  1  0  0  0
 46 98  1  0  0  0
 49 99  1  0  0  0
M  END
$$$$
