### 
### Created by X-TOOL on Mon Sep 10 21:12:51 2018
### 

@<TRIPOS>MOLECULE
1ryh_ligand
   45    47     1     0     0
SMALL
GAST_HUCK


@<TRIPOS>ATOM
      1 PG         -8.6030   72.9660   34.4650 P.3       1 GNP         0.1803
      2 O1G        -9.5890   72.0280   35.1350 O.co2     1 GNP        -0.5454
      3 O2G        -8.0480   72.6470   33.0800 O.co2     1 GNP        -0.5454
      4 O3G        -9.2550   74.2540   34.4380 O.co2     1 GNP        -0.5454
      5 N3B        -7.3600   73.1320   35.5270 N.am      1 GNP        -0.1803
      6 PB         -6.2810   72.0080   35.9460 P.3       1 GNP         0.2543
      7 O1B        -6.8600   71.1520   36.9690 O.co2     1 GNP        -0.6257
      8 O2B        -5.7960   71.3870   34.7080 O.co2     1 GNP        -0.6257
      9 O3A        -5.0780   72.7350   36.6320 O.3       1 GNP        -0.1431
     10 PA         -3.6580   73.0790   36.0400 P.3       1 GNP         0.2949
     11 O1A        -2.8320   71.8800   35.9170 O.co2     1 GNP        -0.6129
     12 O2A        -3.8790   74.0200   34.9130 O.co2     1 GNP        -0.6129
     13 O5         -2.9460   73.9110   37.2140 O.3       1 GNP        -0.2478
     14 C5         -3.6630   74.9820   37.8680 C.3       1 GNP         0.1128
     15 C4         -2.7260   75.9640   38.5920 C.3       1 GNP         0.1189
     16 O4         -2.1160   75.2220   39.6910 O.3       1 GNP        -0.3363
     17 C3         -1.5900   76.4920   37.7600 C.3       1 GNP         0.1150
     18 O3         -1.2080   77.8010   38.1540 O.3       1 GNP        -0.3864
     19 C2         -0.4540   75.5420   38.0350 C.3       1 GNP         0.1387
     20 O2          0.8490   76.0810   37.8900 O.3       1 GNP        -0.3836
     21 C1         -0.7060   75.2510   39.5250 C.3       1 GNP         0.1992
     22 N9         -0.2010   73.9530   39.9660 N.pl3     1 GNP        -0.2101
     23 C8         -0.4570   72.7360   39.3930 C.2       1 GNP         0.0957
     24 N7          0.1050   71.7260   40.0300 N.2       1 GNP        -0.3235
     25 C5          0.7940   72.3400   41.0850 C.2       1 GNP         0.0926
     26 C6          1.5870   71.7700   42.1070 C.2       1 GNP         0.2135
     27 O6          1.8520   70.5700   42.2900 O.2       1 GNP        -0.4091
     28 N1          2.0560   72.7060   43.0250 N.am      1 GNP        -0.1839
     29 C2          1.8500   74.0890   42.9520 C.2       1 GNP         0.2340
     30 N2          2.3990   74.9380   43.8900 N.pl3     1 GNP        -0.2807
     31 N3          1.1040   74.6400   41.9510 N.2       1 GNP        -0.2765
     32 C4          0.5820   73.6910   41.1000 C.2       1 GNP         0.1159
     33 H1         -7.2616   74.0275   35.9610 H         1 GNP         0.2132
     34 H2         -4.3535   74.5456   38.6047 H         1 GNP         0.0648
     35 H3         -4.2370   75.5360   37.1106 H         1 GNP         0.0648
     36 H4         -3.3173   76.8102   38.9717 H         1 GNP         0.0651
     37 H5         -1.8589   76.4909   36.6934 H         1 GNP         0.0648
     38 H6         -0.4905   78.0984   37.6070 H         1 GNP         0.2100
     39 H7         -0.5413   74.6389   37.4131 H         1 GNP         0.0676
     40 H8          0.9584   76.8082   38.4915 H         1 GNP         0.2101
     41 H9         -0.2541   76.0459   40.1365 H         1 GNP         0.0998
     42 H10        -1.0655   72.6134   38.4982 H         1 GNP         0.1179
     43 H11         2.5841   72.3617   43.8013 H         1 GNP         0.2515
     44 H12         2.2382   75.9531   43.8225 H         1 GNP         0.1897
     45 H13         2.9698   74.5569   44.6580 H         1 GNP         0.1897
@<TRIPOS>BOND
     1    1    2 ar 
     2    1    3 ar 
     3    1    4 ar 
     4    1    5 am 
     5    5    6 1  
     6    6    7 ar 
     7    6    8 ar 
     8    6    9 1  
     9    9   10 1  
    10   10   11 ar 
    11   10   12 ar 
    12   10   13 1  
    13   13   14 1  
    14   14   15 1  
    15   15   16 1  
    16   15   17 1  
    17   16   21 1  
    18   17   18 1  
    19   17   19 1  
    20   19   20 1  
    21   19   21 1  
    22   21   22 1  
    23   22   23 1  
    24   22   32 1  
    25   23   24 2  
    26   24   25 1  
    27   25   26 1  
    28   25   32 2  
    29   26   27 2  
    30   26   28 am 
    31   28   29 1  
    32   29   30 1  
    33   29   31 2  
    34   31   32 1  
    35    5   33 1  
    36   14   34 1  
    37   14   35 1  
    38   15   36 1  
    39   17   37 1  
    40   18   38 1  
    41   19   39 1  
    42   20   40 1  
    43   21   41 1  
    44   23   42 1  
    45   28   43 1  
    46   30   44 1  
    47   30   45 1  
@<TRIPOS>SUBSTRUCTURE
     1 GNP         1

