1ryh_ligand
  -I-interpret- 

 49 51  0  0  0  0  0  0  0  0999 V2000
   -8.6030   72.9660   34.4650 P   0  0  0  0  0
   -9.5890   72.0280   35.1350 O   0  0  0  0  0
   -8.0480   72.6470   33.0800 O   0  0  0  0  0
   -9.2550   74.2540   34.4380 O   0  0  0  0  0
   -7.3600   73.1320   35.5270 N   0  0  0  0  0
   -6.2810   72.0080   35.9460 P   0  0  0  0  0
   -6.8600   71.1520   36.9690 O   0  0  0  0  0
   -5.7960   71.3870   34.7080 O   0  0  0  0  0
   -5.0780   72.7350   36.6320 O   0  0  0  0  0
   -3.6580   73.0790   36.0400 P   0  0  0  0  0
   -2.8320   71.8800   35.9170 O   0  0  0  0  0
   -3.8790   74.0200   34.9130 O   0  0  0  0  0
   -2.9460   73.9110   37.2140 O   0  0  0  0  0
   -3.6630   74.9820   37.8680 C   0  0  0  0  0
   -2.7260   75.9640   38.5920 C   0  0  0  0  0
   -2.1160   75.2220   39.6910 O   0  0  0  0  0
   -1.5900   76.4920   37.7600 C   0  0  0  0  0
   -1.2080   77.8010   38.1540 O   0  0  0  0  0
   -0.4540   75.5420   38.0350 C   0  0  0  0  0
    0.8490   76.0810   37.8900 O   0  0  0  0  0
   -0.7060   75.2510   39.5250 C   0  0  0  0  0
   -0.2010   73.9530   39.9660 N   0  0  0  0  0
   -0.4570   72.7360   39.3930 C   0  0  0  0  0
    0.1050   71.7260   40.0300 N   0  0  0  0  0
    0.7940   72.3400   41.0850 C   0  0  0  0  0
    1.5870   71.7700   42.1070 C   0  0  0  0  0
    1.8520   70.5700   42.2900 O   0  0  0  0  0
    2.0560   72.7060   43.0250 N   0  0  0  0  0
    1.8500   74.0890   42.9520 C   0  0  0  0  0
    2.3990   74.9380   43.8900 N   0  0  0  0  0
    1.1040   74.6400   41.9510 N   0  0  0  0  0
    0.5820   73.6910   41.1000 C   0  0  0  0  0
   -9.2094   71.1475   35.1829 H   0  0  0  0  0
   -7.6149   71.7905   33.0996 H   0  0  0  0  0
   -7.2596   74.0454   35.9697 H   0  0  0  0  0
   -5.4426   72.0655   34.1281 H   0  0  0  0  0
   -4.4482   74.7366   35.2029 H   0  0  0  0  0
   -4.3241   74.5381   38.6123 H   0  0  0  0  0
   -4.2065   75.5378   37.1040 H   0  0  0  0  0
   -3.3335   76.8207   38.8838 H   0  0  0  0  0
   -1.8682   76.5539   36.7079 H   0  0  0  0  0
   -0.4829   78.1015   37.6012 H   0  0  0  0  0
   -0.4553   74.7039   37.3381 H   0  0  0  0  0
    1.4986   75.4018   38.0857 H   0  0  0  0  0
   -0.1926   76.0153   40.1084 H   0  0  0  0  0
   -1.0660   72.6133   38.4974 H   0  0  0  0  0
    2.5946   72.3548   43.8168 H   0  0  0  0  0
    2.2418   75.9435   43.8218 H   0  0  0  0  0
    2.9623   74.5604   44.6520 H   0  0  0  0  0
  1  2  1  0  0  0
  1  3  1  0  0  0
  1  4  2  0  0  0
  1  5  1  0  0  0
  5  6  1  0  0  0
  6  7  2  0  0  0
  6  8  1  0  0  0
  6  9  1  0  0  0
  9 10  1  0  0  0
 10 11  2  0  0  0
 10 12  1  0  0  0
 10 13  1  0  0  0
 13 14  1  0  0  0
 14 15  1  0  0  0
 15 16  1  0  0  0
 15 17  1  0  0  0
 16 21  1  0  0  0
 17 18  1  0  0  0
 17 19  1  0  0  0
 19 20  1  0  0  0
 19 21  1  0  0  0
 21 22  1  0  0  0
 22 23  4  0  0  0
 22 32  4  0  0  0
 23 24  4  0  0  0
 24 25  4  0  0  0
 25 26  1  0  0  0
 25 32  4  0  0  0
 26 27  2  0  0  0
 26 28  1  0  0  0
 28 29  1  0  0  0
 29 30  1  0  0  0
 29 31  2  0  0  0
 31 32  1  0  0  0
  2 33  1  0  0  0
  3 34  1  0  0  0
  5 35  1  0  0  0
  8 36  1  0  0  0
 12 37  1  0  0  0
 14 38  1  0  0  0
 14 39  1  0  0  0
 15 40  1  0  0  0
 17 41  1  0  0  0
 18 42  1  0  0  0
 19 43  1  0  0  0
 20 44  1  0  0  0
 21 45  1  0  0  0
 23 46  1  0  0  0
 28 47  1  0  0  0
 30 48  1  0  0  0
 30 49  1  0  0  0
M  END
$$$$
