3pr0_ligand
  -I-interpret- 

 48 50  0  0  0  0  0  0  0  0999 V2000
  -14.2230   35.8300   -6.1820 N   0  0  0  0  0
  -14.4570   37.1550   -6.2180 C   0  0  0  0  0
  -15.2310   37.7190   -7.2290 C   0  0  0  0  0
  -15.7660   36.8870   -8.2030 C   0  0  0  0  0
  -15.5040   35.5200   -8.1330 C   0  0  0  0  0
  -14.7210   35.0190   -7.0990 C   0  0  0  0  0
  -13.8940   37.9570   -5.2330 C   0  0  0  0  0
  -13.1320   37.5540   -4.2300 N   0  0  0  0  0
  -12.7950   38.5260   -3.5490 N   0  0  0  0  0
  -13.3030   39.6280   -4.0720 C   0  0  0  0  0
  -14.0310   39.3150   -5.1670 O   0  0  0  0  0
  -13.0860   41.0180   -3.5040 C   0  0  0  0  0
  -14.2720   41.9250   -3.8840 C   0  0  0  0  0
  -11.8730   41.5100   -4.0950 O   0  0  0  0  0
  -14.1510   43.3330   -3.2620 C   0  0  0  0  0
  -15.3370   44.2350   -3.6560 C   0  0  0  0  0
  -15.3380   44.4960   -5.1560 C   0  0  0  0  0
  -16.5270   45.3260   -5.6580 C   0  0  0  0  0
  -16.3060   45.5090   -7.1600 C   0  0  0  0  0
  -17.4280   46.1920   -7.9380 C   0  0  0  0  0
  -17.1530   46.7070   -9.2080 C   0  0  0  0  0
  -18.1650   47.2940   -9.9610 C   0  0  0  0  0
  -19.4600   47.3390   -9.4480 C   0  0  0  0  0
  -19.7390   46.8030   -8.1880 C   0  0  0  0  0
  -18.7270   46.2160   -7.4340 C   0  0  0  0  0
  -15.4133   38.7933   -7.2551 H   0  0  0  0  0
  -16.3790   37.2949   -9.0067 H   0  0  0  0  0
  -15.9115   34.8458   -8.8863 H   0  0  0  0  0
  -14.5165   33.9498   -7.0443 H   0  0  0  0  0
  -13.0141   41.0021   -2.4165 H   0  0  0  0  0
  -15.1855   41.4649   -3.5073 H   0  0  0  0  0
  -14.2830   42.0328   -4.9686 H   0  0  0  0  0
  -11.6923   42.3929   -3.7641 H   0  0  0  0  0
  -13.2335   43.7927   -3.6293 H   0  0  0  0  0
  -14.1444   43.2294   -2.1770 H   0  0  0  0  0
  -15.2457   45.1866   -3.1324 H   0  0  0  0  0
  -16.2664   43.7344   -3.3844 H   0  0  0  0  0
  -15.3968   43.5252   -5.6482 H   0  0  0  0  0
  -14.4354   45.0640   -5.3811 H   0  0  0  0  0
  -16.5829   46.2868   -5.1464 H   0  0  0  0  0
  -17.4733   44.8243   -5.4556 H   0  0  0  0  0
  -16.2193   44.5052   -7.5759 H   0  0  0  0  0
  -15.4341   46.1556   -7.2593 H   0  0  0  0  0
  -16.1416   46.6485   -9.6101 H   0  0  0  0  0
  -17.9471   47.7146  -10.9427 H   0  0  0  0  0
  -20.2593   47.7946  -10.0325 H   0  0  0  0  0
  -20.7543   46.8448   -7.7937 H   0  0  0  0  0
  -18.9481   45.7798   -6.4599 H   0  0  0  0  0
  1  2  4  0  0  0
  1  6  4  0  0  0
  2  3  4  0  0  0
  2  7  1  0  0  0
  3  4  4  0  0  0
  4  5  4  0  0  0
  5  6  4  0  0  0
  7  8  4  0  0  0
  7 11  4  0  0  0
  8  9  4  0  0  0
  9 10  4  0  0  0
 10 11  4  0  0  0
 10 12  1  0  0  0
 12 13  1  0  0  0
 12 14  1  0  0  0
 13 15  1  0  0  0
 15 16  1  0  0  0
 16 17  1  0  0  0
 17 18  1  0  0  0
 18 19  1  0  0  0
 19 20  1  0  0  0
 20 21  4  0  0  0
 20 25  4  0  0  0
 21 22  4  0  0  0
 22 23  4  0  0  0
 23 24  4  0  0  0
 24 25  4  0  0  0
  3 26  1  0  0  0
  4 27  1  0  0  0
  5 28  1  0  0  0
  6 29  1  0  0  0
 12 30  1  0  0  0
 13 31  1  0  0  0
 13 32  1  0  0  0
 14 33  1  0  0  0
 15 34  1  0  0  0
 15 35  1  0  0  0
 16 36  1  0  0  0
 16 37  1  0  0  0
 17 38  1  0  0  0
 17 39  1  0  0  0
 18 40  1  0  0  0
 18 41  1  0  0  0
 19 42  1  0  0  0
 19 43  1  0  0  0
 21 44  1  0  0  0
 22 45  1  0  0  0
 23 46  1  0  0  0
 24 47  1  0  0  0
 25 48  1  0  0  0
M  END
$$$$
