5bq0_ligand
  -I-interpret- 

 51 54  0  0  0  0  0  0  0  0999 V2000
  -23.6890    6.6910    2.0310 C   0  0  0  0  0
  -24.1560    6.9260    8.6690 C   0  0  0  0  0
  -23.9030    8.5720    6.9340 C   0  0  0  0  0
  -22.7600    7.6970    6.4180 C   0  0  0  0  0
  -23.9350    7.3330   -1.3150 C   0  0  0  0  0
  -23.3660    5.8510    7.9300 C   0  0  0  0  0
  -24.9400    6.6260   -1.9790 C   0  0  0  0  0
  -26.1820    7.1940   -2.1910 C   0  0  0  0  0
  -26.4680    8.4550   -1.7080 C   0  0  0  0  0
  -25.5030    9.1630   -1.0110 C   0  0  0  0  0
  -22.8490    5.7870    4.1220 C   0  0  0  0  0
  -23.8520    6.4250    3.3870 C   0  0  0  0  0
  -20.7170    5.7640    0.0620 C   0  0  0  0  0
  -22.0210    6.3160    0.0300 C   0  0  0  0  0
  -22.5720    6.7280   -1.2010 C   0  0  0  0  0
  -21.8030    6.5830   -2.3590 C   0  0  0  0  0
  -20.5140    6.0540   -2.3060 C   0  0  0  0  0
  -19.9370    5.6460   -1.0930 C   0  0  0  0  0
  -18.5980    4.9690   -1.0140 C   0  0  0  0  0
  -18.3290    4.2540   -0.0130 O   0  0  0  0  0
  -17.7790    5.0110   -2.0520 N   0  0  0  0  0
  -20.3940    5.4580    1.3680 N   0  0  0  0  0
  -21.4550    5.7860    2.1830 C   0  0  0  0  0
  -22.4930    6.3370    1.4000 C   0  0  0  0  0
  -21.6100    5.5410    3.5360 C   0  0  0  0  0
  -23.0830    5.3610    5.5340 C   0  0  0  0  0
  -23.3280    4.1840    5.7370 O   0  0  0  0  0
  -23.0640    6.2590    6.5390 N   0  0  0  0  0
  -24.2460    8.6000   -0.8250 C   0  0  0  0  0
  -23.0720    9.4970    0.0630 Cl  0  0  0  0  0
  -24.4874    7.1715    1.4654 H   0  0  0  0  0
  -23.5743    7.8474    8.6977 H   0  0  0  0  0
  -25.0973    7.1051    8.1494 H   0  0  0  0  0
  -24.3591    6.5911    9.6862 H   0  0  0  0  0
  -24.8053    8.3655    6.3584 H   0  0  0  0  0
  -24.0827    8.3497    7.9859 H   0  0  0  0  0
  -23.6329    9.6223    6.8243 H   0  0  0  0  0
  -21.8734    7.9085    7.0157 H   0  0  0  0  0
  -22.6072    7.9246    5.3630 H   0  0  0  0  0
  -23.9654    4.9411    7.9004 H   0  0  0  0  0
  -22.4242    5.6922    8.4553 H   0  0  0  0  0
  -24.7425    5.6146   -2.3341 H   0  0  0  0  0
  -26.9418    6.6417   -2.7441 H   0  0  0  0  0
  -27.4520    8.8931   -1.8749 H   0  0  0  0  0
  -25.7272   10.1523   -0.6121 H   0  0  0  0  0
  -24.7766    6.7189    3.8839 H   0  0  0  0  0
  -22.2178    6.8885   -3.3196 H   0  0  0  0  0
  -19.9410    5.9549   -3.2279 H   0  0  0  0  0
  -16.9201    4.4609   -2.0465 H   0  0  0  0  0
  -18.0064    5.5935   -2.8578 H   0  0  0  0  0
  -20.7788    5.1630    4.1312 H   0  0  0  0  0
 12  1  4  0  0  0
  1 24  4  0  0  0
  6  2  1  0  0  0
  4  3  1  0  0  0
 28  4  1  0  0  0
  5  7  4  0  0  0
 15  5  1  0  0  0
  5 29  4  0  0  0
 28  6  1  0  0  0
  7  8  4  0  0  0
  8  9  4  0  0  0
 10  9  4  0  0  0
 29 10  4  0  0  0
 11 12  4  0  0  0
 11 25  4  0  0  0
 26 11  1  0  0  0
 14 13  4  0  0  0
 13 18  4  0  0  0
 22 13  4  0  0  0
 14 15  4  0  0  0
 24 14  4  0  0  0
 15 16  4  0  0  0
 16 17  4  0  0  0
 18 17  4  0  0  0
 18 19  1  0  0  0
 19 20  2  0  0  0
 19 21  1  0  0  0
 23 22  4  0  0  0
 23 24  4  0  0  0
 25 23  4  0  0  0
 26 27  2  0  0  0
 26 28  1  0  0  0
 29 30  1  0  0  0
  1 31  1  0  0  0
  2 32  1  0  0  0
  2 33  1  0  0  0
  2 34  1  0  0  0
  3 35  1  0  0  0
  3 36  1  0  0  0
  3 37  1  0  0  0
  4 38  1  0  0  0
  4 39  1  0  0  0
  6 40  1  0  0  0
  6 41  1  0  0  0
  7 42  1  0  0  0
  8 43  1  0  0  0
  9 44  1  0  0  0
 10 45  1  0  0  0
 12 46  1  0  0  0
 16 47  1  0  0  0
 17 48  1  0  0  0
 21 49  1  0  0  0
 21 50  1  0  0  0
 25 51  1  0  0  0
M  END
$$$$
