4yb6_ligand
  -I-interpret- 

 37 39  0  0  0  0  0  0  0  0999 V2000
   -7.2340    9.2100   11.6570 P   0  0  0  0  0
   -6.7290    8.3570   10.5130 O   0  0  0  0  0
   -7.5350    8.4870   12.9400 O   0  0  0  0  0
   -8.2470   10.2330   11.2040 O   0  0  0  0  0
   -5.9210    9.9690   12.0990 O   0  0  0  0  0
   -6.1180   11.0940   12.9280 C   0  0  0  0  0
   -5.0400   11.0730   13.9890 C   0  0  0  0  0
   -3.7440   11.2200   13.4130 O   0  0  0  0  0
   -5.3030   12.2710   14.8490 C   0  0  0  0  0
   -4.7220   12.0260   16.1140 O   0  0  0  0  0
   -4.6070   13.3800   14.0940 C   0  0  0  0  0
   -4.2510   14.4720   14.9630 O   0  0  0  0  0
   -3.4210   12.6120   13.5140 C   0  0  0  0  0
   -3.0420   13.0620   12.1720 N   0  0  0  0  0
   -3.5450   12.6830   10.9830 C   0  0  0  0  0
   -2.8790   13.3110    9.9730 N   0  0  0  0  0
   -1.9380   14.0980   10.5490 C   0  0  0  0  0
   -0.8980   15.0430   10.1130 C   0  0  0  0  0
   -0.6920   15.3010    8.8120 N   0  0  0  0  0
   -0.1550   15.6570   11.0460 N   0  0  0  0  0
   -0.3100   15.4520   12.3610 C   0  0  0  0  0
   -1.2430   14.6140   12.8210 N   0  0  0  0  0
   -2.0600   13.9340   11.9820 C   0  0  0  0  0
   -6.5690    8.9131    9.7470 H   0  0  0  0  0
   -7.9538   10.6289   10.3800 H   0  0  0  0  0
   -7.1056   11.0597   13.3880 H   0  0  0  0  0
   -6.0593   12.0123   12.3438 H   0  0  0  0  0
   -5.0613   10.1301   14.5354 H   0  0  0  0  0
   -6.3512   12.5106   15.0278 H   0  0  0  0  0
   -4.8761   12.7805   16.6872 H   0  0  0  0  0
   -5.2007   13.8843   13.3316 H   0  0  0  0  0
   -3.8124   15.1562   14.4520 H   0  0  0  0  0
   -2.5883   12.7932   14.1936 H   0  0  0  0  0
   -4.3647   11.9774   10.8473 H   0  0  0  0  0
   -1.2620   14.8383    8.1038 H   0  0  0  0  0
    0.0345   15.9597    8.5315 H   0  0  0  0  0
    0.3348   15.9768   13.0659 H   0  0  0  0  0
  1  2  1  0  0  0
  1  3  2  0  0  0
  1  4  1  0  0  0
  1  5  1  0  0  0
  5  6  1  0  0  0
  6  7  1  0  0  0
  7  8  1  0  0  0
  7  9  1  0  0  0
  8 13  1  0  0  0
  9 10  1  0  0  0
  9 11  1  0  0  0
 11 12  1  0  0  0
 11 13  1  0  0  0
 13 14  1  0  0  0
 14 15  4  0  0  0
 14 23  4  0  0  0
 15 16  4  0  0  0
 16 17  4  0  0  0
 17 18  4  0  0  0
 17 23  4  0  0  0
 18 19  1  0  0  0
 18 20  4  0  0  0
 20 21  4  0  0  0
 21 22  4  0  0  0
 22 23  4  0  0  0
  2 24  1  0  0  0
  4 25  1  0  0  0
  6 26  1  0  0  0
  6 27  1  0  0  0
  7 28  1  0  0  0
  9 29  1  0  0  0
 10 30  1  0  0  0
 11 31  1  0  0  0
 12 32  1  0  0  0
 13 33  1  0  0  0
 15 34  1  0  0  0
 19 35  1  0  0  0
 19 36  1  0  0  0
 21 37  1  0  0  0
M  END
$$$$
