### 
### Created by X-TOOL on Wed Jan  1 15:39:34 2020
### 

@<TRIPOS>MOLECULE
4yb6_ligand
   35    37     1     0     0
SMALL
GAST_HUCK


@<TRIPOS>ATOM
      1 P          -7.2340    9.2100   11.6570 P.3       1 AMP         0.2008
      2 O1P        -6.7290    8.3570   10.5130 O.co2     1 AMP        -0.5537
      3 O2P        -7.5350    8.4870   12.9400 O.co2     1 AMP        -0.5537
      4 O3P        -8.2470   10.2330   11.2040 O.co2     1 AMP        -0.5537
      5 O5'        -5.9210    9.9690   12.0990 O.3       1 AMP        -0.2734
      6 C5'        -6.1180   11.0940   12.9280 C.3       1 AMP         0.1072
      7 C4'        -5.0400   11.0730   13.9890 C.3       1 AMP         0.1182
      8 O4'        -3.7440   11.2200   13.4130 O.3       1 AMP        -0.3365
      9 C3'        -5.3030   12.2710   14.8490 C.3       1 AMP         0.1149
     10 O3'        -4.7220   12.0260   16.1140 O.3       1 AMP        -0.3864
     11 C2'        -4.6070   13.3800   14.0940 C.3       1 AMP         0.1385
     12 O2'        -4.2510   14.4720   14.9630 O.3       1 AMP        -0.3836
     13 C1'        -3.4210   12.6120   13.5140 C.3       1 AMP         0.2010
     14 N9         -3.0420   13.0620   12.1720 N.pl3     1 AMP        -0.1919
     15 C8         -3.5450   12.6830   10.9830 C.2       1 AMP         0.1123
     16 N7         -2.8790   13.3110    9.9730 N.2       1 AMP        -0.2958
     17 C5         -1.9380   14.0980   10.5490 C.ar      1 AMP         0.1045
     18 C6         -0.8980   15.0430   10.1130 C.ar      1 AMP         0.1298
     19 N6         -0.6920   15.3010    8.8120 N.pl3     1 AMP        -0.3152
     20 N1         -0.1550   15.6570   11.0460 N.ar      1 AMP        -0.2698
     21 C2         -0.3100   15.4520   12.3610 C.ar      1 AMP         0.0533
     22 N3         -1.2430   14.6140   12.8210 N.ar      1 AMP        -0.2714
     23 C4         -2.0600   13.9340   11.9820 C.ar      1 AMP         0.1613
     24 H1         -7.1102   11.0432   13.4001 H         1 AMP         0.0639
     25 H2         -6.0415   12.0163   12.3335 H         1 AMP         0.0639
     26 H3         -5.0905   10.1428   14.5739 H         1 AMP         0.0650
     27 H4         -6.3779   12.4778   14.9578 H         1 AMP         0.0648
     28 H5         -4.8745   12.7726   16.6812 H         1 AMP         0.2100
     29 H6         -5.2438   13.7726   13.2876 H         1 AMP         0.0676
     30 H7         -3.6652   14.1573   15.6415 H         1 AMP         0.2101
     31 H8         -2.5620   12.7424   14.1886 H         1 AMP         0.0996
     32 H9         -4.3639   11.9781   10.8475 H         1 AMP         0.1349
     33 H10         0.0416   15.9662    8.5288 H         1 AMP         0.1820
     34 H11        -1.2675   14.8338    8.0969 H         1 AMP         0.1820
     35 H12         0.3313   15.9740   13.0620 H         1 AMP         0.0996
@<TRIPOS>BOND
     1    1    2 ar 
     2    1    3 ar 
     3    1    4 ar 
     4    1    5 1  
     5    5    6 1  
     6    6    7 1  
     7    7    8 1  
     8    7    9 1  
     9    8   13 1  
    10    9   10 1  
    11    9   11 1  
    12   11   12 1  
    13   11   13 1  
    14   13   14 1  
    15   14   15 1  
    16   14   23 1  
    17   15   16 2  
    18   16   17 1  
    19   17   18 ar 
    20   17   23 ar 
    21   18   19 1  
    22   18   20 ar 
    23   20   21 ar 
    24   21   22 ar 
    25   22   23 ar 
    26    6   24 1  
    27    6   25 1  
    28    7   26 1  
    29    9   27 1  
    30   10   28 1  
    31   11   29 1  
    32   12   30 1  
    33   13   31 1  
    34   15   32 1  
    35   19   33 1  
    36   19   34 1  
    37   21   35 1  
@<TRIPOS>SUBSTRUCTURE
     1 AMP         1

