4eg7_ligand
  -I-interpret- 

 41 43  0  0  0  0  0  0  0  0999 V2000
  -40.0420   13.4980    6.9690 C   0  0  0  0  0
  -39.3970   14.7350    6.9210 C   0  0  0  0  0
  -37.6480   14.8490    6.9340 Cl  0  0  0  0  0
  -40.1700   15.8940    6.8690 C   0  0  0  0  0
  -41.5600   15.8210    6.8620 C   0  0  0  0  0
  -42.5270   17.2640    6.7900 Cl  0  0  0  0  0
  -42.1870   14.5880    6.9090 C   0  0  0  0  0
  -41.4350   13.4280    6.9530 C   0  0  0  0  0
  -42.1610   12.0740    6.9970 C   0  0  0  0  0
  -42.2140   11.6410    8.3880 N   0  3  0  0  0
  -43.5640   12.0190    8.8330 C   0  0  0  0  0
  -43.8390   11.4400   10.2210 C   0  0  0  0  0
  -44.6170   12.4100   11.1050 C   0  0  0  0  0
  -43.6830   13.1680   11.9380 N   0  0  0  0  0
  -44.1120   14.0690   12.7910 C   0  0  0  0  0
  -45.3780   14.2220   13.1500 N   0  0  0  0  0
  -45.4140   15.2350   14.0120 C   0  0  0  0  0
  -46.4550   15.8490   14.7130 C   0  0  0  0  0
  -46.1910   16.9150   15.5680 C   0  0  0  0  0
  -44.8850   17.3730   15.7170 C   0  0  0  0  0
  -43.8420   16.7590   15.0240 C   0  0  0  0  0
  -44.1100   15.6910   14.1690 C   0  0  0  0  0
  -43.3320   14.9440   13.3920 N   0  0  0  0  0
  -39.4538   12.5817    7.0193 H   0  0  0  0  0
  -39.6808   16.8674    6.8335 H   0  0  0  0  0
  -43.2755   14.5310    6.9113 H   0  0  0  0  0
  -41.6287   11.3397    6.3924 H   0  0  0  0  0
  -43.1685   12.1718    6.5928 H   0  0  0  0  0
  -41.4862   12.0766    8.9545 H   0  0  0  0  0
  -42.0427   10.6403    8.4862 H   0  0  0  0  0
  -44.2969   11.6252    8.1288 H   0  0  0  0  0
  -43.6355   13.1057    8.8774 H   0  0  0  0  0
  -42.8812   11.2374   10.7003 H   0  0  0  0  0
  -44.4370   10.5368   10.0998 H   0  0  0  0  0
  -45.3012   11.8508   11.7432 H   0  0  0  0  0
  -45.1845   13.0976   10.4778 H   0  0  0  0  0
  -42.6815   12.9934   11.8545 H   0  0  0  0  0
  -47.4775   15.4919   14.5898 H   0  0  0  0  0
  -47.0035   17.3892   16.1186 H   0  0  0  0  0
  -44.6767   18.2146   16.3777 H   0  0  0  0  0
  -42.8191   17.1136   15.1507 H   0  0  0  0  0
  1  2  4  0  0  0
  1  8  4  0  0  0
  2  3  1  0  0  0
  2  4  4  0  0  0
  4  5  4  0  0  0
  5  6  1  0  0  0
  5  7  4  0  0  0
  7  8  4  0  0  0
  8  9  1  0  0  0
  9 10  1  0  0  0
 10 11  1  0  0  0
 11 12  1  0  0  0
 12 13  1  0  0  0
 13 14  1  0  0  0
 14 15  1  0  0  0
 15 16  4  0  0  0
 15 23  4  0  0  0
 16 17  4  0  0  0
 17 18  4  0  0  0
 17 22  4  0  0  0
 18 19  4  0  0  0
 19 20  4  0  0  0
 20 21  4  0  0  0
 21 22  4  0  0  0
 22 23  4  0  0  0
  1 24  1  0  0  0
  4 25  1  0  0  0
  7 26  1  0  0  0
  9 27  1  0  0  0
  9 28  1  0  0  0
 10 29  1  0  0  0
 10 30  1  0  0  0
 11 31  1  0  0  0
 11 32  1  0  0  0
 12 33  1  0  0  0
 12 34  1  0  0  0
 13 35  1  0  0  0
 13 36  1  0  0  0
 14 37  1  0  0  0
 18 38  1  0  0  0
 19 39  1  0  0  0
 20 40  1  0  0  0
 21 41  1  0  0  0
M  END
$$$$
