3bym_ligand
  -I-interpret- 

 58 62  0  0  0  0  0  0  0  0999 V2000
   25.0650   34.8940   81.7620 N   0  0  0  0  0
   23.7580   34.9420   82.1330 C   0  0  0  0  0
   23.3400   35.7460   83.1420 N   0  0  0  0  0
   24.2580   36.5810   83.8560 C   0  0  0  0  0
   25.5940   36.4960   83.4510 N   0  0  0  0  0
   25.9740   35.6700   82.4240 C   0  0  0  0  0
   27.3060   35.6270   82.0250 N   0  0  0  0  0
   29.6000   35.9630   82.1980 C   0  0  0  0  0
   28.3280   36.5210   82.3500 C   0  0  0  0  0
   28.1480   37.8810   82.8230 C   0  0  0  0  0
   29.2730   38.6780   83.1500 C   0  0  0  0  0
   30.5460   38.0680   82.9760 C   0  0  0  0  0
   30.7430   36.7390   82.5140 C   0  0  0  0  0
   31.6050   38.8850   83.2770 O   0  0  0  0  0
   32.0480   36.2840   82.4220 O   0  0  0  0  0
   32.1140   38.6530   84.5860 C   0  0  0  0  0
   25.8310   40.2690   87.6430 C   0  0  0  0  0
   24.3930   40.0980   87.4960 C   0  0  0  0  0
   23.8540   39.1370   86.5230 C   0  0  0  0  0
   24.7910   38.3500   85.6920 C   0  0  0  0  0
   26.2520   38.5530   85.8710 C   0  0  0  0  0
   26.7810   39.5040   86.8410 C   0  0  0  0  0
   22.5730   38.7250   86.1420 N   0  0  0  0  0
   22.6550   37.7910   85.1880 C   0  0  0  0  0
   23.9360   37.5280   84.8760 N   0  0  0  0  0
   21.4660   37.1380   84.5920 N   0  0  0  0  0
   29.2130   39.9900   83.6540 O   0  0  0  0  0
   32.3130   34.9400   81.9810 C   0  0  0  0  0
   28.0190   40.8030   83.5440 C   0  0  0  0  0
   18.2390   38.0560   86.3490 C   0  0  0  0  0
   17.4900   38.2460   85.1150 C   0  0  0  0  0
   17.9920   38.1070   83.7680 C   0  0  0  0  0
   19.3690   37.7400   83.6390 C   0  0  0  0  0
   20.1680   37.5290   84.8280 C   0  0  0  0  0
   19.6180   37.6870   86.1920 C   0  0  0  0  0
   23.0311   34.3216   81.6087 H   0  0  0  0  0
   27.5679   34.8475   81.4216 H   0  0  0  0  0
   29.7122   34.9398   81.8395 H   0  0  0  0  0
   27.1435   38.2911   82.9272 H   0  0  0  0  0
   31.3276   38.8366   85.3181 H   0  0  0  0  0
   32.4519   37.6197   84.6652 H   0  0  0  0  0
   32.9509   39.3257   84.7735 H   0  0  0  0  0
   26.2084   40.9871   88.3710 H   0  0  0  0  0
   23.7118   40.6860   88.1111 H   0  0  0  0  0
   26.9466   37.9756   85.2609 H   0  0  0  0  0
   27.8555   39.6400   86.9639 H   0  0  0  0  0
   21.6196   36.3473   83.9662 H   0  0  0  0  0
   31.8352   34.2349   82.6612 H   0  0  0  0  0
   31.9147   34.8037   80.9756 H   0  0  0  0  0
   33.3892   34.7670   81.9734 H   0  0  0  0  0
   27.7665   40.9349   82.4919 H   0  0  0  0  0
   27.1950   40.3074   84.0574 H   0  0  0  0  0
   28.2003   41.7762   84.0003 H   0  0  0  0  0
   17.7820   38.1856   87.3300 H   0  0  0  0  0
   16.4406   38.5220   85.2187 H   0  0  0  0  0
   17.3570   38.2725   82.8977 H   0  0  0  0  0
   19.8140   37.6199   82.6512 H   0  0  0  0  0
   20.2501   37.5257   87.0652 H   0  0  0  0  0
  2  1  4  0  0  0
  6  1  4  0  0  0
  3  2  4  0  0  0
  4  3  4  0  0  0
  4  5  4  0  0  0
 25  4  1  0  0  0
  5  6  4  0  0  0
  6  7  1  0  0  0
  7  9  1  0  0  0
  9  8  4  0  0  0
  8 13  4  0  0  0
  9 10  4  0  0  0
 10 11  4  0  0  0
 11 12  4  0  0  0
 11 27  1  0  0  0
 13 12  4  0  0  0
 12 14  1  0  0  0
 13 15  1  0  0  0
 14 16  1  0  0  0
 15 28  1  0  0  0
 18 17  4  0  0  0
 22 17  4  0  0  0
 19 18  4  0  0  0
 20 19  4  0  0  0
 23 19  4  0  0  0
 20 21  4  0  0  0
 25 20  4  0  0  0
 21 22  4  0  0  0
 24 23  4  0  0  0
 24 25  4  0  0  0
 26 24  1  0  0  0
 34 26  1  0  0  0
 27 29  1  0  0  0
 31 30  4  0  0  0
 30 35  4  0  0  0
 32 31  4  0  0  0
 33 32  4  0  0  0
 33 34  4  0  0  0
 34 35  4  0  0  0
  2 36  1  0  0  0
  7 37  1  0  0  0
  8 38  1  0  0  0
 10 39  1  0  0  0
 16 40  1  0  0  0
 16 41  1  0  0  0
 16 42  1  0  0  0
 17 43  1  0  0  0
 18 44  1  0  0  0
 21 45  1  0  0  0
 22 46  1  0  0  0
 26 47  1  0  0  0
 28 48  1  0  0  0
 28 49  1  0  0  0
 28 50  1  0  0  0
 29 51  1  0  0  0
 29 52  1  0  0  0
 29 53  1  0  0  0
 30 54  1  0  0  0
 31 55  1  0  0  0
 32 56  1  0  0  0
 33 57  1  0  0  0
 35 58  1  0  0  0
M  END
$$$$
