4flp_ligand
  -I-interpret- 

 56 59  0  0  0  0  0  0  0  0999 V2000
   10.1330   -6.3130  -28.3510 C   0  0  0  0  0
    5.3720   -3.5490  -30.7030 C   0  0  0  0  0
    5.9480   -1.2280  -28.5640 C   0  0  0  0  0
    8.4030    2.1910  -29.8170 C   0  0  0  0  0
    9.2960    2.8830  -27.5500 C   0  0  0  0  0
   10.4930    3.5630  -29.6580 C   0  0  0  0  0
   11.9400    1.9830  -27.7900 O   0  0  0  0  0
    4.8890   -0.2050  -22.6460 Cl  0  0  0  0  0
    7.0570    0.4050  -24.2760 C   0  0  0  0  0
    5.8600   -1.6510  -24.6330 C   0  0  0  0  0
    7.8700    0.0530  -25.3860 C   0  0  0  0  0
    6.6630   -1.9760  -25.7050 C   0  0  0  0  0
   11.9820   -0.4210  -28.0220 C   0  0  0  0  0
    9.7800   -1.0640  -27.1710 N   0  0  0  0  0
   12.0590   -4.7300  -27.8660 N   0  0  0  0  0
   12.2240   -3.4760  -27.8100 N   0  0  0  0  0
   10.2810    1.1430  -28.9460 O   0  0  0  0  0
    8.0510   -4.3760  -29.9190 S   0  0  0  0  0
   11.4250    0.9880  -28.2450 C   0  0  0  0  0
    8.5260   -1.5120  -27.2220 C   0  0  0  0  0
    6.0260   -0.4570  -23.9370 C   0  0  0  0  0
   10.7640   -4.9780  -28.1790 C   0  0  0  0  0
    7.6790   -1.1350  -26.1310 C   0  0  0  0  0
    6.6590   -3.3280  -29.8240 C   0  0  0  0  0
    6.8950   -2.3410  -28.9140 C   0  0  0  0  0
   11.0780   -2.8700  -28.1120 C   0  0  0  0  0
    8.1220   -2.4430  -28.2320 C   0  0  0  0  0
    8.8970   -3.5210  -28.6960 C   0  0  0  0  0
   10.7850   -1.3570  -28.2050 C   0  0  0  0  0
   10.1470   -3.8080  -28.3230 N   0  0  0  0  0
    9.6500    2.4610  -28.9800 C   0  0  0  0  0
   10.6359   -6.8503  -29.1551 H   0  0  0  0  0
   10.2226   -6.8780  -27.4232 H   0  0  0  0  0
    9.0795   -6.1861  -28.6004 H   0  0  0  0  0
    5.6404   -3.4946  -31.7580 H   0  0  0  0  0
    4.9483   -4.5293  -30.4846 H   0  0  0  0  0
    4.6392   -2.7756  -30.4729 H   0  0  0  0  0
    5.7350   -0.6397  -29.4566 H   0  0  0  0  0
    5.0211   -1.6500  -28.1757 H   0  0  0  0  0
    6.4034   -0.5898  -27.8068 H   0  0  0  0  0
    8.6993    1.8323  -30.8027 H   0  0  0  0  0
    7.7917    1.4359  -29.3227 H   0  0  0  0  0
    7.8304    3.1126  -29.9213 H   0  0  0  0  0
    8.6075    2.1567  -27.1181 H   0  0  0  0  0
   10.2048    2.9257  -26.9497 H   0  0  0  0  0
    8.8248    3.8657  -27.5687 H   0  0  0  0  0
   11.4358    3.6781  -29.1233 H   0  0  0  0  0
   10.6923    3.2817  -30.6920 H   0  0  0  0  0
    9.9438    4.5043  -29.6356 H   0  0  0  0  0
    7.2373    1.3197  -23.7113 H   0  0  0  0  0
    5.0778   -2.3441  -24.3234 H   0  0  0  0  0
    8.6759    0.7269  -25.6767 H   0  0  0  0  0
    6.4951   -2.9164  -26.2300 H   0  0  0  0  0
   12.4280   -0.5260  -27.0330 H   0  0  0  0  0
   12.7849   -0.6522  -28.7220 H   0  0  0  0  0
   10.4514   -1.1615  -29.2241 H   0  0  0  0  0
 22  1  1  0  0  0
 24  2  1  0  0  0
 25  3  1  0  0  0
 31  4  1  0  0  0
 31  5  1  0  0  0
 31  6  1  0  0  0
 19  7  2  0  0  0
 21  8  1  0  0  0
 11  9  4  0  0  0
  9 21  4  0  0  0
 12 10  4  0  0  0
 10 21  4  0  0  0
 23 11  4  0  0  0
 23 12  4  0  0  0
 13 19  1  0  0  0
 29 13  1  0  0  0
 14 20  2  0  0  0
 29 14  1  0  0  0
 16 15  4  0  0  0
 15 22  4  0  0  0
 26 16  4  0  0  0
 19 17  1  0  0  0
 17 31  1  0  0  0
 24 18  4  0  0  0
 18 28  4  0  0  0
 20 23  1  0  0  0
 20 27  1  0  0  0
 22 30  4  0  0  0
 25 24  4  0  0  0
 27 25  4  0  0  0
 26 29  1  0  0  0
 26 30  4  0  0  0
 27 28  4  0  0  0
 28 30  1  0  0  0
  1 32  1  0  0  0
  1 33  1  0  0  0
  1 34  1  0  0  0
  2 35  1  0  0  0
  2 36  1  0  0  0
  2 37  1  0  0  0
  3 38  1  0  0  0
  3 39  1  0  0  0
  3 40  1  0  0  0
  4 41  1  0  0  0
  4 42  1  0  0  0
  4 43  1  0  0  0
  5 44  1  0  0  0
  5 45  1  0  0  0
  5 46  1  0  0  0
  6 47  1  0  0  0
  6 48  1  0  0  0
  6 49  1  0  0  0
  9 50  1  0  0  0
 10 51  1  0  0  0
 11 52  1  0  0  0
 12 53  1  0  0  0
 13 54  1  0  0  0
 13 55  1  0  0  0
 29 56  1  0  0  0
M  END
$$$$
