5kcb_ligand
  -I-interpret- 

 45 48  0  0  0  0  0  0  0  0999 V2000
  -12.2360   -0.5430   -0.1160 C   0  0  0  0  0
  -11.3870   -0.1460    0.8960 C   0  0  0  0  0
  -10.3260   -0.9540    1.2800 C   0  0  0  0  0
  -10.0740   -2.1750    0.6640 C   0  0  0  0  0
  -10.6520   -3.8770   -1.0110 N   0  0  0  0  0
  -11.4610   -4.3130   -2.0080 C   0  0  0  0  0
  -13.4470   -3.9140   -3.4710 C   0  0  0  0  0
  -14.5120   -3.1180   -3.8620 C   0  0  0  0  0
  -14.7800   -1.8980   -3.2620 C   0  0  0  0  0
  -13.9810   -1.4300   -2.2390 C   0  0  0  0  0
  -12.6170   -3.4900   -2.4550 C   0  0  0  0  0
  -12.9100   -2.1930   -1.8250 C   0  0  0  0  0
  -12.0210   -1.7520   -0.7460 C   0  0  0  0  0
  -10.8950   -2.6340   -0.3540 C   0  0  0  0  0
  -11.2460   -5.6220   -2.7000 C   0  0  0  0  0
  -12.1730   -6.6430   -2.5410 C   0  0  0  0  0
  -11.9890   -7.8600   -3.1720 C   0  0  0  0  0
  -10.8630   -8.0800   -3.9620 C   0  0  0  0  0
   -9.9250   -7.0670   -4.1270 C   0  0  0  0  0
  -10.1290   -5.8340   -3.5000 C   0  0  0  0  0
   -9.5150   -4.6960   -0.5510 C   0  0  0  0  0
   -9.7690   -5.2710    0.8260 C   0  0  0  0  0
   -9.5160   -0.5320    2.2740 N   0  0  0  0  0
  -15.3130   -3.5440   -4.8510 N   0  0  0  0  0
  -13.0694    0.0925   -0.4155 H   0  0  0  0  0
  -11.5504    0.8081    1.3971 H   0  0  0  0  0
   -9.2233   -2.7764    0.9846 H   0  0  0  0  0
  -10.5910   -4.3090   -1.3513 H   0  0  0  0  0
  -13.2667   -4.8694   -3.9637 H   0  0  0  0  0
  -15.6285   -1.3035   -3.6008 H   0  0  0  0  0
  -14.1934   -0.4715   -1.7654 H   0  0  0  0  0
  -13.0512   -6.4847   -1.9151 H   0  0  0  0  0
  -12.7290   -8.6511   -3.0505 H   0  0  0  0  0
  -10.7176   -9.0439   -4.4496 H   0  0  0  0  0
   -9.0387   -7.2326   -4.7395 H   0  0  0  0  0
   -9.4051   -5.0312   -3.6398 H   0  0  0  0  0
   -8.6293   -4.0625   -0.5033 H   0  0  0  0  0
   -9.3775   -5.5207   -1.2503 H   0  0  0  0  0
   -9.9195   -4.4577    1.5359 H   0  0  0  0  0
  -10.6592   -5.8994    0.7974 H   0  0  0  0  0
   -8.9106   -5.8686    1.1328 H   0  0  0  0  0
   -9.6896    0.3651    2.7272 H   0  0  0  0  0
   -8.7303   -1.1103    2.5719 H   0  0  0  0  0
  -15.1333   -4.4409   -5.3023 H   0  0  0  0  0
  -16.1014   -2.9708   -5.1514 H   0  0  0  0  0
  2  1  4  0  0  0
  1 13  4  0  0  0
  3  2  4  0  0  0
  4  3  4  0  0  0
  3 23  1  0  0  0
 14  4  4  0  0  0
  6  5  1  0  0  0
  5 14  1  0  0  0
  5 21  1  0  0  0
 11  6  1  0  0  0
  6 15  1  0  0  0
  7  8  4  0  0  0
  7 11  4  0  0  0
  8  9  4  0  0  0
  8 24  1  0  0  0
  9 10  4  0  0  0
 10 12  4  0  0  0
 11 12  4  0  0  0
 12 13  1  0  0  0
 13 14  4  0  0  0
 15 16  4  0  0  0
 15 20  4  0  0  0
 16 17  4  0  0  0
 17 18  4  0  0  0
 18 19  4  0  0  0
 19 20  4  0  0  0
 21 22  1  0  0  0
  1 25  1  0  0  0
  2 26  1  0  0  0
  4 27  1  0  0  0
  6 28  1  0  0  0
  7 29  1  0  0  0
  9 30  1  0  0  0
 10 31  1  0  0  0
 16 32  1  0  0  0
 17 33  1  0  0  0
 18 34  1  0  0  0
 19 35  1  0  0  0
 20 36  1  0  0  0
 21 37  1  0  0  0
 21 38  1  0  0  0
 22 39  1  0  0  0
 22 40  1  0  0  0
 22 41  1  0  0  0
 23 42  1  0  0  0
 23 43  1  0  0  0
 24 44  1  0  0  0
 24 45  1  0  0  0
M  END
$$$$
