5his_ligand
  -I-interpret- 

 15 15  0  0  0  0  0  0  0  0999 V2000
  -16.2880    3.2910  -11.5040 S   0  0  0  0  0
  -17.1630    2.1650  -12.4470 C   0  0  0  0  0
  -17.1700    2.6590  -13.7470 C   0  0  0  0  0
  -16.5130    3.8750  -13.9370 C   0  0  0  0  0
  -15.9310    4.3700  -12.7930 C   0  0  0  0  0
  -17.8460    1.9700  -14.8800 C   0  0  0  0  0
  -17.7420    0.9020  -11.8780 C   0  0  0  0  0
  -18.5530    0.1880  -12.5470 O   0  0  0  0  0
  -17.3610    0.5210  -10.7280 O   0  0  0  0  0
  -16.4654    4.3841  -14.8996 H   0  0  0  0  0
  -15.3457    5.2864  -12.7174 H   0  0  0  0  0
  -17.4116    0.9791  -15.0122 H   0  0  0  0  0
  -18.9101    1.8757  -14.6634 H   0  0  0  0  0
  -17.7096    2.5524  -15.7912 H   0  0  0  0  0
  -18.7368    0.6158  -13.3865 H   0  0  0  0  0
  1  2  4  0  0  0
  1  5  4  0  0  0
  2  3  4  0  0  0
  2  7  1  0  0  0
  3  4  4  0  0  0
  3  6  1  0  0  0
  4  5  4  0  0  0
  7  8  1  0  0  0
  7  9  2  0  0  0
  4 10  1  0  0  0
  5 11  1  0  0  0
  6 12  1  0  0  0
  6 13  1  0  0  0
  6 14  1  0  0  0
  8 15  1  0  0  0
M  END
$$$$
