4fzc_ligand
  -I-interpret- 

 86 86  0  0  0  0  0  0  0  0999 V2000
   58.9450 -134.3180   36.6260 O   0  0  0  0  0
   59.1590 -134.3730   35.4160 C   0  0  0  0  0
   57.9880 -134.1370   34.5320 C   0  0  0  0  0
   56.7430 -133.8450   34.9890 C   0  0  0  0  0
   55.5940 -133.6910   34.0820 C   0  0  0  0  0
   54.3270 -133.3790   34.4180 C   0  0  0  0  0
   53.3120 -133.3810   33.3080 C   0  0  0  0  0
   51.9910 -132.6150   33.4800 C   0  0  0  0  0
   51.2240 -132.9500   32.1690 C   0  0  0  0  0
   49.8010 -132.3660   31.9770 C   0  0  0  0  0
   49.3080 -132.9350   30.6010 C   0  0  0  0  0
   47.8800 -132.5350   30.1100 C   0  0  0  0  0
   47.7130 -130.9910   29.9410 C   0  0  0  0  0
   47.6000 -133.2350   28.7380 C   0  0  0  0  0
   60.4160 -134.6490   34.8590 N   0  0  0  0  0
   61.7040 -134.9280   35.6130 C   0  0  0  0  0
   61.5020 -134.9370   37.1480 C   0  0  0  0  0
   61.3660 -133.8760   37.7550 O   0  0  0  0  0
   62.8940 -133.9720   35.2560 C   0  0  0  0  0
   62.5850 -132.6680   35.7220 O   0  0  0  0  0
   63.1630 -133.9040   33.7370 C   0  0  0  0  0
   61.4590 -136.1500   37.7530 N   0  0  0  0  0
   61.2470 -136.3030   39.1920 C   0  0  0  0  0
   62.5320 -136.1300   39.9880 C   0  0  0  0  0
   63.6170 -136.2480   39.4130 O   0  0  0  0  0
   60.6840 -137.7290   39.5030 C   0  0  0  0  0
   59.4490 -137.7320   40.4470 C   0  0  0  0  0
   58.4130 -136.9920   39.7860 O   0  0  0  0  0
   58.9710 -139.1770   40.7640 C   0  0  0  0  0
   59.7150 -139.8280   41.9880 C   0  0  0  0  0
   61.1040 -139.3760   42.1290 N   0  0  0  0  0
   62.3860 -135.8740   41.3210 N   0  0  0  0  0
   63.5210 -135.7150   42.2260 C   0  0  0  0  0
   63.6000 -134.2320   42.6710 C   0  0  0  0  0
   63.3380 -136.6600   43.4550 C   0  0  0  0  0
   63.0040 -138.1400   43.0820 C   0  0  0  0  0
   61.5380 -138.5130   43.1190 C   0  0  0  0  0
   60.8080 -138.0270   44.0040 O   0  0  0  0  0
   58.1371 -134.2021   33.4542 H   0  0  0  0  0
   56.5898 -133.7208   36.0610 H   0  0  0  0  0
   55.7898 -133.8466   33.0211 H   0  0  0  0  0
   54.0510 -133.1369   35.4443 H   0  0  0  0  0
   53.0132 -134.4248   33.2115 H   0  0  0  0  0
   53.8123 -132.8820   32.4781 H   0  0  0  0  0
   52.1374 -131.5445   33.6237 H   0  0  0  0  0
   51.4451 -132.9074   34.3770 H   0  0  0  0  0
   51.0891 -134.0315   32.1854 H   0  0  0  0  0
   51.8221 -132.5139   31.3688 H   0  0  0  0  0
   49.8085 -131.2760   31.9830 H   0  0  0  0  0
   49.1355 -132.6499   32.7922 H   0  0  0  0  0
   49.2763 -134.0168   30.7306 H   0  0  0  0  0
   49.9935 -132.5277   29.8578 H   0  0  0  0  0
   47.1680 -132.8581   30.8695 H   0  0  0  0  0
   47.8876 -130.5010   30.8989 H   0  0  0  0  0
   48.4335 -130.6269   29.2085 H   0  0  0  0  0
   46.7019 -130.7716   29.5981 H   0  0  0  0  0
   48.3440 -132.9137   28.0091 H   0  0  0  0  0
   47.6570 -134.3161   28.8648 H   0  0  0  0  0
   46.6047 -132.9609   28.3881 H   0  0  0  0  0
   60.4708 -134.6639   33.8406 H   0  0  0  0  0
   61.9823 -135.9261   35.2746 H   0  0  0  0  0
   63.7908 -134.3667   35.7337 H   0  0  0  0  0
   63.3079 -132.0735   35.5085 H   0  0  0  0  0
   63.4094 -134.8996   33.3680 H   0  0  0  0  0
   62.2722 -133.5365   33.2276 H   0  0  0  0  0
   63.9967 -133.2281   33.5469 H   0  0  0  0  0
   61.5790 -136.9872   37.1829 H   0  0  0  0  0
   60.5412 -135.5259   39.4856 H   0  0  0  0  0
   61.4752 -138.2855   40.0054 H   0  0  0  0  0
   60.3665 -138.1640   38.5553 H   0  0  0  0  0
   59.7091 -137.2768   41.4026 H   0  0  0  0  0
   57.6307 -136.9725   40.3420 H   0  0  0  0  0
   59.1801 -139.7914   39.8883 H   0  0  0  0  0
   57.9114 -139.1247   41.0140 H   0  0  0  0  0
   59.7337 -140.9059   41.8273 H   0  0  0  0  0
   59.1801 -139.5368   42.8920 H   0  0  0  0  0
   61.7904 -139.7187   41.4568 H   0  0  0  0  0
   61.4433 -135.7902   41.7013 H   0  0  0  0  0
   64.4512 -135.9823   41.7247 H   0  0  0  0  0
   63.7334 -133.5977   41.7947 H   0  0  0  0  0
   62.6773 -133.9578   43.1825 H   0  0  0  0  0
   64.4446 -134.1015   43.3476 H   0  0  0  0  0
   62.4969 -136.2766   44.0326 H   0  0  0  0  0
   64.2844 -136.6707   43.9957 H   0  0  0  0  0
   63.4996 -138.7644   43.8254 H   0  0  0  0  0
   63.3314 -138.2794   42.0517 H   0  0  0  0  0
  1  2  2  0  0  0
  2  3  1  0  0  0
  2 15  1  0  0  0
  3  4  2  0  0  0
  4  5  1  0  0  0
  5  6  2  0  0  0
  6  7  1  0  0  0
  7  8  1  0  0  0
  8  9  1  0  0  0
  9 10  1  0  0  0
 10 11  1  0  0  0
 11 12  1  0  0  0
 12 13  1  0  0  0
 12 14  1  0  0  0
 15 16  1  0  0  0
 16 17  1  0  0  0
 16 19  1  0  0  0
 17 18  2  0  0  0
 17 22  1  0  0  0
 19 20  1  0  0  0
 19 21  1  0  0  0
 22 23  1  0  0  0
 23 24  1  0  0  0
 23 26  1  0  0  0
 24 25  2  0  0  0
 24 32  1  0  0  0
 26 27  1  0  0  0
 27 28  1  0  0  0
 27 29  1  0  0  0
 29 30  1  0  0  0
 30 31  1  0  0  0
 31 37  1  0  0  0
 32 33  1  0  0  0
 33 34  1  0  0  0
 33 35  1  0  0  0
 35 36  1  0  0  0
 36 37  1  0  0  0
 37 38  2  0  0  0
  3 39  1  0  0  0
  4 40  1  0  0  0
  5 41  1  0  0  0
  6 42  1  0  0  0
  7 43  1  0  0  0
  7 44  1  0  0  0
  8 45  1  0  0  0
  8 46  1  0  0  0
  9 47  1  0  0  0
  9 48  1  0  0  0
 10 49  1  0  0  0
 10 50  1  0  0  0
 11 51  1  0  0  0
 11 52  1  0  0  0
 12 53  1  0  0  0
 13 54  1  0  0  0
 13 55  1  0  0  0
 13 56  1  0  0  0
 14 57  1  0  0  0
 14 58  1  0  0  0
 14 59  1  0  0  0
 15 60  1  0  0  0
 16 61  1  0  0  0
 19 62  1  0  0  0
 20 63  1  0  0  0
 21 64  1  0  0  0
 21 65  1  0  0  0
 21 66  1  0  0  0
 22 67  1  0  0  0
 23 68  1  0  0  0
 26 69  1  0  0  0
 26 70  1  0  0  0
 27 71  1  0  0  0
 28 72  1  0  0  0
 29 73  1  0  0  0
 29 74  1  0  0  0
 30 75  1  0  0  0
 30 76  1  0  0  0
 31 77  1  0  0  0
 32 78  1  0  0  0
 33 79  1  0  0  0
 34 80  1  0  0  0
 34 81  1  0  0  0
 34 82  1  0  0  0
 35 83  1  0  0  0
 35 84  1  0  0  0
 36 85  1  0  0  0
 36 86  1  0  0  0
M  END
$$$$
