4d2v_ligand
  -I-interpret- 

 49 52  0  0  0  0  0  0  0  0999 V2000
  -12.4890  -40.7660  -20.9420 C   0  0  0  0  0
  -11.6200  -40.6800  -19.8160 O   0  0  0  0  0
  -10.8020  -41.7450  -19.5420 C   0  0  0  0  0
  -10.9400  -43.0060  -20.1150 C   0  0  0  0  0
  -10.0790  -44.0490  -19.7900 C   0  0  0  0  0
   -9.0740  -43.8060  -18.8580 C   0  0  0  0  0
   -8.9230  -42.5660  -18.2760 C   0  0  0  0  0
   -9.7680  -41.5060  -18.6070 C   0  0  0  0  0
   -9.4670  -40.2170  -17.8840 C   0  0  0  0  0
   -8.7180  -40.1900  -16.9110 O   0  0  0  0  0
  -10.0500  -39.1000  -18.3580 N   0  0  0  0  0
  -10.1970  -37.8410  -17.7410 C   0  0  0  0  0
   -9.4030  -37.3130  -16.7370 C   0  0  0  0  0
   -9.6530  -36.0410  -16.2480 C   0  0  0  0  0
  -10.6920  -35.2670  -16.7650 C   0  0  0  0  0
  -10.9400  -33.9060  -16.1610 C   0  0  0  0  0
  -10.9580  -32.7050  -17.0930 C   0  0  0  0  0
  -12.1640  -32.6220  -17.9710 N   0  3  0  0  0
  -12.3390  -33.7130  -18.9790 C   0  0  0  0  0
  -12.6830  -35.0610  -18.3600 C   0  0  0  0  0
  -11.5080  -35.8030  -17.7700 C   0  0  0  0  0
  -11.2390  -37.0810  -18.2510 C   0  0  0  0  0
  -10.2540  -45.3950  -20.3750 C   0  0  0  0  0
  -11.3150  -45.8600  -21.1480 C   0  0  0  0  0
  -11.1420  -47.1340  -21.4850 N   0  0  0  0  0
   -9.9700  -47.4930  -20.9150 N   0  0  0  0  0
   -9.4110  -46.4820  -20.2420 C   0  0  0  0  0
  -11.8969  -40.9047  -21.8466 H   0  0  0  0  0
  -13.1639  -41.6124  -20.8147 H   0  0  0  0  0
  -13.0686  -39.8465  -21.0231 H   0  0  0  0  0
  -11.7404  -43.1800  -20.8342 H   0  0  0  0  0
   -8.3935  -44.6119  -18.5833 H   0  0  0  0  0
   -8.1299  -42.4106  -17.5446 H   0  0  0  0  0
  -10.4410  -39.1753  -19.2971 H   0  0  0  0  0
   -8.5792  -37.8996  -16.3303 H   0  0  0  0  0
   -9.0297  -35.6398  -15.4489 H   0  0  0  0  0
  -10.1042  -33.7336  -15.4829 H   0  0  0  0  0
  -11.9419  -33.9567  -15.7348 H   0  0  0  0  0
  -10.0915  -32.7958  -17.7480 H   0  0  0  0  0
  -10.9575  -31.8137  -16.4656 H   0  0  0  0  0
  -12.0627  -31.7595  -18.5059 H   0  0  0  0  0
  -12.9693  -32.6838  -17.3480 H   0  0  0  0  0
  -11.3922  -33.8266  -19.5070 H   0  0  0  0  0
  -13.1671  -33.4295  -19.6287 H   0  0  0  0  0
  -13.0826  -35.6845  -19.1598 H   0  0  0  0  0
  -13.3780  -34.8667  -17.5431 H   0  0  0  0  0
  -11.8607  -37.4935  -19.0457 H   0  0  0  0  0
  -12.1755  -45.2574  -21.4388 H   0  0  0  0  0
   -8.4697  -46.5098  -19.6930 H   0  0  0  0  0
  1  2  1  0  0  0
  2  3  1  0  0  0
  3  4  4  0  0  0
  3  8  4  0  0  0
  4  5  4  0  0  0
  5  6  4  0  0  0
  5 23  1  0  0  0
  6  7  4  0  0  0
  7  8  4  0  0  0
  8  9  1  0  0  0
  9 10  2  0  0  0
  9 11  1  0  0  0
 11 12  1  0  0  0
 12 13  4  0  0  0
 12 22  4  0  0  0
 13 14  4  0  0  0
 14 15  4  0  0  0
 15 16  1  0  0  0
 15 21  4  0  0  0
 16 17  1  0  0  0
 17 18  1  0  0  0
 18 19  1  0  0  0
 19 20  1  0  0  0
 20 21  1  0  0  0
 21 22  4  0  0  0
 23 24  4  0  0  0
 23 27  4  0  0  0
 24 25  4  0  0  0
 25 26  4  0  0  0
 26 27  4  0  0  0
  1 28  1  0  0  0
  1 29  1  0  0  0
  1 30  1  0  0  0
  4 31  1  0  0  0
  6 32  1  0  0  0
  7 33  1  0  0  0
 11 34  1  0  0  0
 13 35  1  0  0  0
 14 36  1  0  0  0
 16 37  1  0  0  0
 16 38  1  0  0  0
 17 39  1  0  0  0
 17 40  1  0  0  0
 18 41  1  0  0  0
 18 42  1  0  0  0
 19 43  1  0  0  0
 19 44  1  0  0  0
 20 45  1  0  0  0
 20 46  1  0  0  0
 22 47  1  0  0  0
 24 48  1  0  0  0
 27 49  1  0  0  0
M  END
$$$$
