4u0s_ligand
  -I-interpret- 

 42 44  0  0  0  0  0  0  0  0999 V2000
  -10.5560  -87.4830   94.4930 P   0  0  0  0  0
  -10.7100  -86.8200   93.1620 O   0  0  0  0  0
  -11.1370  -86.5250   95.5140 O   0  0  0  0  0
  -11.2490  -88.7770   94.4600 O   0  0  0  0  0
   -8.1040  -89.0660   94.5630 P   0  0  0  0  0
   -8.8970  -89.9880   93.6620 O   0  0  0  0  0
   -7.9750  -89.7590   95.8680 O   0  0  0  0  0
   -9.0040  -87.7560   94.7860 O   0  0  0  0  0
   -6.7890  -88.6480   93.8220 O   0  0  0  0  0
   -6.8420  -87.8860   92.6090 C   0  0  0  0  0
   -6.0920  -86.6060   92.8520 C   0  0  0  0  0
   -4.6850  -86.8890   92.8130 O   0  0  0  0  0
   -6.3190  -85.5490   91.7920 C   0  0  0  0  0
   -7.3260  -84.6770   92.2570 O   0  0  0  0  0
   -5.0240  -84.7600   91.7920 C   0  0  0  0  0
   -5.1900  -83.6270   92.6230 O   0  0  0  0  0
   -3.9940  -85.7540   92.3410 C   0  0  0  0  0
   -2.9970  -86.1940   91.3700 N   0  0  0  0  0
   -3.1940  -86.4450   90.0380 C   0  0  0  0  0
   -2.1000  -86.7490   89.3840 N   0  0  0  0  0
   -1.1140  -86.7070   90.3570 C   0  0  0  0  0
    0.2760  -86.9070   90.3030 C   0  0  0  0  0
    0.9330  -87.1680   89.1800 N   0  0  0  0  0
    0.9790  -86.7540   91.4480 N   0  0  0  0  0
    0.3230  -86.4090   92.5640 C   0  0  0  0  0
   -0.9860  -86.2080   92.7360 N   0  0  0  0  0
   -1.6530  -86.3710   91.5880 C   0  0  0  0  0
  -10.2596  -85.9723   93.1740 H   0  0  0  0  0
  -10.6473  -85.6996   95.4916 H   0  0  0  0  0
   -9.0053  -89.5771   92.8012 H   0  0  0  0  0
   -7.8756  -87.6776   92.3325 H   0  0  0  0  0
   -6.3925  -88.4430   91.7869 H   0  0  0  0  0
   -6.4490  -86.2283   93.8101 H   0  0  0  0  0
   -6.5924  -85.9638   90.8218 H   0  0  0  0  0
   -7.4872  -83.9965   91.5993 H   0  0  0  0  0
   -4.7154  -84.3809   90.8177 H   0  0  0  0  0
   -4.3768  -83.1169   92.6329 H   0  0  0  0  0
   -3.4479  -85.2316   93.1265 H   0  0  0  0  0
   -4.1743  -86.3962   89.5639 H   0  0  0  0  0
    0.4274  -87.2322   88.2965 H   0  0  0  0  0
    1.9436  -87.3044   89.2003 H   0  0  0  0  0
    0.9412  -86.2741   93.4515 H   0  0  0  0  0
  1  2  1  0  0  0
  1  3  1  0  0  0
  1  4  2  0  0  0
  8  1  1  0  0  0
  5  6  1  0  0  0
  5  7  2  0  0  0
  5  8  1  0  0  0
  5  9  1  0  0  0
  9 10  1  0  0  0
 10 11  1  0  0  0
 11 12  1  0  0  0
 11 13  1  0  0  0
 12 17  1  0  0  0
 13 14  1  0  0  0
 13 15  1  0  0  0
 15 16  1  0  0  0
 15 17  1  0  0  0
 17 18  1  0  0  0
 18 19  4  0  0  0
 18 27  4  0  0  0
 19 20  4  0  0  0
 20 21  4  0  0  0
 21 22  4  0  0  0
 21 27  4  0  0  0
 22 23  1  0  0  0
 22 24  4  0  0  0
 24 25  4  0  0  0
 25 26  4  0  0  0
 26 27  4  0  0  0
  2 28  1  0  0  0
  3 29  1  0  0  0
  6 30  1  0  0  0
 10 31  1  0  0  0
 10 32  1  0  0  0
 11 33  1  0  0  0
 13 34  1  0  0  0
 14 35  1  0  0  0
 15 36  1  0  0  0
 16 37  1  0  0  0
 17 38  1  0  0  0
 19 39  1  0  0  0
 23 40  1  0  0  0
 23 41  1  0  0  0
 25 42  1  0  0  0
M  END
$$$$
