### 
### Created by X-TOOL on Mon Sep 10 21:13:19 2018
### 

@<TRIPOS>MOLECULE
4u0s_ligand
   39    41     1     0     0
SMALL
GAST_HUCK


@<TRIPOS>ATOM
      1 PB        -10.5560  -87.4830   94.4930 P.3       1 ADP         0.2069
      2 O1B       -10.7100  -86.8200   93.1620 O.co2     1 ADP        -0.5891
      3 O2B       -11.1370  -86.5250   95.5140 O.co2     1 ADP        -0.5891
      4 O3B       -11.2490  -88.7770   94.4600 O.co2     1 ADP        -0.5891
      5 PA         -8.1040  -89.0660   94.5630 P.3       1 ADP         0.3276
      6 O1A        -8.8970  -89.9880   93.6620 O.co2     1 ADP        -0.5556
      7 O2A        -7.9750  -89.7590   95.8680 O.co2     1 ADP        -0.5556
      8 O3A        -9.0040  -87.7560   94.7860 O.3       1 ADP        -0.1548
      9 O5'        -6.7890  -88.6480   93.8220 O.3       1 ADP        -0.2436
     10 C5'        -6.8420  -87.8860   92.6090 C.3       1 ADP         0.1132
     11 C4'        -6.0920  -86.6060   92.8520 C.3       1 ADP         0.1189
     12 O4'        -4.6850  -86.8890   92.8130 O.3       1 ADP        -0.3364
     13 C3'        -6.3190  -85.5490   91.7920 C.3       1 ADP         0.1149
     14 O3'        -7.3260  -84.6770   92.2570 O.3       1 ADP        -0.3864
     15 C2'        -5.0240  -84.7600   91.7920 C.3       1 ADP         0.1385
     16 O2'        -5.1900  -83.6270   92.6230 O.3       1 ADP        -0.3836
     17 C1'        -3.9940  -85.7540   92.3410 C.3       1 ADP         0.2010
     18 N9         -2.9970  -86.1940   91.3700 N.pl3     1 ADP        -0.1919
     19 C8         -3.1940  -86.4450   90.0380 C.2       1 ADP         0.1123
     20 N7         -2.1000  -86.7490   89.3840 N.2       1 ADP        -0.2958
     21 C5         -1.1140  -86.7070   90.3570 C.ar      1 ADP         0.1045
     22 C6          0.2760  -86.9070   90.3030 C.ar      1 ADP         0.1298
     23 N6          0.9330  -87.1680   89.1800 N.pl3     1 ADP        -0.3152
     24 N1          0.9790  -86.7540   91.4480 N.ar      1 ADP        -0.2698
     25 C2          0.3230  -86.4090   92.5640 C.ar      1 ADP         0.0533
     26 N3         -0.9860  -86.2080   92.7360 N.ar      1 ADP        -0.2714
     27 C4         -1.6530  -86.3710   91.5880 C.ar      1 ADP         0.1613
     28 H          -7.8877  -87.6658   92.3481 H         1 ADP         0.0648
     29 H          -6.3705  -88.4488   91.7900 H         1 ADP         0.0648
     30 H          -6.3794  -86.2063   93.8357 H         1 ADP         0.0651
     31 H          -6.5624  -85.9771   90.8084 H         1 ADP         0.0648
     32 H          -8.1246  -85.1690   92.4076 H         1 ADP         0.2100
     33 H          -4.7480  -84.4376   90.7772 H         1 ADP         0.0676
     34 H          -5.8979  -83.0900   92.2868 H         1 ADP         0.2101
     35 H          -3.4668  -85.2732   93.1781 H         1 ADP         0.0996
     36 H          -4.1734  -86.3962   89.5643 H         1 ADP         0.1349
     37 H           1.9535  -87.3057   89.2005 H         1 ADP         0.1820
     38 H           0.4224  -87.2329   88.2878 H         1 ADP         0.1820
     39 H           0.9378  -86.2749   93.4467 H         1 ADP         0.0996
@<TRIPOS>BOND
     1    1    2 ar 
     2    1    3 ar 
     3    1    4 ar 
     4    8    1 1  
     5    5    6 ar 
     6    5    7 ar 
     7    5    8 1  
     8    5    9 1  
     9    9   10 1  
    10   10   11 1  
    11   11   12 1  
    12   11   13 1  
    13   12   17 1  
    14   13   14 1  
    15   13   15 1  
    16   15   16 1  
    17   15   17 1  
    18   17   18 1  
    19   18   19 1  
    20   18   27 1  
    21   19   20 2  
    22   20   21 1  
    23   21   22 ar 
    24   21   27 ar 
    25   22   23 1  
    26   22   24 ar 
    27   24   25 ar 
    28   25   26 ar 
    29   26   27 ar 
    30   10   28 1  
    31   10   29 1  
    32   11   30 1  
    33   13   31 1  
    34   14   32 1  
    35   15   33 1  
    36   16   34 1  
    37   17   35 1  
    38   19   36 1  
    39   23   37 1  
    40   23   38 1  
    41   25   39 1  
@<TRIPOS>SUBSTRUCTURE
     1 ADP         1

