3tvc_ligand
  -I-interpret- 

 58 60  0  0  0  0  0  0  0  0999 V2000
  -10.3980  -30.1510    1.6300 C   0  0  0  0  0
  -12.6170  -29.1180   -0.3150 N   0  0  0  0  0
  -10.6610  -31.2060    0.5970 C   0  0  0  0  0
  -11.4330  -28.5160   -2.1770 O   0  0  0  0  0
  -12.1340  -31.3940    0.4020 C   0  0  0  0  0
  -14.8690  -30.0020   -1.5950 N   0  0  0  0  0
  -12.6630  -30.5120   -0.7160 C   0  0  0  0  0
  -14.0710  -30.8830   -1.0560 C   0  0  0  0  0
  -14.4880  -32.0180   -0.8360 O   0  0  0  0  0
  -11.9550  -28.1470   -1.1450 C   0  0  0  0  0
   -9.2500  -29.6560    1.7680 O   0  0  0  0  0
  -11.8760  -26.6930   -0.7210 C   0  0  0  0  0
  -11.3300  -29.7540    2.3830 O   0  0  0  0  0
  -10.5470  -26.5770   -0.0110 C   0  0  0  0  0
  -10.4830  -25.2440    0.6920 C   0  0  0  0  0
   -9.5620  -24.3290    0.2750 C   0  0  0  0  0
   -9.4520  -22.9970    0.9440 C   0  0  0  0  0
  -10.2920  -22.6970    1.9510 C   0  0  0  0  0
  -11.2970  -23.6890    2.4190 C   0  0  0  0  0
  -11.3980  -24.9210    1.8160 C   0  0  0  0  0
   -9.9850  -18.8270    3.9210 C   0  0  0  0  0
  -10.8530  -19.8840    4.4860 C   0  0  0  0  0
  -10.9480  -21.1010    3.8580 C   0  0  0  0  0
  -10.1750  -21.3460    2.6150 C   0  0  0  0  0
   -9.3700  -20.3750    2.0920 C   0  0  0  0  0
   -9.2570  -19.0440    2.7850 C   0  0  0  0  0
   -9.8910  -17.5350    4.6580 C   0  0  0  0  0
   -9.6200  -16.2550    3.9410 C   0  0  0  0  0
   -9.5220  -15.1040    4.6660 C   0  0  0  0  0
   -9.6690  -15.1420    6.1540 C   0  0  0  0  0
   -9.9010  -16.3170    6.8060 C   0  0  0  0  0
  -10.0150  -17.5770    6.0170 C   0  0  0  0  0
  -13.0555  -28.8256    0.5583 H   0  0  0  0  0
  -10.2255  -32.1470    0.9332 H   0  0  0  0  0
  -10.2157  -30.8950   -0.3480 H   0  0  0  0  0
  -12.6428  -31.1224    1.3269 H   0  0  0  0  0
  -12.3177  -32.4353    0.1373 H   0  0  0  0  0
  -15.8281  -30.2584   -1.8292 H   0  0  0  0  0
  -14.5336  -29.0571   -1.7820 H   0  0  0  0  0
  -12.0345  -30.6595   -1.5942 H   0  0  0  0  0
  -12.7089  -26.4095   -0.0775 H   0  0  0  0  0
  -11.9449  -26.0152   -1.5719 H   0  0  0  0  0
  -12.1398  -30.2189    2.1603 H   0  0  0  0  0
   -9.7351  -26.6512   -0.7345 H   0  0  0  0  0
  -10.4465  -27.3824    0.7166 H   0  0  0  0  0
   -8.8988  -24.5716   -0.5553 H   0  0  0  0  0
   -8.7002  -22.2774    0.6199 H   0  0  0  0  0
  -11.9593  -23.4372    3.2473 H   0  0  0  0  0
  -12.1361  -25.6469    2.1569 H   0  0  0  0  0
  -11.4164  -19.6964    5.4000 H   0  0  0  0  0
  -11.5870  -21.8823    4.2696 H   0  0  0  0  0
   -8.8110  -20.5634    1.1754 H   0  0  0  0  0
   -8.6053  -18.2659    2.3875 H   0  0  0  0  0
   -9.5025  -16.2400    2.8575 H   0  0  0  0  0
   -9.3365  -14.1561    4.1609 H   0  0  0  0  0
   -9.5895  -14.2172    6.7254 H   0  0  0  0  0
  -10.0019  -16.3349    7.8912 H   0  0  0  0  0
  -10.1962  -18.5258    6.5221 H   0  0  0  0  0
  3  1  1  0  0  0
  1 11  2  0  0  0
  1 13  1  0  0  0
  2  7  1  0  0  0
 10  2  1  0  0  0
  5  3  1  0  0  0
 10  4  2  0  0  0
  7  5  1  0  0  0
  8  6  1  0  0  0
  7  8  1  0  0  0
  8  9  2  0  0  0
 12 10  1  0  0  0
 14 12  1  0  0  0
 15 14  1  0  0  0
 16 15  4  0  0  0
 20 15  4  0  0  0
 17 16  4  0  0  0
 18 17  4  0  0  0
 18 19  4  0  0  0
 24 18  1  0  0  0
 19 20  4  0  0  0
 22 21  4  0  0  0
 21 26  4  0  0  0
 21 27  1  0  0  0
 23 22  4  0  0  0
 23 24  4  0  0  0
 24 25  4  0  0  0
 25 26  4  0  0  0
 27 28  4  0  0  0
 27 32  4  0  0  0
 28 29  4  0  0  0
 29 30  4  0  0  0
 30 31  4  0  0  0
 31 32  4  0  0  0
  2 33  1  0  0  0
  3 34  1  0  0  0
  3 35  1  0  0  0
  5 36  1  0  0  0
  5 37  1  0  0  0
  6 38  1  0  0  0
  6 39  1  0  0  0
  7 40  1  0  0  0
 12 41  1  0  0  0
 12 42  1  0  0  0
 13 43  1  0  0  0
 14 44  1  0  0  0
 14 45  1  0  0  0
 16 46  1  0  0  0
 17 47  1  0  0  0
 19 48  1  0  0  0
 20 49  1  0  0  0
 22 50  1  0  0  0
 23 51  1  0  0  0
 25 52  1  0  0  0
 26 53  1  0  0  0
 28 54  1  0  0  0
 29 55  1  0  0  0
 30 56  1  0  0  0
 31 57  1  0  0  0
 32 58  1  0  0  0
M  END
$$$$
