2w77_ligand
  -I-interpret- 

142142  0  0  0  0  0  0  0  0999 V2000
  -70.8870  -36.1840   19.9400 N   0  3  0  0  0
  -71.5500  -36.5980   18.6540 C   0  0  0  0  0
  -70.6190  -36.4770   17.4450 C   0  0  0  0  0
  -70.9530  -35.7630   16.4620 O   0  0  0  0  0
  -72.1930  -37.9990   18.7350 C   0  0  0  0  0
  -71.2400  -39.0130   18.9710 O   0  0  0  0  0
  -69.4530  -37.1300   17.5350 N   0  0  0  0  0
  -68.4720  -37.1190   16.4430 C   0  0  0  0  0
  -68.2710  -38.5220   15.8520 C   0  0  0  0  0
  -67.4810  -38.7180   14.9200 O   0  0  0  0  0
  -67.1530  -36.4570   16.8970 C   0  0  0  0  0
  -67.2620  -34.9370   17.2630 C   0  0  0  0  0
  -67.3340  -33.9820   16.0520 C   0  0  0  0  0
  -68.6390  -33.1700   15.9570 C   0  0  0  0  0
  -68.4680  -31.7830   16.4660 N   0  3  0  0  0
  -69.0170  -39.4860   16.4010 N   0  0  0  0  0
  -69.0110  -40.8900   15.9570 C   0  0  0  0  0
  -67.8380  -41.7650   16.3780 C   0  0  0  0  0
  -67.6700  -42.8490   15.8300 O   0  0  0  0  0
  -67.0840  -41.3310   17.3980 N   0  0  0  0  0
  -65.6900  -41.7400   17.6140 C   0  0  0  0  0
  -64.9400  -40.4420   17.9030 C   0  0  0  0  0
  -63.4770  -40.4260   17.4450 C   0  0  0  0  0
  -62.4000  -40.2580   18.5290 C   0  0  0  0  0
  -62.5290  -39.0410   19.3550 N   0  3  0  0  0
  -63.5860  -38.4490   19.5200 O   0  0  0  0  0
  -61.5040  -38.6060   19.9610 C   0  0  0  0  0
  -61.5780  -37.6180   20.6810 O   0  0  0  0  0
  -65.4300  -42.6350   18.7840 C   0  0  0  0  0
  -65.0860  -42.1490   19.8700 O   0  0  0  0  0
  -65.5520  -43.9510   18.5840 N   0  0  0  0  0
  -65.2960  -44.9590   19.6470 C   0  0  0  0  0
  -66.4590  -45.0950   20.6210 C   0  0  0  0  0
  -67.5760  -45.3250   20.1720 O   0  0  0  0  0
  -63.9970  -44.6860   20.4010 C   0  0  0  0  0
  -62.8870  -45.1440   19.6520 O   0  0  0  0  0
  -66.1980  -44.9600   21.9310 N   0  0  0  0  0
  -67.2560  -44.9740   22.9700 C   0  0  0  0  0
  -68.5280  -44.1250   22.6470 C   0  0  0  0  0
  -69.6340  -44.6680   22.4760 O   0  0  0  0  0
  -67.6340  -46.4150   23.3490 C   0  0  0  0  0
  -66.7470  -46.9280   24.3220 O   0  0  0  0  0
  -68.3360  -42.8040   22.5230 N   0  0  0  0  0
  -69.4070  -41.8270   22.7420 C   0  0  0  0  0
  -69.3420  -41.4460   24.2240 C   0  0  0  0  0
  -69.5460  -40.3000   24.5870 O   0  0  0  0  0
  -69.0050  -42.4060   25.0750 N   0  0  0  0  0
  -69.0300  -42.1940   26.5100 C   0  0  0  0  0
  -67.6830  -41.8940   27.2110 C   0  0  0  0  0
  -67.6940  -41.5150   28.3840 O   0  0  0  0  0
  -69.7160  -43.3850   27.1800 C   0  0  0  0  0
  -68.7960  -44.1060   28.1190 C   0  0  0  0  0
  -69.5390  -44.8660   29.1350 C   0  0  0  0  0
  -68.6600  -45.2860   30.3110 C   0  0  0  0  0
  -67.2370  -45.2950   29.9660 N   0  0  0  0  0
  -66.5400  -42.0660   26.5580 N   0  0  0  0  0
  -65.2290  -41.7870   27.1830 C   0  0  0  0  0
  -64.1570  -41.4230   26.1360 C   0  0  0  0  0
  -64.4360  -40.1960   25.2390 C   0  0  0  0  0
  -63.1110  -39.7420   24.6190 C   0  0  0  0  0
  -63.2120  -38.7580   23.5490 N   0  3  0  0  0
  -63.6530  -39.0570   22.4540 O   0  0  0  0  0
  -62.7670  -37.5960   23.7700 C   0  0  0  0  0
  -62.7550  -36.6560   22.9780 O   0  0  0  0  0
  -64.8790  -42.9950   28.0040 C   0  0  0  0  0
  -64.3810  -43.9600   27.4750 O   0  0  0  0  0
  -65.1730  -42.9800   29.3020 N   0  0  0  0  0
  -65.1500  -44.2340   30.0980 C   0  0  0  0  0
  -66.5200  -44.5660   30.6580 C   0  0  0  0  0
  -67.0430  -43.8630   31.5230 O   0  0  0  0  0
  -64.2000  -44.1260   31.2580 C   0  0  0  0  0
  -64.6140  -43.0340   32.0370 O   0  0  0  0  0
  -70.4815  -35.2548   19.8283 H   0  0  0  0  0
  -71.5802  -36.1661   20.6881 H   0  0  0  0  0
  -70.1516  -36.8515   20.1722 H   0  0  0  0  0
  -72.3623  -35.8869   18.5034 H   0  0  0  0  0
  -72.6764  -38.2049   17.7800 H   0  0  0  0  0
  -72.8996  -37.9993   19.5649 H   0  0  0  0  0
  -71.6832  -39.8635   19.0136 H   0  0  0  0  0
  -69.2406  -37.6497   18.3866 H   0  0  0  0  0
  -68.8658  -36.5071   15.6315 H   0  0  0  0  0
  -66.4614  -36.5283   16.0575 H   0  0  0  0  0
  -66.8376  -36.9755   17.8024 H   0  0  0  0  0
  -66.3584  -34.6793   17.8155 H   0  0  0  0  0
  -68.1905  -34.8118   17.8200 H   0  0  0  0  0
  -67.2756  -34.5987   15.1551 H   0  0  0  0  0
  -66.5195  -33.2659   16.1612 H   0  0  0  0  0
  -69.3952  -33.6663   16.5652 H   0  0  0  0  0
  -68.9318  -33.1154   14.9085 H   0  0  0  0  0
  -69.3523  -31.2811   16.3855 H   0  0  0  0  0
  -68.1811  -31.8141   17.4443 H   0  0  0  0  0
  -67.7537  -31.3059   15.9160 H   0  0  0  0  0
  -69.6292  -39.2329   17.1766 H   0  0  0  0  0
  -68.9671  -40.8499   14.8686 H   0  0  0  0  0
  -69.8901  -41.3430   16.4154 H   0  0  0  0  0
  -67.5024  -40.6795   18.0620 H   0  0  0  0  0
  -65.3866  -42.3064   16.7335 H   0  0  0  0  0
  -64.9331  -40.3160   18.9857 H   0  0  0  0  0
  -65.4516  -39.6527   17.3523 H   0  0  0  0  0
  -63.3807  -39.5554   16.7963 H   0  0  0  0  0
  -63.2968  -41.4043   16.9995 H   0  0  0  0  0
  -61.4427  -40.1873   18.0126 H   0  0  0  0  0
  -62.4984  -41.1080   19.2042 H   0  0  0  0  0
  -60.5482  -39.1159   19.8402 H   0  0  0  0  0
  -65.8335  -44.2788   17.6601 H   0  0  0  0  0
  -65.1907  -45.9114   19.1274 H   0  0  0  0  0
  -64.0229  -45.2119   21.3554 H   0  0  0  0  0
  -63.8985  -43.6124   20.5618 H   0  0  0  0  0
  -62.0787  -44.9656   20.1383 H   0  0  0  0  0
  -65.2283  -44.8425   22.2248 H   0  0  0  0  0
  -66.8064  -44.4743   23.8280 H   0  0  0  0  0
  -67.5762  -47.0392   22.4573 H   0  0  0  0  0
  -68.6440  -46.4168   23.7589 H   0  0  0  0  0
  -67.0014  -47.8269   24.5431 H   0  0  0  0  0
  -67.4087  -42.4655   22.2663 H   0  0  0  0  0
  -70.3799  -42.2469   22.4867 H   0  0  0  0  0
  -69.2766  -40.9519   22.1054 H   0  0  0  0  0
  -68.7212  -43.3158   24.7115 H   0  0  0  0  0
  -69.5872  -41.2655   26.6345 H   0  0  0  0  0
  -70.0251  -44.0829   26.4019 H   0  0  0  0  0
  -70.5648  -43.0119   27.7531 H   0  0  0  0  0
  -68.1778  -43.3666   28.6282 H   0  0  0  0  0
  -68.1945  -44.8061   27.5392 H   0  0  0  0  0
  -69.9239  -45.7702   28.6634 H   0  0  0  0  0
  -70.3323  -44.2254   29.5203 H   0  0  0  0  0
  -68.9440  -46.2976   30.6010 H   0  0  0  0  0
  -68.8079  -44.5675   31.1172 H   0  0  0  0  0
  -66.8638  -45.8643   29.2064 H   0  0  0  0  0
  -66.5668  -42.4011   25.5950 H   0  0  0  0  0
  -65.2774  -40.9088   27.8269 H   0  0  0  0  0
  -64.0999  -42.2769   25.4609 H   0  0  0  0  0
  -63.2595  -41.1773   26.7037 H   0  0  0  0  0
  -64.8669  -39.3895   25.8323 H   0  0  0  0  0
  -65.1448  -40.4601   24.4542 H   0  0  0  0  0
  -62.6590  -40.6300   24.1772 H   0  0  0  0  0
  -62.5445  -39.2669   25.4200 H   0  0  0  0  0
  -62.3529  -37.4088   24.7608 H   0  0  0  0  0
  -65.4165  -42.0989   29.7546 H   0  0  0  0  0
  -64.8267  -45.0202   29.4157 H   0  0  0  0  0
  -63.1794  -43.9790   30.9045 H   0  0  0  0  0
  -64.2103  -45.0426   31.8477 H   0  0  0  0  0
  -64.0253  -42.9375   32.7892 H   0  0  0  0  0
  1  2  1  0  0  0
  2  3  1  0  0  0
  2  5  1  0  0  0
  3  4  2  0  0  0
  3  7  1  0  0  0
  5  6  1  0  0  0
  7  8  1  0  0  0
  8  9  1  0  0  0
  8 11  1  0  0  0
  9 10  2  0  0  0
  9 16  1  0  0  0
 11 12  1  0  0  0
 12 13  1  0  0  0
 13 14  1  0  0  0
 14 15  1  0  0  0
 16 17  1  0  0  0
 17 18  1  0  0  0
 18 19  2  0  0  0
 18 20  1  0  0  0
 20 21  1  0  0  0
 21 22  1  0  0  0
 21 29  1  0  0  0
 22 23  1  0  0  0
 23 24  1  0  0  0
 24 25  1  0  0  0
 25 26  2  0  0  0
 25 27  1  0  0  0
 27 28  2  0  0  0
 29 30  2  0  0  0
 29 31  1  0  0  0
 31 32  1  0  0  0
 32 33  1  0  0  0
 32 35  1  0  0  0
 33 34  2  0  0  0
 33 37  1  0  0  0
 35 36  1  0  0  0
 37 38  1  0  0  0
 38 39  1  0  0  0
 38 41  1  0  0  0
 39 40  2  0  0  0
 39 43  1  0  0  0
 41 42  1  0  0  0
 43 44  1  0  0  0
 44 45  1  0  0  0
 45 46  2  0  0  0
 45 47  1  0  0  0
 47 48  1  0  0  0
 48 49  1  0  0  0
 48 51  1  0  0  0
 49 50  2  0  0  0
 49 56  1  0  0  0
 51 52  1  0  0  0
 52 53  1  0  0  0
 53 54  1  0  0  0
 54 55  1  0  0  0
 55 69  1  0  0  0
 56 57  1  0  0  0
 57 58  1  0  0  0
 57 65  1  0  0  0
 58 59  1  0  0  0
 59 60  1  0  0  0
 60 61  1  0  0  0
 61 62  2  0  0  0
 61 63  1  0  0  0
 63 64  2  0  0  0
 65 66  2  0  0  0
 65 67  1  0  0  0
 67 68  1  0  0  0
 68 69  1  0  0  0
 68 71  1  0  0  0
 69 70  2  0  0  0
 71 72  1  0  0  0
  1 73  1  0  0  0
  1 74  1  0  0  0
  1 75  1  0  0  0
  2 76  1  0  0  0
  5 77  1  0  0  0
  5 78  1  0  0  0
  6 79  1  0  0  0
  7 80  1  0  0  0
  8 81  1  0  0  0
 11 82  1  0  0  0
 11 83  1  0  0  0
 12 84  1  0  0  0
 12 85  1  0  0  0
 13 86  1  0  0  0
 13 87  1  0  0  0
 14 88  1  0  0  0
 14 89  1  0  0  0
 15 90  1  0  0  0
 15 91  1  0  0  0
 15 92  1  0  0  0
 16 93  1  0  0  0
 17 94  1  0  0  0
 17 95  1  0  0  0
 20 96  1  0  0  0
 21 97  1  0  0  0
 22 98  1  0  0  0
 22 99  1  0  0  0
 23100  1  0  0  0
 23101  1  0  0  0
 24102  1  0  0  0
 24103  1  0  0  0
 27104  1  0  0  0
 31105  1  0  0  0
 32106  1  0  0  0
 35107  1  0  0  0
 35108  1  0  0  0
 36109  1  0  0  0
 37110  1  0  0  0
 38111  1  0  0  0
 41112  1  0  0  0
 41113  1  0  0  0
 42114  1  0  0  0
 43115  1  0  0  0
 44116  1  0  0  0
 44117  1  0  0  0
 47118  1  0  0  0
 48119  1  0  0  0
 51120  1  0  0  0
 51121  1  0  0  0
 52122  1  0  0  0
 52123  1  0  0  0
 53124  1  0  0  0
 53125  1  0  0  0
 54126  1  0  0  0
 54127  1  0  0  0
 55128  1  0  0  0
 56129  1  0  0  0
 57130  1  0  0  0
 58131  1  0  0  0
 58132  1  0  0  0
 59133  1  0  0  0
 59134  1  0  0  0
 60135  1  0  0  0
 60136  1  0  0  0
 63137  1  0  0  0
 67138  1  0  0  0
 68139  1  0  0  0
 71140  1  0  0  0
 71141  1  0  0  0
 72142  1  0  0  0
M  END
$$$$
