### 
### Created by X-TOOL on Sun Sep  9 21:51:04 2018
### 

@<TRIPOS>MOLECULE
2w77_ligand
  142   142     1     0     0
SMALL
GAST_HUCK


@<TRIPOS>ATOM
      1 N         -70.8870  -36.1840   19.9400 N.4       1 NON         0.2396
      2 CA        -71.5500  -36.5980   18.6540 C.3       1 NON         0.0885
      3 C         -70.6190  -36.4770   17.4450 C.2       1 NON         0.2290
      4 O         -70.9530  -35.7630   16.4620 O.2       1 NON        -0.3906
      5 CB        -72.1930  -37.9990   18.7350 C.3       1 NON         0.1041
      6 OG        -71.2400  -39.0130   18.9710 O.3       1 NON        -0.3870
      7 N         -69.4530  -37.1300   17.5350 N.am      1 NON        -0.2610
      8 CA        -68.4720  -37.1190   16.4430 C.3       1 NON         0.1311
      9 C         -68.2710  -38.5220   15.8520 C.2       1 NON         0.2037
     10 O         -67.4810  -38.7180   14.9200 O.2       1 NON        -0.3944
     11 CB        -67.1530  -36.4570   16.8970 C.3       1 NON        -0.0122
     12 CG        -67.2620  -34.9370   17.2630 C.3       1 NON        -0.0440
     13 CD        -67.3340  -33.9820   16.0520 C.3       1 NON        -0.0124
     14 CE        -68.6390  -33.1700   15.9570 C.3       1 NON        -0.0354
     15 NZ        -68.4680  -31.7830   16.4660 N.4       1 NON         0.2185
     16 N         -69.0170  -39.4860   16.4010 N.am      1 NON        -0.2664
     17 CA        -69.0110  -40.8900   15.9570 C.3       1 NON         0.1201
     18 C         -67.8380  -41.7650   16.3780 C.2       1 NON         0.2007
     19 O         -67.6700  -42.8490   15.8300 O.2       1 NON        -0.3947
     20 N         -67.0840  -41.3310   17.3980 N.am      1 NON        -0.2640
     21 CA        -65.6900  -41.7400   17.6140 C.3       1 NON         0.1311
     22 CB        -64.9400  -40.4420   17.9030 C.3       1 NON        -0.0090
     23 CG        -63.4770  -40.4260   17.4450 C.3       1 NON        -0.0081
     24 CD        -62.4000  -40.2580   18.5290 C.3       1 NON         0.1516
     25 NE        -62.5290  -39.0410   19.3550 N.2       1 NON         0.0851
     26 OZ        -63.5860  -38.4490   19.5200 O.2       1 NON         0.1605
     27 CZ        -61.5040  -38.6060   19.9610 C.2       1 NON         0.3885
     28 OH        -61.5780  -37.6180   20.6810 O.2       1 NON        -0.2003
     29 C         -65.4300  -42.6350   18.7840 C.2       1 NON         0.2040
     30 O         -65.0860  -42.1490   19.8700 O.2       1 NON        -0.3944
     31 N         -65.5520  -43.9510   18.5840 N.am      1 NON        -0.2616
     32 CA        -65.2960  -44.9590   19.6470 C.3       1 NON         0.1539
     33 C         -66.4590  -45.0950   20.6210 C.2       1 NON         0.2062
     34 O         -67.5760  -45.3250   20.1720 O.2       1 NON        -0.3943
     35 CB        -63.9970  -44.6860   20.4010 C.3       1 NON         0.0843
     36 OG        -62.8870  -45.1440   19.6520 O.3       1 NON        -0.3903
     37 N         -66.1980  -44.9600   21.9310 N.am      1 NON        -0.2615
     38 CA        -67.2560  -44.9740   22.9700 C.3       1 NON         0.1539
     39 C         -68.5280  -44.1250   22.6470 C.2       1 NON         0.2060
     40 O         -69.6340  -44.6680   22.4760 O.2       1 NON        -0.3943
     41 CB        -67.6340  -46.4150   23.3490 C.3       1 NON         0.0843
     42 OG        -66.7470  -46.9280   24.3220 O.3       1 NON        -0.3903
     43 N         -68.3360  -42.8040   22.5230 N.am      1 NON        -0.2663
     44 CA        -69.4070  -41.8270   22.7420 C.3       1 NON         0.1201
     45 C         -69.3420  -41.4460   24.2240 C.2       1 NON         0.2007
     46 O         -69.5460  -40.3000   24.5870 O.2       1 NON        -0.3947
     47 N         -69.0050  -42.4060   25.0750 N.am      1 NON        -0.2640
     48 CA        -69.0300  -42.1940   26.5100 C.3       1 NON         0.1310
     49 C         -67.6830  -41.8940   27.2110 C.2       1 NON         0.2039
     50 O         -67.6940  -41.5150   28.3840 O.2       1 NON        -0.3944
     51 CB        -69.7160  -43.3850   27.1800 C.3       1 NON        -0.0123
     52 CG        -68.7960  -44.1060   28.1190 C.3       1 NON        -0.0470
     53 CD        -69.5390  -44.8660   29.1350 C.3       1 NON        -0.0325
     54 CE        -68.6600  -45.2860   30.3110 C.3       1 NON         0.0310
     55 NZ        -67.2370  -45.2950   29.9660 N.am      1 NON        -0.2850
     56 N         -66.5400  -42.0660   26.5580 N.am      1 NON        -0.2637
     57 CA        -65.2290  -41.7870   27.1830 C.3       1 NON         0.1311
     58 CB        -64.1570  -41.4230   26.1360 C.3       1 NON        -0.0090
     59 CG        -64.4360  -40.1960   25.2390 C.3       1 NON        -0.0081
     60 CD        -63.1110  -39.7420   24.6190 C.3       1 NON         0.1516
     61 NE        -63.2120  -38.7580   23.5490 N.2       1 NON         0.0851
     62 OZ        -63.6530  -39.0570   22.4540 O.2       1 NON         0.1605
     63 CZ        -62.7670  -37.5960   23.7700 C.2       1 NON         0.3885
     64 OH        -62.7550  -36.6560   22.9780 O.2       1 NON        -0.2003
     65 C         -64.8790  -42.9950   28.0040 C.2       1 NON         0.2040
     66 O         -64.3810  -43.9600   27.4750 O.2       1 NON        -0.3944
     67 N         -65.1730  -42.9800   29.3020 N.am      1 NON        -0.2616
     68 CA        -65.1500  -44.2340   30.0980 C.3       1 NON         0.1538
     69 C         -66.5200  -44.5660   30.6580 C.2       1 NON         0.2039
     70 O         -67.0430  -43.8630   31.5230 O.2       1 NON        -0.3945
     71 CB        -64.2000  -44.1260   31.2580 C.3       1 NON         0.0843
     72 OG        -64.6140  -43.0340   32.0370 O.3       1 NON        -0.3903
     73 H1        -71.5401  -36.2821   20.7015 H         1 NON         0.2016
     74 H2        -70.5925  -35.2224   19.8718 H         1 NON         0.2016
     75 H3        -70.0844  -36.7702   20.1082 H         1 NON         0.2016
     76 H4        -72.3722  -35.8863   18.4883 H         1 NON         0.1122
     77 H5        -72.7047  -38.2089   17.7842 H         1 NON         0.0640
     78 H6        -72.9261  -38.0049   19.5550 H         1 NON         0.0640
     79 H7        -71.6786  -39.8547   19.0131 H         1 NON         0.2099
     80 H8        -69.2448  -37.6395   18.3699 H         1 NON         0.1884
     81 H9        -68.8852  -36.4918   15.6394 H         1 NON         0.0800
     82 H10       -66.4223  -36.5592   16.0812 H         1 NON         0.0312
     83 H11       -66.7895  -36.9957   17.7845 H         1 NON         0.0312
     84 H12       -66.3797  -34.6651   17.8610 H         1 NON         0.0269
     85 H13       -68.1713  -34.7946   17.8653 H         1 NON         0.0269
     86 H14       -67.2347  -34.5815   15.1351 H         1 NON         0.0317
     87 H15       -66.4938  -33.2754   16.1210 H         1 NON         0.0317
     88 H16       -69.4153  -33.6737   16.5517 H         1 NON         0.0813
     89 H17       -68.9545  -33.1259   14.9042 H         1 NON         0.0813
     90 H18       -69.3414  -31.2860   16.3870 H         1 NON         0.1994
     91 H19       -67.7623  -31.3105   15.9231 H         1 NON         0.1994
     92 H20       -68.1845  -31.8124   17.4329 H         1 NON         0.1994
     93 H21       -69.6172  -39.2379   17.1614 H         1 NON         0.1881
     94 H22       -69.0387  -40.8860   14.8574 H         1 NON         0.0763
     95 H23       -69.9265  -41.3603   16.3452 H         1 NON         0.0763
     96 H24       -67.4942  -40.6923   18.0490 H         1 NON         0.1883
     97 H25       -65.3116  -42.2257   16.7025 H         1 NON         0.0800
     98 H26       -64.9598  -40.2705   18.9894 H         1 NON         0.0313
     99 H27       -65.4667  -39.6221   17.3927 H         1 NON         0.0313
    100 H28       -63.3625  -39.5945   16.7341 H         1 NON         0.0303
    101 H29       -63.2816  -41.3782   16.9301 H         1 NON         0.0303
    102 H30       -61.4184  -40.2311   18.0332 H         1 NON         0.0767
    103 H31       -62.4496  -41.1304   19.1971 H         1 NON         0.0767
    104 H32       -60.5491  -39.1154   19.8403 H         1 NON         0.2097
    105 H33       -65.8280  -44.2724   17.6782 H         1 NON         0.1884
    106 H34       -65.1813  -45.9298   19.1426 H         1 NON         0.0823
    107 H35       -64.0224  -45.2092   21.3683 H         1 NON         0.0606
    108 H36       -63.8975  -43.6039   20.5718 H         1 NON         0.0606
    109 H37       -62.0871  -44.9675   20.1332 H         1 NON         0.2097
    110 H38       -65.2473  -44.8448   22.2191 H         1 NON         0.1884
    111 H39       -66.8074  -44.5169   23.8643 H         1 NON         0.0823
    112 H40       -67.5884  -47.0478   22.4504 H         1 NON         0.0606
    113 H41       -68.6571  -46.4249   23.7530 H         1 NON         0.0606
    114 H42       -66.9988  -47.8175   24.5408 H         1 NON         0.2097
    115 H43       -67.4269  -42.4721   22.2713 H         1 NON         0.1881
    116 H44       -70.3843  -42.2732   22.5056 H         1 NON         0.0763
    117 H45       -69.2475  -40.9390   22.1128 H         1 NON         0.0763
    118 H46       -68.7268  -43.2980   24.7186 H         1 NON         0.1883
    119 H47       -69.6615  -41.3090   26.6772 H         1 NON         0.0800
    120 H48       -70.0504  -44.0866   26.4016 H         1 NON         0.0312
    121 H49       -70.5871  -43.0217   27.7450 H         1 NON         0.0312
    122 H50       -68.1540  -43.3694   28.6242 H         1 NON         0.0268
    123 H51       -68.1706  -44.8019   27.5405 H         1 NON         0.0268
    124 H52       -69.9549  -45.7696   28.6653 H         1 NON         0.0285
    125 H53       -70.3594  -44.2391   29.5143 H         1 NON         0.0285
    126 H54       -68.9534  -46.2975   30.6283 H         1 NON         0.0520
    127 H55       -68.8184  -44.5811   31.1405 H         1 NON         0.0520
    128 H56       -66.8711  -45.8531   29.2213 H         1 NON         0.1851
    129 H57       -66.5663  -42.3945   25.6139 H         1 NON         0.1883
    130 H58       -65.3351  -40.9256   27.8588 H         1 NON         0.0800
    131 H59       -64.0296  -42.2936   25.4759 H         1 NON         0.0313
    132 H60       -63.2180  -41.2317   26.6761 H         1 NON         0.0313
    133 H61       -64.8616  -39.3820   25.8441 H         1 NON         0.0303
    134 H62       -65.1442  -40.4703   24.4433 H         1 NON         0.0303
    135 H63       -62.6072  -40.6312   24.2123 H         1 NON         0.0767
    136 H64       -62.4960  -39.3064   25.4202 H         1 NON         0.0767
    137 H65       -62.3533  -37.4090   24.7599 H         1 NON         0.2097
    138 H66       -65.4117  -42.1162   29.7457 H         1 NON         0.1884
    139 H67       -64.8234  -45.0536   29.4410 H         1 NON         0.0823
    140 H68       -63.1761  -43.9603   30.8918 H         1 NON         0.0606
    141 H69       -64.2305  -45.0483   31.8566 H         1 NON         0.0606
    142 H70       -65.5004  -43.1836   32.3443 H         1 NON         0.2097
@<TRIPOS>BOND
     1    1    2 1  
     2    2    3 1  
     3    2    5 1  
     4    3    4 2  
     5    3    7 am 
     6    5    6 1  
     7    7    8 1  
     8    8    9 1  
     9    8   11 1  
    10    9   10 2  
    11    9   16 am 
    12   11   12 1  
    13   12   13 1  
    14   13   14 1  
    15   14   15 1  
    16   16   17 1  
    17   17   18 1  
    18   18   19 2  
    19   18   20 am 
    20   20   21 1  
    21   21   22 1  
    22   21   29 1  
    23   22   23 1  
    24   23   24 1  
    25   24   25 1  
    26   25   26 2  
    27   25   27 1  
    28   27   28 2  
    29   29   30 2  
    30   29   31 am 
    31   31   32 1  
    32   32   33 1  
    33   32   35 1  
    34   33   34 2  
    35   33   37 am 
    36   35   36 1  
    37   37   38 1  
    38   38   39 1  
    39   38   41 1  
    40   39   40 2  
    41   39   43 am 
    42   41   42 1  
    43   43   44 1  
    44   44   45 1  
    45   45   46 2  
    46   45   47 am 
    47   47   48 1  
    48   48   49 1  
    49   48   51 1  
    50   49   50 2  
    51   49   56 am 
    52   51   52 1  
    53   52   53 1  
    54   53   54 1  
    55   54   55 1  
    56   55   69 am 
    57   56   57 1  
    58   57   58 1  
    59   57   65 1  
    60   58   59 1  
    61   59   60 1  
    62   60   61 1  
    63   61   62 2  
    64   61   63 1  
    65   63   64 2  
    66   65   66 2  
    67   65   67 am 
    68   67   68 1  
    69   68   69 1  
    70   68   71 1  
    71   69   70 2  
    72   71   72 1  
    73    1   73 1  
    74    1   74 1  
    75    1   75 1  
    76    2   76 1  
    77    5   77 1  
    78    5   78 1  
    79    6   79 1  
    80    7   80 1  
    81    8   81 1  
    82   11   82 1  
    83   11   83 1  
    84   12   84 1  
    85   12   85 1  
    86   13   86 1  
    87   13   87 1  
    88   14   88 1  
    89   14   89 1  
    90   15   90 1  
    91   15   91 1  
    92   15   92 1  
    93   16   93 1  
    94   17   94 1  
    95   17   95 1  
    96   20   96 1  
    97   21   97 1  
    98   22   98 1  
    99   22   99 1  
   100   23  100 1  
   101   23  101 1  
   102   24  102 1  
   103   24  103 1  
   104   27  104 1  
   105   31  105 1  
   106   32  106 1  
   107   35  107 1  
   108   35  108 1  
   109   36  109 1  
   110   37  110 1  
   111   38  111 1  
   112   41  112 1  
   113   41  113 1  
   114   42  114 1  
   115   43  115 1  
   116   44  116 1  
   117   44  117 1  
   118   47  118 1  
   119   48  119 1  
   120   51  120 1  
   121   51  121 1  
   122   52  122 1  
   123   52  123 1  
   124   53  124 1  
   125   53  125 1  
   126   54  126 1  
   127   54  127 1  
   128   55  128 1  
   129   56  129 1  
   130   57  130 1  
   131   58  131 1  
   132   58  132 1  
   133   59  133 1  
   134   59  134 1  
   135   60  135 1  
   136   60  136 1  
   137   63  137 1  
   138   67  138 1  
   139   68  139 1  
   140   71  140 1  
   141   71  141 1  
   142   72  142 1  
@<TRIPOS>SUBSTRUCTURE
     1 NON         1

