3jrx_ligand
  -I-interpret- 

 81 83  0  0  0  0  0  0  0  0999 V2000
  -44.2290   25.2330  -16.0730 C   0  0  0  0  0
  -43.0360   25.4650  -17.0210 C   0  0  0  0  0
  -43.0030   24.3820  -18.1640 C   0  0  0  0  0
  -41.7590   24.5840  -19.1540 C   0  0  0  0  0
  -41.9300   23.7530  -20.5000 C   0  0  0  0  0
  -43.3720   23.8570  -21.0900 C   0  0  0  0  0
  -44.4530   23.5540  -19.9770 C   0  0  0  0  0
  -45.9070   23.7030  -20.5330 C   0  0  0  0  0
  -46.9490   23.3900  -19.3810 C   0  0  0  0  0
  -47.2590   22.0820  -18.9900 C   0  0  0  0  0
  -48.2920   21.7990  -17.8550 C   0  0  0  0  0
  -47.9140   20.5050  -17.0590 C   0  0  0  0  0
  -46.5260   20.6350  -16.3780 C   0  0  0  0  0
  -46.4040   21.7570  -15.3570 C   0  0  0  0  0
  -45.1070   21.6290  -14.6050 C   0  0  0  0  0
  -44.9050   22.6990  -13.5500 C   0  0  0  0  0
  -44.9800   24.1660  -14.0080 C   0  0  0  0  0
  -41.7310   25.4840  -16.2010 C   0  0  0  0  0
  -40.1980   26.3900  -19.4450 C   0  0  0  0  0
  -43.5590   25.2460  -21.7550 C   0  0  0  0  0
  -46.1710   22.7650  -21.7270 C   0  0  0  0  0
  -50.5980   22.3730  -17.7070 C   0  0  0  0  0
  -47.9660   18.1030  -17.2720 C   0  0  0  0  0
  -44.6950   24.9940  -12.7240 C   0  0  0  0  0
  -43.3360   25.0970  -12.2360 C   0  0  0  0  0
  -43.0540   25.8000  -11.0500 C   0  0  0  0  0
  -44.1070   26.4110  -10.3270 C   0  0  0  0  0
  -45.4540   26.3180  -10.7970 C   0  0  0  0  0
  -45.7440   25.6080  -12.0010 C   0  0  0  0  0
  -45.3970   25.6870  -16.1590 O   0  0  0  0  0
  -42.8940   23.0670  -17.5630 O   0  0  0  0  0
  -41.6040   25.9910  -19.4730 O   0  0  0  0  0
  -41.6270   22.3800  -20.2420 O   0  0  0  0  0
  -44.2830   24.4680  -18.8540 O   0  0  0  0  0
  -49.5960   21.6190  -18.4420 O   0  0  0  0  0
  -47.9080   19.3820  -17.9830 O   0  0  0  0  0
  -43.9250   24.4360  -15.0020 O   0  0  0  0  0
  -43.1455   26.4310  -17.5138 H   0  0  0  0  0
  -40.8701   24.2163  -18.6413 H   0  0  0  0  0
  -41.2449   24.1744  -21.2356 H   0  0  0  0  0
  -43.5131   23.1023  -21.8637 H   0  0  0  0  0
  -44.3072   22.5242  -19.6510 H   0  0  0  0  0
  -46.0218   24.7288  -20.8833 H   0  0  0  0  0
  -47.4410   24.2212  -18.8759 H   0  0  0  0  0
  -46.7694   21.2451  -19.4879 H   0  0  0  0  0
  -48.2905   22.6447  -17.1674 H   0  0  0  0  0
  -48.6498   20.3504  -16.2699 H   0  0  0  0  0
  -45.8097   20.8546  -17.1697 H   0  0  0  0  0
  -46.3546   19.7031  -15.8392 H   0  0  0  0  0
  -47.2343   21.6939  -14.6536 H   0  0  0  0  0
  -46.4259   22.7164  -15.8739 H   0  0  0  0  0
  -44.2991   21.7297  -15.3298 H   0  0  0  0  0
  -45.1206   20.6663  -14.0940 H   0  0  0  0  0
  -43.8903   22.5580  -13.1777 H   0  0  0  0  0
  -45.7214   22.5700  -12.8393 H   0  0  0  0  0
  -45.9404   24.4068  -14.4637 H   0  0  0  0  0
  -41.5788   24.5081  -15.7400 H   0  0  0  0  0
  -40.8927   25.7108  -16.8598 H   0  0  0  0  0
  -41.8018   26.2465  -15.4254 H   0  0  0  0  0
  -39.7910   26.2126  -18.4495 H   0  0  0  0  0
  -39.6409   25.8045  -20.1763 H   0  0  0  0  0
  -40.1174   27.4494  -19.6883 H   0  0  0  0  0
  -44.5412   25.2930  -22.2252 H   0  0  0  0  0
  -43.4805   26.0243  -20.9960 H   0  0  0  0  0
  -42.7862   25.3932  -22.5094 H   0  0  0  0  0
  -45.4739   22.9984  -22.5318 H   0  0  0  0  0
  -46.0318   21.7307  -21.4125 H   0  0  0  0  0
  -47.1934   22.9049  -22.0782 H   0  0  0  0  0
  -50.6251   22.0275  -16.6736 H   0  0  0  0  0
  -50.3432   23.4325  -17.7306 H   0  0  0  0  0
  -51.5744   22.2224  -18.1676 H   0  0  0  0  0
  -47.1011   18.0147  -16.6145 H   0  0  0  0  0
  -48.8801   18.0590  -16.6799 H   0  0  0  0  0
  -47.9598   17.2867  -17.9942 H   0  0  0  0  0
  -42.5248   24.6264  -12.7915 H   0  0  0  0  0
  -42.0282   25.8739  -10.6891 H   0  0  0  0  0
  -43.8896   26.9548   -9.4077 H   0  0  0  0  0
  -46.2604   26.7897  -10.2354 H   0  0  0  0  0
  -46.7703   25.5393  -12.3618 H   0  0  0  0  0
  -42.0541   22.9949  -17.1037 H   0  0  0  0  0
  -40.7409   22.3118  -19.8790 H   0  0  0  0  0
  1  2  1  0  0  0
  1 30  2  0  0  0
  1 37  1  0  0  0
  2  3  1  0  0  0
  2 18  1  0  0  0
  3  4  1  0  0  0
  3 31  1  0  0  0
  3 34  1  0  0  0
  4  5  1  0  0  0
  4 32  1  0  0  0
  5  6  1  0  0  0
  5 33  1  0  0  0
  6  7  1  0  0  0
  6 20  1  0  0  0
  7  8  1  0  0  0
  7 34  1  0  0  0
  8  9  1  0  0  0
  8 21  1  0  0  0
  9 10  2  0  0  0
 10 11  1  0  0  0
 11 12  1  0  0  0
 11 35  1  0  0  0
 12 13  1  0  0  0
 12 36  1  0  0  0
 13 14  1  0  0  0
 14 15  1  0  0  0
 15 16  1  0  0  0
 16 17  1  0  0  0
 17 24  1  0  0  0
 17 37  1  0  0  0
 32 19  1  0  0  0
 35 22  1  0  0  0
 36 23  1  0  0  0
 24 25  4  0  0  0
 24 29  4  0  0  0
 25 26  4  0  0  0
 26 27  4  0  0  0
 27 28  4  0  0  0
 28 29  4  0  0  0
  2 38  1  0  0  0
  4 39  1  0  0  0
  5 40  1  0  0  0
  6 41  1  0  0  0
  7 42  1  0  0  0
  8 43  1  0  0  0
  9 44  1  0  0  0
 10 45  1  0  0  0
 11 46  1  0  0  0
 12 47  1  0  0  0
 13 48  1  0  0  0
 13 49  1  0  0  0
 14 50  1  0  0  0
 14 51  1  0  0  0
 15 52  1  0  0  0
 15 53  1  0  0  0
 16 54  1  0  0  0
 16 55  1  0  0  0
 17 56  1  0  0  0
 18 57  1  0  0  0
 18 58  1  0  0  0
 18 59  1  0  0  0
 19 60  1  0  0  0
 19 61  1  0  0  0
 19 62  1  0  0  0
 20 63  1  0  0  0
 20 64  1  0  0  0
 20 65  1  0  0  0
 21 66  1  0  0  0
 21 67  1  0  0  0
 21 68  1  0  0  0
 22 69  1  0  0  0
 22 70  1  0  0  0
 22 71  1  0  0  0
 23 72  1  0  0  0
 23 73  1  0  0  0
 23 74  1  0  0  0
 25 75  1  0  0  0
 26 76  1  0  0  0
 27 77  1  0  0  0
 28 78  1  0  0  0
 29 79  1  0  0  0
 31 80  1  0  0  0
 33 81  1  0  0  0
M  END
$$$$
