2ycf_ligand
  -I-interpret- 

 56 57  0  0  0  0  0  0  0  0999 V2000
   46.7270   22.9070  -12.1180 N   0  0  0  0  0
   47.3660   23.2680  -14.2880 N   0  0  0  0  0
   47.2310   21.1070  -13.5160 N   0  0  0  0  0
   46.9940   20.3110  -12.6010 N   0  0  0  0  0
   45.9050   16.3120   -7.9750 N   0  0  0  0  0
   45.8540   14.9470   -6.1840 N   0  0  0  0  0
   46.8190   12.1420   -0.5790 N   0  0  0  0  0
   47.0560   11.5380    0.4830 N   0  0  0  0  0
   45.9740   13.2180    1.6260 N   0  0  0  0  0
   46.8500   11.4740    2.8180 N   0  0  0  0  0
   47.1110   22.4230  -13.3010 C   0  0  0  0  0
   47.0690   18.9820  -12.7220 C   0  0  0  0  0
   47.5420   18.3330  -14.0280 C   0  0  0  0  0
   46.7960   18.2410  -11.5650 C   0  0  0  0  0
   46.0110   18.8340  -10.5680 C   0  0  0  0  0
   45.7340   18.1680   -9.3780 C   0  0  0  0  0
   46.2350   16.8830   -9.1600 C   0  0  0  0  0
   47.0280   16.2890  -10.1510 C   0  0  0  0  0
   47.3190   16.9690  -11.3500 C   0  0  0  0  0
   46.4870   15.2830   -7.3270 C   0  0  0  0  0
   46.2410   14.1060   -5.1900 C   0  0  0  0  0
   45.4700   14.1360   -4.0170 C   0  0  0  0  0
   45.7780   13.3420   -2.9150 C   0  0  0  0  0
   46.8970   12.5000   -2.9360 C   0  0  0  0  0
   47.6910   12.4740   -4.1020 C   0  0  0  0  0
   47.3700   13.2740   -5.2140 C   0  0  0  0  0
   47.2040   11.7190   -1.8050 C   0  0  0  0  0
   48.0540   10.4470   -1.9400 C   0  0  0  0  0
   46.6480   12.0810    1.6420 C   0  0  0  0  0
   47.4500   14.6570   -7.7720 O   0  0  0  0  0
   47.2400   24.6030  -14.0670 O   0  0  0  0  0
   45.5150   13.7630    2.7930 O   0  0  0  0  0
   46.5166   22.2695  -11.3501 H   0  0  0  0  0
   47.6535   22.9212  -15.2031 H   0  0  0  0  0
   45.0977   16.7213   -7.5048 H   0  0  0  0  0
   44.9469   15.3922   -6.0451 H   0  0  0  0  0
   45.7957   13.6905    0.7398 H   0  0  0  0  0
   47.3261   10.5725    2.8515 H   0  0  0  0  0
   46.4173   18.5058  -13.4545 H   0  0  0  0  0
   48.4828   17.8111  -13.8530 H   0  0  0  0  0
   46.7900   17.6233  -14.3727 H   0  0  0  0  0
   47.6883   19.1049  -14.7836 H   0  0  0  0  0
   45.6100   19.8350  -10.7271 H   0  0  0  0  0
   45.1244   18.6506   -8.6141 H   0  0  0  0  0
   47.4253   15.2865   -9.9919 H   0  0  0  0  0
   47.9505   16.5015  -12.1055 H   0  0  0  0  0
   44.6064   14.7992   -3.9674 H   0  0  0  0  0
   45.1434   13.3761   -2.0295 H   0  0  0  0  0
   48.5657   11.8248   -4.1419 H   0  0  0  0  0
   48.0034   13.2470   -6.1007 H   0  0  0  0  0
   46.3624   11.0739   -2.0571 H   0  0  0  0  0
   48.9900   10.5777   -1.3969 H   0  0  0  0  0
   47.5070    9.6003   -1.5254 H   0  0  0  0  0
   48.2662   10.2635   -2.9933 H   0  0  0  0  0
   47.4571   25.0811  -14.8706 H   0  0  0  0  0
   45.0507   14.5812    2.6019 H   0  0  0  0  0
 11  1  2  0  0  0
 11  2  1  0  0  0
  2 31  1  0  0  0
  4  3  2  0  0  0
  3 11  4  0  0  0
 12  4  1  0  0  0
  5 17  1  0  0  0
 20  5  1  0  0  0
  6 20  1  0  0  0
 21  6  1  0  0  0
  7  8  2  0  0  0
 27  7  1  0  0  0
  8 29  4  0  0  0
 29  9  1  0  0  0
  9 32  1  0  0  0
 29 10  2  0  0  0
 12 13  1  0  0  0
 14 12  1  0  0  0
 15 14  4  0  0  0
 19 14  4  0  0  0
 16 15  4  0  0  0
 17 16  4  0  0  0
 17 18  4  0  0  0
 18 19  4  0  0  0
 20 30  2  0  0  0
 22 21  4  0  0  0
 21 26  4  0  0  0
 23 22  4  0  0  0
 24 23  4  0  0  0
 24 25  4  0  0  0
 24 27  1  0  0  0
 25 26  4  0  0  0
 27 28  1  0  0  0
  1 33  1  0  0  0
  2 34  1  0  0  0
  5 35  1  0  0  0
  6 36  1  0  0  0
  9 37  1  0  0  0
 10 38  1  0  0  0
 12 39  1  0  0  0
 13 40  1  0  0  0
 13 41  1  0  0  0
 13 42  1  0  0  0
 15 43  1  0  0  0
 16 44  1  0  0  0
 18 45  1  0  0  0
 19 46  1  0  0  0
 22 47  1  0  0  0
 23 48  1  0  0  0
 25 49  1  0  0  0
 26 50  1  0  0  0
 27 51  1  0  0  0
 28 52  1  0  0  0
 28 53  1  0  0  0
 28 54  1  0  0  0
 31 55  1  0  0  0
 32 56  1  0  0  0
M  END
$$$$
