5q0q_ligand
  -I-interpret- 

 61 65  0  0  0  0  0  0  0  0999 V2000
  -28.9080   -4.0370  -13.0910 N   0  0  0  0  0
  -31.4290   -3.5180  -13.1460 C   0  0  0  0  0
  -28.4870   -4.2980  -15.1800 C   0  0  0  0  0
  -30.7400   -3.9250  -16.3260 C   0  0  0  0  0
  -35.6300   -0.7550   -8.6620 C   0  0  0  0  0
  -28.5290   -3.9970  -11.6500 C   0  0  0  0  0
  -34.5280   -1.2540   -9.5330 C   0  0  0  0  0
  -32.8900   -5.3620  -18.9350 C   0  0  0  0  0
  -32.3070   -7.4390  -19.7710 C   0  0  0  0  0
  -33.2950   -6.6840  -19.2640 C   0  0  0  0  0
  -33.2220   -0.7620   -9.4260 C   0  0  0  0  0
  -35.2280    0.5280   -5.2480 C   0  0  0  0  0
  -35.7820   -0.3970   -6.2550 C   0  0  0  0  0
  -35.1710   -0.0700   -7.5990 O   0  0  0  0  0
  -36.8030   -0.9400   -8.8770 O   0  0  0  0  0
  -32.2120   -1.2410  -10.2430 C   0  0  0  0  0
  -32.4850   -2.2190  -11.1940 C   0  0  0  0  0
  -31.3870   -2.7190  -12.0460 N   0  0  0  0  0
  -32.4680   -3.9600  -13.6320 O   0  0  0  0  0
  -30.1230   -3.8360  -13.7530 C   0  0  0  0  0
  -29.8660   -4.0060  -15.1150 C   0  0  0  0  0
  -29.9060   -3.8970  -17.5610 N   0  0  0  0  0
  -28.8060   -4.8990  -17.5440 C   0  0  0  0  0
  -27.7820   -4.5490  -16.4730 C   0  0  0  0  0
  -27.9040   -4.3210  -14.0110 N   0  0  0  0  0
  -29.4450   -4.3640  -10.6650 C   0  0  0  0  0
  -29.0720   -4.3210   -9.3260 C   0  0  0  0  0
  -27.7990   -3.9230   -8.9630 C   0  0  0  0  0
  -26.8840   -3.5630   -9.9370 C   0  0  0  0  0
  -27.2380   -3.5970  -11.2810 C   0  0  0  0  0
  -30.6940   -3.7070  -18.9650 S   0  0  0  0  0
  -31.6420   -2.6530  -18.7830 O   0  0  0  0  0
  -29.7060   -3.5900  -19.9890 O   0  0  0  0  0
  -31.5650   -5.1830  -19.2260 C   0  0  0  0  0
  -30.8330   -6.5900  -19.8790 S   0  0  0  0  0
  -33.7830   -2.7180  -11.3030 C   0  0  0  0  0
  -34.7900   -2.2370  -10.4840 C   0  0  0  0  0
  -31.3352   -3.0132  -16.2764 H   0  0  0  0  0
  -31.3917   -4.7983  -16.3550 H   0  0  0  0  0
  -33.5425   -4.5988  -18.5109 H   0  0  0  0  0
  -32.4333   -8.4770  -20.0786 H   0  0  0  0  0
  -34.3112   -7.0503  -19.1186 H   0  0  0  0  0
  -32.9969    0.0090   -8.6892 H   0  0  0  0  0
  -34.1455    0.4082   -5.2030 H   0  0  0  0  0
  -35.4701    1.5536   -5.5265 H   0  0  0  0  0
  -35.6605    0.3032   -4.2731 H   0  0  0  0  0
  -36.8654   -0.2871   -6.3034 H   0  0  0  0  0
  -35.5484   -1.4260   -5.9818 H   0  0  0  0  0
  -31.1995   -0.8505  -10.1407 H   0  0  0  0  0
  -30.4531   -2.4188  -11.7664 H   0  0  0  0  0
  -28.3142   -4.9013  -18.5167 H   0  0  0  0  0
  -29.2251   -5.8812  -17.3255 H   0  0  0  0  0
  -27.0822   -5.3760  -16.3528 H   0  0  0  0  0
  -27.2343   -3.6546  -16.7699 H   0  0  0  0  0
  -30.4493   -4.6833  -10.9433 H   0  0  0  0  0
  -29.7898   -4.6036   -8.5559 H   0  0  0  0  0
  -27.5161   -3.8927   -7.9108 H   0  0  0  0  0
  -25.8802   -3.2511   -9.6487 H   0  0  0  0  0
  -26.5139   -3.3135  -12.0448 H   0  0  0  0  0
  -34.0058   -3.4917  -12.0378 H   0  0  0  0  0
  -35.8007   -2.6326  -10.5847 H   0  0  0  0  0
  1  6  1  0  0  0
 20  1  4  0  0  0
 25  1  4  0  0  0
  2 18  1  0  0  0
  2 19  2  0  0  0
 20  2  1  0  0  0
 21  3  4  0  0  0
 24  3  1  0  0  0
  3 25  4  0  0  0
  4 21  1  0  0  0
 22  4  1  0  0  0
  7  5  1  0  0  0
  5 14  1  0  0  0
  5 15  2  0  0  0
  6 26  4  0  0  0
  6 30  4  0  0  0
 11  7  4  0  0  0
  7 37  4  0  0  0
  8 10  4  0  0  0
 34  8  4  0  0  0
 10  9  4  0  0  0
  9 35  4  0  0  0
 16 11  4  0  0  0
 13 12  1  0  0  0
 14 13  1  0  0  0
 17 16  4  0  0  0
 18 17  1  0  0  0
 17 36  4  0  0  0
 21 20  4  0  0  0
 22 23  1  0  0  0
 31 22  1  0  0  0
 23 24  1  0  0  0
 26 27  4  0  0  0
 27 28  4  0  0  0
 29 28  4  0  0  0
 30 29  4  0  0  0
 31 32  2  0  0  0
 31 33  2  0  0  0
 31 34  1  0  0  0
 34 35  4  0  0  0
 36 37  4  0  0  0
  4 38  1  0  0  0
  4 39  1  0  0  0
  8 40  1  0  0  0
  9 41  1  0  0  0
 10 42  1  0  0  0
 11 43  1  0  0  0
 12 44  1  0  0  0
 12 45  1  0  0  0
 12 46  1  0  0  0
 13 47  1  0  0  0
 13 48  1  0  0  0
 16 49  1  0  0  0
 18 50  1  0  0  0
 23 51  1  0  0  0
 23 52  1  0  0  0
 24 53  1  0  0  0
 24 54  1  0  0  0
 26 55  1  0  0  0
 27 56  1  0  0  0
 28 57  1  0  0  0
 29 58  1  0  0  0
 30 59  1  0  0  0
 36 60  1  0  0  0
 37 61  1  0  0  0
M  END
$$$$
