4bnu_ligand
  -I-interpret- 

 32 35  0  0  0  0  0  0  0  0999 V2000
   -7.6830   -1.9570   39.9740 N   0  0  0  0  0
   -8.8770   -1.3620   40.1590 C   0  0  0  0  0
   -9.0450   -0.0370   39.8710 N   0  0  0  0  0
   -8.0030    0.6860   39.3690 C   0  0  0  0  0
   -6.7650    0.0970   39.1790 C   0  0  0  0  0
   -6.5880   -1.2770   39.4760 C   0  0  0  0  0
   -8.1870    2.0380   39.1030 C   0  0  0  0  0
   -7.1740    2.8230   38.6000 C   0  0  0  0  0
   -5.9400    2.2380   38.3910 C   0  0  0  0  0
   -5.7560    0.9020   38.6740 C   0  0  0  0  0
   -9.7870   -3.3920   41.1510 C   0  0  0  0  0
  -10.8860   -4.0790   41.6650 C   0  0  0  0  0
  -12.1250   -3.4940   41.6990 C   0  0  0  0  0
  -12.2840   -2.1980   41.2380 C   0  0  0  0  0
  -11.2020   -1.5090   40.7380 C   0  0  0  0  0
   -9.9540   -2.0970   40.6730 C   0  0  0  0  0
   -4.1190   -1.7250   38.9760 C   0  0  0  0  0
   -5.4120   -1.9700   39.3100 N   0  0  0  0  0
   -5.3950   -3.3090   39.5590 C   0  0  0  0  0
   -4.1710   -3.8390   39.3850 N   0  0  0  0  0
   -3.4260   -2.9020   39.0400 N   0  0  0  0  0
   -9.1600    2.4890   39.2980 H   0  0  0  0  0
   -7.3408    3.8760   38.3731 H   0  0  0  0  0
   -5.1130    2.8325   38.0027 H   0  0  0  0  0
   -4.7762    0.4599   38.4932 H   0  0  0  0  0
   -8.8057   -3.8658   41.1241 H   0  0  0  0  0
  -10.7584   -5.0929   42.0441 H   0  0  0  0  0
  -12.9809   -4.0462   42.0870 H   0  0  0  0  0
  -13.2649   -1.7238   41.2709 H   0  0  0  0  0
  -11.3322   -0.4848   40.3884 H   0  0  0  0  0
   -3.7039   -0.7548   38.7032 H   0  0  0  0  0
   -6.2700   -3.8833   39.8634 H   0  0  0  0  0
  2  1  4  0  0  0
  1  6  4  0  0  0
  2  3  4  0  0  0
 16  2  1  0  0  0
  3  4  4  0  0  0
  4  5  4  0  0  0
  4  7  4  0  0  0
  6  5  4  0  0  0
  5 10  4  0  0  0
  6 18  1  0  0  0
  7  8  4  0  0  0
  8  9  4  0  0  0
 10  9  4  0  0  0
 11 12  4  0  0  0
 11 16  4  0  0  0
 12 13  4  0  0  0
 13 14  4  0  0  0
 14 15  4  0  0  0
 15 16  4  0  0  0
 18 17  4  0  0  0
 17 21  4  0  0  0
 18 19  4  0  0  0
 19 20  4  0  0  0
 20 21  4  0  0  0
  7 22  1  0  0  0
  8 23  1  0  0  0
  9 24  1  0  0  0
 10 25  1  0  0  0
 11 26  1  0  0  0
 12 27  1  0  0  0
 13 28  1  0  0  0
 14 29  1  0  0  0
 15 30  1  0  0  0
 17 31  1  0  0  0
 19 32  1  0  0  0
M  END
$$$$
