2ydj_ligand
  -I-interpret- 

 45 47  0  0  0  0  0  0  0  0999 V2000
    9.2180   -1.2330   46.6090 C   0  0  0  0  0
    7.9690   -1.2940   46.0070 C   0  0  0  0  0
    7.2630   -2.4770   45.9420 C   0  0  0  0  0
    7.8150   -3.6100   46.5010 C   0  0  0  0  0
    9.0580   -3.5510   47.0900 C   0  0  0  0  0
    9.7740   -2.3710   47.1510 C   0  0  0  0  0
    9.5570   -4.6800   47.6230 F   0  0  0  0  0
    5.9730   -2.5440   45.2730 C   0  0  0  0  0
    5.4240   -1.7070   44.3220 C   0  0  0  0  0
    4.1240   -2.0850   43.9010 C   0  0  0  0  0
    3.6650   -3.2280   44.5210 C   0  0  0  0  0
    4.8540   -3.8030   45.6210 S   0  0  0  0  0
    2.3830   -3.8490   44.2870 C   0  0  0  0  0
    1.5590   -3.3440   43.5240 O   0  0  0  0  0
    2.1110   -5.0300   44.9490 N   0  0  0  0  0
    0.7140   -5.4280   44.9620 C   0  0  0  0  0
    0.5650   -6.9220   44.7110 C   0  0  0  0  0
   -0.8490   -7.4230   44.9750 C   0  0  0  0  0
   -1.2520   -7.1160   46.4030 C   0  0  0  0  0
   -1.2310   -5.6220   46.4710 N   0  3  0  0  0
    0.1070   -4.9850   46.2820 C   0  0  0  0  0
    3.3350   -1.4360   42.9570 N   0  0  0  0  0
    3.5890   -0.1590   42.5230 C   0  0  0  0  0
    4.6340    0.4540   42.7080 O   0  0  0  0  0
    2.5050    0.3420   41.8320 N   0  0  0  0  0
    9.7577   -0.2870   46.6529 H   0  0  0  0  0
    7.5378   -0.3898   45.5774 H   0  0  0  0  0
    7.2675   -4.5522   46.4766 H   0  0  0  0  0
   10.7583   -2.3410   47.6182 H   0  0  0  0  0
    5.9440   -0.8330   43.9297 H   0  0  0  0  0
    2.8403   -5.5843   45.3976 H   0  0  0  0  0
    0.1721   -4.9426   44.1504 H   0  0  0  0  0
    1.2381   -7.4448   45.3905 H   0  0  0  0  0
    0.7971   -7.1105   43.6628 H   0  0  0  0  0
   -0.8817   -8.5011   44.8180 H   0  0  0  0  0
   -1.5383   -6.9242   44.2937 H   0  0  0  0  0
   -0.5797   -7.5724   47.1295 H   0  0  0  0  0
   -2.2296   -7.5275   46.6542 H   0  0  0  0  0
   -1.5410   -5.3707   47.4097 H   0  0  0  0  0
   -1.8202   -5.2893   45.7077 H   0  0  0  0  0
   -0.0103   -3.9013   46.2761 H   0  0  0  0  0
    0.7649   -5.2860   47.0973 H   0  0  0  0  0
    2.5317   -1.9313   42.5700 H   0  0  0  0  0
    2.5424    1.2812   41.4359 H   0  0  0  0  0
    1.6662   -0.2268   41.7172 H   0  0  0  0  0
  1  2  4  0  0  0
  1  6  4  0  0  0
  2  3  4  0  0  0
  3  4  4  0  0  0
  3  8  1  0  0  0
  4  5  4  0  0  0
  5  6  4  0  0  0
  5  7  1  0  0  0
  8  9  4  0  0  0
  8 12  4  0  0  0
  9 10  4  0  0  0
 10 11  4  0  0  0
 10 22  1  0  0  0
 11 12  4  0  0  0
 11 13  1  0  0  0
 13 14  2  0  0  0
 13 15  1  0  0  0
 15 16  1  0  0  0
 16 17  1  0  0  0
 16 21  1  0  0  0
 17 18  1  0  0  0
 18 19  1  0  0  0
 19 20  1  0  0  0
 20 21  1  0  0  0
 22 23  1  0  0  0
 23 24  2  0  0  0
 23 25  1  0  0  0
  1 26  1  0  0  0
  2 27  1  0  0  0
  4 28  1  0  0  0
  6 29  1  0  0  0
  9 30  1  0  0  0
 15 31  1  0  0  0
 16 32  1  0  0  0
 17 33  1  0  0  0
 17 34  1  0  0  0
 18 35  1  0  0  0
 18 36  1  0  0  0
 19 37  1  0  0  0
 19 38  1  0  0  0
 20 39  1  0  0  0
 20 40  1  0  0  0
 21 41  1  0  0  0
 21 42  1  0  0  0
 22 43  1  0  0  0
 25 44  1  0  0  0
 25 45  1  0  0  0
M  END
$$$$
