5lgn_ligand
  -I-interpret- 

 37 39  0  0  0  0  0  0  0  0999 V2000
   -5.8160   56.5780   80.4670 C   0  0  0  0  0
   -9.7870   52.0010   76.8160 C   0  0  0  0  0
   -5.7510   56.0600   84.8240 C   0  0  0  0  0
   -5.5680   56.4550   83.5630 C   0  0  0  0  0
   -8.7260   50.8700   79.0890 C   0  0  0  0  0
   -7.8290   54.2640   79.9790 C   0  0  0  0  0
   -9.3780   50.0520   78.1540 C   0  0  0  0  0
   -9.3820   46.9800   80.0680 C   0  0  0  0  0
   -9.4410   48.3780   79.8000 O   0  0  0  0  0
   -9.4920   48.6600   78.3810 C   0  0  0  0  0
   -9.9050   50.6350   77.0000 C   0  0  0  0  0
   -9.1370   52.8080   77.7530 C   0  0  0  0  0
   -8.5760   52.2470   78.8960 C   0  0  0  0  0
   -7.9540   52.9090   79.8910 N   0  0  0  0  0
   -8.2170   55.1120   79.1710 O   0  0  0  0  0
   -7.3230   54.6610   81.1450 C   0  0  0  0  0
   -7.6730   54.1200   82.3050 C   0  0  0  0  0
   -7.0210   54.7690   83.2500 C   0  0  0  0  0
   -6.8120   54.8140   84.8210 S   0  0  0  0  0
   -6.2730   55.7300   82.6800 C   0  0  0  0  0
   -6.4830   55.6560   81.3730 N   0  0  0  0  0
   -5.1916   56.0154   79.7729 H   0  0  0  0  0
   -6.5636   57.1424   79.9097 H   0  0  0  0  0
   -5.1947   57.2647   81.0419 H   0  0  0  0  0
  -10.2101   52.4573   75.9211 H   0  0  0  0  0
   -5.2758   56.4925   85.7045 H   0  0  0  0  0
   -4.9145   57.2800   83.2793 H   0  0  0  0  0
   -8.3233   50.4176   79.9952 H   0  0  0  0  0
  -10.2673   46.4949   79.6569 H   0  0  0  0  0
   -8.4885   46.5602   79.6060 H   0  0  0  0  0
   -9.3452   46.8191   81.1454 H   0  0  0  0  0
   -8.6658   48.1494   77.8862 H   0  0  0  0  0
  -10.4444   48.3107   77.9822 H   0  0  0  0  0
  -10.4045   50.0199   76.2515 H   0  0  0  0  0
   -9.0690   53.8832   77.5877 H   0  0  0  0  0
   -7.5431   52.3511   80.6395 H   0  0  0  0  0
   -8.3691   53.2938   82.4497 H   0  0  0  0  0
 21  1  1  0  0  0
  2 11  4  0  0  0
 12  2  4  0  0  0
  3  4  4  0  0  0
 19  3  4  0  0  0
  4 20  4  0  0  0
  5  7  4  0  0  0
 13  5  4  0  0  0
  6 14  1  0  0  0
  6 15  2  0  0  0
 16  6  1  0  0  0
  7 10  1  0  0  0
  7 11  4  0  0  0
  9  8  1  0  0  0
 10  9  1  0  0  0
 13 12  4  0  0  0
 14 13  1  0  0  0
 17 16  4  0  0  0
 16 21  4  0  0  0
 18 17  4  0  0  0
 18 19  4  0  0  0
 18 20  4  0  0  0
 20 21  4  0  0  0
  1 22  1  0  0  0
  1 23  1  0  0  0
  1 24  1  0  0  0
  2 25  1  0  0  0
  3 26  1  0  0  0
  4 27  1  0  0  0
  5 28  1  0  0  0
  8 29  1  0  0  0
  8 30  1  0  0  0
  8 31  1  0  0  0
 10 32  1  0  0  0
 10 33  1  0  0  0
 11 34  1  0  0  0
 12 35  1  0  0  0
 14 36  1  0  0  0
 17 37  1  0  0  0
M  END
$$$$
