4lrh_ligand
  -I-interpret- 

 50 52  0  0  0  0  0  0  0  0999 V2000
    0.6390   22.8320    7.0900 N   0  0  0  0  0
    1.1190   22.3080    8.2390 C   0  0  0  0  0
    0.2480   22.0650    9.2410 N   0  0  0  0  0
    2.4150   22.0220    8.4100 N   0  0  0  0  0
    3.3400   22.2330    7.4330 C   0  0  0  0  0
    4.5070   21.9690    7.5990 O   0  0  0  0  0
    2.9010   22.7900    6.1590 C   0  0  0  0  0
    3.7500   23.0150    5.1340 N   0  0  0  0  0
    3.2910   23.5220    3.9740 C   0  0  0  0  0
    1.9110   23.8260    3.8270 C   0  0  0  0  0
    1.0580   23.6010    4.8540 N   0  0  0  0  0
    1.4970   23.0870    6.0200 C   0  0  0  0  0
    4.2350   23.7510    2.8360 C   0  0  0  0  0
    4.2020   22.5770    1.9490 N   0  0  0  0  0
    7.4990   21.8180   -0.6260 C   0  0  0  0  0
    6.8520   20.7610    0.0730 C   0  0  0  0  0
    5.7660   21.0300    0.9200 C   0  0  0  0  0
    5.2990   22.3510    1.0980 C   0  0  0  0  0
    5.9440   23.4160    0.4010 C   0  0  0  0  0
    7.0340   23.1500   -0.4530 C   0  0  0  0  0
    8.6470   21.5250   -1.5160 C   0  0  0  0  0
    9.0320   22.3570   -2.3400 O   0  0  0  0  0
    9.2530   20.3100   -1.3960 N   0  0  0  0  0
   10.4920   20.0610   -2.1570 C   0  0  0  0  0
   11.7480   20.6550   -1.4330 C   0  0  0  0  0
   11.6120   20.6390    0.1130 C   0  0  0  0  0
   12.8440   21.2290    0.7840 C   0  0  0  0  0
   13.7790   21.6460    0.1250 O   0  0  0  0  0
   12.8990   21.2910    2.1280 O   0  0  0  0  0
   10.6220   18.5520   -2.3700 C   0  0  0  0  0
   11.3410   17.8730   -1.6560 O   0  0  0  0  0
    9.9090   17.9600   -3.3460 O   0  0  0  0  0
   -0.3554   23.0422    7.0045 H   0  0  0  0  0
    0.5795   21.6666   10.1195 H   0  0  0  0  0
    1.5397   24.2395    2.8893 H   0  0  0  0  0
    5.2454   23.8972    3.2179 H   0  0  0  0  0
    3.9368   24.6411    2.2820 H   0  0  0  0  0
    3.4032   21.9427    1.9513 H   0  0  0  0  0
    7.2020   19.7361   -0.0502 H   0  0  0  0  0
    5.2773   20.2102    1.4465 H   0  0  0  0  0
    5.5925   24.4398    0.5293 H   0  0  0  0  0
    7.5217   23.9686   -0.9823 H   0  0  0  0  0
    8.8582   19.5883   -0.7929 H   0  0  0  0  0
   10.4382   20.5656   -3.1217 H   0  0  0  0  0
   11.8565   21.6927   -1.7486 H   0  0  0  0  0
   12.6089   20.0418   -1.6995 H   0  0  0  0  0
   11.5007   19.6053    0.4404 H   0  0  0  0  0
   10.7454   21.2389    0.3908 H   0  0  0  0  0
   12.0918   20.9256    2.4974 H   0  0  0  0  0
    9.3980   18.6237   -3.8150 H   0  0  0  0  0
  1  2  1  0  0  0
 12  1  1  0  0  0
  2  3  2  0  0  0
  4  2  4  0  0  0
  5  4  1  0  0  0
  5  6  2  0  0  0
  7  5  1  0  0  0
  8  7  4  0  0  0
  7 12  4  0  0  0
  9  8  4  0  0  0
  9 10  4  0  0  0
 13  9  1  0  0  0
 10 11  4  0  0  0
 11 12  4  0  0  0
 14 13  1  0  0  0
 18 14  1  0  0  0
 16 15  4  0  0  0
 15 20  4  0  0  0
 15 21  1  0  0  0
 17 16  4  0  0  0
 17 18  4  0  0  0
 18 19  4  0  0  0
 19 20  4  0  0  0
 21 22  2  0  0  0
 21 23  1  0  0  0
 23 24  1  0  0  0
 24 25  1  0  0  0
 24 30  1  0  0  0
 25 26  1  0  0  0
 26 27  1  0  0  0
 27 28  2  0  0  0
 27 29  1  0  0  0
 30 31  2  0  0  0
 30 32  1  0  0  0
  1 33  1  0  0  0
  3 34  1  0  0  0
 10 35  1  0  0  0
 13 36  1  0  0  0
 13 37  1  0  0  0
 14 38  1  0  0  0
 16 39  1  0  0  0
 17 40  1  0  0  0
 19 41  1  0  0  0
 20 42  1  0  0  0
 23 43  1  0  0  0
 24 44  1  0  0  0
 25 45  1  0  0  0
 25 46  1  0  0  0
 26 47  1  0  0  0
 26 48  1  0  0  0
 29 49  1  0  0  0
 32 50  1  0  0  0
M  END
$$$$
