5fxr_ligand
  -I-interpret- 

 51 55  0  0  0  0  0  0  0  0999 V2000
   11.9070   -2.9010   51.3130 C   0  0  0  0  0
    9.4250   -3.6230   53.7240 C   0  0  0  0  0
   10.6190   -3.0280   53.4160 C   0  0  0  0  0
   10.8660   -3.2920   52.0460 C   0  0  0  0  0
    9.8710   -4.0200   51.5160 N   0  0  0  0  0
    9.0320   -4.2030   52.5540 N   0  0  0  0  0
    7.7810   -4.9270   52.4330 C   0  0  0  0  0
    6.7420   -4.0000   51.8490 C   0  0  0  0  0
    5.3910   -4.6860   51.7650 C   0  0  0  0  0
    5.5930   -5.9260   50.9860 N   0  3  0  0  0
    6.5600   -6.8550   51.6140 C   0  0  0  0  0
    7.8890   -6.1420   51.5630 C   0  0  0  0  0
   11.3500   -2.3230   54.2950 N   0  0  0  0  0
   12.7250   -2.4270   54.4240 C   0  0  0  0  0
   13.3040   -1.5040   55.2060 N   0  0  0  0  0
   14.6290   -1.5940   55.3250 C   0  0  0  0  0
   15.3410   -2.5740   54.6850 C   0  0  0  0  0
   14.6520   -3.4950   53.9290 C   0  0  0  0  0
   13.3320   -3.4340   53.7870 N   0  0  0  0  0
   15.2950   -4.5820   53.1560 C   0  0  0  0  0
   16.6240   -4.7610   52.8500 C   0  0  0  0  0
   16.7570   -5.8750   52.0350 N   0  0  0  0  0
   15.5250   -6.3630   51.8310 C   0  0  0  0  0
   14.5960   -5.5940   52.5220 N   0  0  0  0  0
   13.2640   -5.8750   52.4960 C   0  0  0  0  0
   12.8430   -6.9250   51.7760 C   0  0  0  0  0
   13.7580   -7.7580   51.0330 C   0  0  0  0  0
   15.0670   -7.4830   51.0610 C   0  0  0  0  0
   17.0280   -2.5880   54.8830 Cl  0  0  0  0  0
   11.9530   -1.8120   51.3014 H   0  0  0  0  0
   12.8245   -3.3002   51.7453 H   0  0  0  0  0
   11.7924   -3.2719   50.2945 H   0  0  0  0  0
    8.9077   -3.6312   54.6834 H   0  0  0  0  0
    7.5030   -5.2679   53.4303 H   0  0  0  0  0
    7.0528   -3.7133   50.8444 H   0  0  0  0  0
    6.6515   -3.1248   52.4924 H   0  0  0  0  0
    4.6563   -4.0402   51.2841 H   0  0  0  0  0
    5.0064   -4.9103   52.7599 H   0  0  0  0  0
    5.9645   -5.6619   50.0735 H   0  0  0  0  0
    4.6947   -6.4058   50.9284 H   0  0  0  0  0
    6.5970   -7.8099   51.0897 H   0  0  0  0  0
    6.2749   -7.0989   52.6374 H   0  0  0  0  0
    8.6863   -6.7953   51.9174 H   0  0  0  0  0
    8.1303   -5.8576   50.5388 H   0  0  0  0  0
   10.8612   -1.6692   54.9066 H   0  0  0  0  0
   15.1580   -0.8710   55.9459 H   0  0  0  0  0
   17.4423   -4.1280   53.1934 H   0  0  0  0  0
   12.5546   -5.2593   53.0489 H   0  0  0  0  0
   11.7781   -7.1563   51.7511 H   0  0  0  0  0
   13.3859   -8.6035   50.4543 H   0  0  0  0  0
   15.7743   -8.1004   50.5073 H   0  0  0  0  0
  4  1  1  0  0  0
  3  2  4  0  0  0
  2  6  4  0  0  0
  3  4  4  0  0  0
  3 13  1  0  0  0
  4  5  4  0  0  0
  5  6  4  0  0  0
  6  7  1  0  0  0
  7  8  1  0  0  0
  7 12  1  0  0  0
  8  9  1  0  0  0
  9 10  1  0  0  0
 10 11  1  0  0  0
 11 12  1  0  0  0
 13 14  1  0  0  0
 14 15  4  0  0  0
 14 19  4  0  0  0
 15 16  4  0  0  0
 16 17  4  0  0  0
 17 18  4  0  0  0
 17 29  1  0  0  0
 18 19  4  0  0  0
 18 20  1  0  0  0
 20 21  4  0  0  0
 20 24  4  0  0  0
 21 22  4  0  0  0
 22 23  4  0  0  0
 23 24  4  0  0  0
 23 28  4  0  0  0
 24 25  4  0  0  0
 25 26  4  0  0  0
 26 27  4  0  0  0
 27 28  4  0  0  0
  1 30  1  0  0  0
  1 31  1  0  0  0
  1 32  1  0  0  0
  2 33  1  0  0  0
  7 34  1  0  0  0
  8 35  1  0  0  0
  8 36  1  0  0  0
  9 37  1  0  0  0
  9 38  1  0  0  0
 10 39  1  0  0  0
 10 40  1  0  0  0
 11 41  1  0  0  0
 11 42  1  0  0  0
 12 43  1  0  0  0
 12 44  1  0  0  0
 13 45  1  0  0  0
 16 46  1  0  0  0
 21 47  1  0  0  0
 25 48  1  0  0  0
 26 49  1  0  0  0
 27 50  1  0  0  0
 28 51  1  0  0  0
M  END
$$$$
