### 
### Created by X-TOOL on Mon Sep 10 21:13:24 2018
### 

@<TRIPOS>MOLECULE
4x1s_ligand
  139   142     1     0     0
SMALL
GAST_HUCK


@<TRIPOS>ATOM
      1 N         -25.4800   -6.1940    1.1280 N.4       1 CYS         0.2385
      2 CA        -26.0250   -7.4320    0.6190 C.3       1 CYS         0.0751
      3 C         -27.3990   -7.6330    1.1990 C.2       1 CYS         0.2300
      4 O         -27.5640   -7.5750    2.4020 O.2       1 CYS        -0.3905
      5 CB        -25.1370   -8.6080    0.9990 C.3       1 CYS         0.0643
      6 SG        -23.5120   -8.6860    0.2220 S.3       1 CYS        -0.0848
      7 N         -28.4250   -7.8830    0.2750 N.am      1 PRO        -0.2471
      8 CA        -29.7070   -8.2430    0.9040 C.3       1 PRO         0.1339
      9 C         -29.6430   -9.5940    1.6090 C.2       1 PRO         0.2041
     10 O         -28.8530  -10.4220    1.2420 O.2       1 PRO        -0.3944
     11 CB        -30.6710   -8.3380   -0.2660 C.3       1 PRO        -0.0104
     12 CG        -30.1020   -7.4910   -1.3050 C.3       1 PRO        -0.0281
     13 CD        -28.6880   -7.8770   -1.2430 C.3       1 PRO         0.0371
     14 N         -30.4690   -9.7850    2.6220 N.am      1 ALA        -0.2640
     15 CA        -30.4040  -10.9590    3.4660 C.3       1 ALA         0.1282
     16 C         -30.5620  -12.2530    2.7170 C.2       1 ALA         0.2037
     17 O         -29.9850  -13.2630    3.0870 O.2       1 ALA        -0.3944
     18 CB        -31.4630  -10.8820    4.5260 C.3       1 ALA        -0.0244
     19 N         -31.3830  -12.2340    1.6890 N.am      1 TYR        -0.2621
     20 CA        -31.6140  -13.4440    0.9060 C.3       1 TYR         0.1390
     21 C         -30.7090  -13.5340   -0.3510 C.2       1 TYR         0.2058
     22 O         -31.0110  -14.2210   -1.3180 O.2       1 TYR        -0.3942
     23 CB        -33.1030  -13.5780    0.5690 C.3       1 TYR         0.0163
     24 CG        -34.0120  -13.5000    1.7940 C.ar      1 TYR        -0.0493
     25 CD1       -33.5220  -13.8080    3.0550 C.ar      1 TYR        -0.0685
     26 CD2       -35.3510  -13.1690    1.6840 C.ar      1 TYR        -0.0685
     27 CE1       -34.3260  -13.7800    4.1710 C.ar      1 TYR        -0.0398
     28 CE2       -36.1650  -13.1390    2.7950 C.ar      1 TYR        -0.0398
     29 CZ        -35.6470  -13.4360    4.0540 C.ar      1 TYR         0.0805
     30 OH        -36.4330  -13.4310    5.2020 O.3       1 TYR        -0.3376
     31 N         -29.6300  -12.7700   -0.3820 N.am      1 SER        -0.2614
     32 CA        -28.7860  -12.8780   -1.5450 C.3       1 SER         0.1539
     33 C         -28.1970  -14.2660   -1.5890 C.2       1 SER         0.2062
     34 O         -28.0740  -14.8930   -0.5710 O.2       1 SER        -0.3943
     35 CB        -27.6590  -11.8800   -1.5750 C.3       1 SER         0.0843
     36 OG        -26.9590  -12.0290   -2.7950 O.3       1 SER        -0.3903
     37 N         -28.0310  -14.8240   -2.8730 N.am      1 ALA        -0.2639
     38 CA        -27.0320  -15.7950   -3.3900 C.3       1 ALA         0.1282
     39 C         -26.0120  -15.3970   -4.1660 C.2       1 ALA         0.2037
     40 O         -25.3730  -16.1480   -4.7770 O.2       1 ALA        -0.3944
     41 CB        -27.7480  -16.8070   -4.2780 C.3       1 ALA        -0.0244
     42 N         -25.4140  -14.1090   -4.1240 N.am      1 TYR        -0.2621
     43 CA        -24.2450  -13.6050   -4.7230 C.3       1 TYR         0.1390
     44 C         -23.0960  -14.1420   -3.9300 C.2       1 TYR         0.2057
     45 O         -23.0770  -14.0410   -2.7170 O.2       1 TYR        -0.3942
     46 CB        -24.2710  -12.1160   -4.6590 C.3       1 TYR         0.0163
     47 CG        -23.1550  -11.4790   -5.3560 C.ar      1 TYR        -0.0493
     48 CD1       -22.5390  -12.0850   -6.4120 C.ar      1 TYR        -0.0685
     49 CD2       -22.7200  -10.2600   -4.9580 C.ar      1 TYR        -0.0685
     50 CE1       -21.5110  -11.4800   -7.0400 C.ar      1 TYR        -0.0398
     51 CE2       -21.6930   -9.6580   -5.5820 C.ar      1 TYR        -0.0398
     52 CZ        -21.0990  -10.2770   -6.6110 C.ar      1 TYR         0.0805
     53 OH        -20.0880   -9.6400   -7.2090 O.3       1 TYR        -0.3376
     54 N         -22.1390  -14.7380   -4.6080 N.am      1 LEU        -0.2636
     55 CA        -21.0700  -15.3850   -3.9100 C.3       1 LEU         0.1312
     56 C         -20.1730  -14.4400   -3.1270 C.2       1 LEU         0.2039
     57 O         -19.4080  -14.8790   -2.2900 O.2       1 LEU        -0.3944
     58 CB        -20.2730  -16.2330   -4.8430 C.3       1 LEU        -0.0101
     59 CG        -19.3760  -15.4120   -5.6780 C.3       1 LEU        -0.0425
     60 CD1       -17.9900  -15.4460   -5.0610 C.3       1 LEU        -0.0625
     61 CD2       -19.4400  -16.1610   -6.9680 C.3       1 LEU        -0.0625
     62 N         -20.2440  -13.1510   -3.4410 N.am      1 ALA        -0.2640
     63 CA        -19.4200  -12.1730   -2.7560 C.3       1 ALA         0.1282
     64 C         -20.1180  -11.5370   -1.5820 C.2       1 ALA         0.2031
     65 O         -19.6610  -10.5250   -1.0810 O.2       1 ALA        -0.3944
     66 CB        -18.9400  -11.1170   -3.7110 C.3       1 ALA        -0.0244
     67 N         -21.2140  -12.1390   -1.1560 N.am      1 CYS        -0.2687
     68 CA        -21.9800  -11.6740   -0.0240 C.3       1 CYS         0.1041
     69 C         -21.7830  -12.6070    1.1680 C.2       1 CYS         0.0609
     70 O         -21.1620  -13.6520    1.0650 O.co2     1 CYS        -0.5666
     71 CB        -23.4610  -11.5860   -0.3610 C.3       1 CYS         0.0388
     72 SG        -23.9860  -10.0580   -1.1300 S.3       1 CYS        -0.0887
     73 OXT       -22.2390  -12.3420    2.2680 O.co2     1 CYS        -0.5666
     74 H1        -24.5588   -6.0499    0.7451 H         1 CYS         0.2015
     75 H2        -25.4225   -6.2404    2.1333 H         1 CYS         0.2015
     76 H3        -26.0785   -5.4283    0.8606 H         1 CYS         0.2015
     77 H4        -26.0947   -7.3733   -0.4772 H         1 CYS         0.1107
     78 H5        -25.6759   -9.5302    0.7360 H         1 CYS         0.0466
     79 H6        -24.9835   -8.5707    2.0876 H         1 CYS         0.0466
     80 H7        -30.0205   -7.4676    1.6184 H         1 PRO         0.0802
     81 H8        -31.6671   -7.9733    0.0253 H         1 PRO         0.0313
     82 H9        -30.7493   -9.3776   -0.6169 H         1 PRO         0.0313
     83 H10       -30.2392   -6.4240   -1.0756 H         1 PRO         0.0287
     84 H11       -30.5379   -7.7133   -2.2902 H         1 PRO         0.0287
     85 H12       -28.5259   -8.8730   -1.6809 H         1 PRO         0.0524
     86 H13       -28.0502   -7.1425   -1.7564 H         1 PRO         0.0524
     87 H14       -31.1650   -9.0928    2.8128 H         1 ALA         0.1883
     88 H15       -29.4175  -10.9677    3.9525 H         1 ALA         0.0797
     89 H16       -31.4088  -11.7764    5.1641 H         1 ALA         0.0277
     90 H17       -32.4539  -10.8298    4.0513 H         1 ALA         0.0277
     91 H18       -31.3027   -9.9834    5.1399 H         1 ALA         0.0277
     92 H19       -31.8515  -11.3856    1.4427 H         1 TYR         0.1885
     93 H20       -31.3483  -14.2982    1.5461 H         1 TYR         0.0821
     94 H21       -33.2632  -14.5489    0.0774 H         1 TYR         0.0453
     95 H22       -33.3785  -12.7674   -0.1216 H         1 TYR         0.0453
     96 H23       -32.4778  -14.0779    3.1638 H         1 TYR         0.0530
     97 H24       -35.7649  -12.9302    0.7110 H         1 TYR         0.0530
     98 H25       -33.9146  -14.0299    5.1423 H         1 TYR         0.0525
     99 H26       -37.2131  -12.8832    2.6893 H         1 TYR         0.0525
    100 H27       -35.8967  -13.6579    5.9526 H         1 TYR         0.2458
    101 H28       -29.4098  -12.1457    0.3675 H         1 SER         0.1884
    102 H29       -29.4094  -12.7198   -2.4374 H         1 SER         0.0823
    103 H30       -26.9775  -12.0646   -0.7315 H         1 SER         0.0606
    104 H31       -28.0646  -10.8601   -1.5023 H         1 SER         0.0606
    105 H32       -27.5518  -11.8709   -3.5203 H         1 SER         0.2097
    106 H33       -28.6983  -14.5140   -3.5502 H         1 ALA         0.1883
    107 H34       -26.6033  -16.2981   -2.5107 H         1 ALA         0.0797
    108 H35       -27.0193  -17.5328   -4.6680 H         1 ALA         0.0277
    109 H36       -28.2287  -16.2830   -5.1173 H         1 ALA         0.0277
    110 H37       -28.5124  -17.3352   -3.6893 H         1 ALA         0.0277
    111 H38       -25.9126  -13.4421   -3.5703 H         1 TYR         0.1885
    112 H39       -24.1734  -13.9328   -5.7706 H         1 TYR         0.0821
    113 H40       -24.2388  -11.8131   -3.6020 H         1 TYR         0.0453
    114 H41       -25.2096  -11.7651   -5.1126 H         1 TYR         0.0453
    115 H42       -22.8781  -13.0583   -6.7478 H         1 TYR         0.0530
    116 H43       -23.2060   -9.7636   -4.1259 H         1 TYR         0.0530
    117 H44       -21.0232  -11.9593   -7.8811 H         1 TYR         0.0525
    118 H45       -21.3493   -8.6828   -5.2564 H         1 TYR         0.0525
    119 H46       -20.3981   -8.8120   -7.5564 H         1 TYR         0.2458
    120 H47       -22.1584  -14.7390   -5.6078 H         1 LEU         0.1883
    121 H48       -21.5352  -16.0573   -3.1740 H         1 LEU         0.0800
    122 H49       -20.9601  -16.7907   -5.4963 H         1 LEU         0.0315
    123 H50       -19.6688  -16.9409   -4.2567 H         1 LEU         0.0315
    124 H51       -19.7241  -14.3742   -5.7866 H         1 LEU         0.0298
    125 H52       -17.3031  -14.8388   -5.6689 H         1 LEU         0.0232
    126 H53       -17.6291  -16.4845   -5.0270 H         1 LEU         0.0232
    127 H54       -18.0331  -15.0392   -4.0399 H         1 LEU         0.0232
    128 H55       -20.4612  -16.1066   -7.3733 H         1 LEU         0.0232
    129 H56       -19.1698  -17.2131   -6.7949 H         1 LEU         0.0232
    130 H57       -18.7363  -15.7151   -7.6863 H         1 LEU         0.0232
    131 H58       -20.8731  -12.8513   -4.1582 H         1 ALA         0.1883
    132 H59       -18.5376  -12.7025   -2.3675 H         1 ALA         0.0797
    133 H60       -18.3186  -10.3883   -3.1698 H         1 ALA         0.0277
    134 H61       -19.8055  -10.6030   -4.1545 H         1 ALA         0.0277
    135 H62       -18.3445  -11.5865   -4.5078 H         1 ALA         0.0277
    136 H63       -21.5280  -12.9555   -1.6406 H         1 CYS         0.1876
    137 H64       -21.6224  -10.6703    0.2493 H         1 CYS         0.0734
    138 H65       -24.0290  -11.7080    0.5730 H         1 CYS         0.0425
    139 H66       -23.7021  -12.4111   -1.0473 H         1 CYS         0.0425
@<TRIPOS>BOND
     1    1    2 1  
     2    2    3 1  
     3    2    5 1  
     4    3    4 2  
     5    3    7 am 
     6    5    6 1  
     7    6   72 1  
     8    7    8 1  
     9    7   13 1  
    10    8    9 1  
    11    8   11 1  
    12    9   10 2  
    13    9   14 am 
    14   11   12 1  
    15   12   13 1  
    16   14   15 1  
    17   15   16 1  
    18   15   18 1  
    19   16   17 2  
    20   16   19 am 
    21   19   20 1  
    22   20   21 1  
    23   20   23 1  
    24   21   22 2  
    25   21   31 am 
    26   23   24 1  
    27   24   25 ar 
    28   24   26 ar 
    29   25   27 ar 
    30   26   28 ar 
    31   27   29 ar 
    32   28   29 ar 
    33   29   30 1  
    34   31   32 1  
    35   32   33 1  
    36   32   35 1  
    37   33   34 2  
    38   33   37 am 
    39   35   36 1  
    40   37   38 1  
    41   38   39 1  
    42   38   41 1  
    43   39   40 2  
    44   39   42 am 
    45   42   43 1  
    46   43   44 1  
    47   43   46 1  
    48   44   45 2  
    49   44   54 am 
    50   46   47 1  
    51   47   48 ar 
    52   47   49 ar 
    53   48   50 ar 
    54   49   51 ar 
    55   50   52 ar 
    56   51   52 ar 
    57   52   53 1  
    58   54   55 1  
    59   55   56 1  
    60   55   58 1  
    61   56   57 2  
    62   56   62 am 
    63   58   59 1  
    64   59   60 1  
    65   59   61 1  
    66   62   63 1  
    67   63   64 1  
    68   63   66 1  
    69   64   65 2  
    70   64   67 am 
    71   67   68 1  
    72   68   69 1  
    73   68   71 1  
    74   69   70 ar 
    75   69   73 ar 
    76   71   72 1  
    77    1   74 1  
    78    1   75 1  
    79    1   76 1  
    80    2   77 1  
    81    5   78 1  
    82    5   79 1  
    83    8   80 1  
    84   11   81 1  
    85   11   82 1  
    86   12   83 1  
    87   12   84 1  
    88   13   85 1  
    89   13   86 1  
    90   14   87 1  
    91   15   88 1  
    92   18   89 1  
    93   18   90 1  
    94   18   91 1  
    95   19   92 1  
    96   20   93 1  
    97   23   94 1  
    98   23   95 1  
    99   25   96 1  
   100   26   97 1  
   101   27   98 1  
   102   28   99 1  
   103   30  100 1  
   104   31  101 1  
   105   32  102 1  
   106   35  103 1  
   107   35  104 1  
   108   36  105 1  
   109   37  106 1  
   110   38  107 1  
   111   41  108 1  
   112   41  109 1  
   113   41  110 1  
   114   42  111 1  
   115   43  112 1  
   116   46  113 1  
   117   46  114 1  
   118   48  115 1  
   119   49  116 1  
   120   50  117 1  
   121   51  118 1  
   122   53  119 1  
   123   54  120 1  
   124   55  121 1  
   125   58  122 1  
   126   58  123 1  
   127   59  124 1  
   128   60  125 1  
   129   60  126 1  
   130   60  127 1  
   131   61  128 1  
   132   61  129 1  
   133   61  130 1  
   134   62  131 1  
   135   63  132 1  
   136   66  133 1  
   137   66  134 1  
   138   66  135 1  
   139   67  136 1  
   140   68  137 1  
   141   71  138 1  
   142   71  139 1  
@<TRIPOS>SUBSTRUCTURE
     1 CYS         1

