4x1s_ligand
  -I-interpret- 

140143  0  0  0  0  0  0  0  0999 V2000
  -25.4800   -6.1940    1.1280 N   0  3  0  0  0
  -26.0250   -7.4320    0.6190 C   0  0  0  0  0
  -27.3990   -7.6330    1.1990 C   0  0  0  0  0
  -27.5640   -7.5750    2.4020 O   0  0  0  0  0
  -25.1370   -8.6080    0.9990 C   0  0  0  0  0
  -23.5120   -8.6860    0.2220 S   0  0  0  0  0
  -28.4250   -7.8830    0.2750 N   0  0  0  0  0
  -29.7070   -8.2430    0.9040 C   0  0  0  0  0
  -29.6430   -9.5940    1.6090 C   0  0  0  0  0
  -28.8530  -10.4220    1.2420 O   0  0  0  0  0
  -30.6710   -8.3380   -0.2660 C   0  0  0  0  0
  -30.1020   -7.4910   -1.3050 C   0  0  0  0  0
  -28.6880   -7.8770   -1.2430 C   0  0  0  0  0
  -30.4690   -9.7850    2.6220 N   0  0  0  0  0
  -30.4040  -10.9590    3.4660 C   0  0  0  0  0
  -30.5620  -12.2530    2.7170 C   0  0  0  0  0
  -29.9850  -13.2630    3.0870 O   0  0  0  0  0
  -31.4630  -10.8820    4.5260 C   0  0  0  0  0
  -31.3830  -12.2340    1.6890 N   0  0  0  0  0
  -31.6140  -13.4440    0.9060 C   0  0  0  0  0
  -30.7090  -13.5340   -0.3510 C   0  0  0  0  0
  -31.0110  -14.2210   -1.3180 O   0  0  0  0  0
  -33.1030  -13.5780    0.5690 C   0  0  0  0  0
  -34.0120  -13.5000    1.7940 C   0  0  0  0  0
  -33.5220  -13.8080    3.0550 C   0  0  0  0  0
  -35.3510  -13.1690    1.6840 C   0  0  0  0  0
  -34.3260  -13.7800    4.1710 C   0  0  0  0  0
  -36.1650  -13.1390    2.7950 C   0  0  0  0  0
  -35.6470  -13.4360    4.0540 C   0  0  0  0  0
  -36.4330  -13.4310    5.2020 O   0  0  0  0  0
  -29.6300  -12.7700   -0.3820 N   0  0  0  0  0
  -28.7860  -12.8780   -1.5450 C   0  0  0  0  0
  -28.1970  -14.2660   -1.5890 C   0  0  0  0  0
  -28.0740  -14.8930   -0.5710 O   0  0  0  0  0
  -27.6590  -11.8800   -1.5750 C   0  0  0  0  0
  -26.9590  -12.0290   -2.7950 O   0  0  0  0  0
  -28.0310  -14.8240   -2.8730 N   0  0  0  0  0
  -27.0320  -15.7950   -3.3900 C   0  0  0  0  0
  -26.0120  -15.3970   -4.1660 C   0  0  0  0  0
  -25.3730  -16.1480   -4.7770 O   0  0  0  0  0
  -27.7480  -16.8070   -4.2780 C   0  0  0  0  0
  -25.4140  -14.1090   -4.1240 N   0  0  0  0  0
  -24.2450  -13.6050   -4.7230 C   0  0  0  0  0
  -23.0960  -14.1420   -3.9300 C   0  0  0  0  0
  -23.0770  -14.0410   -2.7170 O   0  0  0  0  0
  -24.2710  -12.1160   -4.6590 C   0  0  0  0  0
  -23.1550  -11.4790   -5.3560 C   0  0  0  0  0
  -22.5390  -12.0850   -6.4120 C   0  0  0  0  0
  -22.7200  -10.2600   -4.9580 C   0  0  0  0  0
  -21.5110  -11.4800   -7.0400 C   0  0  0  0  0
  -21.6930   -9.6580   -5.5820 C   0  0  0  0  0
  -21.0990  -10.2770   -6.6110 C   0  0  0  0  0
  -20.0880   -9.6400   -7.2090 O   0  0  0  0  0
  -22.1390  -14.7380   -4.6080 N   0  0  0  0  0
  -21.0700  -15.3850   -3.9100 C   0  0  0  0  0
  -20.1730  -14.4400   -3.1270 C   0  0  0  0  0
  -19.4080  -14.8790   -2.2900 O   0  0  0  0  0
  -20.2730  -16.2330   -4.8430 C   0  0  0  0  0
  -19.3760  -15.4120   -5.6780 C   0  0  0  0  0
  -17.9900  -15.4460   -5.0610 C   0  0  0  0  0
  -19.4400  -16.1610   -6.9680 C   0  0  0  0  0
  -20.2440  -13.1510   -3.4410 N   0  0  0  0  0
  -19.4200  -12.1730   -2.7560 C   0  0  0  0  0
  -20.1180  -11.5370   -1.5820 C   0  0  0  0  0
  -19.6610  -10.5250   -1.0810 O   0  0  0  0  0
  -18.9400  -11.1170   -3.7110 C   0  0  0  0  0
  -21.2140  -12.1390   -1.1560 N   0  0  0  0  0
  -21.9800  -11.6740   -0.0240 C   0  0  0  0  0
  -21.7830  -12.6070    1.1680 C   0  0  0  0  0
  -21.1620  -13.6520    1.0650 O   0  0  0  0  0
  -23.4610  -11.5860   -0.3610 C   0  0  0  0  0
  -23.9860  -10.0580   -1.1300 S   0  0  0  0  0
  -22.2390  -12.3420    2.2680 O   0  0  0  0  0
  -26.0898   -5.4208    0.8622 H   0  0  0  0  0
  -25.4165   -6.2445    2.1448 H   0  0  0  0  0
  -24.5505   -6.0461    0.7350 H   0  0  0  0  0
  -26.0774   -7.3772   -0.4684 H   0  0  0  0  0
  -25.6681   -9.5016    0.6712 H   0  0  0  0  0
  -24.9523   -8.5095    2.0687 H   0  0  0  0  0
  -29.9941   -7.5158    1.6635 H   0  0  0  0  0
  -31.6728   -8.0113    0.0130 H   0  0  0  0  0
  -30.7869   -9.3668   -0.6069 H   0  0  0  0  0
  -30.2743   -6.4263   -1.1475 H   0  0  0  0  0
  -30.5544   -7.6349   -2.2862 H   0  0  0  0  0
  -28.4800   -8.8341   -1.7213 H   0  0  0  0  0
  -28.0315   -7.2024   -1.7926 H   0  0  0  0  0
  -31.1789   -9.0789    2.8166 H   0  0  0  0  0
  -29.4056  -10.9611    3.9033 H   0  0  0  0  0
  -31.3031   -9.9913    5.1335 H   0  0  0  0  0
  -32.4443  -10.8303    4.0543 H   0  0  0  0  0
  -31.4083  -11.7687    5.1575 H   0  0  0  0  0
  -31.8609  -11.3686    1.4377 H   0  0  0  0  0
  -31.3271  -14.2965    1.5217 H   0  0  0  0  0
  -33.2497  -14.5571    0.1130 H   0  0  0  0  0
  -33.3667  -12.7499   -0.0889 H   0  0  0  0  0
  -32.4720  -14.0794    3.1644 H   0  0  0  0  0
  -35.7671  -12.9289    0.7056 H   0  0  0  0  0
  -33.9123  -14.0313    5.1476 H   0  0  0  0  0
  -37.2189  -12.8818    2.6887 H   0  0  0  0  0
  -37.3291  -13.1732    4.9738 H   0  0  0  0  0
  -29.4054  -12.1332    0.3825 H   0  0  0  0  0
  -29.4168  -12.6701   -2.4092 H   0  0  0  0  0
  -26.9853  -12.0546   -0.7361 H   0  0  0  0  0
  -28.0562  -10.8681   -1.4955 H   0  0  0  0  0
  -26.2366  -11.3976   -2.8273 H   0  0  0  0  0
  -28.7116  -14.5078   -3.5638 H   0  0  0  0  0
  -26.5905  -16.1262   -2.4501 H   0  0  0  0  0
  -28.5052  -17.3297   -3.6936 H   0  0  0  0  0
  -28.2239  -16.2866   -5.1091 H   0  0  0  0  0
  -27.0249  -17.5256   -4.6638 H   0  0  0  0  0
  -25.9226  -13.4287   -3.5592 H   0  0  0  0  0
  -24.1610  -13.9000   -5.7690 H   0  0  0  0  0
  -24.2034  -11.8334   -3.6084 H   0  0  0  0  0
  -25.1897  -11.7847   -5.1431 H   0  0  0  0  0
  -22.8800  -13.0637   -6.7496 H   0  0  0  0  0
  -23.2087   -9.7608   -4.1213 H   0  0  0  0  0
  -21.0205  -11.9619   -7.8857 H   0  0  0  0  0
  -21.3474   -8.6775   -5.2546 H   0  0  0  0  0
  -19.9354   -8.8004   -6.7692 H   0  0  0  0  0
  -22.1588  -14.7390   -5.6278 H   0  0  0  0  0
  -21.5435  -16.0185   -3.1600 H   0  0  0  0  0
  -20.9600  -16.7710   -5.4963 H   0  0  0  0  0
  -19.6664  -16.9214   -4.2545 H   0  0  0  0  0
  -19.6320  -14.3578   -5.7840 H   0  0  0  0  0
  -18.0341  -15.0427   -4.0493 H   0  0  0  0  0
  -17.6336  -16.4755   -5.0279 H   0  0  0  0  0
  -17.3103  -14.8441   -5.6642 H   0  0  0  0  0
  -19.0848  -17.1798   -6.8131 H   0  0  0  0  0
  -20.4705  -16.1840   -7.3225 H   0  0  0  0  0
  -18.8112  -15.6640   -7.7068 H   0  0  0  0  0
  -20.8857  -12.8453   -4.1726 H   0  0  0  0  0
  -18.5621  -12.7164   -2.3600 H   0  0  0  0  0
  -18.3501  -11.5835   -4.5000 H   0  0  0  0  0
  -19.7985  -10.6085   -4.1498 H   0  0  0  0  0
  -18.3244  -10.3956   -3.1736 H   0  0  0  0  0
  -21.5343  -12.9718   -1.6502 H   0  0  0  0  0
  -21.6225  -10.6766    0.2320 H   0  0  0  0  0
  -20.8540  -13.7522    0.1613 H   0  0  0  0  0
  -23.9994  -11.6591    0.5839 H   0  0  0  0  0
  -23.6639  -12.3807   -1.0789 H   0  0  0  0  0
  1  2  1  0  0  0
  2  3  1  0  0  0
  2  5  1  0  0  0
  3  4  2  0  0  0
  3  7  1  0  0  0
  5  6  1  0  0  0
  6 72  1  0  0  0
  7  8  1  0  0  0
  7 13  1  0  0  0
  8  9  1  0  0  0
  8 11  1  0  0  0
  9 10  2  0  0  0
  9 14  1  0  0  0
 11 12  1  0  0  0
 12 13  1  0  0  0
 14 15  1  0  0  0
 15 16  1  0  0  0
 15 18  1  0  0  0
 16 17  2  0  0  0
 16 19  1  0  0  0
 19 20  1  0  0  0
 20 21  1  0  0  0
 20 23  1  0  0  0
 21 22  2  0  0  0
 21 31  1  0  0  0
 23 24  1  0  0  0
 24 25  4  0  0  0
 24 26  4  0  0  0
 25 27  4  0  0  0
 26 28  4  0  0  0
 27 29  4  0  0  0
 28 29  4  0  0  0
 29 30  1  0  0  0
 31 32  1  0  0  0
 32 33  1  0  0  0
 32 35  1  0  0  0
 33 34  2  0  0  0
 33 37  1  0  0  0
 35 36  1  0  0  0
 37 38  1  0  0  0
 38 39  1  0  0  0
 38 41  1  0  0  0
 39 40  2  0  0  0
 39 42  1  0  0  0
 42 43  1  0  0  0
 43 44  1  0  0  0
 43 46  1  0  0  0
 44 45  2  0  0  0
 44 54  1  0  0  0
 46 47  1  0  0  0
 47 48  4  0  0  0
 47 49  4  0  0  0
 48 50  4  0  0  0
 49 51  4  0  0  0
 50 52  4  0  0  0
 51 52  4  0  0  0
 52 53  1  0  0  0
 54 55  1  0  0  0
 55 56  1  0  0  0
 55 58  1  0  0  0
 56 57  2  0  0  0
 56 62  1  0  0  0
 58 59  1  0  0  0
 59 60  1  0  0  0
 59 61  1  0  0  0
 62 63  1  0  0  0
 63 64  1  0  0  0
 63 66  1  0  0  0
 64 65  2  0  0  0
 64 67  1  0  0  0
 67 68  1  0  0  0
 68 69  1  0  0  0
 68 71  1  0  0  0
 69 70  1  0  0  0
 69 73  2  0  0  0
 71 72  1  0  0  0
  1 74  1  0  0  0
  1 75  1  0  0  0
  1 76  1  0  0  0
  2 77  1  0  0  0
  5 78  1  0  0  0
  5 79  1  0  0  0
  8 80  1  0  0  0
 11 81  1  0  0  0
 11 82  1  0  0  0
 12 83  1  0  0  0
 12 84  1  0  0  0
 13 85  1  0  0  0
 13 86  1  0  0  0
 14 87  1  0  0  0
 15 88  1  0  0  0
 18 89  1  0  0  0
 18 90  1  0  0  0
 18 91  1  0  0  0
 19 92  1  0  0  0
 20 93  1  0  0  0
 23 94  1  0  0  0
 23 95  1  0  0  0
 25 96  1  0  0  0
 26 97  1  0  0  0
 27 98  1  0  0  0
 28 99  1  0  0  0
 30100  1  0  0  0
 31101  1  0  0  0
 32102  1  0  0  0
 35103  1  0  0  0
 35104  1  0  0  0
 36105  1  0  0  0
 37106  1  0  0  0
 38107  1  0  0  0
 41108  1  0  0  0
 41109  1  0  0  0
 41110  1  0  0  0
 42111  1  0  0  0
 43112  1  0  0  0
 46113  1  0  0  0
 46114  1  0  0  0
 48115  1  0  0  0
 49116  1  0  0  0
 50117  1  0  0  0
 51118  1  0  0  0
 53119  1  0  0  0
 54120  1  0  0  0
 55121  1  0  0  0
 58122  1  0  0  0
 58123  1  0  0  0
 59124  1  0  0  0
 60125  1  0  0  0
 60126  1  0  0  0
 60127  1  0  0  0
 61128  1  0  0  0
 61129  1  0  0  0
 61130  1  0  0  0
 62131  1  0  0  0
 63132  1  0  0  0
 66133  1  0  0  0
 66134  1  0  0  0
 66135  1  0  0  0
 67136  1  0  0  0
 68137  1  0  0  0
 70138  1  0  0  0
 71139  1  0  0  0
 71140  1  0  0  0
M  END
$$$$
