4hcu_ligand
  -I-interpret- 

 71 75  0  0  0  0  0  0  0  0999 V2000
    2.5820   12.7000   14.5140 C   0  0  0  0  0
    1.1250   12.6940   16.8370 C   0  0  0  0  0
    2.3680   11.5080   15.1830 C   0  0  0  0  0
    2.9790    3.6170   24.3990 C   0  0  0  0  0
    2.0650   13.8890   14.9860 C   0  0  0  0  0
    8.2330    7.4920   22.5780 C   0  0  0  0  0
    6.6990    7.4800   22.5790 C   0  0  0  0  0
    2.1510    8.1210   19.8590 C   0  0  0  0  0
    1.6180   10.0100   18.3510 C   0  0  0  0  0
    3.8290    5.1350   23.0170 C   0  0  0  0  0
    8.9070    4.1390   22.3990 C   0  0  0  0  0
    2.5360   16.3920   14.9790 C   0  0  0  0  0
    0.3590    6.4760   18.5380 C   0  0  0  0  0
    1.1050    5.9950   19.6010 C   0  0  0  0  0
    0.5240    7.7810   18.1090 C   0  0  0  0  0
    1.3330   13.8820   16.1580 C   0  0  0  0  0
    2.6080    5.3440   22.3970 C   0  0  0  0  0
    1.9990    6.8140   20.2930 C   0  0  0  0  0
    1.4130    8.6100   18.7890 C   0  0  0  0  0
    1.6380   11.5080   16.3540 C   0  0  0  0  0
    2.8580    6.2970   21.3630 C   0  0  0  0  0
    1.5300    4.5970   22.8880 C   0  0  0  0  0
    8.7700    6.5140   21.5360 C   0  0  0  0  0
    6.7930    5.1050   21.6630 C   0  0  0  0  0
    6.1440    6.0600   22.6670 C   0  0  0  0  0
   10.9520    3.6560   21.0660 C   0  0  0  0  0
    1.3150   15.3300   13.0660 C   0  0  0  0  0
   10.4080    4.2280   22.3560 C   0  0  0  0  0
    2.3480   15.1300   14.1720 C   0  0  0  0  0
    4.0760    4.3110   24.0410 N   0  0  0  0  0
    1.7360    3.7340   23.8980 N   0  0  0  0  0
    4.1440    6.6910   21.3960 N   0  0  0  0  0
    4.7040    5.9980   22.4160 N   0  0  0  0  0
    8.2330    5.1820   21.7840 N   0  0  0  0  0
    0.2480    4.7100   22.3490 N   0  0  0  0  0
    1.4170   10.2640   17.0190 N   0  0  0  0  0
    1.9650   10.8780   19.1400 O   0  0  0  0  0
    8.3780    3.1790   22.9650 O   0  0  0  0  0
    3.1703   12.6998   13.5964 H   0  0  0  0  0
    0.5499   12.6955   17.7629 H   0  0  0  0  0
    2.7729   10.5762   14.7882 H   0  0  0  0  0
    3.1137    2.8746   25.1857 H   0  0  0  0  0
    8.5918    7.1945   23.5633 H   0  0  0  0  0
    8.5808    8.4963   22.3359 H   0  0  0  0  0
    6.3519    7.9267   21.6473 H   0  0  0  0  0
    6.3522    8.0383   23.4486 H   0  0  0  0  0
    2.8607    8.7754   20.3651 H   0  0  0  0  0
    2.8781   17.1931   14.3238 H   0  0  0  0  0
    1.5874   16.6745   15.4356 H   0  0  0  0  0
    3.2777   16.2164   15.7582 H   0  0  0  0  0
   -0.3591    5.8256   18.0386 H   0  0  0  0  0
    0.9916    4.9541   19.9040 H   0  0  0  0  0
   -0.0340    8.1552   17.2507 H   0  0  0  0  0
    0.9194   14.8121   16.5478 H   0  0  0  0  0
    9.8576    6.4812   21.6001 H   0  0  0  0  0
    8.4674    6.8447   20.5424 H   0  0  0  0  0
    6.4982    5.3860   20.6520 H   0  0  0  0  0
    6.4655    4.0857   21.8677 H   0  0  0  0  0
    6.3710    5.7561   23.6889 H   0  0  0  0  0
   10.6623    2.6084   20.9839 H   0  0  0  0  0
   10.5453    4.2140   20.2226 H   0  0  0  0  0
   12.0391    3.7348   21.0651 H   0  0  0  0  0
    0.3582   15.6052   13.5097 H   0  0  0  0  0
    1.6489   16.1239   12.3979 H   0  0  0  0  0
    1.2029   14.4032   12.5034 H   0  0  0  0  0
   10.8149    3.6557   23.1897 H   0  0  0  0  0
   10.6967    5.2771   22.4209 H   0  0  0  0  0
    3.3186   14.9389   13.7142 H   0  0  0  0  0
    0.0750    5.3509   21.5746 H   0  0  0  0  0
   -0.5162    4.1517   22.7294 H   0  0  0  0  0
    1.0769    9.4901   16.4482 H   0  0  0  0  0
  3  1  4  0  0  0
  1  5  4  0  0  0
  2 16  4  0  0  0
 20  2  4  0  0  0
 20  3  4  0  0  0
 30  4  4  0  0  0
  4 31  4  0  0  0
 16  5  4  0  0  0
  5 29  1  0  0  0
  7  6  1  0  0  0
  6 23  1  0  0  0
 25  7  1  0  0  0
 18  8  4  0  0  0
  8 19  4  0  0  0
 19  9  1  0  0  0
  9 36  1  0  0  0
  9 37  2  0  0  0
 10 17  4  0  0  0
 10 30  4  0  0  0
 33 10  4  0  0  0
 11 28  1  0  0  0
 34 11  1  0  0  0
 11 38  2  0  0  0
 29 12  1  0  0  0
 14 13  4  0  0  0
 13 15  4  0  0  0
 18 14  4  0  0  0
 19 15  4  0  0  0
 17 21  4  0  0  0
 17 22  4  0  0  0
 21 18  1  0  0  0
 36 20  1  0  0  0
 21 32  4  0  0  0
 22 31  4  0  0  0
 22 35  1  0  0  0
 34 23  1  0  0  0
 25 24  1  0  0  0
 24 34  1  0  0  0
 25 33  1  0  0  0
 28 26  1  0  0  0
 29 27  1  0  0  0
 32 33  4  0  0  0
  1 39  1  0  0  0
  2 40  1  0  0  0
  3 41  1  0  0  0
  4 42  1  0  0  0
  6 43  1  0  0  0
  6 44  1  0  0  0
  7 45  1  0  0  0
  7 46  1  0  0  0
  8 47  1  0  0  0
 12 48  1  0  0  0
 12 49  1  0  0  0
 12 50  1  0  0  0
 13 51  1  0  0  0
 14 52  1  0  0  0
 15 53  1  0  0  0
 16 54  1  0  0  0
 23 55  1  0  0  0
 23 56  1  0  0  0
 24 57  1  0  0  0
 24 58  1  0  0  0
 25 59  1  0  0  0
 26 60  1  0  0  0
 26 61  1  0  0  0
 26 62  1  0  0  0
 27 63  1  0  0  0
 27 64  1  0  0  0
 27 65  1  0  0  0
 28 66  1  0  0  0
 28 67  1  0  0  0
 29 68  1  0  0  0
 35 69  1  0  0  0
 35 70  1  0  0  0
 36 71  1  0  0  0
M  END
$$$$
