6b8j_ligand
  -I-interpret- 

 49 52  0  0  0  0  0  0  0  0999 V2000
   -3.0740   45.7910   13.9250 C   0  0  0  0  0
   -2.9990   45.2740   16.0710 C   0  0  0  0  0
   -2.6130   44.7240   17.3290 C   0  0  0  0  0
   -2.2680   43.3310   17.4970 C   0  0  0  0  0
   -1.9410   43.8050   19.6570 C   0  0  0  0  0
   -2.2300   45.0460   19.5650 N   0  0  0  0  0
   -2.0590   39.0840   20.8320 C   0  0  0  0  0
   -1.6420   36.9520   20.1010 C   0  0  0  0  0
   -1.9350   37.2890   18.7820 C   0  0  0  0  0
   -2.3050   38.6020   18.4860 C   0  0  0  0  0
   -2.3710   39.5260   19.5070 C   0  0  0  0  0
   -1.8520   36.3190   17.7760 C   0  0  0  0  0
   -1.0430   41.6680   16.1590 C   0  0  0  0  0
   -2.0100   39.0620   13.3250 Cl  0  0  0  0  0
   -2.1300   40.3150   14.5330 C   0  0  0  0  0
   -3.3490   40.8770   14.7780 C   0  0  0  0  0
   -3.3980   41.8640   15.7420 C   0  0  0  0  0
   -4.9420   42.6260   16.0990 Cl  0  0  0  0  0
   -0.9710   40.6870   15.2060 C   0  0  0  0  0
   -2.2440   42.2640   16.4420 C   0  0  0  0  0
   -1.9400   42.9250   18.6940 N   0  0  0  0  0
   -2.5530   45.4850   18.4190 C   0  0  0  0  0
   -2.3670   45.0600   14.8830 N   0  0  0  0  0
   -4.0890   46.1000   15.9140 N   0  0  0  0  0
   -4.1170   46.4090   14.6040 C   0  0  0  0  0
   -5.1260   47.2930   14.0570 C   0  0  0  0  0
   -1.5990   43.3990   20.8870 N   0  0  0  0  0
   -1.2450   42.0740   21.1180 C   0  0  0  0  0
   -2.4240   41.3100   21.7490 C   0  0  0  0  0
   -2.0990   39.9430   21.8860 N   0  0  0  0  0
   -1.7040   37.8020   21.1110 N   0  0  0  0  0
   -1.7800   35.5250   16.9450 N   0  0  0  0  0
   -2.8522   45.8621   12.8602 H   0  0  0  0  0
   -1.3436   35.9253   20.3132 H   0  0  0  0  0
   -2.5385   38.8927   17.4618 H   0  0  0  0  0
   -2.6520   40.5608   19.3113 H   0  0  0  0  0
   -0.1438   41.9751   16.6931 H   0  0  0  0  0
   -4.2418   40.5616   14.2381 H   0  0  0  0  0
   -0.0201   40.2052   14.9785 H   0  0  0  0  0
   -2.7945   46.5435   18.3222 H   0  0  0  0  0
   -4.6432   48.1674   13.6206 H   0  0  0  0  0
   -5.6903   46.7661   13.2876 H   0  0  0  0  0
   -5.8010   47.6083   14.8527 H   0  0  0  0  0
   -1.5982   44.0658   21.6589 H   0  0  0  0  0
   -0.3956   42.0457   21.8005 H   0  0  0  0  0
   -0.9825   41.6046   20.1699 H   0  0  0  0  0
   -3.2984   41.4069   21.1054 H   0  0  0  0  0
   -2.6350   41.7278   22.7334 H   0  0  0  0  0
   -1.8848   39.5836   22.8162 H   0  0  0  0  0
 23  1  4  0  0  0
 25  1  4  0  0  0
  3  2  1  0  0  0
  2 23  4  0  0  0
  2 24  4  0  0  0
  4  3  4  0  0  0
 22  3  4  0  0  0
  4 20  1  0  0  0
 21  4  4  0  0  0
  5  6  4  0  0  0
  5 21  4  0  0  0
 27  5  1  0  0  0
  6 22  4  0  0  0
  7 11  4  0  0  0
 30  7  1  0  0  0
  7 31  4  0  0  0
  8  9  4  0  0  0
 31  8  4  0  0  0
 10  9  4  0  0  0
  9 12  1  0  0  0
 11 10  4  0  0  0
 12 32  3  0  0  0
 13 19  4  0  0  0
 20 13  4  0  0  0
 15 14  1  0  0  0
 16 15  4  0  0  0
 19 15  4  0  0  0
 17 16  4  0  0  0
 17 18  1  0  0  0
 20 17  4  0  0  0
 24 25  4  0  0  0
 25 26  1  0  0  0
 28 27  1  0  0  0
 29 28  1  0  0  0
 29 30  1  0  0  0
  1 33  1  0  0  0
  8 34  1  0  0  0
 10 35  1  0  0  0
 11 36  1  0  0  0
 13 37  1  0  0  0
 16 38  1  0  0  0
 19 39  1  0  0  0
 22 40  1  0  0  0
 26 41  1  0  0  0
 26 42  1  0  0  0
 26 43  1  0  0  0
 27 44  1  0  0  0
 28 45  1  0  0  0
 28 46  1  0  0  0
 29 47  1  0  0  0
 29 48  1  0  0  0
 30 49  1  0  0  0
M  END
$$$$
