3g4k_ligand
  -I-interpret- 

 41 43  0  0  0  0  0  0  0  0999 V2000
   21.1670   -2.8930   31.0380 C   0  0  0  0  0
   21.5800   -4.0560   31.6800 C   0  0  0  0  0
   22.0070   -4.0330   33.0190 C   0  0  0  0  0
   22.0030   -2.7630   33.7650 C   0  0  0  0  0
   21.5810   -1.6220   33.0910 C   0  0  0  0  0
   21.1710   -1.6880   31.7490 C   0  0  0  0  0
   20.7290   -3.0200   29.6160 C   0  0  0  0  0
   19.2980   -2.5240   29.3680 C   0  0  0  0  0
   19.3640   -1.8970   27.9890 C   0  0  0  0  0
   18.3800   -1.5490   27.3350 O   0  0  0  0  0
   20.6410   -1.7940   27.6220 N   0  0  0  0  0
   21.6000   -2.2700   28.6110 C   0  0  0  0  0
   22.4110   -5.1560   33.6860 O   0  0  0  0  0
   22.5040   -6.4230   33.0320 C   0  0  0  0  0
   21.1120   -7.0060   32.9320 C   0  0  0  0  0
   20.9030   -7.8180   34.1940 C   0  0  0  0  0
   22.2750   -8.0640   34.7910 C   0  0  0  0  0
   23.2920   -7.4120   33.8780 C   0  0  0  0  0
   22.4190   -2.7790   35.0820 O   0  0  0  0  0
   22.3180   -1.6500   35.9490 C   0  0  0  0  0
   21.5724   -5.0004   31.1358 H   0  0  0  0  0
   21.5682   -0.6640   33.6108 H   0  0  0  0  0
   20.8472   -0.7757   31.2480 H   0  0  0  0  0
   20.8111   -4.0953   29.4577 H   0  0  0  0  0
   18.9669   -1.8173   30.1289 H   0  0  0  0  0
   18.5653   -3.3292   29.4223 H   0  0  0  0  0
   20.9250   -1.4121   26.7198 H   0  0  0  0  0
   22.3736   -2.9015   28.1740 H   0  0  0  0  0
   22.1654   -1.4591   29.0701 H   0  0  0  0  0
   22.9815   -6.2710   32.0640 H   0  0  0  0  0
   21.0091   -7.6278   32.0427 H   0  0  0  0  0
   20.3621   -6.2202   32.8413 H   0  0  0  0  0
   20.4041   -8.7607   33.9693 H   0  0  0  0  0
   20.2653   -7.2826   34.8974 H   0  0  0  0  0
   22.4682   -9.1335   34.8748 H   0  0  0  0  0
   22.3360   -7.6407   35.7936 H   0  0  0  0  0
   24.0776   -6.9142   34.4464 H   0  0  0  0  0
   23.8030   -8.1491   33.2585 H   0  0  0  0  0
   22.8942   -0.8227   35.5347 H   0  0  0  0  0
   21.2723   -1.3562   36.0406 H   0  0  0  0  0
   22.7106   -1.9118   36.9316 H   0  0  0  0  0
  1  2  4  0  0  0
  1  6  4  0  0  0
  1  7  1  0  0  0
  2  3  4  0  0  0
  3  4  4  0  0  0
  3 13  1  0  0  0
  4  5  4  0  0  0
  4 19  1  0  0  0
  5  6  4  0  0  0
  7  8  1  0  0  0
  7 12  1  0  0  0
  8  9  1  0  0  0
  9 10  2  0  0  0
  9 11  1  0  0  0
 11 12  1  0  0  0
 13 14  1  0  0  0
 14 15  1  0  0  0
 14 18  1  0  0  0
 15 16  1  0  0  0
 16 17  1  0  0  0
 17 18  1  0  0  0
 19 20  1  0  0  0
  2 21  1  0  0  0
  5 22  1  0  0  0
  6 23  1  0  0  0
  7 24  1  0  0  0
  8 25  1  0  0  0
  8 26  1  0  0  0
 11 27  1  0  0  0
 12 28  1  0  0  0
 12 29  1  0  0  0
 14 30  1  0  0  0
 15 31  1  0  0  0
 15 32  1  0  0  0
 16 33  1  0  0  0
 16 34  1  0  0  0
 17 35  1  0  0  0
 17 36  1  0  0  0
 18 37  1  0  0  0
 18 38  1  0  0  0
 20 39  1  0  0  0
 20 40  1  0  0  0
 20 41  1  0  0  0
M  END
$$$$
