4ha5_ligand
  -I-interpret- 

 39 41  0  0  0  0  0  0  0  0999 V2000
   28.2760   11.2450   18.7210 C   0  0  0  0  0
   28.9760   10.8340   19.8800 C   0  0  0  0  0
   28.2450   10.4820   21.0380 C   0  0  0  0  0
   26.8360   10.5370   21.0440 C   0  0  0  0  0
   26.1050   10.9450   19.8880 C   0  0  0  0  0
   26.8550   11.3030   18.7230 C   0  0  0  0  0
   24.6270   11.0020   19.9160 C   0  0  0  0  0
   23.8510   10.4900   20.9840 C   0  0  0  0  0
   22.4810   10.6700   20.7760 C   0  0  0  0  0
   22.1930   11.4570   19.2990 S   0  0  0  0  0
   23.8290   11.5680   18.9100 C   0  0  0  0  0
   21.3360   10.2500   21.7050 C   0  0  0  0  0
   20.6470   11.5190   22.2640 C   0  0  0  0  0
   21.4570   12.1880   23.4050 C   0  0  0  0  0
   22.2710   11.3450   24.1740 N   0  0  0  0  0
   22.3270    9.9680   23.9950 C   0  0  0  0  0
   21.8610    9.4250   22.8210 N   0  0  0  0  0
   22.8240    9.1630   24.9390 N   0  0  0  0  0
   20.3330    9.3850   20.9160 C   0  0  0  0  0
   23.0960   12.0250   25.2200 C   0  0  0  0  0
   21.3720   13.4000   23.5900 O   0  0  0  0  0
   28.9270   10.0600   22.2340 C   0  0  0  0  0
   29.4470    9.7160   23.2110 N   0  0  0  0  0
   28.8286   11.5185   17.8222 H   0  0  0  0  0
   30.0651   10.7893   19.8801 H   0  0  0  0  0
   26.2944   10.2625   21.9493 H   0  0  0  0  0
   26.3294   11.6249   17.8240 H   0  0  0  0  0
   24.2737   10.0106   21.8669 H   0  0  0  0  0
   24.2164   12.0200   17.9969 H   0  0  0  0  0
   19.6797   11.2228   22.6700 H   0  0  0  0  0
   20.5600   12.2383   21.4497 H   0  0  0  0  0
   21.8769    8.4109   22.7125 H   0  0  0  0  0
   23.1724    9.5565   25.8132 H   0  0  0  0  0
   19.9345    9.9626   20.0819 H   0  0  0  0  0
   20.8402    8.4981   20.5361 H   0  0  0  0  0
   19.5176    9.0849   21.5742 H   0  0  0  0  0
   22.8313   11.6323   26.2018 H   0  0  0  0  0
   24.1523   11.8390   25.0256 H   0  0  0  0  0
   22.9035   13.0975   25.1923 H   0  0  0  0  0
  1  2  4  0  0  0
  1  6  4  0  0  0
  2  3  4  0  0  0
  3  4  4  0  0  0
  3 22  1  0  0  0
  4  5  4  0  0  0
  5  6  4  0  0  0
  5  7  1  0  0  0
  7  8  4  0  0  0
  7 11  4  0  0  0
  8  9  4  0  0  0
  9 10  4  0  0  0
  9 12  1  0  0  0
 10 11  4  0  0  0
 12 13  1  0  0  0
 12 17  1  0  0  0
 12 19  1  0  0  0
 13 14  1  0  0  0
 14 15  1  0  0  0
 14 21  2  0  0  0
 15 16  4  0  0  0
 15 20  1  0  0  0
 16 17  1  0  0  0
 16 18  2  0  0  0
 22 23  3  0  0  0
  1 24  1  0  0  0
  2 25  1  0  0  0
  4 26  1  0  0  0
  6 27  1  0  0  0
  8 28  1  0  0  0
 11 29  1  0  0  0
 13 30  1  0  0  0
 13 31  1  0  0  0
 17 32  1  0  0  0
 18 33  1  0  0  0
 19 34  1  0  0  0
 19 35  1  0  0  0
 19 36  1  0  0  0
 20 37  1  0  0  0
 20 38  1  0  0  0
 20 39  1  0  0  0
M  END
$$$$
