6o0k_ligand
  -I-interpret- 

111118  0  0  0  0  0  0  0  0999 V2000
  -11.2570    0.5630  -17.6880 C   0  0  0  0  0
  -12.0680    1.6010  -18.0860 C   0  0  0  0  0
  -15.0160    3.0490  -16.5960 C   0  0  0  0  0
  -14.8260    4.3860  -14.5620 C   0  0  0  0  0
  -15.5670    4.9970  -13.3670 C   0  0  0  0  0
  -17.1930    3.2100  -13.5180 C   0  0  0  0  0
  -16.4150    2.5940  -14.6670 C   0  0  0  0  0
  -17.3740    3.1040  -10.6610 C   0  0  0  0  0
  -17.7680    3.2500   -9.3530 C   0  0  0  0  0
  -16.7970    5.4230   -9.2780 C   0  0  0  0  0
  -16.4120    5.2880  -10.5990 C   0  0  0  0  0
  -17.9060    4.5940   -7.1870 C   0  0  0  0  0
  -16.9300    3.8910   -4.3090 C   0  0  0  0  0
  -15.6000    3.5600   -4.0520 C   0  0  0  0  0
  -16.2720    1.2480   -3.5340 C   0  0  0  0  0
  -17.5970    1.6270   -3.8270 C   0  0  0  0  0
  -16.8710   -1.1300   -2.9750 C   0  0  0  0  0
  -15.7440    3.6500  -15.4610 N   0  3  0  0  0
  -12.3770    6.7430  -20.2490 C   0  0  0  0  0
  -18.8330    3.9610   -6.6680 O   0  0  0  0  0
  -13.0320    6.0960  -19.0290 C   0  0  0  0  0
  -10.5780    0.6310  -16.4790 C   0  0  0  0  0
  -16.7060    4.1200  -11.3180 C   0  0  0  0  0
  -14.4510    5.6360  -19.3790 C   0  0  0  0  0
  -17.5030    4.4070   -8.6200 C   0  0  0  0  0
  -15.2900    2.2650   -3.6780 C   0  0  0  0  0
  -15.1810    5.0840  -18.1630 C   0  0  0  0  0
  -17.9250    2.9380   -4.1870 C   0  0  0  0  0
  -16.2740   -2.2170   -2.0920 C   0  0  0  0  0
  -17.0560   -3.5200   -2.2130 C   0  0  0  0  0
  -16.4140   -4.5860   -1.3510 C   0  0  0  0  0
  -14.2990   -3.6180   -1.5400 C   0  0  0  0  0
  -14.8200   -2.4990   -2.4110 C   0  0  0  0  0
  -17.6980    1.2410   -8.0340 C   0  0  0  0  0
  -18.3100    0.0570   -7.6720 C   0  0  0  0  0
  -16.3850   -0.7060   -6.6990 C   0  0  0  0  0
  -14.3240    4.0380  -17.4950 C   0  0  0  0  0
  -15.6900    0.4850   -6.9970 C   0  0  0  0  0
  -16.3600    1.4750   -7.7080 C   0  0  0  0  0
  -14.3250    0.2820   -6.5220 C   0  0  0  0  0
  -14.2800   -0.9750   -6.0050 C   0  0  0  0  0
  -13.0730    7.1040  -17.8840 C   0  0  0  0  0
  -12.9850    3.8940  -17.7660 C   0  0  0  0  0
  -12.2200    4.8700  -18.6040 C   0  0  0  0  0
  -12.1760    2.7490  -17.3010 C   0  0  0  0  0
  -11.4990    2.7990  -16.0840 C   0  0  0  0  0
  -10.7100    1.7510  -15.6720 C   0  0  0  0  0
  -16.2990    3.9560  -12.6300 N   0  0  0  0  0
  -17.1700    5.4960   -6.4440 N   0  0  0  0  0
  -15.9320   -0.0240   -3.1080 N   0  0  0  0  0
  -13.8690    1.9970   -3.4910 N   0  0  0  0  0
  -17.6780   -0.9430   -7.0430 N   0  0  0  0  0
  -15.5250   -1.5830   -6.1060 N   0  0  0  0  0
  -18.6600    5.8650   -4.4680 O   0  0  0  0  0
  -16.2510    6.4230   -4.4000 O   0  0  0  0  0
  -15.0610   -4.8120   -1.7330 O   0  0  0  0  0
  -13.5100    0.8880   -3.1440 O   0  0  0  0  0
  -13.0850    2.9260   -3.6660 O   0  0  0  0  0
  -18.4110    2.2020   -8.7210 O   0  0  0  0  0
  -17.2960    5.5550   -4.8450 S   0  0  0  0  0
   -9.6200   -0.7070  -15.9500 Cl  0  0  0  0  0
  -11.1474   -0.3154  -18.3240 H   0  0  0  0  0
  -12.6281    1.5259  -19.0181 H   0  0  0  0  0
  -15.7542    2.5286  -17.2062 H   0  0  0  0  0
  -14.2414    2.4094  -16.1728 H   0  0  0  0  0
  -14.0833    3.6845  -14.1821 H   0  0  0  0  0
  -14.3662    5.1949  -15.1298 H   0  0  0  0  0
  -16.2771    5.7392  -13.7317 H   0  0  0  0  0
  -14.8412    5.4607  -12.6990 H   0  0  0  0  0
  -17.6714    2.4131  -12.9486 H   0  0  0  0  0
  -17.9387    3.8939  -13.9235 H   0  0  0  0  0
  -17.1051    2.0495  -15.3116 H   0  0  0  0  0
  -15.6599    1.9194  -14.2633 H   0  0  0  0  0
  -17.5911    2.1746  -11.1875 H   0  0  0  0  0
  -16.5468    6.3365   -8.7385 H   0  0  0  0  0
  -15.8731    6.0995  -11.0880 H   0  0  0  0  0
  -14.8157    4.3113   -4.1446 H   0  0  0  0  0
  -18.3874    0.8785   -3.7716 H   0  0  0  0  0
  -17.7925   -0.7653   -2.5211 H   0  0  0  0  0
  -17.0795   -1.5439   -3.9616 H   0  0  0  0  0
  -16.4301    4.2970  -15.8497 H   0  0  0  0  0
  -12.3297    6.0181  -21.0616 H   0  0  0  0  0
  -12.9670    7.6042  -20.5626 H   0  0  0  0  0
  -11.3689    7.0665  -19.9898 H   0  0  0  0  0
  -14.3808    4.8447  -20.1254 H   0  0  0  0  0
  -15.0078    6.4954  -19.7525 H   0  0  0  0  0
  -16.1234    4.6354  -18.4773 H   0  0  0  0  0
  -15.3808    5.8932  -17.4606 H   0  0  0  0  0
  -18.9646    3.2087   -4.3714 H   0  0  0  0  0
  -16.3379   -1.8343   -1.0734 H   0  0  0  0  0
  -17.0523   -3.8471   -3.2528 H   0  0  0  0  0
  -18.0812   -3.3570   -1.8804 H   0  0  0  0  0
  -16.9702   -5.5152   -1.4751 H   0  0  0  0  0
  -16.4312   -4.2514   -0.3138 H   0  0  0  0  0
  -14.3795   -3.3158   -0.4958 H   0  0  0  0  0
  -13.2615   -3.8171   -1.8086 H   0  0  0  0  0
  -14.2337   -1.5995   -2.2230 H   0  0  0  0  0
  -14.7361   -2.7940   -3.4570 H   0  0  0  0  0
  -19.3657   -0.0710   -7.9113 H   0  0  0  0  0
  -15.8599    2.3985   -7.9998 H   0  0  0  0  0
  -13.5037    0.9969   -6.5718 H   0  0  0  0  0
  -13.3935   -1.4393   -5.5730 H   0  0  0  0  0
  -12.0570    7.4096  -17.6341 H   0  0  0  0  0
  -13.6513    7.9759  -18.1898 H   0  0  0  0  0
  -13.5399    6.6439  -17.0131 H   0  0  0  0  0
  -11.3848    5.2281  -18.0021 H   0  0  0  0  0
  -11.9199    4.3497  -19.5136 H   0  0  0  0  0
  -11.5962    3.6805  -15.4503 H   0  0  0  0  0
  -10.1904    1.8003  -14.7151 H   0  0  0  0  0
  -16.5347    6.1364   -6.9201 H   0  0  0  0  0
  -14.9557   -0.1995   -2.8705 H   0  0  0  0  0
  2  1  4  0  0  0
  1 22  4  0  0  0
 45  2  4  0  0  0
 18  3  1  0  0  0
  3 37  1  0  0  0
  5  4  1  0  0  0
  4 18  1  0  0  0
 48  5  1  0  0  0
  6  7  1  0  0  0
 48  6  1  0  0  0
  7 18  1  0  0  0
  9  8  4  0  0  0
  8 23  4  0  0  0
 25  9  4  0  0  0
  9 59  1  0  0  0
 10 11  4  0  0  0
 25 10  4  0  0  0
 11 23  4  0  0  0
 12 20  2  0  0  0
 12 25  1  0  0  0
 49 12  1  0  0  0
 13 14  4  0  0  0
 13 28  4  0  0  0
 60 13  1  0  0  0
 14 26  4  0  0  0
 16 15  4  0  0  0
 26 15  4  0  0  0
 15 50  1  0  0  0
 28 16  4  0  0  0
 17 29  1  0  0  0
 50 17  1  0  0  0
 21 19  1  0  0  0
 24 21  1  0  0  0
 21 42  1  0  0  0
 44 21  1  0  0  0
 47 22  4  0  0  0
 22 61  1  0  0  0
 23 48  1  0  0  0
 27 24  1  0  0  0
 26 51  1  0  0  0
 37 27  1  0  0  0
 29 30  1  0  0  0
 29 33  1  0  0  0
 30 31  1  0  0  0
 31 56  1  0  0  0
 33 32  1  0  0  0
 32 56  1  0  0  0
 34 35  4  0  0  0
 34 39  4  0  0  0
 59 34  1  0  0  0
 35 52  4  0  0  0
 38 36  4  0  0  0
 52 36  4  0  0  0
 36 53  4  0  0  0
 37 43  2  0  0  0
 39 38  4  0  0  0
 38 40  4  0  0  0
 40 41  4  0  0  0
 41 53  4  0  0  0
 43 44  1  0  0  0
 43 45  1  0  0  0
 45 46  4  0  0  0
 46 47  4  0  0  0
 49 60  1  0  0  0
 51 57  2  0  0  0
 51 58  2  0  0  0
 60 54  2  0  0  0
 60 55  2  0  0  0
  1 62  1  0  0  0
  2 63  1  0  0  0
  3 64  1  0  0  0
  3 65  1  0  0  0
  4 66  1  0  0  0
  4 67  1  0  0  0
  5 68  1  0  0  0
  5 69  1  0  0  0
  6 70  1  0  0  0
  6 71  1  0  0  0
  7 72  1  0  0  0
  7 73  1  0  0  0
  8 74  1  0  0  0
 10 75  1  0  0  0
 11 76  1  0  0  0
 14 77  1  0  0  0
 16 78  1  0  0  0
 17 79  1  0  0  0
 17 80  1  0  0  0
 18 81  1  0  0  0
 19 82  1  0  0  0
 19 83  1  0  0  0
 19 84  1  0  0  0
 24 85  1  0  0  0
 24 86  1  0  0  0
 27 87  1  0  0  0
 27 88  1  0  0  0
 28 89  1  0  0  0
 29 90  1  0  0  0
 30 91  1  0  0  0
 30 92  1  0  0  0
 31 93  1  0  0  0
 31 94  1  0  0  0
 32 95  1  0  0  0
 32 96  1  0  0  0
 33 97  1  0  0  0
 33 98  1  0  0  0
 35 99  1  0  0  0
 39100  1  0  0  0
 40101  1  0  0  0
 41102  1  0  0  0
 42103  1  0  0  0
 42104  1  0  0  0
 42105  1  0  0  0
 44106  1  0  0  0
 44107  1  0  0  0
 46108  1  0  0  0
 47109  1  0  0  0
 49110  1  0  0  0
 50111  1  0  0  0
M  END
$$$$
