4bf6_ligand
  -I-interpret- 

 31 33  0  0  0  0  0  0  0  0999 V2000
   -7.2930    1.0830   16.6780 O   0  0  0  0  0
   -5.8240    0.9810   16.7140 S   0  0  0  0  0
   -5.3670    1.0880   18.0810 O   0  0  0  0  0
   -5.3660   -0.4110   16.1120 N   0  0  0  0  0
   -5.1520    2.1870   15.6740 C   0  0  0  0  0
   -6.1350    3.4490   15.0440 S   0  0  0  0  0
   -4.8120    4.2460   14.2850 C   0  0  0  0  0
   -3.6290    3.5720   14.5050 C   0  0  0  0  0
   -3.8310    2.4610   15.3720 C   0  0  0  0  0
   -5.0730    5.4470   13.4290 C   0  0  0  0  0
   -4.1390    6.2530   12.8210 C   0  0  0  0  0
   -4.9810    7.1210   12.2010 N   0  0  0  0  0
   -6.3660    6.8580   12.3320 N   0  0  0  0  0
   -6.3870    5.7590   13.1540 N   0  0  0  0  0
   -4.5670    8.1700   11.4510 C   0  0  0  0  0
   -3.3160    8.2230   10.7940 C   0  0  0  0  0
   -2.9010    9.3520   10.0390 C   0  0  0  0  0
   -3.7370   10.4470    9.8950 C   0  0  0  0  0
   -4.9950   10.4150   10.5190 C   0  0  0  0  0
   -5.3910    9.2980   11.2890 C   0  0  0  0  0
   -5.7720   11.4470   10.4530 C   0  0  0  0  0
   -6.4590   12.3850   10.4280 N   0  0  0  0  0
   -6.0630   -1.0746   15.7739 H   0  0  0  0  0
   -4.3741   -0.6437   16.0625 H   0  0  0  0  0
   -2.6683    3.8523   14.0730 H   0  0  0  0  0
   -3.0052    1.8701   15.7684 H   0  0  0  0  0
   -3.0500    6.2088   12.8329 H   0  0  0  0  0
   -2.6461    7.3665   10.8697 H   0  0  0  0  0
   -1.9174    9.3569    9.5694 H   0  0  0  0  0
   -3.4259   11.3133    9.3111 H   0  0  0  0  0
   -6.3674    9.3113   11.7733 H   0  0  0  0  0
  1  2  2  0  0  0
  2  3  2  0  0  0
  2  4  1  0  0  0
  2  5  1  0  0  0
  5  6  4  0  0  0
  5  9  4  0  0  0
  6  7  4  0  0  0
  7  8  4  0  0  0
  7 10  1  0  0  0
  8  9  4  0  0  0
 10 11  4  0  0  0
 10 14  4  0  0  0
 11 12  4  0  0  0
 12 13  4  0  0  0
 12 15  1  0  0  0
 13 14  4  0  0  0
 15 16  4  0  0  0
 15 20  4  0  0  0
 16 17  4  0  0  0
 17 18  4  0  0  0
 18 19  4  0  0  0
 19 20  4  0  0  0
 19 21  1  0  0  0
 21 22  3  0  0  0
  4 23  1  0  0  0
  4 24  1  0  0  0
  8 25  1  0  0  0
  9 26  1  0  0  0
 11 27  1  0  0  0
 16 28  1  0  0  0
 17 29  1  0  0  0
 18 30  1  0  0  0
 20 31  1  0  0  0
M  END
$$$$
