### 
### Created by X-TOOL on Mon Sep 10 21:13:14 2018
### 

@<TRIPOS>MOLECULE
3ueo_ligand
  116   115     1     0     0
SMALL
GAST_HUCK


@<TRIPOS>ATOM
      1 N          14.6990   18.9640    0.7210 N.4       1 ASP         0.2391
      2 CA         15.8660   18.9030    1.6080 C.3       1 ASP         0.0764
      3 C          16.4730   17.4930    1.6430 C.2       1 ASP         0.2285
      4 O          16.0300   16.6100    2.3990 O.2       1 ASP        -0.3906
      5 CB         15.5230   19.3860    3.0280 C.3       1 ASP         0.0607
      6 CG         16.0520   20.8060    3.3320 C.2       1 ASP         0.0425
      7 OD1        16.1370   21.6630    2.4110 O.co2     1 ASP        -0.5686
      8 OD2        16.3830   21.0620    4.5130 O.co2     1 ASP        -0.5686
      9 N          17.4950   17.2940    0.8130 N.am      1 SEP        -0.2585
     10 CA         18.1580   15.9970    0.6850 C.3       1 SEP         0.1587
     11 CB         19.2760   16.0910   -0.3470 C.3       1 SEP         0.1184
     12 OG         20.2140   17.0700    0.0510 O.3       1 SEP        -0.2714
     13 C          18.7140   15.5150    2.0260 C.2       1 SEP         0.2066
     14 O          18.7760   14.3070    2.2960 O.2       1 SEP        -0.3943
     15 P          20.8520   17.7660   -1.2390 P.3       1 SEP         0.2010
     16 O1P        19.7200   17.8780   -2.3770 O.co2     1 SEP        -0.5537
     17 O2P        21.4040   19.2350   -0.8380 O.co2     1 SEP        -0.5537
     18 O3P        22.0100   16.7730   -1.7560 O.co2     1 SEP        -0.5537
     19 N          19.1090   16.4720    2.8600 N.am      1 ASP        -0.2621
     20 CA         19.5290   16.1940    4.2240 C.3       1 ASP         0.1423
     21 C          18.5990   16.7920    5.2710 C.2       1 ASP         0.2057
     22 O          18.1790   17.9620    5.1780 O.2       1 ASP        -0.3943
     23 CB         20.9230   16.7380    4.4790 C.3       1 ASP         0.0406
     24 CG         21.9830   15.8750    3.9030 C.2       1 ASP         0.0393
     25 OD1        21.6290   14.8100    3.3540 O.co2     1 ASP        -0.5688
     26 OD2        23.1640   16.2700    4.0100 O.co2     1 ASP        -0.5688
     27 N          18.3250   15.9740    6.2830 N.am      1 TPO        -0.2610
     28 CA         17.5330   16.3510    7.4370 C.3       1 TPO         0.1612
     29 CB         17.2610   15.0980    8.3080 C.3       1 TPO         0.1262
     30 CG2        16.7790   15.5120    9.6960 C.3       1 TPO        -0.0298
     31 OG1        16.2530   14.2730    7.6850 O.3       1 TPO        -0.2685
     32 P          16.6970   12.7230    7.4680 P.3       1 TPO         0.2014
     33 O1P        15.4810   11.8880    7.3230 O.co2     1 TPO        -0.5537
     34 O2P        17.5760   12.6200    6.1230 O.co2     1 TPO        -0.5537
     35 O3P        17.5250   12.1280    8.7200 O.co2     1 TPO        -0.5537
     36 C          18.2150   17.4810    8.2330 C.2       1 TPO         0.2069
     37 O          17.5910   18.4990    8.5360 O.2       1 TPO        -0.3943
     38 N          19.5030   17.3000    8.5360 N.am      1 ASP        -0.2621
     39 CA         20.3340   18.3220    9.1930 C.3       1 ASP         0.1423
     40 C          19.7190   18.9260   10.4800 C.2       1 ASP         0.2056
     41 O          19.7890   20.1430   10.7060 O.2       1 ASP        -0.3943
     42 CB         20.7430   19.4220    8.1910 C.3       1 ASP         0.0406
     43 CG         21.8230   18.9620    7.2020 C.2       1 ASP         0.0393
     44 OD1        22.5420   17.9920    7.5120 O.co2     1 ASP        -0.5688
     45 OD2        21.9670   19.5690    6.1150 O.co2     1 ASP        -0.5688
     46 N          19.1400   18.0640   11.3190 N.am      1 VAL        -0.2634
     47 CA         18.4900   18.4660   12.5710 C.3       1 VAL         0.1333
     48 C          19.1690   17.8030   13.7770 C.2       1 VAL         0.2042
     49 O          19.3980   16.5860   13.7730 O.2       1 VAL        -0.3944
     50 CB         16.9820   18.0860   12.5710 C.3       1 VAL        -0.0063
     51 CG1        16.3330   18.4400   13.8960 C.3       1 VAL        -0.0584
     52 CG2        16.2380   18.7320   11.4050 C.3       1 VAL        -0.0584
     53 N          19.4750   18.5930   14.8080 N.am      1 GLU        -0.2636
     54 CA         20.2790   18.1080   15.9310 C.3       1 GLU         0.1324
     55 C          19.8410   18.5680   17.3300 C.2       1 GLU         0.2035
     56 O          19.8600   19.7640   17.6240 O.2       1 GLU        -0.3944
     57 CB         21.7530   18.4760   15.7140 C.3       1 GLU        -0.0008
     58 CG         22.6860   17.7750   16.6760 C.3       1 GLU         0.0044
     59 CD         22.3590   16.2980   16.7850 C.2       1 GLU         0.0350
     60 OE1        21.9370   15.8580   17.8810 O.co2     1 GLU        -0.5690
     61 OE2        22.5070   15.5880   15.7640 O.co2     1 GLU        -0.5690
     62 N          19.5060   17.5910   18.1820 N.am      1 GLU        -0.2694
     63 CA         19.0790   17.7560   19.5930 C.3       1 GLU         0.0959
     64 C          17.5780   18.0510   19.7250 C.2       1 GLU         0.0602
     65 O          16.8479   17.4075   20.5253 O.co2     1 GLU        -0.5666
     66 CB         19.9100   18.7950   20.3810 C.3       1 GLU        -0.0064
     67 CG         21.4500   18.7090   20.2230 C.3       1 GLU         0.0038
     68 CD         22.1330   17.6980   21.1510 C.2       1 GLU         0.0350
     69 OE1        21.4400   16.9570   21.8880 O.co2     1 GLU        -0.5690
     70 OE2        23.3830   17.6600   21.1390 O.co2     1 GLU        -0.5690
     71 O          17.0644   18.9576   19.0166 O.co2     1 GLU        -0.5666
     72 H1         14.3257   19.9003    0.7209 H         1 ASP         0.2016
     73 H2         13.9945   18.3215    1.0479 H         1 ASP         0.2016
     74 H3         14.9750   18.7122   -0.2152 H         1 ASP         0.2016
     75 H4         16.6275   19.5837    1.1997 H         1 ASP         0.1117
     76 H5         15.9652   18.6857    3.7519 H         1 ASP         0.0512
     77 H6         14.4289   19.3887    3.1417 H         1 ASP         0.0512
     78 H7         17.8208   18.0589    0.2573 H         1 SEP         0.1885
     79 H8         17.4178   15.2625    0.3350 H         1 SEP         0.0827
     80 H9         18.8501   16.3687   -1.3225 H         1 SEP         0.0662
     81 H10        19.7788   15.1162   -0.4305 H         1 SEP         0.0662
     82 H11        19.1176   17.4184    2.5372 H         1 ASP         0.1884
     83 H12        19.5434   15.1020    4.3556 H         1 ASP         0.0819
     84 H13        21.0797   16.8119    5.5653 H         1 ASP         0.0478
     85 H14        20.9992   17.7386    4.0286 H         1 ASP         0.0478
     86 H15        18.6872   15.0426    6.2456 H         1 TPO         0.1884
     87 H16        16.5651   16.7324    7.0798 H         1 TPO         0.0830
     88 H17        18.1922   14.5208    8.4060 H         1 TPO         0.0695
     89 H18        16.5904   14.6134   10.3018 H         1 TPO         0.0260
     90 H19        15.8498   16.0933    9.6032 H         1 TPO         0.0260
     91 H20        17.5495   16.1275   10.1833 H         1 TPO         0.0260
     92 H21        19.9253   16.4237    8.3042 H         1 ASP         0.1884
     93 H22        21.2584   17.8139    9.5051 H         1 ASP         0.0819
     94 H23        21.1288   20.2840    8.7551 H         1 ASP         0.0478
     95 H24        19.8525   19.7255    7.6211 H         1 ASP         0.0478
     96 H25        19.1499   17.0927   11.0813 H         1 VAL         0.1883
     97 H26        18.5784   19.5579   12.6710 H         1 VAL         0.0802
     98 H27        16.9136   16.9953   12.4454 H         1 VAL         0.0343
     99 H28        15.2692   18.1615   13.8692 H         1 VAL         0.0234
    100 H29        16.4244   19.5220   14.0716 H         1 VAL         0.0234
    101 H30        16.8348   17.8931   14.7078 H         1 VAL         0.0234
    102 H31        16.7297   18.4586   10.4598 H         1 VAL         0.0234
    103 H32        16.2514   19.8256   11.5223 H         1 VAL         0.0234
    104 H33        15.1969   18.3772   11.3927 H         1 VAL         0.0234
    105 H34        19.1476   19.5379   14.8136 H         1 GLU         0.1883
    106 H35        20.1996   17.0109   15.9215 H         1 GLU         0.0801
    107 H36        21.8659   19.5623   15.8454 H         1 GLU         0.0330
    108 H37        22.0357   18.1994   14.6876 H         1 GLU         0.0330
    109 H38        22.5896   18.2373   17.6694 H         1 GLU         0.0433
    110 H39        23.7200   17.8873   16.3180 H         1 GLU         0.0433
    111 H40        19.5479   16.6553   17.8317 H         1 GLU         0.1875
    112 H41        19.2537   16.7848   20.0790 H         1 GLU         0.0727
    113 H42        19.6757   18.6709   21.4486 H         1 GLU         0.0323
    114 H43        19.5951   19.7957   20.0504 H         1 GLU         0.0323
    115 H44        21.8719   19.7036   20.4299 H         1 GLU         0.0432
    116 H45        21.6726   18.4252   19.1838 H         1 GLU         0.0432
@<TRIPOS>BOND
     1    1    2 1  
     2    2    3 1  
     3    2    5 1  
     4    3    4 2  
     5    3    9 am 
     6    5    6 1  
     7    6    7 ar 
     8    6    8 ar 
     9    9   10 1  
    10   10   11 1  
    11   10   13 1  
    12   11   12 1  
    13   12   15 1  
    14   13   14 2  
    15   13   19 am 
    16   15   16 ar 
    17   15   17 ar 
    18   15   18 ar 
    19   19   20 1  
    20   20   21 1  
    21   20   23 1  
    22   21   22 2  
    23   21   27 am 
    24   23   24 1  
    25   24   25 ar 
    26   24   26 ar 
    27   27   28 1  
    28   28   29 1  
    29   28   36 1  
    30   29   30 1  
    31   29   31 1  
    32   31   32 1  
    33   32   33 ar 
    34   32   34 ar 
    35   32   35 ar 
    36   36   37 2  
    37   36   38 am 
    38   38   39 1  
    39   39   40 1  
    40   39   42 1  
    41   40   41 2  
    42   40   46 am 
    43   42   43 1  
    44   43   44 ar 
    45   43   45 ar 
    46   46   47 1  
    47   47   48 1  
    48   47   50 1  
    49   48   49 2  
    50   48   53 am 
    51   50   51 1  
    52   50   52 1  
    53   53   54 1  
    54   54   55 1  
    55   54   57 1  
    56   55   56 2  
    57   55   62 am 
    58   57   58 1  
    59   58   59 1  
    60   59   60 ar 
    61   59   61 ar 
    62   62   63 1  
    63   63   64 1  
    64   63   66 1  
    65   64   65 ar 
    66   66   67 1  
    67   67   68 1  
    68   68   69 ar 
    69   68   70 ar 
    70   64   71 ar 
    71    1   72 1  
    72    1   73 1  
    73    1   74 1  
    74    2   75 1  
    75    5   76 1  
    76    5   77 1  
    77    9   78 1  
    78   10   79 1  
    79   11   80 1  
    80   11   81 1  
    81   19   82 1  
    82   20   83 1  
    83   23   84 1  
    84   23   85 1  
    85   27   86 1  
    86   28   87 1  
    87   29   88 1  
    88   30   89 1  
    89   30   90 1  
    90   30   91 1  
    91   38   92 1  
    92   39   93 1  
    93   42   94 1  
    94   42   95 1  
    95   46   96 1  
    96   47   97 1  
    97   50   98 1  
    98   51   99 1  
    99   51  100 1  
   100   51  101 1  
   101   52  102 1  
   102   52  103 1  
   103   52  104 1  
   104   53  105 1  
   105   54  106 1  
   106   57  107 1  
   107   57  108 1  
   108   58  109 1  
   109   58  110 1  
   110   62  111 1  
   111   63  112 1  
   112   66  113 1  
   113   66  114 1  
   114   67  115 1  
   115   67  116 1  
@<TRIPOS>SUBSTRUCTURE
     1 ASP         1

