3ueo_ligand
  -I-interpret- 

126125  0  0  0  0  0  0  0  0999 V2000
   14.6990   18.9640    0.7210 N   0  3  0  0  0
   15.8660   18.9030    1.6080 C   0  0  0  0  0
   16.4730   17.4930    1.6430 C   0  0  0  0  0
   16.0300   16.6100    2.3990 O   0  0  0  0  0
   15.5230   19.3860    3.0280 C   0  0  0  0  0
   16.0520   20.8060    3.3320 C   0  0  0  0  0
   16.1370   21.6630    2.4110 O   0  0  0  0  0
   16.3830   21.0620    4.5130 O   0  0  0  0  0
   17.4950   17.2940    0.8130 N   0  0  0  0  0
   18.1580   15.9970    0.6850 C   0  0  0  0  0
   19.2760   16.0910   -0.3470 C   0  0  0  0  0
   20.2140   17.0700    0.0510 O   0  0  0  0  0
   18.7140   15.5150    2.0260 C   0  0  0  0  0
   18.7760   14.3070    2.2960 O   0  0  0  0  0
   20.8520   17.7660   -1.2390 P   0  0  0  0  0
   19.7200   17.8780   -2.3770 O   0  0  0  0  0
   21.4040   19.2350   -0.8380 O   0  0  0  0  0
   22.0100   16.7730   -1.7560 O   0  0  0  0  0
   19.1090   16.4720    2.8600 N   0  0  0  0  0
   19.5290   16.1940    4.2240 C   0  0  0  0  0
   18.5990   16.7920    5.2710 C   0  0  0  0  0
   18.1790   17.9620    5.1780 O   0  0  0  0  0
   20.9230   16.7380    4.4790 C   0  0  0  0  0
   21.9830   15.8750    3.9030 C   0  0  0  0  0
   21.6290   14.8100    3.3540 O   0  0  0  0  0
   23.1640   16.2700    4.0100 O   0  0  0  0  0
   18.3250   15.9740    6.2830 N   0  0  0  0  0
   17.5330   16.3510    7.4370 C   0  0  0  0  0
   17.2610   15.0980    8.3080 C   0  0  0  0  0
   16.7790   15.5120    9.6960 C   0  0  0  0  0
   16.2530   14.2730    7.6850 O   0  0  0  0  0
   16.6970   12.7230    7.4680 P   0  0  0  0  0
   15.4810   11.8880    7.3230 O   0  0  0  0  0
   17.5760   12.6200    6.1230 O   0  0  0  0  0
   17.5250   12.1280    8.7200 O   0  0  0  0  0
   18.2150   17.4810    8.2330 C   0  0  0  0  0
   17.5910   18.4990    8.5360 O   0  0  0  0  0
   19.5030   17.3000    8.5360 N   0  0  0  0  0
   20.3340   18.3220    9.1930 C   0  0  0  0  0
   19.7190   18.9260   10.4800 C   0  0  0  0  0
   19.7890   20.1430   10.7060 O   0  0  0  0  0
   20.7430   19.4220    8.1910 C   0  0  0  0  0
   21.8230   18.9620    7.2020 C   0  0  0  0  0
   22.5420   17.9920    7.5120 O   0  0  0  0  0
   21.9670   19.5690    6.1150 O   0  0  0  0  0
   19.1400   18.0640   11.3190 N   0  0  0  0  0
   18.4900   18.4660   12.5710 C   0  0  0  0  0
   19.1690   17.8030   13.7770 C   0  0  0  0  0
   19.3980   16.5860   13.7730 O   0  0  0  0  0
   16.9820   18.0860   12.5710 C   0  0  0  0  0
   16.3330   18.4400   13.8960 C   0  0  0  0  0
   16.2380   18.7320   11.4050 C   0  0  0  0  0
   19.4750   18.5930   14.8080 N   0  0  0  0  0
   20.2790   18.1080   15.9310 C   0  0  0  0  0
   19.8410   18.5680   17.3300 C   0  0  0  0  0
   19.8600   19.7640   17.6240 O   0  0  0  0  0
   21.7530   18.4760   15.7140 C   0  0  0  0  0
   22.6860   17.7750   16.6760 C   0  0  0  0  0
   22.3590   16.2980   16.7850 C   0  0  0  0  0
   21.9370   15.8580   17.8810 O   0  0  0  0  0
   22.5070   15.5880   15.7640 O   0  0  0  0  0
   19.5060   17.5910   18.1820 N   0  0  0  0  0
   19.0790   17.7560   19.5930 C   0  0  0  0  0
   17.5780   18.0510   19.7250 C   0  0  0  0  0
   16.8479   17.4075   20.5253 O   0  0  0  0  0
   19.9100   18.7950   20.3810 C   0  0  0  0  0
   21.4500   18.7090   20.2230 C   0  0  0  0  0
   22.1330   17.6980   21.1510 C   0  0  0  0  0
   21.4400   16.9570   21.8880 O   0  0  0  0  0
   23.3830   17.6600   21.1390 O   0  0  0  0  0
   17.0644   18.9576   19.0166 O   0  0  0  0  0
   14.9626   18.6375   -0.2087 H   0  0  0  0  0
   13.9585   18.3699    1.0940 H   0  0  0  0  0
   14.3674   19.9268    0.6632 H   0  0  0  0  0
   16.6154   19.5799    1.1977 H   0  0  0  0  0
   15.9932   18.7003    3.7329 H   0  0  0  0  0
   14.4368   19.4124    3.1147 H   0  0  0  0  0
   15.8377   21.2748    1.5856 H   0  0  0  0  0
   17.8273   18.0742    0.2462 H   0  0  0  0  0
   17.4178   15.2683    0.3546 H   0  0  0  0  0
   18.8528   16.3688   -1.3123 H   0  0  0  0  0
   19.7750   15.1252   -0.4266 H   0  0  0  0  0
   22.0772   19.1483   -0.1592 H   0  0  0  0  0
   22.6909   16.6995   -1.0832 H   0  0  0  0  0
   19.1178   17.4373    2.5307 H   0  0  0  0  0
   19.5074   15.1084    4.3191 H   0  0  0  0  0
   21.0747   16.7829    5.5575 H   0  0  0  0  0
   20.9934   17.7179    4.0069 H   0  0  0  0  0
   23.1779   17.1130    4.4691 H   0  0  0  0  0
   18.6944   15.0240    6.2449 H   0  0  0  0  0
   16.5734   16.7466    7.1040 H   0  0  0  0  0
   18.1897   14.5351    8.4012 H   0  0  0  0  0
   17.5433   16.1219   10.1777 H   0  0  0  0  0
   15.8583   16.0879    9.6027 H   0  0  0  0  0
   16.5925   14.6208   10.2952 H   0  0  0  0  0
   18.3642   13.1603    6.2150 H   0  0  0  0  0
   18.3243   12.6441    8.8479 H   0  0  0  0  0
   19.9337   16.4061    8.2996 H   0  0  0  0  0
   21.2274   17.7981    9.5327 H   0  0  0  0  0
   21.1499   20.2564    8.7622 H   0  0  0  0  0
   19.8581   19.6912    7.6144 H   0  0  0  0  0
   21.3250   20.2806    6.0597 H   0  0  0  0  0
   19.1501   17.0733   11.0766 H   0  0  0  0  0
   18.5858   19.5490   12.6481 H   0  0  0  0  0
   16.9166   17.0059   12.4398 H   0  0  0  0  0
   16.8312   17.8975   14.6995 H   0  0  0  0  0
   16.4242   19.5123   14.0688 H   0  0  0  0  0
   15.2790   18.1635   13.8682 H   0  0  0  0  0
   16.3196   19.8164   11.4797 H   0  0  0  0  0
   16.6772   18.3972   10.4653 H   0  0  0  0  0
   15.1879   18.4421   11.4404 H   0  0  0  0  0
   19.1411   19.5568   14.8137 H   0  0  0  0  0
   20.1227   17.0293   15.9285 H   0  0  0  0  0
   21.8543   19.5491   15.8763 H   0  0  0  0  0
   22.0262   18.1695   14.7043 H   0  0  0  0  0
   22.5732   18.2285   17.6607 H   0  0  0  0  0
   23.7062   17.8777   16.3063 H   0  0  0  0  0
   21.9036   16.5734   18.5203 H   0  0  0  0  0
   19.5487   16.6366   17.8247 H   0  0  0  0  0
   19.2752   16.7865   20.0510 H   0  0  0  0  0
   17.3798   16.7568   20.9894 H   0  0  0  0  0
   19.7032   18.6113   21.4353 H   0  0  0  0  0
   19.6200   19.7715   19.9932 H   0  0  0  0  0
   21.8503   19.6913   20.4741 H   0  0  0  0  0
   21.6467   18.3852   19.2010 H   0  0  0  0  0
   20.5095   17.1446   21.7443 H   0  0  0  0  0
  1  2  1  0  0  0
  2  3  1  0  0  0
  2  5  1  0  0  0
  3  4  2  0  0  0
  3  9  1  0  0  0
  5  6  1  0  0  0
  6  7  1  0  0  0
  6  8  2  0  0  0
  9 10  1  0  0  0
 10 11  1  0  0  0
 10 13  1  0  0  0
 11 12  1  0  0  0
 12 15  1  0  0  0
 13 14  2  0  0  0
 13 19  1  0  0  0
 15 16  2  0  0  0
 15 17  1  0  0  0
 15 18  1  0  0  0
 19 20  1  0  0  0
 20 21  1  0  0  0
 20 23  1  0  0  0
 21 22  2  0  0  0
 21 27  1  0  0  0
 23 24  1  0  0  0
 24 25  2  0  0  0
 24 26  1  0  0  0
 27 28  1  0  0  0
 28 29  1  0  0  0
 28 36  1  0  0  0
 29 30  1  0  0  0
 29 31  1  0  0  0
 31 32  1  0  0  0
 32 33  2  0  0  0
 32 34  1  0  0  0
 32 35  1  0  0  0
 36 37  2  0  0  0
 36 38  1  0  0  0
 38 39  1  0  0  0
 39 40  1  0  0  0
 39 42  1  0  0  0
 40 41  2  0  0  0
 40 46  1  0  0  0
 42 43  1  0  0  0
 43 44  2  0  0  0
 43 45  1  0  0  0
 46 47  1  0  0  0
 47 48  1  0  0  0
 47 50  1  0  0  0
 48 49  2  0  0  0
 48 53  1  0  0  0
 50 51  1  0  0  0
 50 52  1  0  0  0
 53 54  1  0  0  0
 54 55  1  0  0  0
 54 57  1  0  0  0
 55 56  2  0  0  0
 55 62  1  0  0  0
 57 58  1  0  0  0
 58 59  1  0  0  0
 59 60  1  0  0  0
 59 61  2  0  0  0
 62 63  1  0  0  0
 63 64  1  0  0  0
 63 66  1  0  0  0
 64 65  1  0  0  0
 66 67  1  0  0  0
 67 68  1  0  0  0
 68 69  1  0  0  0
 68 70  2  0  0  0
 64 71  2  0  0  0
  1 72  1  0  0  0
  1 73  1  0  0  0
  1 74  1  0  0  0
  2 75  1  0  0  0
  5 76  1  0  0  0
  5 77  1  0  0  0
  7 78  1  0  0  0
  9 79  1  0  0  0
 10 80  1  0  0  0
 11 81  1  0  0  0
 11 82  1  0  0  0
 17 83  1  0  0  0
 18 84  1  0  0  0
 19 85  1  0  0  0
 20 86  1  0  0  0
 23 87  1  0  0  0
 23 88  1  0  0  0
 26 89  1  0  0  0
 27 90  1  0  0  0
 28 91  1  0  0  0
 29 92  1  0  0  0
 30 93  1  0  0  0
 30 94  1  0  0  0
 30 95  1  0  0  0
 34 96  1  0  0  0
 35 97  1  0  0  0
 38 98  1  0  0  0
 39 99  1  0  0  0
 42100  1  0  0  0
 42101  1  0  0  0
 45102  1  0  0  0
 46103  1  0  0  0
 47104  1  0  0  0
 50105  1  0  0  0
 51106  1  0  0  0
 51107  1  0  0  0
 51108  1  0  0  0
 52109  1  0  0  0
 52110  1  0  0  0
 52111  1  0  0  0
 53112  1  0  0  0
 54113  1  0  0  0
 57114  1  0  0  0
 57115  1  0  0  0
 58116  1  0  0  0
 58117  1  0  0  0
 60118  1  0  0  0
 62119  1  0  0  0
 63120  1  0  0  0
 65121  1  0  0  0
 66122  1  0  0  0
 66123  1  0  0  0
 67124  1  0  0  0
 67125  1  0  0  0
 69126  1  0  0  0
M  END
$$$$
