6aak_ligand
  -I-interpret- 

 45 49  0  0  0  0  0  0  0  0999 V2000
   11.1980  -40.3100   49.1180 C   0  0  0  0  0
   10.8330  -38.2950   52.7390 C   0  0  0  0  0
   10.1740  -41.1640   49.3460 C   0  0  0  0  0
   11.3200  -39.4540   50.2460 C   0  0  0  0  0
   11.8690  -37.7940   51.9670 C   0  0  0  0  0
   12.1410  -38.3590   50.6600 C   0  0  0  0  0
   10.2870  -39.9170   51.1050 C   0  0  0  0  0
   12.6200  -36.6290   52.4940 C   0  0  0  0  0
   14.7230  -35.8390   48.0530 C   0  0  0  0  0
   12.2190  -35.7660   47.9670 C   0  0  0  0  0
   13.5180  -35.5150   45.8700 C   0  0  0  0  0
   14.7450  -37.6440   46.3760 C   0  0  0  0  0
   12.2320  -37.6000   46.2260 C   0  0  0  0  0
   13.5020  -35.2080   47.3690 C   0  0  0  0  0
   14.6450  -37.3590   47.8780 C   0  0  0  0  0
   12.1440  -37.2770   47.7240 C   0  0  0  0  0
   13.3220  -37.9570   48.4120 C   0  0  0  0  0
   13.5360  -37.0370   45.6550 C   0  0  0  0  0
   10.0920  -39.3170   52.3200 N   0  0  0  0  0
    9.6510  -40.9200   50.5250 N   0  0  0  0  0
   12.7490  -36.3470   53.8050 N   0  0  0  0  0
   13.1990  -37.8590   49.8770 N   0  0  0  0  0
   13.0910  -35.8280   51.7040 O   0  0  0  0  0
   13.6140  -37.3640   44.2740 O   0  0  0  0  0
   11.8214  -40.2830   48.2243 H   0  0  0  0  0
   10.6213  -37.8430   53.7080 H   0  0  0  0  0
    9.8349  -41.9367   48.6561 H   0  0  0  0  0
   14.7284  -35.5858   49.1132 H   0  0  0  0  0
   15.6400  -35.4587   47.6030 H   0  0  0  0  0
   11.3630  -35.2832   47.4954 H   0  0  0  0  0
   12.2092  -35.5736   49.0398 H   0  0  0  0  0
   14.4080  -35.0753   45.4199 H   0  0  0  0  0
   12.6266  -35.0942   45.4048 H   0  0  0  0  0
   14.7605  -38.7215   46.2123 H   0  0  0  0  0
   15.6603  -37.2008   45.9837 H   0  0  0  0  0
   11.3854  -37.1493   45.7080 H   0  0  0  0  0
   12.2126  -38.6809   46.0868 H   0  0  0  0  0
   13.5433  -34.1299   47.5244 H   0  0  0  0  0
   15.4531  -37.8178   48.4477 H   0  0  0  0  0
   11.1931  -37.6335   48.1199 H   0  0  0  0  0
   13.3233  -39.0216   48.1779 H   0  0  0  0  0
   13.2244  -35.4937   54.0988 H   0  0  0  0  0
   12.3712  -36.9868   54.5039 H   0  0  0  0  0
   13.9533  -37.3829   50.3718 H   0  0  0  0  0
   13.6234  -38.3186   44.1724 H   0  0  0  0  0
  1  3  4  0  0  0
  4  1  4  0  0  0
  5  2  4  0  0  0
  2 19  4  0  0  0
 20  3  4  0  0  0
  6  4  4  0  0  0
  4  7  4  0  0  0
  6  5  4  0  0  0
  5  8  1  0  0  0
 22  6  1  0  0  0
  7 19  4  0  0  0
  7 20  4  0  0  0
  8 21  1  0  0  0
  8 23  2  0  0  0
  9 14  1  0  0  0
 15  9  1  0  0  0
 10 14  1  0  0  0
 16 10  1  0  0  0
 14 11  1  0  0  0
 18 11  1  0  0  0
 15 12  1  0  0  0
 12 18  1  0  0  0
 16 13  1  0  0  0
 13 18  1  0  0  0
 17 15  1  0  0  0
 17 16  1  0  0  0
 17 22  1  0  0  0
 18 24  1  0  0  0
  1 25  1  0  0  0
  2 26  1  0  0  0
  3 27  1  0  0  0
  9 28  1  0  0  0
  9 29  1  0  0  0
 10 30  1  0  0  0
 10 31  1  0  0  0
 11 32  1  0  0  0
 11 33  1  0  0  0
 12 34  1  0  0  0
 12 35  1  0  0  0
 13 36  1  0  0  0
 13 37  1  0  0  0
 14 38  1  0  0  0
 15 39  1  0  0  0
 16 40  1  0  0  0
 17 41  1  0  0  0
 21 42  1  0  0  0
 21 43  1  0  0  0
 22 44  1  0  0  0
 24 45  1  0  0  0
M  END
$$$$
