2h44_ligand
  -I-interpret- 

 67 70  0  0  0  0  0  0  0  0999 V2000
   76.7950   27.4320   27.3470 C   0  0  0  0  0
   76.0990   26.1740   27.4100 O   0  0  0  0  0
   74.7220   26.3820   27.3900 C   0  0  0  0  0
   74.1790   27.6360   27.6510 C   0  0  0  0  0
   72.7990   27.8050   27.6340 C   0  0  0  0  0
   73.8750   25.3050   27.0940 C   0  0  0  0  0
   72.4820   25.4900   27.0810 C   0  0  0  0  0
   71.9290   26.7450   27.3560 C   0  0  0  0  0
   70.5530   26.9800   27.3920 C   0  0  0  0  0
   70.1210   28.0310   28.1860 O   0  0  0  0  0
   69.5840   26.1290   26.7740 C   0  0  0  0  0
   68.2110   26.3780   27.0090 C   0  0  0  0  0
   67.8180   27.4340   27.8430 C   0  0  0  0  0
   68.7870   28.2560   28.4280 C   0  0  0  0  0
   67.3640   25.6650   26.4840 O   0  0  0  0  0
   66.4680   27.6830   28.0950 C   0  0  0  0  0
   66.0990   28.7530   28.9190 C   0  0  0  0  0
   67.0770   29.5660   29.4920 C   0  0  0  0  0
   68.4180   29.3070   29.2530 C   0  0  0  0  0
   65.5020   26.8810   27.5430 O   0  0  0  0  0
   66.7230   30.5900   30.3370 O   0  0  0  0  0
   69.4870   30.1770   29.8850 C   0  0  0  0  0
   69.4250   31.6520   29.4850 C   0  0  0  0  0
   70.0750   32.0990   28.3450 C   0  0  0  0  0
   70.0060   33.5760   27.9620 C   0  0  0  0  0
   70.8660   31.1210   27.4710 C   0  0  0  0  0
   69.9410   25.0290   25.9890 O   0  0  0  0  0
   70.3970   25.3770   24.6760 C   0  0  0  0  0
   69.2920   25.7940   23.8500 O   0  0  0  0  0
   71.0630   24.1220   24.0680 C   0  0  0  0  0
   71.6820   24.4340   22.8260 O   0  0  0  0  0
   70.0150   23.0130   23.8750 C   0  0  0  0  0
   70.5960   21.8920   23.2260 O   0  0  0  0  0
   68.8300   23.5260   23.0600 C   0  0  0  0  0
   67.8260   22.5210   22.9920 O   0  0  0  0  0
   68.2580   24.7890   23.7120 C   0  0  0  0  0
   67.1300   25.3500   22.8220 C   0  0  0  0  0
   76.5259   27.9489   26.4259 H   0  0  0  0  0
   76.5145   28.0443   28.2040 H   0  0  0  0  0
   77.8700   27.2523   27.3635 H   0  0  0  0  0
   74.8319   28.4815   27.8677 H   0  0  0  0  0
   72.3833   28.7907   27.8431 H   0  0  0  0  0
   74.2967   24.3243   26.8740 H   0  0  0  0  0
   71.8271   24.6486   26.8548 H   0  0  0  0  0
   65.0449   28.9513   29.1133 H   0  0  0  0  0
   64.6356   27.1908   27.8168 H   0  0  0  0  0
   67.5140   31.0434   30.6375 H   0  0  0  0  0
   70.4499   29.7953   29.5457 H   0  0  0  0  0
   69.3367   30.1330   30.9637 H   0  0  0  0  0
   68.8658   32.3566   30.1006 H   0  0  0  0  0
   68.9658   33.8610   27.8044 H   0  0  0  0  0
   70.4315   34.1784   28.7646 H   0  0  0  0  0
   70.5717   33.7390   27.0446 H   0  0  0  0  0
   71.6608   30.6676   28.0632 H   0  0  0  0  0
   70.1975   30.3433   27.1017 H   0  0  0  0  0
   71.3006   31.6586   26.6283 H   0  0  0  0  0
   71.1041   26.2048   24.7302 H   0  0  0  0  0
   71.8320   23.7695   24.7554 H   0  0  0  0  0
   72.0892   23.6431   22.4651 H   0  0  0  0  0
   69.6574   22.7090   24.8588 H   0  0  0  0  0
   69.9309   21.2091   23.1126 H   0  0  0  0  0
   69.1655   23.7675   22.0514 H   0  0  0  0  0
   67.0828   22.8469   22.4791 H   0  0  0  0  0
   67.8709   24.5354   24.6989 H   0  0  0  0  0
   66.7147   26.2451   23.2851 H   0  0  0  0  0
   67.5336   25.6008   21.8410 H   0  0  0  0  0
   66.3474   24.5992   22.7132 H   0  0  0  0  0
  1  2  1  0  0  0
  2  3  1  0  0  0
  3  4  4  0  0  0
  3  6  4  0  0  0
  4  5  4  0  0  0
  5  8  4  0  0  0
  6  7  4  0  0  0
  7  8  4  0  0  0
  8  9  1  0  0  0
  9 10  1  0  0  0
  9 11  2  0  0  0
 10 14  1  0  0  0
 11 12  1  0  0  0
 11 27  1  0  0  0
 12 13  1  0  0  0
 12 15  2  0  0  0
 13 14  4  0  0  0
 13 16  4  0  0  0
 14 19  4  0  0  0
 16 17  4  0  0  0
 16 20  1  0  0  0
 17 18  4  0  0  0
 18 19  4  0  0  0
 18 21  1  0  0  0
 19 22  1  0  0  0
 22 23  1  0  0  0
 23 24  2  0  0  0
 24 25  1  0  0  0
 24 26  1  0  0  0
 27 28  1  0  0  0
 28 29  1  0  0  0
 28 30  1  0  0  0
 29 36  1  0  0  0
 30 31  1  0  0  0
 30 32  1  0  0  0
 32 33  1  0  0  0
 32 34  1  0  0  0
 34 35  1  0  0  0
 34 36  1  0  0  0
 36 37  1  0  0  0
  1 38  1  0  0  0
  1 39  1  0  0  0
  1 40  1  0  0  0
  4 41  1  0  0  0
  5 42  1  0  0  0
  6 43  1  0  0  0
  7 44  1  0  0  0
 17 45  1  0  0  0
 20 46  1  0  0  0
 21 47  1  0  0  0
 22 48  1  0  0  0
 22 49  1  0  0  0
 23 50  1  0  0  0
 25 51  1  0  0  0
 25 52  1  0  0  0
 25 53  1  0  0  0
 26 54  1  0  0  0
 26 55  1  0  0  0
 26 56  1  0  0  0
 28 57  1  0  0  0
 30 58  1  0  0  0
 31 59  1  0  0  0
 32 60  1  0  0  0
 33 61  1  0  0  0
 34 62  1  0  0  0
 35 63  1  0  0  0
 36 64  1  0  0  0
 37 65  1  0  0  0
 37 66  1  0  0  0
 37 67  1  0  0  0
M  END
$$$$
