5gu4_ligand
  -I-interpret- 

 90 91  0  0  0  0  0  0  0  0999 V2000
  -17.9840    5.5810   27.5910 N   0  3  0  0  0
  -16.7350    6.4030   27.7010 C   0  0  0  0  0
  -16.1070    6.7030   26.3410 C   0  0  0  0  0
  -15.0430    7.3690   26.2410 O   0  0  0  0  0
  -16.8040    6.3000   25.2790 N   0  0  0  0  0
  -16.2520    6.4640   23.9270 C   0  0  0  0  0
  -16.6210    7.8330   23.3580 C   0  0  0  0  0
  -16.1060    8.2370   22.2980 O   0  0  0  0  0
  -16.8050    5.3940   23.0070 C   0  0  0  0  0
  -16.3710    4.0360   23.3570 C   0  0  0  0  0
  -16.9620    2.9510   22.7300 C   0  0  0  0  0
  -15.4120    3.8190   24.3720 C   0  0  0  0  0
  -16.5510    1.6410   23.0110 C   0  0  0  0  0
  -14.9800    2.5060   24.6820 C   0  0  0  0  0
  -15.5850    1.4080   24.0430 C   0  0  0  0  0
  -17.4120    8.6160   24.1330 N   0  0  0  0  0
  -17.7800    9.9840   23.7680 C   0  0  0  0  0
  -16.6810   10.9390   23.4520 C   0  0  0  0  0
  -16.8850   11.8570   22.6490 O   0  0  0  0  0
  -15.4580   10.7890   24.0370 N   0  0  0  0  0
  -14.3230   11.7320   23.6830 C   0  0  0  0  0
  -14.0130   11.8700   22.1860 C   0  0  0  0  0
  -13.5250   12.9370   21.7480 O   0  0  0  0  0
  -12.9610   11.5190   24.4450 C   0  0  0  0  0
  -12.1800   10.2870   24.1270 C   0  0  0  0  0
  -10.8770   10.1890   24.9300 C   0  0  0  0  0
  -13.1340    9.0660   24.3950 C   0  0  0  0  0
  -14.4010   10.8720   21.3880 N   0  0  0  0  0
  -14.0870   10.8890   19.9370 C   0  0  0  0  0
  -15.1870   11.4200   19.0220 C   0  0  0  0  0
  -15.0320   11.5670   17.8460 O   0  0  0  0  0
  -13.5570    9.5180   19.4510 C   0  0  0  0  0
  -12.3950    9.0200   20.2340 C   0  0  0  0  0
  -11.1400    9.5440   19.9960 C   0  0  0  0  0
  -12.5420    8.0490   21.2360 C   0  0  0  0  0
  -10.0010    9.0650   20.6920 C   0  0  0  0  0
  -11.4180    7.5630   21.8990 C   0  0  0  0  0
  -10.1470    8.0950   21.6470 C   0  0  0  0  0
  -16.3420   11.7390   19.6170 N   0  0  0  0  0
  -17.4720   12.2870   18.8520 C   0  0  0  0  0
  -17.4620   13.7870   18.7250 C   0  0  0  0  0
  -16.7240   14.5000   19.4470 O   0  0  0  0  0
  -18.7860   11.8770   19.5310 C   0  0  0  0  0
  -19.0670   10.3940   19.4450 C   0  0  0  0  0
  -19.6310    9.8430   20.4540 O   0  0  0  0  0
  -18.7650    9.8050   18.3600 O   0  0  0  0  0
  -18.1910   14.3780   17.8930 O   0  0  0  0  0
  -18.3606    5.4105   28.5235 H   0  0  0  0  0
  -18.6727    6.0843   27.0317 H   0  0  0  0  0
  -17.7655    4.6910   27.1432 H   0  0  0  0  0
  -16.0112    5.8364   28.2869 H   0  0  0  0  0
  -16.9988    7.3532   28.1654 H   0  0  0  0  0
  -17.7233    5.8765   25.4050 H   0  0  0  0  0
  -15.1674    6.3773   23.9926 H   0  0  0  0  0
  -16.4385    5.6054   22.0025 H   0  0  0  0  0
  -17.8915    5.4214   23.0900 H   0  0  0  0  0
  -17.7596    3.1191   22.0064 H   0  0  0  0  0
  -15.0020    4.6674   24.9199 H   0  0  0  0  0
  -16.9639    0.8042   22.4476 H   0  0  0  0  0
  -14.1847    2.3474   25.4103 H   0  0  0  0  0
  -15.3213    0.3902   24.3304 H   0  0  0  0  0
  -17.7663    8.2338   25.0098 H   0  0  0  0  0
  -18.2786   10.3949   24.6459 H   0  0  0  0  0
  -18.3597    9.8937   22.8493 H   0  0  0  0  0
  -15.3060   10.0413   24.7139 H   0  0  0  0  0
  -14.7668   12.6604   24.0425 H   0  0  0  0  0
  -13.2241   11.4361   25.4995 H   0  0  0  0  0
  -12.3256   12.3540   24.1500 H   0  0  0  0  0
  -11.8583   10.3044   23.0857 H   0  0  0  0  0
  -10.2482   11.0508   24.7064 H   0  0  0  0  0
  -11.1084   10.1730   25.9950 H   0  0  0  0  0
  -10.3516    9.2738   24.6572 H   0  0  0  0  0
  -13.4434    9.0709   25.4402 H   0  0  0  0  0
  -14.0123    9.1453   23.7544 H   0  0  0  0  0
  -12.6053    8.1384   24.1756 H   0  0  0  0  0
  -14.9204   10.0870   21.7809 H   0  0  0  0  0
  -13.2916   11.6293   19.8509 H   0  0  0  0  0
  -13.2283    9.6409   18.4190 H   0  0  0  0  0
  -14.3643    8.7949   19.5668 H   0  0  0  0  0
  -11.0226   10.3397   19.2603 H   0  0  0  0  0
  -13.5330    7.6762   21.4947 H   0  0  0  0  0
   -9.0132    9.4675   20.4675 H   0  0  0  0  0
  -11.5288    6.7571   22.6244 H   0  0  0  0  0
   -9.2816    7.7397   22.2065 H   0  0  0  0  0
  -16.4409   11.5991   20.6225 H   0  0  0  0  0
  -17.3792   11.8784   17.8458 H   0  0  0  0  0
  -16.2179   13.9383   20.0385 H   0  0  0  0  0
  -19.5967   12.3959   19.0195 H   0  0  0  0  0
  -18.7059   12.1362   20.5867 H   0  0  0  0  0
  -19.7527   10.4959   21.1472 H   0  0  0  0  0
  1  2  1  0  0  0
  2  3  1  0  0  0
  3  4  2  0  0  0
  3  5  1  0  0  0
  5  6  1  0  0  0
  6  7  1  0  0  0
  6  9  1  0  0  0
  7  8  2  0  0  0
  7 16  1  0  0  0
  9 10  1  0  0  0
 10 11  4  0  0  0
 10 12  4  0  0  0
 11 13  4  0  0  0
 12 14  4  0  0  0
 13 15  4  0  0  0
 14 15  4  0  0  0
 16 17  1  0  0  0
 17 18  1  0  0  0
 18 19  2  0  0  0
 18 20  1  0  0  0
 20 21  1  0  0  0
 21 22  1  0  0  0
 21 24  1  0  0  0
 22 23  2  0  0  0
 22 28  1  0  0  0
 24 25  1  0  0  0
 25 26  1  0  0  0
 25 27  1  0  0  0
 28 29  1  0  0  0
 29 30  1  0  0  0
 29 32  1  0  0  0
 30 31  2  0  0  0
 30 39  1  0  0  0
 32 33  1  0  0  0
 33 34  4  0  0  0
 33 35  4  0  0  0
 34 36  4  0  0  0
 35 37  4  0  0  0
 36 38  4  0  0  0
 37 38  4  0  0  0
 39 40  1  0  0  0
 40 41  1  0  0  0
 40 43  1  0  0  0
 41 42  1  0  0  0
 41 47  2  0  0  0
 43 44  1  0  0  0
 44 45  1  0  0  0
 44 46  2  0  0  0
  1 48  1  0  0  0
  1 49  1  0  0  0
  1 50  1  0  0  0
  2 51  1  0  0  0
  2 52  1  0  0  0
  5 53  1  0  0  0
  6 54  1  0  0  0
  9 55  1  0  0  0
  9 56  1  0  0  0
 11 57  1  0  0  0
 12 58  1  0  0  0
 13 59  1  0  0  0
 14 60  1  0  0  0
 15 61  1  0  0  0
 16 62  1  0  0  0
 17 63  1  0  0  0
 17 64  1  0  0  0
 20 65  1  0  0  0
 21 66  1  0  0  0
 24 67  1  0  0  0
 24 68  1  0  0  0
 25 69  1  0  0  0
 26 70  1  0  0  0
 26 71  1  0  0  0
 26 72  1  0  0  0
 27 73  1  0  0  0
 27 74  1  0  0  0
 27 75  1  0  0  0
 28 76  1  0  0  0
 29 77  1  0  0  0
 32 78  1  0  0  0
 32 79  1  0  0  0
 34 80  1  0  0  0
 35 81  1  0  0  0
 36 82  1  0  0  0
 37 83  1  0  0  0
 38 84  1  0  0  0
 39 85  1  0  0  0
 40 86  1  0  0  0
 42 87  1  0  0  0
 43 88  1  0  0  0
 43 89  1  0  0  0
 45 90  1  0  0  0
M  END
$$$$
