### 
### Created by X-TOOL on Mon Sep 10 21:13:28 2018
### 

@<TRIPOS>MOLECULE
5eel_ligand
  137   140     1     0     0
SMALL
GAST_HUCK


@<TRIPOS>ATOM
      1 N         -12.9550   44.9330  100.6950 N.am      1 SER        -0.2628
      2 CA        -12.6770   43.5510  101.0550 C.3       1 SER         0.1543
      3 C         -11.9440   43.4630  102.3970 C.2       1 SER         0.2063
      4 O         -12.2370   42.5940  103.2200 O.2       1 SER        -0.3943
      5 CB        -11.8680   42.8880   99.9480 C.3       1 SER         0.0900
      6 OG        -11.6510   41.5240  100.2030 O.3       1 SER        -0.3662
      7 N         -10.9930   44.3700  102.6070 N.am      1 PHE        -0.2619
      8 CA        -10.2880   44.4980  103.8760 C.3       1 PHE         0.1404
      9 C         -10.6240   45.8510  104.5020 C.2       1 PHE         0.2060
     10 O         -10.5720   46.8730  103.8170 O.2       1 PHE        -0.3942
     11 CB         -8.7770   44.3750  103.6730 C.3       1 PHE         0.0214
     12 CG         -8.3480   43.1110  102.9590 C.ar      1 PHE        -0.0386
     13 CD1        -8.4120   41.8790  103.5960 C.ar      1 PHE        -0.0601
     14 CD2        -7.8530   43.1630  101.6680 C.ar      1 PHE        -0.0601
     15 CE1        -8.0050   40.7210  102.9590 C.ar      1 PHE        -0.0686
     16 CE2        -7.4350   41.9970  101.0170 C.ar      1 PHE        -0.0686
     17 CZ         -7.5150   40.7770  101.6630 C.ar      1 PHE        -0.0687
     18 N         -10.9590   45.8780  105.7950 N.am      1 GLU        -0.2635
     19 CA        -11.3920   47.1290  106.4200 C.3       1 GLU         0.1325
     20 C         -10.3070   48.1950  106.3180 C.2       1 GLU         0.2038
     21 O          -9.1550   47.9540  106.6810 O.2       1 GLU        -0.3944
     22 CB        -11.7930   46.9210  107.8860 C.3       1 GLU        -0.0008
     23 CG        -12.4300   48.1740  108.5010 C.3       1 GLU         0.0044
     24 CD        -12.9500   47.9730  109.9190 C.2       1 GLU         0.0350
     25 OE1       -13.4920   46.8960  110.2300 O.co2     1 GLU        -0.5690
     26 OE2       -12.8300   48.9120  110.7330 O.co2     1 GLU        -0.5690
     27 N         -10.6790   49.3690  105.8090 N.am      1 GLY        -0.2664
     28 CA         -9.7420   50.4760  105.6670 C.3       1 GLY         0.1201
     29 C          -8.7980   50.4030  104.4620 C.2       1 GLY         0.2009
     30 O          -7.7860   51.0990  104.4070 O.2       1 GLY        -0.3947
     31 N          -9.1090   49.5510  103.4960 N.am      1 TYR        -0.2624
     32 CA         -8.3220   49.5150  102.2740 C.3       1 TYR         0.1390
     33 C          -9.2750   49.5060  101.0840 C.2       1 TYR         0.2058
     34 O         -10.4900   49.3570  101.2520 O.2       1 TYR        -0.3942
     35 CB         -7.3760   48.3000  102.2510 C.3       1 TYR         0.0163
     36 CG         -6.4270   48.2490  103.4330 C.ar      1 TYR        -0.0493
     37 CD1        -5.2010   48.9000  103.3910 C.ar      1 TYR        -0.0685
     38 CD2        -6.7640   47.5560  104.5970 C.ar      1 TYR        -0.0685
     39 CE1        -4.3310   48.8610  104.4660 C.ar      1 TYR        -0.0398
     40 CE2        -5.9020   47.5010  105.6690 C.ar      1 TYR        -0.0398
     41 CZ         -4.6860   48.1620  105.6040 C.ar      1 TYR         0.0805
     42 OH         -3.8150   48.1250  106.6710 O.3       1 TYR        -0.3376
     43 N          -8.7300   49.6690   99.8850 N.am      1 ASP        -0.2620
     44 CA         -9.5680   49.7620   98.7010 C.3       1 ASP         0.1423
     45 C          -9.6380   48.4880   97.8550 C.2       1 ASP         0.2057
     46 O         -10.3100   48.4950   96.8270 O.2       1 ASP        -0.3943
     47 CB         -9.0920   50.9240   97.8350 C.3       1 ASP         0.0406
     48 CG         -9.3260   52.2530   98.4970 C.2       1 ASP         0.0393
     49 OD1       -10.4820   52.5110   98.8970 O.co2     1 ASP        -0.5688
     50 OD2        -8.3560   53.0190   98.6470 O.co2     1 ASP        -0.5688
     51 N          -8.9720   47.4100   98.2800 N.am      1 ASN        -0.2615
     52 CA         -9.0410   46.1270   97.5530 C.3       1 ASN         0.1476
     53 C         -10.4840   45.6940   97.2570 C.2       1 ASN         0.2063
     54 O         -11.2530   45.4450   98.1840 O.2       1 ASN        -0.3942
     55 CB         -8.3500   44.9960   98.3320 C.3       1 ASN         0.0773
     56 CG         -6.9650   45.3680   98.8290 C.2       1 ASN         0.1780
     57 OD1        -6.7680   46.4310   99.4150 O.2       1 ASN        -0.3970
     58 ND2        -5.9930   44.4880   98.5920 N.am      1 ASN        -0.3007
     59 N         -10.8400   45.6170   95.9730 N.am      1 73C        -0.2614
     60 CA        -12.1510   45.1250   95.5400 C.3       1 73C         0.1544
     61 C         -13.3320   45.7180   96.3020 C.2       1 73C         0.2062
     62 O         -14.2780   44.9940   96.6760 O.2       1 73C        -0.3943
     63 CB        -12.2070   43.6070   95.6670 C.3       1 73C         0.0900
     64 OG        -11.0840   43.0080   95.0630 O.3       1 73C        -0.3662
     65 C1        -10.9400   41.7230   95.5870 C.3       1 73C         0.0654
     66 C2        -10.5640   41.8350   97.0150 C.2       1 73C        -0.0712
     67 C3        -10.9660   40.9640   97.9130 C.2       1 73C        -0.0712
     68 C4        -10.6350   41.0920   99.3460 C.3       1 73C         0.0654
     69 N1        -13.7040   47.0370   96.0020 N.am      1 AEA        -0.2629
     70 C1        -13.4360   48.0010   96.9990 C.3       1 AEA         0.1397
     71 C3        -14.1680   47.6320   98.2760 C.3       1 AEA         0.0363
     72 C2        -13.8980   49.3560   96.5210 C.2       1 AEA         0.2000
     73 N2        -13.0320   50.0620   95.7960 N.am      1 AEA        -0.2989
     74 S1        -13.1080   47.8590   99.7220 S.3       1 AEA        -0.1344
     75 C4        -14.1350   47.1340  101.0370 C.3       1 AEA         0.0836
     76 O1        -14.1170   45.3870  102.5420 O.2       1 AEA        -0.3960
     77 C5        -13.6110   45.8670  101.5300 C.2       1 AEA         0.1882
     78 O3        -15.0140   49.7350   96.7990 O.2       1 AEA        -0.3947
     79 H1        -12.6609   45.2451   99.7916 H         1 SER         0.1884
     80 H2        -13.6346   43.0186  101.1528 H         1 SER         0.0824
     81 H3        -10.8946   43.3939   99.8671 H         1 SER         0.0611
     82 H4        -12.4142   42.9898   98.9986 H         1 SER         0.0611
     83 H5        -10.7516   44.9910  101.8613 H         1 PHE         0.1885
     84 H6        -10.6206   43.6963  104.5517 H         1 PHE         0.0823
     85 H7         -8.2934   44.3943  104.6608 H         1 PHE         0.0474
     86 H8         -8.4370   45.2377  103.0814 H         1 PHE         0.0474
     87 H9         -8.7879   41.8238  104.6112 H         1 PHE         0.0557
     88 H10        -7.7884   44.1162  101.1559 H         1 PHE         0.0557
     89 H11        -8.0691   39.7688  103.4732 H         1 PHE         0.0599
     90 H12        -7.0483   42.0502  100.0057 H         1 PHE         0.0599
     91 H13        -7.1970   39.8710  101.1599 H         1 PHE         0.0559
     92 H14       -10.9138   45.0398  106.3384 H         1 GLU         0.1883
     93 H15       -12.2767   47.4888  105.8743 H         1 GLU         0.0801
     94 H16       -10.8944   46.6612  108.4647 H         1 GLU         0.0330
     95 H17       -12.5162   46.0939  107.9406 H         1 GLU         0.0330
     96 H18       -13.2724   48.4818  107.8642 H         1 GLU         0.0433
     97 H19       -11.6738   48.9726  108.5200 H         1 GLU         0.0433
     98 H20       -11.6271   49.4938  105.5165 H         1 GLY         0.1881
     99 H21        -9.1249   50.5142  106.5768 H         1 GLY         0.0763
    100 H22       -10.3267   51.4037  105.5814 H         1 GLY         0.0763
    101 H23        -9.8862   48.9318  103.6076 H         1 TYR         0.1885
    102 H24        -7.7075   50.4260  102.2246 H         1 TYR         0.0821
    103 H25        -6.7798   48.3405  101.3275 H         1 TYR         0.0453
    104 H26        -7.9854   47.3843  102.2542 H         1 TYR         0.0453
    105 H27        -4.9205   49.4489  102.4993 H         1 TYR         0.0530
    106 H28        -7.7218   47.0520  104.6579 H         1 TYR         0.0530
    107 H29        -3.3779   49.3750  104.4160 H         1 TYR         0.0525
    108 H30        -6.1730   46.9439  106.5586 H         1 TYR         0.0525
    109 H31        -3.0360   48.6261  106.4600 H         1 TYR         0.2458
    110 H32        -7.7358   49.7283   99.7955 H         1 ASP         0.1884
    111 H33       -10.5903   49.9817   99.0423 H         1 ASP         0.0819
    112 H34        -9.6377   50.9020   96.8802 H         1 ASP         0.0478
    113 H35        -8.0150   50.8070   97.6446 H         1 ASP         0.0478
    114 H36        -8.4151   47.4739   99.1081 H         1 ASN         0.1885
    115 H37        -8.5176   46.2596   96.5946 H         1 ASN         0.0826
    116 H38        -8.2604   44.1211   97.6713 H         1 ASN         0.0551
    117 H39        -8.9745   44.7377   99.1999 H         1 ASN         0.0551
    118 H40        -5.0599   44.6795   98.8965 H         1 ASN         0.1814
    119 H41        -6.1966   43.6360   98.1096 H         1 ASN         0.1814
    120 H42       -10.1840   45.9075   95.2764 H         1 73C         0.1884
    121 H43       -12.2689   45.3927   94.4796 H         1 73C         0.0824
    122 H44       -13.1193   43.2383   95.1753 H         1 73C         0.0611
    123 H45       -12.2296   43.3358   96.7328 H         1 73C         0.0611
    124 H46       -10.1535   41.1847   95.0378 H         1 73C         0.0685
    125 H47       -11.8904   41.1768   95.4957 H         1 73C         0.0685
    126 H48        -9.9344   42.6655   97.3309 H         1 73C         0.0473
    127 H49       -11.5661   40.1155   97.5878 H         1 73C         0.0473
    128 H50       -10.3038   40.1039   99.6980 H         1 73C         0.0685
    129 H51        -9.8047   41.8086   99.4304 H         1 73C         0.0685
    130 H52       -14.1340   47.2806   95.1327 H         1 AEA         0.1884
    131 H53       -12.3542   48.0324   97.1956 H         1 AEA         0.0808
    132 H54       -14.4789   46.5783   98.2203 H         1 AEA         0.0426
    133 H55       -15.0570   48.2717   98.3783 H         1 AEA         0.0426
    134 H56       -13.2868   50.9665   95.4539 H         1 AEA         0.1815
    135 H57       -12.1270   49.6876   95.5938 H         1 AEA         0.1815
    136 H58       -15.1467   46.9649  100.6397 H         1 AEA         0.0616
    137 H59       -14.1844   47.8439  101.8758 H         1 AEA         0.0616
@<TRIPOS>BOND
     1    1    2 1  
     2    1   77 am 
     3    2    3 1  
     4    2    5 1  
     5    3    4 2  
     6    3    7 am 
     7    5    6 1  
     8    6   68 1  
     9    7    8 1  
    10    8    9 1  
    11    8   11 1  
    12    9   10 2  
    13    9   18 am 
    14   11   12 1  
    15   12   13 ar 
    16   12   14 ar 
    17   13   15 ar 
    18   14   16 ar 
    19   15   17 ar 
    20   16   17 ar 
    21   18   19 1  
    22   19   20 1  
    23   19   22 1  
    24   20   21 2  
    25   20   27 am 
    26   22   23 1  
    27   23   24 1  
    28   24   25 ar 
    29   24   26 ar 
    30   27   28 1  
    31   28   29 1  
    32   29   30 2  
    33   29   31 am 
    34   31   32 1  
    35   32   33 1  
    36   32   35 1  
    37   33   34 2  
    38   33   43 am 
    39   35   36 1  
    40   36   37 ar 
    41   36   38 ar 
    42   37   39 ar 
    43   38   40 ar 
    44   39   41 ar 
    45   40   41 ar 
    46   41   42 1  
    47   43   44 1  
    48   44   45 1  
    49   44   47 1  
    50   45   46 2  
    51   45   51 am 
    52   47   48 1  
    53   48   49 ar 
    54   48   50 ar 
    55   51   52 1  
    56   52   53 1  
    57   52   55 1  
    58   53   54 2  
    59   53   59 am 
    60   55   56 1  
    61   56   57 2  
    62   56   58 am 
    63   59   60 1  
    64   60   61 1  
    65   60   63 1  
    66   61   62 2  
    67   61   69 am 
    68   63   64 1  
    69   64   65 1  
    70   65   66 1  
    71   66   67 2  
    72   67   68 1  
    73   69   70 1  
    74   70   71 1  
    75   70   72 1  
    76   71   74 1  
    77   72   73 am 
    78   72   78 2  
    79   74   75 1  
    80   75   77 1  
    81   77   76 2  
    82    1   79 1  
    83    2   80 1  
    84    5   81 1  
    85    5   82 1  
    86    7   83 1  
    87    8   84 1  
    88   11   85 1  
    89   11   86 1  
    90   13   87 1  
    91   14   88 1  
    92   15   89 1  
    93   16   90 1  
    94   17   91 1  
    95   18   92 1  
    96   19   93 1  
    97   22   94 1  
    98   22   95 1  
    99   23   96 1  
   100   23   97 1  
   101   27   98 1  
   102   28   99 1  
   103   28  100 1  
   104   31  101 1  
   105   32  102 1  
   106   35  103 1  
   107   35  104 1  
   108   37  105 1  
   109   38  106 1  
   110   39  107 1  
   111   40  108 1  
   112   42  109 1  
   113   43  110 1  
   114   44  111 1  
   115   47  112 1  
   116   47  113 1  
   117   51  114 1  
   118   52  115 1  
   119   55  116 1  
   120   55  117 1  
   121   58  118 1  
   122   58  119 1  
   123   59  120 1  
   124   60  121 1  
   125   63  122 1  
   126   63  123 1  
   127   65  124 1  
   128   65  125 1  
   129   66  126 1  
   130   67  127 1  
   131   68  128 1  
   132   68  129 1  
   133   69  130 1  
   134   70  131 1  
   135   71  132 1  
   136   71  133 1  
   137   73  134 1  
   138   73  135 1  
   139   75  136 1  
   140   75  137 1  
@<TRIPOS>SUBSTRUCTURE
     1 SER         1

