5eel_ligand
  -I-interpret- 

139142  0  0  0  0  0  0  0  0999 V2000
  -12.9550   44.9330  100.6950 N   0  0  0  0  0
  -12.6770   43.5510  101.0550 C   0  0  0  0  0
  -11.9440   43.4630  102.3970 C   0  0  0  0  0
  -12.2370   42.5940  103.2200 O   0  0  0  0  0
  -11.8680   42.8880   99.9480 C   0  0  0  0  0
  -11.6510   41.5240  100.2030 O   0  0  0  0  0
  -10.9930   44.3700  102.6070 N   0  0  0  0  0
  -10.2880   44.4980  103.8760 C   0  0  0  0  0
  -10.6240   45.8510  104.5020 C   0  0  0  0  0
  -10.5720   46.8730  103.8170 O   0  0  0  0  0
   -8.7770   44.3750  103.6730 C   0  0  0  0  0
   -8.3480   43.1110  102.9590 C   0  0  0  0  0
   -8.4120   41.8790  103.5960 C   0  0  0  0  0
   -7.8530   43.1630  101.6680 C   0  0  0  0  0
   -8.0050   40.7210  102.9590 C   0  0  0  0  0
   -7.4350   41.9970  101.0170 C   0  0  0  0  0
   -7.5150   40.7770  101.6630 C   0  0  0  0  0
  -10.9590   45.8780  105.7950 N   0  0  0  0  0
  -11.3920   47.1290  106.4200 C   0  0  0  0  0
  -10.3070   48.1950  106.3180 C   0  0  0  0  0
   -9.1550   47.9540  106.6810 O   0  0  0  0  0
  -11.7930   46.9210  107.8860 C   0  0  0  0  0
  -12.4300   48.1740  108.5010 C   0  0  0  0  0
  -12.9500   47.9730  109.9190 C   0  0  0  0  0
  -13.4920   46.8960  110.2300 O   0  0  0  0  0
  -12.8300   48.9120  110.7330 O   0  0  0  0  0
  -10.6790   49.3690  105.8090 N   0  0  0  0  0
   -9.7420   50.4760  105.6670 C   0  0  0  0  0
   -8.7980   50.4030  104.4620 C   0  0  0  0  0
   -7.7860   51.0990  104.4070 O   0  0  0  0  0
   -9.1090   49.5510  103.4960 N   0  0  0  0  0
   -8.3220   49.5150  102.2740 C   0  0  0  0  0
   -9.2750   49.5060  101.0840 C   0  0  0  0  0
  -10.4900   49.3570  101.2520 O   0  0  0  0  0
   -7.3760   48.3000  102.2510 C   0  0  0  0  0
   -6.4270   48.2490  103.4330 C   0  0  0  0  0
   -5.2010   48.9000  103.3910 C   0  0  0  0  0
   -6.7640   47.5560  104.5970 C   0  0  0  0  0
   -4.3310   48.8610  104.4660 C   0  0  0  0  0
   -5.9020   47.5010  105.6690 C   0  0  0  0  0
   -4.6860   48.1620  105.6040 C   0  0  0  0  0
   -3.8150   48.1250  106.6710 O   0  0  0  0  0
   -8.7300   49.6690   99.8850 N   0  0  0  0  0
   -9.5680   49.7620   98.7010 C   0  0  0  0  0
   -9.6380   48.4880   97.8550 C   0  0  0  0  0
  -10.3100   48.4950   96.8270 O   0  0  0  0  0
   -9.0920   50.9240   97.8350 C   0  0  0  0  0
   -9.3260   52.2530   98.4970 C   0  0  0  0  0
  -10.4820   52.5110   98.8970 O   0  0  0  0  0
   -8.3560   53.0190   98.6470 O   0  0  0  0  0
   -8.9720   47.4100   98.2800 N   0  0  0  0  0
   -9.0410   46.1270   97.5530 C   0  0  0  0  0
  -10.4840   45.6940   97.2570 C   0  0  0  0  0
  -11.2530   45.4450   98.1840 O   0  0  0  0  0
   -8.3500   44.9960   98.3320 C   0  0  0  0  0
   -6.9650   45.3680   98.8290 C   0  0  0  0  0
   -6.7680   46.4310   99.4150 O   0  0  0  0  0
   -5.9930   44.4880   98.5920 N   0  0  0  0  0
  -10.8400   45.6170   95.9730 N   0  0  0  0  0
  -12.1510   45.1250   95.5400 C   0  0  0  0  0
  -13.3320   45.7180   96.3020 C   0  0  0  0  0
  -14.2780   44.9940   96.6760 O   0  0  0  0  0
  -12.2070   43.6070   95.6670 C   0  0  0  0  0
  -11.0840   43.0080   95.0630 O   0  0  0  0  0
  -10.9400   41.7230   95.5870 C   0  0  0  0  0
  -10.5640   41.8350   97.0150 C   0  0  0  0  0
  -10.9660   40.9640   97.9130 C   0  0  0  0  0
  -10.6350   41.0920   99.3460 C   0  0  0  0  0
  -13.7040   47.0370   96.0020 N   0  0  0  0  0
  -13.4360   48.0010   96.9990 C   0  0  0  0  0
  -14.1680   47.6320   98.2760 C   0  0  0  0  0
  -13.8980   49.3560   96.5210 C   0  0  0  0  0
  -13.0320   50.0620   95.7960 N   0  0  0  0  0
  -13.1080   47.8590   99.7220 S   0  0  0  0  0
  -14.1350   47.1340  101.0370 C   0  0  0  0  0
  -14.1170   45.3870  102.5420 O   0  0  0  0  0
  -13.6110   45.8670  101.5300 C   0  0  0  0  0
  -15.0140   49.7350   96.7990 O   0  0  0  0  0
  -12.6550   45.2513   99.7735 H   0  0  0  0  0
  -13.6235   43.0225  101.1684 H   0  0  0  0  0
  -10.8987   43.3832   99.8895 H   0  0  0  0  0
  -12.4267   42.9769   99.0163 H   0  0  0  0  0
  -10.7468   45.0034  101.8463 H   0  0  0  0  0
  -10.6063   43.6951  104.5409 H   0  0  0  0  0
   -8.3199   44.3565  104.6624 H   0  0  0  0  0
   -8.4662   45.2159  103.0531 H   0  0  0  0  0
   -8.7900   41.8235  104.6169 H   0  0  0  0  0
   -7.7880   44.1215  101.1531 H   0  0  0  0  0
   -8.0694   39.7636  103.4760 H   0  0  0  0  0
   -7.0461   42.0504  100.0001 H   0  0  0  0  0
   -7.1952   39.8660  101.1572 H   0  0  0  0  0
  -10.9129   45.0230  106.3493 H   0  0  0  0  0
  -12.2717   47.4720  105.8755 H   0  0  0  0  0
  -10.8915   46.6880  108.4526 H   0  0  0  0  0
  -12.5269   46.1160  107.9241 H   0  0  0  0  0
  -13.2839   48.4412  107.8785 H   0  0  0  0  0
  -11.6566   48.9408  108.5460 H   0  0  0  0  0
  -12.3890   49.6500  110.3058 H   0  0  0  0  0
  -11.6460   49.4963  105.5106 H   0  0  0  0  0
   -9.1092   50.4585  106.5543 H   0  0  0  0  0
  -10.3454   51.3735  105.5305 H   0  0  0  0  0
   -9.9018   48.9194  103.6099 H   0  0  0  0  0
   -7.6876   50.3999  102.2223 H   0  0  0  0  0
   -6.7703   48.3737  101.3478 H   0  0  0  0  0
   -7.9941   47.4030  102.2885 H   0  0  0  0  0
   -4.9189   49.4520  102.4944 H   0  0  0  0  0
   -7.7271   47.0492  104.6582 H   0  0  0  0  0
   -3.3726   49.3778  104.4157 H   0  0  0  0  0
   -6.1745   46.9408  106.5635 H   0  0  0  0  0
   -4.2009   47.6050  107.3797 H   0  0  0  0  0
   -7.7159   49.7294   99.7937 H   0  0  0  0  0
  -10.5813   49.9236   99.0686 H   0  0  0  0  0
   -9.6535   50.9051   96.9010 H   0  0  0  0  0
   -8.0206   50.8095   97.6701 H   0  0  0  0  0
  -11.0664   51.7825   98.6747 H   0  0  0  0  0
   -8.4039   47.4751   99.1247 H   0  0  0  0  0
   -8.5223   46.3008   96.6102 H   0  0  0  0  0
   -8.2404   44.1489   97.6548 H   0  0  0  0  0
   -8.9644   44.7740   99.2046 H   0  0  0  0  0
   -5.0408   44.6844   98.9005 H   0  0  0  0  0
   -6.2011   43.6179   98.1021 H   0  0  0  0  0
  -10.1709   45.9133   95.2624 H   0  0  0  0  0
  -12.2496   45.4455   94.5029 H   0  0  0  0  0
  -13.1064   43.2472   95.1672 H   0  0  0  0  0
  -12.2165   43.3447   96.7249 H   0  0  0  0  0
  -10.1663   41.1837   95.0405 H   0  0  0  0  0
  -11.8780   41.1759   95.4918 H   0  0  0  0  0
   -9.9338   42.6663   97.3312 H   0  0  0  0  0
  -11.5667   40.1147   97.5875 H   0  0  0  0  0
  -10.3753   40.0873   99.6795 H   0  0  0  0  0
   -9.8579   41.8543   99.4022 H   0  0  0  0  0
  -14.1426   47.2855   95.1153 H   0  0  0  0  0
  -12.3646   48.0315   97.1973 H   0  0  0  0  0
  -14.4613   46.5837   98.2195 H   0  0  0  0  0
  -15.0398   48.2783   98.3776 H   0  0  0  0  0
  -13.2952   50.9806   95.4393 H   0  0  0  0  0
  -12.1056   49.6840   95.5975 H   0  0  0  0  0
  -15.1251   46.9464  100.6216 H   0  0  0  0  0
  -14.1522   47.8351  101.8714 H   0  0  0  0  0
  1  2  1  0  0  0
  1 77  1  0  0  0
  2  3  1  0  0  0
  2  5  1  0  0  0
  3  4  2  0  0  0
  3  7  1  0  0  0
  5  6  1  0  0  0
  6 68  1  0  0  0
  7  8  1  0  0  0
  8  9  1  0  0  0
  8 11  1  0  0  0
  9 10  2  0  0  0
  9 18  1  0  0  0
 11 12  1  0  0  0
 12 13  4  0  0  0
 12 14  4  0  0  0
 13 15  4  0  0  0
 14 16  4  0  0  0
 15 17  4  0  0  0
 16 17  4  0  0  0
 18 19  1  0  0  0
 19 20  1  0  0  0
 19 22  1  0  0  0
 20 21  2  0  0  0
 20 27  1  0  0  0
 22 23  1  0  0  0
 23 24  1  0  0  0
 24 25  2  0  0  0
 24 26  1  0  0  0
 27 28  1  0  0  0
 28 29  1  0  0  0
 29 30  2  0  0  0
 29 31  1  0  0  0
 31 32  1  0  0  0
 32 33  1  0  0  0
 32 35  1  0  0  0
 33 34  2  0  0  0
 33 43  1  0  0  0
 35 36  1  0  0  0
 36 37  4  0  0  0
 36 38  4  0  0  0
 37 39  4  0  0  0
 38 40  4  0  0  0
 39 41  4  0  0  0
 40 41  4  0  0  0
 41 42  1  0  0  0
 43 44  1  0  0  0
 44 45  1  0  0  0
 44 47  1  0  0  0
 45 46  2  0  0  0
 45 51  1  0  0  0
 47 48  1  0  0  0
 48 49  1  0  0  0
 48 50  2  0  0  0
 51 52  1  0  0  0
 52 53  1  0  0  0
 52 55  1  0  0  0
 53 54  2  0  0  0
 53 59  1  0  0  0
 55 56  1  0  0  0
 56 57  2  0  0  0
 56 58  1  0  0  0
 59 60  1  0  0  0
 60 61  1  0  0  0
 60 63  1  0  0  0
 61 62  2  0  0  0
 61 69  1  0  0  0
 63 64  1  0  0  0
 64 65  1  0  0  0
 65 66  1  0  0  0
 66 67  2  0  0  0
 67 68  1  0  0  0
 69 70  1  0  0  0
 70 71  1  0  0  0
 70 72  1  0  0  0
 71 74  1  0  0  0
 72 73  1  0  0  0
 72 78  2  0  0  0
 74 75  1  0  0  0
 75 77  1  0  0  0
 77 76  2  0  0  0
  1 79  1  0  0  0
  2 80  1  0  0  0
  5 81  1  0  0  0
  5 82  1  0  0  0
  7 83  1  0  0  0
  8 84  1  0  0  0
 11 85  1  0  0  0
 11 86  1  0  0  0
 13 87  1  0  0  0
 14 88  1  0  0  0
 15 89  1  0  0  0
 16 90  1  0  0  0
 17 91  1  0  0  0
 18 92  1  0  0  0
 19 93  1  0  0  0
 22 94  1  0  0  0
 22 95  1  0  0  0
 23 96  1  0  0  0
 23 97  1  0  0  0
 26 98  1  0  0  0
 27 99  1  0  0  0
 28100  1  0  0  0
 28101  1  0  0  0
 31102  1  0  0  0
 32103  1  0  0  0
 35104  1  0  0  0
 35105  1  0  0  0
 37106  1  0  0  0
 38107  1  0  0  0
 39108  1  0  0  0
 40109  1  0  0  0
 42110  1  0  0  0
 43111  1  0  0  0
 44112  1  0  0  0
 47113  1  0  0  0
 47114  1  0  0  0
 49115  1  0  0  0
 51116  1  0  0  0
 52117  1  0  0  0
 55118  1  0  0  0
 55119  1  0  0  0
 58120  1  0  0  0
 58121  1  0  0  0
 59122  1  0  0  0
 60123  1  0  0  0
 63124  1  0  0  0
 63125  1  0  0  0
 65126  1  0  0  0
 65127  1  0  0  0
 66128  1  0  0  0
 67129  1  0  0  0
 68130  1  0  0  0
 68131  1  0  0  0
 69132  1  0  0  0
 70133  1  0  0  0
 71134  1  0  0  0
 71135  1  0  0  0
 73136  1  0  0  0
 73137  1  0  0  0
 75138  1  0  0  0
 75139  1  0  0  0
M  END
$$$$
