4dxj_ligand
  -I-interpret- 

 30 29  0  0  0  0  0  0  0  0999 V2000
   48.2890   47.3460  204.0600 O   0  0  0  0  0
   49.3070   48.3620  204.5060 P   0  0  0  0  0
   49.9070   48.0410  205.8550 O   0  0  0  0  0
   50.3420   48.6620  203.4550 O   0  0  0  0  0
   48.4800   49.9900  204.6040 C   0  0  0  0  0
   49.1440   51.0860  205.9120 P   0  0  0  0  0
   48.0300   52.0390  206.2950 O   0  0  0  0  0
   49.6170   50.2070  207.0530 O   0  0  0  0  0
   50.2180   51.7710  205.1060 O   0  0  0  0  0
   46.9630   50.0830  204.7380 C   0  0  0  0  0
   46.5820   51.3090  204.0700 N   0  3  0  0  0
   45.1930   51.5970  203.8350 C   0  0  0  0  0
   45.0690   52.8950  203.0590 C   0  0  0  0  0
   43.9570   53.7070  203.6470 C   0  0  0  0  0
   47.6577   47.1954  204.7674 H   0  0  0  0  0
   49.2031   47.8592  206.4820 H   0  0  0  0  0
   48.7233   50.3030  203.5887 H   0  0  0  0  0
   47.3680   51.5670  206.8054 H   0  0  0  0  0
   48.8568   49.8229  207.4959 H   0  0  0  0  0
   46.6573   50.0902  205.7842 H   0  0  0  0  0
   46.4719   49.2188  204.2906 H   0  0  0  0  0
   46.9873   51.2282  203.1375 H   0  0  0  0  0
   46.8935   52.0496  204.6984 H   0  0  0  0  0
   44.6758   51.6939  204.7896 H   0  0  0  0  0
   44.7464   50.7860  203.2597 H   0  0  0  0  0
   44.8544   52.6795  202.0123 H   0  0  0  0  0
   46.0041   53.4517  203.1202 H   0  0  0  0  0
   43.0247   53.1463  203.5800 H   0  0  0  0  0
   44.1790   53.9216  204.6923 H   0  0  0  0  0
   43.8606   54.6421  203.0953 H   0  0  0  0  0
  1  2  1  0  0  0
  2  3  1  0  0  0
  2  4  2  0  0  0
  2  5  1  0  0  0
  5  6  1  0  0  0
  5 10  1  0  0  0
  6  7  1  0  0  0
  6  8  1  0  0  0
  6  9  2  0  0  0
 10 11  1  0  0  0
 11 12  1  0  0  0
 12 13  1  0  0  0
 13 14  1  0  0  0
  1 15  1  0  0  0
  3 16  1  0  0  0
  5 17  1  0  0  0
  7 18  1  0  0  0
  8 19  1  0  0  0
 10 20  1  0  0  0
 10 21  1  0  0  0
 11 22  1  0  0  0
 11 23  1  0  0  0
 12 24  1  0  0  0
 12 25  1  0  0  0
 13 26  1  0  0  0
 13 27  1  0  0  0
 14 28  1  0  0  0
 14 29  1  0  0  0
 14 30  1  0  0  0
M  END
$$$$
