### 
### Created by X-TOOL on Mon Sep 10 21:13:15 2018
### 

@<TRIPOS>MOLECULE
4dxj_ligand
   26    25     1     0     0
SMALL
GAST_HUCK


@<TRIPOS>ATOM
      1 O1         48.2890   47.3460  204.0600 O.co2     1 0M9        -0.5610
      2 P1         49.3070   48.3620  204.5060 P.3       1 0M9         0.0831
      3 O3         49.9070   48.0410  205.8550 O.co2     1 0M9        -0.5610
      4 O2         50.3420   48.6620  203.4550 O.co2     1 0M9        -0.5610
      5 C9         48.4800   49.9900  204.6040 C.3       1 0M9         0.1400
      6 P2         49.1440   51.0860  205.9120 P.3       1 0M9         0.0831
      7 O4         48.0300   52.0390  206.2950 O.co2     1 0M9        -0.5610
      8 O5         49.6170   50.2070  207.0530 O.co2     1 0M9        -0.5610
      9 O6         50.2180   51.7710  205.1060 O.co2     1 0M9        -0.5610
     10 C8         46.9630   50.0830  204.7380 C.3       1 0M9         0.0001
     11 N1         46.5820   51.3090  204.0700 N.4       1 0M9         0.2292
     12 C7         45.1930   51.5970  203.8350 C.3       1 0M9        -0.0338
     13 C6         45.0690   52.8950  203.0590 C.3       1 0M9        -0.0154
     14 C5         43.9570   53.7070  203.6470 C.3       1 0M9        -0.0605
     15 H1         48.7187   50.4641  203.6406 H         1 0M9         0.0732
     16 H2         46.6737   50.1190  205.7987 H         1 0M9         0.0845
     17 H3         46.4823   49.2190  204.2560 H         1 0M9         0.0845
     18 H4         47.0344   51.3025  203.1693 H         1 0M9         0.2014
     19 H5         46.9470   52.0679  204.6239 H         1 0M9         0.2014
     20 H6         44.6708   51.6946  204.7982 H         1 0M9         0.0814
     21 H7         44.7420   50.7786  203.2547 H         1 0M9         0.0814
     22 H8         44.8477   52.6750  202.0042 H         1 0M9         0.0314
     23 H9         46.0122   53.4571  203.1263 H         1 0M9         0.0314
     24 H10        43.8587   54.6510  203.0910 H         1 0M9         0.0232
     25 H11        44.1799   53.9244  204.7020 H         1 0M9         0.0232
     26 H12        43.0154   53.1423  203.5799 H         1 0M9         0.0232
@<TRIPOS>BOND
     1    1    2 ar 
     2    2    3 ar 
     3    2    4 ar 
     4    2    5 1  
     5    5    6 1  
     6    5   10 1  
     7    6    7 ar 
     8    6    8 ar 
     9    6    9 ar 
    10   10   11 1  
    11   11   12 1  
    12   12   13 1  
    13   13   14 1  
    14    5   15 1  
    15   10   16 1  
    16   10   17 1  
    17   11   18 1  
    18   11   19 1  
    19   12   20 1  
    20   12   21 1  
    21   13   22 1  
    22   13   23 1  
    23   14   24 1  
    24   14   25 1  
    25   14   26 1  
@<TRIPOS>SUBSTRUCTURE
     1 0M9         1

