2y3p_ligand
  -I-interpret- 

108115  0  0  0  0  0  0  0  0999 V2000
  -15.7270   45.1370   32.6520 N   0  0  0  0  0
  -21.7880   45.4590   34.9500 Cl  0  0  0  0  0
   -1.8770   52.3210   27.2830 C   0  0  0  0  0
   -2.5840   52.6090   29.5510 O   0  0  0  0  0
   -2.0240   53.1050   28.4120 C   0  0  0  0  0
   -2.7000   54.6480   30.5580 O   0  0  0  0  0
   -1.5960   54.4160   28.3910 C   0  0  0  0  0
   -1.3860   59.0120   26.0880 O   0  0  0  0  0
   -1.7740   55.2040   29.6230 C   0  0  0  0  0
    0.6890   59.0060   30.2630 O   0  0  0  0  0
   -1.7500   56.7200   29.4990 C   0  0  0  0  0
   -1.7740   57.5550   30.7700 C   0  0  0  0  0
    0.8780   58.6880   27.8970 O   0  0  0  0  0
   -1.7320   59.0460   30.4610 C   0  0  0  0  0
    0.2210   56.7460   26.3590 O   0  0  0  0  0
   -0.5180   59.4290   29.6200 C   0  0  0  0  0
   -2.4730   57.2490   28.3890 O   0  0  0  0  0
   -1.5800   61.4540   28.6140 C   0  0  0  0  0
   -0.4530   60.9460   29.4840 C   0  0  0  0  0
   -2.3070   62.7170   28.9710 C   0  0  0  0  0
   -1.9310   60.7750   27.5140 C   0  0  0  0  0
   -1.2840   59.4860   27.2080 C   0  0  0  0  0
   -0.5080   58.7370   28.2620 C   0  0  0  0  0
   -1.0480   57.3080   28.2820 C   0  0  0  0  0
   -0.5550   56.3630   27.2210 C   0  0  0  0  0
   -1.0240   54.9420   27.2440 C   0  0  0  0  0
   -0.8770   54.1560   26.1060 C   0  0  0  0  0
   -1.3080   52.8360   26.1240 C   0  0  0  0  0
   -2.3400   50.9220   27.3200 C   0  0  0  0  0
   -1.7330   50.1640   26.2760 O   0  0  0  0  0
   -3.8440   50.9550   27.1190 C   0  0  0  0  0
   -3.9560   47.2680   26.4230 O   0  0  0  0  0
   -4.3810   49.5340   27.1190 C   0  0  0  0  0
   -4.0480   45.4780   24.9980 O   0  0  0  0  0
   -3.5830   48.6240   26.1910 C   0  0  0  0  0
   -5.7280   49.6140   26.6710 O   0  0  0  0  0
   -2.0770   48.7840   26.3710 C   0  0  0  0  0
   -1.3220   48.0110   25.2980 C   0  0  0  0  0
   -4.4010   46.6290   25.1950 C   0  0  0  0  0
   -5.2610   47.3860   24.2230 C   0  0  0  0  0
   -6.5980   49.0400   27.6750 C   0  0  0  0  0
   -6.1070   48.7250   28.7460 O   0  0  0  0  0
   -7.8980   48.8690   27.4040 C   0  0  0  0  0
  -16.4630   45.7790   30.6310 O   0  0  0  0  0
   -8.6860   48.3380   28.3310 C   0  0  0  0  0
   -9.9790   48.1550   28.0970 C   0  0  0  0  0
  -10.6940   47.6190   29.0770 C   0  0  0  0  0
  -11.9950   47.3900   28.9550 C   0  0  0  0  0
  -12.5890   46.8500   30.0130 C   0  0  0  0  0
  -13.8840   46.5590   30.0530 C   0  0  0  0  0
  -14.2980   46.0260   31.1940 C   0  0  0  0  0
  -15.5590   45.6560   31.4430 C   0  0  0  0  0
  -17.0090   44.7350   33.0170 C   0  0  0  0  0
  -16.7610   42.3740   32.3080 O   0  0  0  0  0
  -17.5330   43.3580   32.8460 C   0  0  0  0  0
  -22.8520   42.6770   34.6030 O   0  0  0  0  0
  -18.9340   43.1250   33.2970 C   0  0  0  0  0
  -19.1510   45.4560   33.9860 O   0  0  0  0  0
  -19.5450   41.8790   33.1930 C   0  0  0  0  0
  -17.4570   46.9400   33.7570 O   0  0  0  0  0
  -20.8600   41.7200   33.6310 C   0  0  0  0  0
   -0.6310   57.1770   31.5450 O   0  0  0  0  0
  -21.5670   42.7950   34.1690 C   0  0  0  0  0
  -20.9540   44.0250   34.2690 C   0  0  0  0  0
  -19.6520   44.1900   33.8380 C   0  0  0  0  0
  -17.8820   45.7750   33.6070 C   0  0  0  0  0
  -14.9413   45.0355   33.2945 H   0  0  0  0  0
   -2.6013   53.2947   30.2226 H   0  0  0  0  0
   -2.7574   55.2188   31.3277 H   0  0  0  0  0
   -0.8124   55.0678   30.1178 H   0  0  0  0  0
    1.4423   59.2540   29.7220 H   0  0  0  0  0
   -2.6993   57.3727   31.3166 H   0  0  0  0  0
    0.9677   58.2606   27.0421 H   0  0  0  0  0
   -1.6725   59.5857   31.4061 H   0  0  0  0  0
   -2.6287   59.2996   29.8956 H   0  0  0  0  0
    0.4970   61.2179   29.0239 H   0  0  0  0  0
   -0.5439   61.3925   30.4742 H   0  0  0  0  0
   -2.1946   63.4401   28.1632 H   0  0  0  0  0
   -3.3642   62.4968   29.1187 H   0  0  0  0  0
   -1.8884   63.1284   29.8895 H   0  0  0  0  0
   -2.6939   61.1749   26.8460 H   0  0  0  0  0
   -0.4263   54.5735   25.2056 H   0  0  0  0  0
   -1.2012   52.2100   25.2381 H   0  0  0  0  0
   -2.0725   50.4543   28.2675 H   0  0  0  0  0
   -4.0748   51.4326   26.1668 H   0  0  0  0  0
   -4.3081   51.5207   27.9269 H   0  0  0  0  0
   -4.3045   49.1064   28.1187 H   0  0  0  0  0
   -3.8165   48.9119   25.1660 H   0  0  0  0  0
   -1.8014   48.3924   27.3502 H   0  0  0  0  0
   -1.5979   48.3928   24.3150 H   0  0  0  0  0
   -0.2497   48.1348   25.4495 H   0  0  0  0  0
   -1.5799   46.9540   25.3642 H   0  0  0  0  0
   -4.7492   47.4534   23.2630 H   0  0  0  0  0
   -6.2089   46.8633   24.0949 H   0  0  0  0  0
   -5.4466   48.3886   24.6084 H   0  0  0  0  0
   -8.3037   49.1618   26.4356 H   0  0  0  0  0
   -8.2663   48.0493   29.2946 H   0  0  0  0  0
  -10.4319   48.4319   27.1450 H   0  0  0  0  0
  -10.1973   47.3586   30.0116 H   0  0  0  0  0
  -12.5422   47.6300   28.0434 H   0  0  0  0  0
  -11.9829   46.6348   30.8930 H   0  0  0  0  0
  -14.5541   46.7439   29.2134 H   0  0  0  0  0
  -13.5605   45.8793   31.9831 H   0  0  0  0  0
  -17.2632   41.5564   32.2758 H   0  0  0  0  0
  -23.1554   43.5250   34.9354 H   0  0  0  0  0
  -19.0003   41.0337   32.7725 H   0  0  0  0  0
  -21.3402   40.7447   33.5518 H   0  0  0  0  0
   -0.6144   57.6868   32.3583 H   0  0  0  0  0
  1 52  1  0  0  0
 53  1  1  0  0  0
 64  2  1  0  0  0
  3  5  4  0  0  0
  3 28  4  0  0  0
 29  3  1  0  0  0
  5  4  1  0  0  0
  5  7  4  0  0  0
  9  6  1  0  0  0
  7  9  1  0  0  0
  7 26  4  0  0  0
 22  8  2  0  0  0
  9 11  1  0  0  0
 16 10  1  0  0  0
 11 12  1  0  0  0
 11 17  1  0  0  0
 11 24  1  0  0  0
 12 14  1  0  0  0
 12 62  1  0  0  0
 23 13  1  0  0  0
 14 16  1  0  0  0
 25 15  2  0  0  0
 16 19  1  0  0  0
 23 16  1  0  0  0
 24 17  1  0  0  0
 19 18  1  0  0  0
 18 20  1  0  0  0
 21 18  2  0  0  0
 22 21  1  0  0  0
 23 22  1  0  0  0
 24 23  1  0  0  0
 25 24  1  0  0  0
 26 25  1  0  0  0
 27 26  4  0  0  0
 28 27  4  0  0  0
 29 30  1  0  0  0
 31 29  1  0  0  0
 37 30  1  0  0  0
 33 31  1  0  0  0
 35 32  1  0  0  0
 32 39  1  0  0  0
 33 35  1  0  0  0
 36 33  1  0  0  0
 39 34  2  0  0  0
 35 37  1  0  0  0
 41 36  1  0  0  0
 37 38  1  0  0  0
 39 40  1  0  0  0
 41 42  2  0  0  0
 43 41  1  0  0  0
 45 43  2  0  0  0
 52 44  2  0  0  0
 46 45  1  0  0  0
 47 46  2  0  0  0
 48 47  1  0  0  0
 49 48  2  0  0  0
 50 49  1  0  0  0
 51 50  2  0  0  0
 52 51  1  0  0  0
 55 53  2  0  0  0
 53 66  1  0  0  0
 55 54  1  0  0  0
 57 55  1  0  0  0
 63 56  1  0  0  0
 59 57  4  0  0  0
 57 65  4  0  0  0
 65 58  1  0  0  0
 58 66  1  0  0  0
 61 59  4  0  0  0
 66 60  2  0  0  0
 63 61  4  0  0  0
 63 64  4  0  0  0
 64 65  4  0  0  0
  1 67  1  0  0  0
  4 68  1  0  0  0
  6 69  1  0  0  0
  9 70  1  0  0  0
 10 71  1  0  0  0
 12 72  1  0  0  0
 13 73  1  0  0  0
 14 74  1  0  0  0
 14 75  1  0  0  0
 19 76  1  0  0  0
 19 77  1  0  0  0
 20 78  1  0  0  0
 20 79  1  0  0  0
 20 80  1  0  0  0
 21 81  1  0  0  0
 27 82  1  0  0  0
 28 83  1  0  0  0
 29 84  1  0  0  0
 31 85  1  0  0  0
 31 86  1  0  0  0
 33 87  1  0  0  0
 35 88  1  0  0  0
 37 89  1  0  0  0
 38 90  1  0  0  0
 38 91  1  0  0  0
 38 92  1  0  0  0
 40 93  1  0  0  0
 40 94  1  0  0  0
 40 95  1  0  0  0
 43 96  1  0  0  0
 45 97  1  0  0  0
 46 98  1  0  0  0
 47 99  1  0  0  0
 48100  1  0  0  0
 49101  1  0  0  0
 50102  1  0  0  0
 51103  1  0  0  0
 54104  1  0  0  0
 56105  1  0  0  0
 59106  1  0  0  0
 61107  1  0  0  0
 62108  1  0  0  0
M  END
$$$$
