3aau_ligand
  -I-interpret- 

 50 51  0  0  0  0  0  0  0  0999 V2000
   -0.0670   21.6430   29.2130 N   0  0  0  0  0
    0.5650   20.5600   28.7720 C   0  0  0  0  0
    1.3320   20.3610   27.7490 N   0  0  0  0  0
    0.9210   19.6980   26.6710 C   0  0  0  0  0
    1.1060   18.3200   26.6360 C   0  0  0  0  0
    0.7560   17.5950   25.5060 C   0  0  0  0  0
   -0.0950   14.7450   19.4760 C   0  0  0  0  0
   -0.4160   14.0240   18.3320 C   0  0  0  0  0
   -1.2890   14.5700   17.3960 C   0  0  0  0  0
   -1.6040   13.8400   16.3290 N   0  0  0  0  0
   -2.2460   14.3050   15.2590 C   0  0  0  0  0
   -2.7650   13.4470   14.3840 N   0  0  0  0  0
    0.3850   19.4020   29.3990 N   0  0  0  0  0
    0.3710   20.3410   25.5660 C   0  0  0  0  0
    0.0130   19.6200   24.4350 C   0  0  0  0  0
    0.2210   18.2480   24.4030 C   0  0  0  0  0
   -0.0140   17.5430   23.2670 O   0  0  0  0  0
   -0.3200   16.6930   20.8150 O   0  0  0  0  0
   -0.6460   16.0030   19.6890 C   0  0  0  0  0
   -1.5260   16.5610   18.7650 C   0  0  0  0  0
   -1.8320   15.8300   17.6220 C   0  0  0  0  0
   -2.3430   15.6110   15.0300 N   0  0  0  0  0
   -0.6570   20.2320   23.3820 C   0  0  0  0  0
   -1.1070   19.9810   22.2900 N   0  0  0  0  0
   -1.7000   20.7590   21.1910 C   0  0  0  0  0
   -2.2710   19.8780   20.2810 C   0  0  0  0  0
   -1.5880   18.8410   19.8260 N   0  0  0  0  0
   -2.2400   17.9060   18.9260 C   0  0  0  0  0
   -0.6821   21.5797   30.0242 H   0  0  0  0  0
    0.0631   22.5374   28.7402 H   0  0  0  0  0
    2.2846   20.7250   27.7697 H   0  0  0  0  0
    1.5279   17.8072   27.5004 H   0  0  0  0  0
    0.9006   16.5149   25.4839 H   0  0  0  0  0
    0.5918   14.3221   20.2092 H   0  0  0  0  0
    0.0139   13.0358   18.1688 H   0  0  0  0  0
   -1.3351   12.8561   16.3308 H   0  0  0  0  0
   -3.2324   13.7932   13.5461 H   0  0  0  0  0
   -2.6954   12.4432   14.5513 H   0  0  0  0  0
    0.8281   18.5550   29.0431 H   0  0  0  0  0
    0.2200   21.4202   25.5888 H   0  0  0  0  0
   -0.3811   18.1271   22.5994 H   0  0  0  0  0
   -0.7780   17.5367   20.8158 H   0  0  0  0  0
   -2.5140   16.2551   16.8856 H   0  0  0  0  0
   -1.9217   16.2753   15.6793 H   0  0  0  0  0
   -0.8339   21.2810   23.6197 H   0  0  0  0  0
   -0.9295   21.3526   20.6990 H   0  0  0  0  0
   -2.4619   21.4330   21.5827 H   0  0  0  0  0
   -3.2925   20.0433   19.9385 H   0  0  0  0  0
   -3.2217   17.6933   19.3492 H   0  0  0  0  0
   -2.2559   18.3744   17.9419 H   0  0  0  0  0
  2  1  1  0  0  0
  3  2  1  0  0  0
  2 13  2  0  0  0
  4  3  1  0  0  0
  4  5  4  0  0  0
 14  4  4  0  0  0
  6  5  4  0  0  0
 16  6  4  0  0  0
  7  8  4  0  0  0
 19  7  4  0  0  0
  9  8  4  0  0  0
  9 10  1  0  0  0
 21  9  4  0  0  0
 10 11  1  0  0  0
 11 12  1  0  0  0
 11 22  2  0  0  0
 15 14  4  0  0  0
 15 16  4  0  0  0
 23 15  1  0  0  0
 16 17  1  0  0  0
 19 18  1  0  0  0
 20 19  4  0  0  0
 20 21  4  0  0  0
 28 20  1  0  0  0
 24 23  2  0  0  0
 25 24  1  0  0  0
 26 25  1  0  0  0
 27 26  2  0  0  0
 27 28  1  0  0  0
  1 29  1  0  0  0
  1 30  1  0  0  0
  3 31  1  0  0  0
  5 32  1  0  0  0
  6 33  1  0  0  0
  7 34  1  0  0  0
  8 35  1  0  0  0
 10 36  1  0  0  0
 12 37  1  0  0  0
 12 38  1  0  0  0
 13 39  1  0  0  0
 14 40  1  0  0  0
 17 41  1  0  0  0
 18 42  1  0  0  0
 21 43  1  0  0  0
 22 44  1  0  0  0
 23 45  1  0  0  0
 25 46  1  0  0  0
 25 47  1  0  0  0
 26 48  1  0  0  0
 28 49  1  0  0  0
 28 50  1  0  0  0
M  END
$$$$
