3eos_ligand
  -I-interpret- 

 53 56  0  0  0  0  0  0  0  0999 V2000
   18.1690   17.3800   22.8140 C   0  0  0  0  0
   19.2470   17.7530   23.2210 O   0  0  0  0  0
   17.1440   17.0090   23.5930 N   0  0  0  0  0
   15.9580   16.6240   23.0610 C   0  0  0  0  0
   14.9770   16.3890   23.9720 N   0  0  0  0  0
   15.8200   16.4880   21.7920 N   0  0  0  0  0
   16.7510   16.8250   20.8690 C   0  0  0  0  0
   16.4890   16.6880   19.4910 C   0  0  0  0  0
   15.1720   16.2230   18.8750 C   0  0  0  0  0
   15.3450   14.8200   18.2040 C   0  0  0  0  0
   14.2740   14.6820   17.1460 N   0  3  0  0  0
   12.9590   14.4180   17.8070 C   0  0  0  0  0
   11.7670   14.5320   16.8130 C   0  0  0  0  0
   11.8790   15.8710   16.0240 C   0  0  0  0  0
   10.7470   15.9060   14.9540 C   0  0  0  0  0
    9.3620   15.8220   15.6440 C   0  0  0  0  0
    9.2400   14.5530   16.5260 C   0  0  0  0  0
   10.3950   14.5280   17.5720 C   0  0  0  0  0
   17.5240   17.1240   18.6530 C   0  0  0  0  0
   17.5590   17.2670   17.3110 N   0  0  0  0  0
   18.6800   17.7430   16.9420 C   0  0  0  0  0
   19.0220   18.0980   15.6900 N   0  0  0  0  0
   18.1860   17.9390   14.5130 C   0  0  0  0  0
   19.5060   17.9810   17.9980 N   0  0  0  0  0
   18.7170   17.6220   19.1040 C   0  0  0  0  0
   19.0560   17.6670   20.4660 C   0  0  0  0  0
   18.0140   17.2480   21.3130 C   0  0  0  0  0
   15.1665   16.5067   24.9673 H   0  0  0  0  0
   14.9414   16.0959   21.4532 H   0  0  0  0  0
   14.8627   16.9422   18.1166 H   0  0  0  0  0
   14.4204   16.1491   19.6609 H   0  0  0  0  0
   15.2480   14.0291   18.9477 H   0  0  0  0  0
   16.3347   14.7331   17.7557 H   0  0  0  0  0
   14.5056   13.9074   16.5242 H   0  0  0  0  0
   14.2168   15.5436   16.6031 H   0  0  0  0  0
   12.8186   15.1619   18.5912 H   0  0  0  0  0
   12.9757   13.4018   18.2009 H   0  0  0  0  0
   11.8076   13.6759   16.1395 H   0  0  0  0  0
   12.8530   15.9386   15.5395 H   0  0  0  0  0
   11.7752   16.7156   16.7052 H   0  0  0  0  0
   10.8640   15.0570   14.2805 H   0  0  0  0  0
   10.8123   16.8386   14.3936 H   0  0  0  0  0
    8.5943   15.7795   14.8714 H   0  0  0  0  0
    9.2413   16.6976   16.2818 H   0  0  0  0  0
    9.3045   13.6666   15.8950 H   0  0  0  0  0
    8.2819   14.5646   17.0456 H   0  0  0  0  0
   10.3277   15.4044   18.2165 H   0  0  0  0  0
   10.3163   13.6313   18.1867 H   0  0  0  0  0
   19.9442   18.5129   15.5565 H   0  0  0  0  0
   17.9520   16.8834   14.3750 H   0  0  0  0  0
   17.2627   18.5028   14.6459 H   0  0  0  0  0
   18.7182   18.3119   13.6379 H   0  0  0  0  0
   20.0297   17.9941   20.8306 H   0  0  0  0  0
  1  2  2  0  0  0
  1  3  1  0  0  0
  1 27  1  0  0  0
  3  4  4  0  0  0
  4  5  2  0  0  0
  4  6  1  0  0  0
  6  7  1  0  0  0
  7  8  4  0  0  0
  7 27  4  0  0  0
  8  9  1  0  0  0
  8 19  4  0  0  0
  9 10  1  0  0  0
 10 11  1  0  0  0
 11 12  1  0  0  0
 12 13  1  0  0  0
 13 14  1  0  0  0
 13 18  1  0  0  0
 14 15  1  0  0  0
 15 16  1  0  0  0
 16 17  1  0  0  0
 17 18  1  0  0  0
 19 20  4  0  0  0
 19 25  4  0  0  0
 20 21  4  0  0  0
 21 22  1  0  0  0
 21 24  4  0  0  0
 22 23  1  0  0  0
 24 25  4  0  0  0
 25 26  4  0  0  0
 26 27  4  0  0  0
  5 28  1  0  0  0
  6 29  1  0  0  0
  9 30  1  0  0  0
  9 31  1  0  0  0
 10 32  1  0  0  0
 10 33  1  0  0  0
 11 34  1  0  0  0
 11 35  1  0  0  0
 12 36  1  0  0  0
 12 37  1  0  0  0
 13 38  1  0  0  0
 14 39  1  0  0  0
 14 40  1  0  0  0
 15 41  1  0  0  0
 15 42  1  0  0  0
 16 43  1  0  0  0
 16 44  1  0  0  0
 17 45  1  0  0  0
 17 46  1  0  0  0
 18 47  1  0  0  0
 18 48  1  0  0  0
 22 49  1  0  0  0
 23 50  1  0  0  0
 23 51  1  0  0  0
 23 52  1  0  0  0
 26 53  1  0  0  0
M  END
$$$$
