4ono_ligand
  -I-interpret- 

104103  0  0  0  0  0  0  0  0999 V2000
    8.5160  -31.1240  -38.8300 O   0  0  0  0  0
    5.8450  -31.3310  -25.9720 C   0  0  0  0  0
    4.6540  -22.5590  -25.8400 C   0  0  0  0  0
    7.2110  -24.8220  -37.0630 C   0  0  0  0  0
    0.3540  -18.8900  -27.6300 C   0  0  0  0  0
    8.6910  -20.5390  -33.2680 C   0  0  0  0  0
    4.3550  -16.6270  -33.1550 C   0  0  0  0  0
   10.8350  -31.1200  -39.0320 O   0  0  0  0  0
    9.8440  -30.6980  -36.9530 O   0  0  0  0  0
    6.4780  -29.9540  -26.1900 C   0  0  0  0  0
    5.4020  -28.9540  -26.6370 C   0  0  0  0  0
    6.1060  -27.7140  -27.2160 C   0  0  0  0  0
    5.0620  -26.6950  -27.7420 C   0  0  0  0  0
    4.8760  -25.5720  -26.6850 C   0  0  0  0  0
   10.2770  -27.1400  -37.1290 C   0  0  0  0  0
    2.3630  -21.2120  -26.8930 C   0  0  0  0  0
    8.1770  -23.9130  -34.3600 C   0  0  0  0  0
    2.7820  -18.2070  -30.2580 C   0  0  0  0  0
    6.1230  -19.5080  -32.8520 C   0  0  0  0  0
   10.7210  -27.9370  -38.3510 C   0  0  0  0  0
    4.1100  -24.4020  -27.3390 C   0  0  0  0  0
    9.2850  -26.0390  -37.5170 C   0  0  0  0  0
    2.2990  -22.7620  -26.7590 C   0  0  0  0  0
    9.0970  -24.5440  -35.4510 C   0  0  0  0  0
    1.7750  -20.8420  -28.2790 C   0  0  0  0  0
    7.8630  -22.4140  -34.6480 C   0  0  0  0  0
    1.4690  -18.8960  -29.8650 C   0  0  0  0  0
    6.2290  -21.0090  -33.2540 C   0  0  0  0  0
    2.7680  -17.9700  -31.7810 C   0  0  0  0  0
    4.6300  -19.1160  -33.0470 C   0  0  0  0  0
    9.6800  -28.8220  -38.7490 O   0  0  0  0  0
    3.5520  -23.4820  -26.2520 C   0  0  0  0  0
    8.3720  -25.5170  -36.4020 C   0  0  0  0  0
    1.5940  -19.3180  -28.3800 C   0  0  0  0  0
    7.6480  -21.6050  -33.3410 C   0  0  0  0  0
    4.2350  -17.8460  -32.2570 C   0  0  0  0  0
    9.7220  -30.3780  -38.3980 P   0  0  0  0  0
    7.7340  -30.7076  -38.4603 H   0  0  0  0  0
    5.0765  -31.2585  -25.2024 H   0  0  0  0  0
    5.3964  -31.6749  -26.9040 H   0  0  0  0  0
    6.6131  -32.0365  -25.6550 H   0  0  0  0  0
    5.4903  -23.1427  -25.4552 H   0  0  0  0  0
    4.9811  -21.9780  -26.7023 H   0  0  0  0  0
    4.2911  -21.8859  -25.0632 H   0  0  0  0  0
    7.5817  -23.9977  -37.6722 H   0  0  0  0  0
    6.6768  -25.5312  -37.6953 H   0  0  0  0  0
    6.5371  -24.4358  -36.2982 H   0  0  0  0  0
   -0.5177  -19.3831  -28.0603 H   0  0  0  0  0
    0.4506  -19.1701  -26.5810 H   0  0  0  0  0
    0.2377  -17.8091  -27.7096 H   0  0  0  0  0
    9.6792  -20.9990  -33.2637 H   0  0  0  0  0
    8.5984  -19.8820  -34.1328 H   0  0  0  0  0
    8.5541  -19.9605  -32.3544 H   0  0  0  0  0
    3.6951  -16.7442  -34.0146 H   0  0  0  0  0
    4.0703  -15.7358  -32.5957 H   0  0  0  0  0
    5.3854  -16.5292  -33.4969 H   0  0  0  0  0
    9.1487  -30.2486  -36.4671 H   0  0  0  0  0
    7.2453  -30.0272  -26.9607 H   0  0  0  0  0
    6.9251  -29.6104  -25.2572 H   0  0  0  0  0
    4.7805  -28.6690  -25.7881 H   0  0  0  0  0
    4.7610  -29.4074  -27.3931 H   0  0  0  0  0
    6.7471  -28.0232  -28.0415 H   0  0  0  0  0
    6.6973  -27.2428  -26.4309 H   0  0  0  0  0
    4.1110  -27.1987  -27.9150 H   0  0  0  0  0
    5.4098  -26.2631  -28.6804 H   0  0  0  0  0
    5.8489  -25.2283  -26.3336 H   0  0  0  0  0
    4.3134  -25.9538  -25.8330 H   0  0  0  0  0
   11.1542  -26.6754  -36.6788 H   0  0  0  0  0
    9.7882  -27.8184  -36.4297 H   0  0  0  0  0
    3.3924  -20.8634  -26.8092 H   0  0  0  0  0
    1.7918  -20.7357  -26.0961 H   0  0  0  0  0
    8.6961  -23.9726  -33.4034 H   0  0  0  0  0
    7.2349  -24.4611  -34.3531 H   0  0  0  0  0
    3.6299  -18.8354  -29.9854 H   0  0  0  0  0
    2.8770  -17.2566  -29.7328 H   0  0  0  0  0
    6.7772  -18.8880  -33.4650 H   0  0  0  0  0
    6.4406  -19.3521  -31.8210 H   0  0  0  0  0
   11.6115  -28.5144  -38.1024 H   0  0  0  0  0
   10.9452  -27.2514  -39.1682 H   0  0  0  0  0
    3.2881  -24.7964  -27.9364 H   0  0  0  0  0
    4.7888  -23.8371  -27.9780 H   0  0  0  0  0
    8.6259  -26.4771  -38.2665 H   0  0  0  0  0
    9.8876  -25.1888  -37.8365 H   0  0  0  0  0
    2.1347  -23.1366  -27.7693 H   0  0  0  0  0
    1.5267  -22.9599  -26.0157 H   0  0  0  0  0
    9.8670  -25.1149  -34.9320 H   0  0  0  0  0
    9.4823  -23.7260  -36.0597 H   0  0  0  0  0
    0.8070  -21.3281  -28.4006 H   0  0  0  0  0
    2.4579  -21.1758  -29.0603 H   0  0  0  0  0
    6.9460  -22.3640  -35.2351 H   0  0  0  0  0
    8.7113  -21.9837  -35.1802 H   0  0  0  0  0
    1.2907  -19.7668  -30.4959 H   0  0  0  0  0
    0.6264  -18.2178  -29.9999 H   0  0  0  0  0
    5.8116  -21.0806  -34.2584 H   0  0  0  0  0
    5.7172  -21.5664  -32.4695 H   0  0  0  0  0
    2.2168  -17.0595  -32.0161 H   0  0  0  0  0
    2.2759  -18.8002  -32.2875 H   0  0  0  0  0
    4.0181  -19.9404  -32.6809 H   0  0  0  0  0
    4.4743  -18.9118  -34.1063 H   0  0  0  0  0
    3.2268  -24.0391  -25.3734 H   0  0  0  0  0
    8.0429  -26.3560  -35.7889 H   0  0  0  0  0
    2.4654  -18.8341  -27.9388 H   0  0  0  0  0
    7.7447  -22.2761  -32.4875 H   0  0  0  0  0
    4.8983  -17.7395  -31.3986 H   0  0  0  0  0
 37  1  1  0  0  0
 10  2  1  0  0  0
 32  3  1  0  0  0
 33  4  1  0  0  0
 34  5  1  0  0  0
 35  6  1  0  0  0
 36  7  1  0  0  0
 37  8  2  0  0  0
 37  9  1  0  0  0
 11 10  1  0  0  0
 12 11  1  0  0  0
 13 12  1  0  0  0
 14 13  1  0  0  0
 21 14  1  0  0  0
 20 15  1  0  0  0
 15 22  1  0  0  0
 16 23  1  0  0  0
 25 16  1  0  0  0
 24 17  1  0  0  0
 17 26  1  0  0  0
 18 27  1  0  0  0
 29 18  1  0  0  0
 28 19  1  0  0  0
 19 30  1  0  0  0
 31 20  1  0  0  0
 32 21  1  0  0  0
 22 33  1  0  0  0
 23 32  1  0  0  0
 33 24  1  0  0  0
 34 25  1  0  0  0
 26 35  1  0  0  0
 27 34  1  0  0  0
 35 28  1  0  0  0
 36 29  1  0  0  0
 30 36  1  0  0  0
 31 37  1  0  0  0
  1 38  1  0  0  0
  2 39  1  0  0  0
  2 40  1  0  0  0
  2 41  1  0  0  0
  3 42  1  0  0  0
  3 43  1  0  0  0
  3 44  1  0  0  0
  4 45  1  0  0  0
  4 46  1  0  0  0
  4 47  1  0  0  0
  5 48  1  0  0  0
  5 49  1  0  0  0
  5 50  1  0  0  0
  6 51  1  0  0  0
  6 52  1  0  0  0
  6 53  1  0  0  0
  7 54  1  0  0  0
  7 55  1  0  0  0
  7 56  1  0  0  0
  9 57  1  0  0  0
 10 58  1  0  0  0
 10 59  1  0  0  0
 11 60  1  0  0  0
 11 61  1  0  0  0
 12 62  1  0  0  0
 12 63  1  0  0  0
 13 64  1  0  0  0
 13 65  1  0  0  0
 14 66  1  0  0  0
 14 67  1  0  0  0
 15 68  1  0  0  0
 15 69  1  0  0  0
 16 70  1  0  0  0
 16 71  1  0  0  0
 17 72  1  0  0  0
 17 73  1  0  0  0
 18 74  1  0  0  0
 18 75  1  0  0  0
 19 76  1  0  0  0
 19 77  1  0  0  0
 20 78  1  0  0  0
 20 79  1  0  0  0
 21 80  1  0  0  0
 21 81  1  0  0  0
 22 82  1  0  0  0
 22 83  1  0  0  0
 23 84  1  0  0  0
 23 85  1  0  0  0
 24 86  1  0  0  0
 24 87  1  0  0  0
 25 88  1  0  0  0
 25 89  1  0  0  0
 26 90  1  0  0  0
 26 91  1  0  0  0
 27 92  1  0  0  0
 27 93  1  0  0  0
 28 94  1  0  0  0
 28 95  1  0  0  0
 29 96  1  0  0  0
 29 97  1  0  0  0
 30 98  1  0  0  0
 30 99  1  0  0  0
 32100  1  0  0  0
 33101  1  0  0  0
 34102  1  0  0  0
 35103  1  0  0  0
 36104  1  0  0  0
M  END
$$$$
