### 
### Created by X-TOOL on Mon Sep 10 21:13:20 2018
### 

@<TRIPOS>MOLECULE
4ono_ligand
  102   101     1     0     0
SMALL
GAST_HUCK


@<TRIPOS>ATOM
      1 O1          8.5160  -31.1240  -38.8300 O.co2     1 PMK        -0.5537
      2 CAA         5.8450  -31.3310  -25.9720 C.3       1 PMK        -0.0653
      3 CAB         4.6540  -22.5590  -25.8400 C.3       1 PMK        -0.0624
      4 CAC         7.2110  -24.8220  -37.0630 C.3       1 PMK        -0.0624
      5 CAD         0.3540  -18.8900  -27.6300 C.3       1 PMK        -0.0624
      6 CAE         8.6910  -20.5390  -33.2680 C.3       1 PMK        -0.0624
      7 CAF         4.3550  -16.6270  -33.1550 C.3       1 PMK        -0.0624
      8 OAG        10.8350  -31.1200  -39.0320 O.co2     1 PMK        -0.5537
      9 OAL         9.8440  -30.6980  -36.9530 O.co2     1 PMK        -0.5537
     10 CAM         6.4780  -29.9540  -26.1900 C.3       1 PMK        -0.0559
     11 CAN         5.4020  -28.9540  -26.6370 C.3       1 PMK        -0.0533
     12 CAO         6.1060  -27.7140  -27.2160 C.3       1 PMK        -0.0531
     13 CAP         5.0620  -26.6950  -27.7420 C.3       1 PMK        -0.0530
     14 CAQ         4.8760  -25.5720  -26.6850 C.3       1 PMK        -0.0528
     15 CAR        10.2770  -27.1400  -37.1290 C.3       1 PMK        -0.0248
     16 CAS         2.3630  -21.2120  -26.8930 C.3       1 PMK        -0.0526
     17 CAT         8.1770  -23.9130  -34.3600 C.3       1 PMK        -0.0526
     18 CAU         2.7820  -18.2070  -30.2580 C.3       1 PMK        -0.0526
     19 CAV         6.1230  -19.5080  -32.8520 C.3       1 PMK        -0.0526
     20 CAX        10.7210  -27.9370  -38.3510 C.3       1 PMK         0.0784
     21 CAY         4.1100  -24.4020  -27.3390 C.3       1 PMK        -0.0505
     22 CAZ         9.2850  -26.0390  -37.5170 C.3       1 PMK        -0.0481
     23 CBA         2.2990  -22.7620  -26.7590 C.3       1 PMK        -0.0505
     24 CBB         9.0970  -24.5440  -35.4510 C.3       1 PMK        -0.0504
     25 CBC         1.7750  -20.8420  -28.2790 C.3       1 PMK        -0.0505
     26 CBD         7.8630  -22.4140  -34.6480 C.3       1 PMK        -0.0505
     27 CBE         1.4690  -18.8960  -29.8650 C.3       1 PMK        -0.0505
     28 CBF         6.2290  -21.0090  -33.2540 C.3       1 PMK        -0.0505
     29 CBG         2.7680  -17.9700  -31.7810 C.3       1 PMK        -0.0505
     30 CBH         4.6300  -19.1160  -33.0470 C.3       1 PMK        -0.0505
     31 OBI         9.6800  -28.8220  -38.7490 O.3       1 PMK        -0.2761
     32 CBL         3.5520  -23.4820  -26.2520 C.3       1 PMK        -0.0439
     33 CBM         8.3720  -25.5170  -36.4020 C.3       1 PMK        -0.0438
     34 CBN         1.5940  -19.3180  -28.3800 C.3       1 PMK        -0.0439
     35 CBO         7.6480  -21.6050  -33.3410 C.3       1 PMK        -0.0439
     36 CBP         4.2350  -17.8460  -32.2570 C.3       1 PMK        -0.0439
     37 PBV         9.7220  -30.3780  -38.3980 P.3       1 PMK         0.2007
     38 H           6.6192  -32.0439  -25.6520 H         1 PMK         0.0230
     39 H           5.3919  -31.6793  -26.9119 H         1 PMK         0.0230
     40 H           5.0692  -31.2592  -25.1955 H         1 PMK         0.0230
     41 H           5.5142  -23.1484  -25.4898 H         1 PMK         0.0232
     42 H           4.3014  -21.9066  -25.0275 H         1 PMK         0.0232
     43 H           4.9570  -21.9431  -26.6995 H         1 PMK         0.0232
     44 H           6.7004  -25.5236  -37.7390 H         1 PMK         0.0232
     45 H           7.5792  -23.9602  -37.6389 H         1 PMK         0.0232
     46 H           6.5054  -24.4747  -36.2939 H         1 PMK         0.0232
     47 H           0.4419  -19.1893  -26.5752 H         1 PMK         0.0232
     48 H          -0.5287  -19.3720  -28.0755 H         1 PMK         0.0232
     49 H           0.2461  -17.7971  -27.6932 H         1 PMK         0.0232
     50 H           9.6889  -20.9973  -33.3328 H         1 PMK         0.0232
     51 H           8.5969  -19.9986  -32.3145 H         1 PMK         0.0232
     52 H           8.5557  -19.8358  -34.1030 H         1 PMK         0.0232
     53 H           4.0734  -15.7262  -32.5899 H         1 PMK         0.0232
     54 H           3.6852  -16.7414  -34.0200 H         1 PMK         0.0232
     55 H           5.3932  -16.5304  -33.5053 H         1 PMK         0.0232
     56 H           7.2540  -30.0271  -26.9662 H         1 PMK         0.0263
     57 H           6.9313  -29.6071  -25.2497 H         1 PMK         0.0263
     58 H           4.7841  -28.6623  -25.7750 H         1 PMK         0.0265
     59 H           4.7643  -29.4130  -27.4068 H         1 PMK         0.0265
     60 H           6.7603  -28.0227  -28.0446 H         1 PMK         0.0265
     61 H           6.7103  -27.2398  -26.4287 H         1 PMK         0.0265
     62 H           4.1020  -27.2045  -27.9118 H         1 PMK         0.0265
     63 H           5.4170  -26.2574  -28.6867 H         1 PMK         0.0265
     64 H           5.8598  -25.2229  -26.3381 H         1 PMK         0.0265
     65 H           4.3019  -25.9590  -25.8302 H         1 PMK         0.0265
     66 H          11.1594  -26.6793  -36.6609 H         1 PMK         0.0291
     67 H           9.7950  -27.8209  -36.4121 H         1 PMK         0.0291
     68 H           3.4067  -20.8714  -26.8243 H         1 PMK         0.0265
     69 H           1.7702  -20.7408  -26.0952 H         1 PMK         0.0265
     70 H           8.6810  -23.9881  -33.3852 H         1 PMK         0.0265
     71 H           7.2308  -24.4730  -34.3277 H         1 PMK         0.0265
     72 H           3.6338  -18.8491  -29.9895 H         1 PMK         0.0265
     73 H           2.8685  -17.2444  -29.7327 H         1 PMK         0.0265
     74 H           6.7670  -18.8930  -33.4977 H         1 PMK         0.0265
     75 H           6.4198  -19.3718  -31.8016 H         1 PMK         0.0265
     76 H          11.6204  -28.5190  -38.1013 H         1 PMK         0.0612
     77 H          10.9488  -27.2457  -39.1758 H         1 PMK         0.0612
     78 H           3.2811  -24.7994  -27.9431 H         1 PMK         0.0268
     79 H           4.7942  -23.8322  -27.9849 H         1 PMK         0.0268
     80 H           8.6424  -26.4350  -38.3171 H         1 PMK         0.0269
     81 H           9.8649  -25.1866  -37.9005 H         1 PMK         0.0269
     82 H           2.0654  -23.1690  -27.7539 H         1 PMK         0.0268
     83 H           1.4796  -22.9988  -26.0643 H         1 PMK         0.0268
     84 H           9.9051  -25.0932  -34.9456 H         1 PMK         0.0268
     85 H           9.5274  -23.7299  -36.0526 H         1 PMK         0.0268
     86 H           0.7994  -21.3344  -28.4047 H         1 PMK         0.0268
     87 H           2.4614  -21.1810  -29.0689 H         1 PMK         0.0268
     88 H           6.9497  -22.3530  -35.2580 H         1 PMK         0.0268
     89 H           8.7049  -21.9748  -35.2033 H         1 PMK         0.0268
     90 H           1.3063  -19.7826  -30.4954 H         1 PMK         0.0268
     91 H           0.6270  -18.1989  -29.9882 H         1 PMK         0.0268
     92 H           5.7586  -21.1233  -34.2417 H         1 PMK         0.0268
     93 H           5.6673  -21.5935  -32.5105 H         1 PMK         0.0268
     94 H           2.2213  -17.0433  -32.0100 H         1 PMK         0.0268
     95 H           2.2815  -18.8172  -32.2866 H         1 PMK         0.0268
     96 H           4.0001  -19.9513  -32.7071 H         1 PMK         0.0268
     97 H           4.4514  -18.9339  -34.1170 H         1 PMK         0.0268
     98 H           3.2628  -24.0879  -25.3807 H         1 PMK         0.0298
     99 H           8.0029  -26.3695  -35.8130 H         1 PMK         0.0298
    100 H           2.4712  -18.8234  -27.9374 H         1 PMK         0.0298
    101 H           7.7811  -22.2843  -32.4861 H         1 PMK         0.0298
    102 H           4.8991  -17.7324  -31.3875 H         1 PMK         0.0298
@<TRIPOS>BOND
     1   37    1 ar 
     2   10    2 1  
     3   32    3 1  
     4   33    4 1  
     5   34    5 1  
     6   35    6 1  
     7   36    7 1  
     8   37    8 ar 
     9   37    9 ar 
    10   11   10 1  
    11   12   11 1  
    12   13   12 1  
    13   14   13 1  
    14   21   14 1  
    15   20   15 1  
    16   15   22 1  
    17   16   23 1  
    18   25   16 1  
    19   24   17 1  
    20   17   26 1  
    21   18   27 1  
    22   29   18 1  
    23   28   19 1  
    24   19   30 1  
    25   31   20 1  
    26   32   21 1  
    27   22   33 1  
    28   23   32 1  
    29   33   24 1  
    30   34   25 1  
    31   26   35 1  
    32   27   34 1  
    33   35   28 1  
    34   36   29 1  
    35   30   36 1  
    36   31   37 1  
    37    2   38 1  
    38    2   39 1  
    39    2   40 1  
    40    3   41 1  
    41    3   42 1  
    42    3   43 1  
    43    4   44 1  
    44    4   45 1  
    45    4   46 1  
    46    5   47 1  
    47    5   48 1  
    48    5   49 1  
    49    6   50 1  
    50    6   51 1  
    51    6   52 1  
    52    7   53 1  
    53    7   54 1  
    54    7   55 1  
    55   10   56 1  
    56   10   57 1  
    57   11   58 1  
    58   11   59 1  
    59   12   60 1  
    60   12   61 1  
    61   13   62 1  
    62   13   63 1  
    63   14   64 1  
    64   14   65 1  
    65   15   66 1  
    66   15   67 1  
    67   16   68 1  
    68   16   69 1  
    69   17   70 1  
    70   17   71 1  
    71   18   72 1  
    72   18   73 1  
    73   19   74 1  
    74   19   75 1  
    75   20   76 1  
    76   20   77 1  
    77   21   78 1  
    78   21   79 1  
    79   22   80 1  
    80   22   81 1  
    81   23   82 1  
    82   23   83 1  
    83   24   84 1  
    84   24   85 1  
    85   25   86 1  
    86   25   87 1  
    87   26   88 1  
    88   26   89 1  
    89   27   90 1  
    90   27   91 1  
    91   28   92 1  
    92   28   93 1  
    93   29   94 1  
    94   29   95 1  
    95   30   96 1  
    96   30   97 1  
    97   32   98 1  
    98   33   99 1  
    99   34  100 1  
   100   35  101 1  
   101   36  102 1  
@<TRIPOS>SUBSTRUCTURE
     1 PMK         1

