6iar_ligand
  -I-interpret- 

 53 56  0  0  0  0  0  0  0  0999 V2000
   -1.3980  -35.8360   37.9300 C   0  0  0  0  0
   -1.9300  -34.5530   38.5230 C   0  0  0  0  0
   -1.2350  -34.4650   39.8790 C   0  0  0  0  0
   -3.3500  -30.3050   38.9310 C   0  0  0  0  0
   -2.2550  -29.3040   38.5810 C   0  0  0  0  0
   -1.0330  -29.6490   38.0360 C   0  0  0  0  0
   -0.0730  -28.6630   37.7650 C   0  0  0  0  0
   -0.2740  -27.3040   37.9550 C   0  0  0  0  0
   -1.4730  -26.9720   38.4680 C   0  0  0  0  0
   -2.4350  -27.9340   38.7680 C   0  0  0  0  0
   -3.4460  -27.1390   39.2600 C   0  0  0  0  0
    0.6130  -31.3590   38.4410 C   0  0  0  0  0
    0.7510  -31.1280   39.8100 C   0  0  0  0  0
    1.9830  -31.3630   40.4300 C   0  0  0  0  0
    3.0560  -31.8330   39.6810 C   0  0  0  0  0
    1.6830  -31.8510   37.7010 C   0  0  0  0  0
    6.1900  -31.8490   41.7630 C   0  0  0  0  0
    6.6030  -32.8870   41.1540 O   0  0  0  0  0
   -1.5600  -33.3640   37.5980 C   0  0  0  0  0
   -1.7320  -32.0790   38.3110 N   0  3  0  0  0
   -3.1350  -31.6060   38.1260 C   0  0  0  0  0
   -3.2190  -25.7980   39.3060 N   0  0  0  0  0
   -1.9780  -25.7460   38.8100 N   0  0  0  0  0
   -0.6800  -31.1020   37.7950 C   0  0  0  0  0
    2.8990  -32.0840   38.3240 C   0  0  0  0  0
    4.3640  -32.1100   40.3010 C   0  0  0  0  0
    4.8420  -31.3150   41.2700 C   0  0  0  0  0
    6.7200  -31.2580   42.7620 O   0  0  0  0  0
   -1.8390  -35.9899   36.9452 H   0  0  0  0  0
   -0.3139  -35.7700   37.8378 H   0  0  0  0  0
   -1.6584  -36.6709   38.5806 H   0  0  0  0  0
   -3.0147  -34.5267   38.6272 H   0  0  0  0  0
   -0.1548  -34.4714   39.7333 H   0  0  0  0  0
   -1.5302  -33.5419   40.3779 H   0  0  0  0  0
   -1.5254  -35.3191   40.4908 H   0  0  0  0  0
   -4.3229  -29.8808   38.6828 H   0  0  0  0  0
   -3.3118  -30.5271   39.9974 H   0  0  0  0  0
    0.8942  -28.9859   37.3799 H   0  0  0  0  0
    0.4830  -26.5600   37.7072 H   0  0  0  0  0
   -4.3897  -27.5664   39.5988 H   0  0  0  0  0
   -0.0960  -30.7666   40.3931 H   0  0  0  0  0
    2.1014  -31.1781   41.4977 H   0  0  0  0  0
    1.5658  -32.0524   36.6362 H   0  0  0  0  0
   -2.2153  -33.3759   36.7270 H   0  0  0  0  0
   -0.5180  -33.4632   37.2937 H   0  0  0  0  0
   -1.5888  -32.1737   39.3164 H   0  0  0  0  0
   -3.3172  -31.4135   37.0687 H   0  0  0  0  0
   -3.8261  -32.3709   38.4802 H   0  0  0  0  0
   -0.6319  -31.2672   36.7187 H   0  0  0  0  0
    3.7388  -32.4673   37.7444 H   0  0  0  0  0
    4.9481  -32.9684   39.9693 H   0  0  0  0  0
    4.3452  -30.4222   41.6498 H   0  0  0  0  0
    6.1832  -30.5004   43.0059 H   0  0  0  0  0
  2  1  1  0  0  0
  2  3  1  0  0  0
 19  2  1  0  0  0
  5  4  1  0  0  0
 21  4  1  0  0  0
  6  5  4  0  0  0
  5 10  4  0  0  0
  6  7  4  0  0  0
 24  6  1  0  0  0
  7  8  4  0  0  0
  8  9  4  0  0  0
 10  9  4  0  0  0
  9 23  4  0  0  0
 10 11  4  0  0  0
 11 22  4  0  0  0
 13 12  4  0  0  0
 16 12  4  0  0  0
 12 24  1  0  0  0
 14 13  4  0  0  0
 15 14  4  0  0  0
 15 25  4  0  0  0
 26 15  1  0  0  0
 25 16  4  0  0  0
 17 18  2  0  0  0
 27 17  1  0  0  0
 17 28  1  0  0  0
 20 19  1  0  0  0
 20 21  1  0  0  0
 24 20  1  0  0  0
 23 22  4  0  0  0
 26 27  2  0  0  0
  1 29  1  0  0  0
  1 30  1  0  0  0
  1 31  1  0  0  0
  2 32  1  0  0  0
  3 33  1  0  0  0
  3 34  1  0  0  0
  3 35  1  0  0  0
  4 36  1  0  0  0
  4 37  1  0  0  0
  7 38  1  0  0  0
  8 39  1  0  0  0
 11 40  1  0  0  0
 13 41  1  0  0  0
 14 42  1  0  0  0
 16 43  1  0  0  0
 19 44  1  0  0  0
 19 45  1  0  0  0
 20 46  1  0  0  0
 21 47  1  0  0  0
 21 48  1  0  0  0
 24 49  1  0  0  0
 25 50  1  0  0  0
 26 51  1  0  0  0
 27 52  1  0  0  0
 28 53  1  0  0  0
M  END
$$$$
