1ow4_ligand
  -I-interpret- 

 34 36  0  0  0  0  0  0  0  0999 V2000
    0.9260   -7.4280    6.1550 C   0  0  0  0  0
    2.2180   -7.0360    5.8810 C   0  0  0  0  0
    2.4990   -6.0620    4.9330 C   0  0  0  0  0
    1.4750   -5.4250    4.2510 C   0  0  0  0  0
    0.1790   -5.7790    4.5110 C   0  0  0  0  0
   -0.8070   -5.0870    3.8090 C   0  0  0  0  0
   -2.1290   -5.3720    4.0000 C   0  0  0  0  0
   -2.4970   -6.3350    4.9160 C   0  0  0  0  0
    0.6510   -8.4480    7.0330 N   0  0  0  0  0
   -2.2100   -8.2990    6.7310 S   0  0  0  0  0
   -1.5290   -7.0150    5.6370 C   0  0  0  0  0
   -0.1430   -6.7580    5.4580 C   0  0  0  0  0
    1.2240   -9.4340    7.7200 C   0  0  0  0  0
    0.4990   -9.7660    8.8940 C   0  0  0  0  0
    0.9370  -10.7070    9.8200 C   0  0  0  0  0
    2.1250  -11.3810    9.5480 C   0  0  0  0  0
    2.8580  -11.1000    8.4040 C   0  0  0  0  0
    2.4210  -10.0980    7.4900 C   0  0  0  0  0
   -1.4810   -9.5900    6.4540 O   0  0  0  0  0
   -2.1090   -7.9110    8.1640 O   0  0  0  0  0
   -3.6120   -8.6540    6.3080 O   0  0  0  0  0
    3.0407   -7.5028    6.4227 H   0  0  0  0  0
    3.5349   -5.7958    4.7231 H   0  0  0  0  0
    1.6989   -4.6515    3.5164 H   0  0  0  0  0
   -0.5198   -4.3103    3.1002 H   0  0  0  0  0
   -2.8908   -4.8400    3.4302 H   0  0  0  0  0
   -3.5516   -6.5616    5.0730 H   0  0  0  0  0
   -0.3501   -8.4511    7.2285 H   0  0  0  0  0
   -0.4477   -9.2586    9.0792 H   0  0  0  0  0
    0.3694  -10.9101   10.7281 H   0  0  0  0  0
    2.4839  -12.1397   10.2434 H   0  0  0  0  0
    3.7767  -11.6509    8.2025 H   0  0  0  0  0
    3.0235   -9.8543    6.6149 H   0  0  0  0  0
   -0.5553   -9.4900    6.6880 H   0  0  0  0  0
  1  2  4  0  0  0
  1  9  1  0  0  0
 12  1  4  0  0  0
  2  3  4  0  0  0
  4  3  4  0  0  0
  5  4  4  0  0  0
  5  6  4  0  0  0
 12  5  4  0  0  0
  7  6  4  0  0  0
  8  7  4  0  0  0
 11  8  4  0  0  0
  9 13  1  0  0  0
 11 12  4  0  0  0
 13 14  4  0  0  0
 13 18  4  0  0  0
 14 15  4  0  0  0
 15 16  4  0  0  0
 17 16  4  0  0  0
 18 17  4  0  0  0
 10 21  2  0  0  0
 10 20  2  0  0  0
 10 19  1  0  0  0
 11 10  1  0  0  0
  2 22  1  0  0  0
  3 23  1  0  0  0
  4 24  1  0  0  0
  6 25  1  0  0  0
  7 26  1  0  0  0
  8 27  1  0  0  0
  9 28  1  0  0  0
 14 29  1  0  0  0
 15 30  1  0  0  0
 16 31  1  0  0  0
 17 32  1  0  0  0
 18 33  1  0  0  0
 19 34  1  0  0  0
M  END
$$$$
