3bkk_ligand
  -I-interpret- 

 66 68  0  0  0  0  0  0  0  0999 V2000
   44.2900   46.2660   39.8710 C   0  0  0  0  0
   43.0800   46.7790   39.4390 C   0  0  0  0  0
   43.0270   48.0580   38.9140 C   0  0  0  0  0
   44.1830   48.8130   38.8240 C   0  0  0  0  0
   45.3870   48.2890   39.2590 C   0  0  0  0  0
   45.4550   47.0100   39.7860 C   0  0  0  0  0
   46.7640   46.4290   40.2410 C   0  0  0  0  0
   47.2670   46.9560   41.5880 C   0  0  0  0  0
   47.9060   48.3300   41.4190 C   0  0  0  0  0
   47.2880   49.3110   41.8840 O   0  0  0  0  0
   49.0170   48.4100   40.8520 O   0  0  0  0  0
   46.1840   47.0120   42.5630 N   0  0  0  0  0
   46.4300   47.2650   43.8450 C   0  0  0  0  0
   47.5610   47.4780   44.2810 O   0  0  0  0  0
   45.2240   47.3100   44.7780 C   0  0  0  0  0
   45.7120   47.0540   46.2160 C   0  0  0  0  0
   45.2390   45.6940   46.7370 C   0  0  0  0  0
   45.5200   44.6690   45.7770 O   0  0  0  0  0
   43.8230   45.7630   46.9360 O   0  0  0  0  0
   45.8980   45.3700   48.0820 C   0  0  0  0  0
   47.4280   45.5460   48.0320 C   0  0  0  0  0
   48.0730   45.3030   49.3680 C   0  0  0  0  0
   48.2060   46.3290   50.2880 C   0  0  0  0  0
   48.7800   46.1060   51.5260 C   0  0  0  0  0
   49.2300   44.8400   51.8560 C   0  0  0  0  0
   49.1050   43.8060   50.9470 C   0  0  0  0  0
   48.5290   44.0410   49.7120 C   0  0  0  0  0
   45.5870   44.0170   48.5320 N   0  0  0  0  0
   44.5170   43.7500   49.2750 C   0  0  0  0  0
   43.6940   44.5980   49.6250 O   0  0  0  0  0
   44.3460   42.2810   49.6590 C   0  0  0  0  0
   45.1040   41.3040   49.0370 C   0  0  0  0  0
   44.9490   39.9730   49.3780 C   0  0  0  0  0
   44.0320   39.6040   50.3450 C   0  0  0  0  0
   43.2700   40.5750   50.9670 C   0  0  0  0  0
   43.4270   41.9050   50.6240 C   0  0  0  0  0
   44.3271   45.2586   40.2855 H   0  0  0  0  0
   42.1731   46.1787   39.5119 H   0  0  0  0  0
   42.0773   48.4697   38.5723 H   0  0  0  0  0
   44.1449   49.8207   38.4103 H   0  0  0  0  0
   46.2934   48.8901   39.1861 H   0  0  0  0  0
   47.5091   46.7052   39.4950 H   0  0  0  0  0
   46.6103   45.3563   40.3583 H   0  0  0  0  0
   48.0232   46.2654   41.9613 H   0  0  0  0  0
   49.2987   47.5343   40.5775 H   0  0  0  0  0
   45.2237   46.8548   42.2571 H   0  0  0  0  0
   44.5000   46.5483   44.4887 H   0  0  0  0  0
   44.7408   48.2851   44.7162 H   0  0  0  0  0
   45.3041   47.8315   46.8620 H   0  0  0  0  0
   46.8020   47.0634   46.2170 H   0  0  0  0  0
   45.2186   43.8230   46.1163 H   0  0  0  0  0
   43.5055   44.9182   47.2633 H   0  0  0  0  0
   45.4835   46.0826   48.7951 H   0  0  0  0  0
   47.6412   46.5728   47.7348 H   0  0  0  0  0
   47.8294   44.8199   47.3251 H   0  0  0  0  0
   47.8528   47.3280   50.0324 H   0  0  0  0  0
   48.8776   46.9245   52.2392 H   0  0  0  0  0
   49.6823   44.6582   52.8309 H   0  0  0  0  0
   49.4597   42.8077   51.2032 H   0  0  0  0  0
   48.4325   43.2219   48.9994 H   0  0  0  0  0
   46.2093   43.2530   48.2686 H   0  0  0  0  0
   45.8283   41.5859   48.2728 H   0  0  0  0  0
   45.5519   39.2118   48.8827 H   0  0  0  0  0
   43.9110   38.5549   50.6148 H   0  0  0  0  0
   42.5441   40.2917   51.7292 H   0  0  0  0  0
   42.8215   42.6649   51.1180 H   0  0  0  0  0
  1  2  4  0  0  0
  1  6  4  0  0  0
  2  3  4  0  0  0
  3  4  4  0  0  0
  4  5  4  0  0  0
  5  6  4  0  0  0
  6  7  1  0  0  0
  7  8  1  0  0  0
  8  9  1  0  0  0
  8 12  1  0  0  0
  9 10  2  0  0  0
  9 11  1  0  0  0
 12 13  1  0  0  0
 13 14  2  0  0  0
 13 15  1  0  0  0
 15 16  1  0  0  0
 16 17  1  0  0  0
 17 18  1  0  0  0
 17 19  1  0  0  0
 17 20  1  0  0  0
 20 21  1  0  0  0
 20 28  1  0  0  0
 21 22  1  0  0  0
 22 23  4  0  0  0
 22 27  4  0  0  0
 23 24  4  0  0  0
 24 25  4  0  0  0
 25 26  4  0  0  0
 26 27  4  0  0  0
 28 29  1  0  0  0
 29 30  2  0  0  0
 29 31  1  0  0  0
 31 32  4  0  0  0
 31 36  4  0  0  0
 32 33  4  0  0  0
 33 34  4  0  0  0
 34 35  4  0  0  0
 35 36  4  0  0  0
  1 37  1  0  0  0
  2 38  1  0  0  0
  3 39  1  0  0  0
  4 40  1  0  0  0
  5 41  1  0  0  0
  7 42  1  0  0  0
  7 43  1  0  0  0
  8 44  1  0  0  0
 11 45  1  0  0  0
 12 46  1  0  0  0
 15 47  1  0  0  0
 15 48  1  0  0  0
 16 49  1  0  0  0
 16 50  1  0  0  0
 18 51  1  0  0  0
 19 52  1  0  0  0
 20 53  1  0  0  0
 21 54  1  0  0  0
 21 55  1  0  0  0
 23 56  1  0  0  0
 24 57  1  0  0  0
 25 58  1  0  0  0
 26 59  1  0  0  0
 27 60  1  0  0  0
 28 61  1  0  0  0
 32 62  1  0  0  0
 33 63  1  0  0  0
 34 64  1  0  0  0
 35 65  1  0  0  0
 36 66  1  0  0  0
M  END
$$$$
