6oy2_ligand
  -I-interpret- 

 87 90  0  0  0  0  0  0  0  0999 V2000
   73.2570   54.4000   15.9100 C   0  0  0  0  0
   70.1970   56.6320   14.3510 C   0  0  0  0  0
   72.7690   58.6950   17.7790 C   0  0  0  0  0
   75.8330   59.8980   18.9410 C   0  0  0  0  0
   74.2540   60.4580   20.3920 C   0  0  0  0  0
   72.9240   60.6530   20.4470 C   0  0  0  0  0
   67.1510   51.4500   13.1330 C   0  0  0  0  0
   68.1840   50.9740   14.1390 C   0  0  0  0  0
   68.8610   51.9860   15.0620 C   0  0  0  0  0
   68.4830   53.4520   14.9670 C   0  0  0  0  0
   67.4590   53.9390   13.9450 C   0  0  0  0  0
   66.7850   52.9250   13.0250 C   0  0  0  0  0
   71.3430   54.3530   14.2180 C   0  0  0  0  0
   72.9210   54.5520   14.4120 C   0  0  0  0  0
   73.6610   53.5060   13.5090 C   0  0  0  0  0
   71.1140   57.7730   14.8690 C   0  0  0  0  0
   70.7450   58.1190   16.3070 C   0  0  0  0  0
   74.6890   59.4790   19.2380 C   0  0  0  0  0
   74.8610   61.7920   19.9760 C   0  0  0  0  0
   72.6060   61.9090   19.4810 C   0  0  0  0  0
   69.3820   58.7940   16.4000 C   0  0  0  0  0
   69.1520   59.1900   17.8990 C   0  0  0  0  0
   69.3510   60.6280   18.3540 C   0  0  0  0  0
   69.1290   61.0000   19.8250 C   0  0  0  0  0
   68.7160   59.9300   20.8270 C   0  0  0  0  0
   68.5240   58.4980   20.3730 C   0  0  0  0  0
   68.7450   58.1240   18.8980 C   0  0  0  0  0
   65.0810   50.1030   12.7270 C   0  0  0  0  0
   73.3210   52.0200   13.9320 C   0  0  0  0  0
   74.7540   54.3290   16.1290 C   0  0  0  0  0
   66.4840   50.4510   12.2100 C   0  0  0  0  0
   70.5610   55.3660   15.0380 N   0  0  0  0  0
   71.7350   59.0830   16.8160 N   0  0  0  0  0
   68.4140   55.7080   16.5910 O   0  0  0  0  0
   69.8920   54.0800   17.2730 O   0  0  0  0  0
   70.9740   58.8870   14.0540 O   0  0  0  0  0
   72.7480   57.6460   18.3400 O   0  0  0  0  0
   73.8130   59.6590   18.0080 O   0  0  0  0  0
   75.6480   61.5340   18.9740 O   0  0  0  0  0
   73.6430   62.7030   19.5620 O   0  0  0  0  0
   66.3920   51.0280   10.9540 O   0  0  0  0  0
   64.7120   48.8420   12.2290 O   0  0  0  0  0
   69.3350   54.6880   16.0720 S   0  0  0  0  0
   72.8069   53.4774   16.2764 H   0  0  0  0  0
   72.8672   55.2663   16.4444 H   0  0  0  0  0
   70.3280   56.5161   13.2751 H   0  0  0  0  0
   69.1552   56.8757   14.5592 H   0  0  0  0  0
   76.1796   59.5314   17.9748 H   0  0  0  0  0
   76.6032   59.5460   19.6272 H   0  0  0  0  0
   74.5678   60.0593   21.3567 H   0  0  0  0  0
   72.6002   60.8535   21.4683 H   0  0  0  0  0
   72.3847   59.7633   20.1218 H   0  0  0  0  0
   68.4410   49.9166   14.2023 H   0  0  0  0  0
   69.6095   51.6572   15.7829 H   0  0  0  0  0
   67.2122   54.9983   13.8732 H   0  0  0  0  0
   66.0458   53.2542   12.2947 H   0  0  0  0  0
   71.0735   53.3508   14.5512 H   0  0  0  0  0
   71.0998   54.4934   13.1648 H   0  0  0  0  0
   73.2501   55.5452   14.1064 H   0  0  0  0  0
   74.7348   53.6566   13.6198 H   0  0  0  0  0
   73.3360   53.6519   12.4789 H   0  0  0  0  0
   72.1530   57.4445   14.8442 H   0  0  0  0  0
   70.7238   57.1913   16.8788 H   0  0  0  0  0
   74.6306   58.4340   19.5423 H   0  0  0  0  0
   75.4374   62.2976   20.7508 H   0  0  0  0  0
   71.6941   62.4207   19.7887 H   0  0  0  0  0
   72.4396   61.5831   18.4543 H   0  0  0  0  0
   68.5980   58.1171   16.0605 H   0  0  0  0  0
   69.3510   59.6784   15.7636 H   0  0  0  0  0
   69.6506   61.3918   17.6364 H   0  0  0  0  0
   69.2668   62.0302   20.1534 H   0  0  0  0  0
   68.5584   60.1952   21.8724 H   0  0  0  0  0
   68.2293   57.7330   21.0914 H   0  0  0  0  0
   68.6092   57.0932   18.5706 H   0  0  0  0  0
   64.3674   50.8551   12.3906 H   0  0  0  0  0
   65.0847   50.0820   13.8168 H   0  0  0  0  0
   73.6276   51.8586   14.9655 H   0  0  0  0  0
   72.2477   51.8539   13.8400 H   0  0  0  0  0
   73.8543   51.3272   13.2810 H   0  0  0  0  0
   75.1582   53.4710   15.5918 H   0  0  0  0  0
   75.2179   55.2430   15.7582 H   0  0  0  0  0
   74.9594   54.2221   17.1941 H   0  0  0  0  0
   67.0684   49.5319   12.1674 H   0  0  0  0  0
   71.7000   60.0485   16.4888 H   0  0  0  0  0
   71.2094   58.6544   13.1528 H   0  0  0  0  0
   65.9713   50.4117   10.3500 H   0  0  0  0  0
   63.8350   48.6172   12.5483 H   0  0  0  0  0
 14  1  1  0  0  0
  1 30  1  0  0  0
  2 16  1  0  0  0
 32  2  1  0  0  0
 33  3  1  0  0  0
  3 37  2  0  0  0
  3 38  1  0  0  0
 18  4  1  0  0  0
  4 39  1  0  0  0
  5  6  1  0  0  0
 18  5  1  0  0  0
  5 19  1  0  0  0
  6 20  1  0  0  0
  8  7  4  0  0  0
 12  7  4  0  0  0
  7 31  1  0  0  0
  9  8  4  0  0  0
 10  9  4  0  0  0
 10 11  4  0  0  0
 43 10  1  0  0  0
 11 12  4  0  0  0
 13 14  1  0  0  0
 32 13  1  0  0  0
 14 15  1  0  0  0
 15 29  1  0  0  0
 16 17  1  0  0  0
 16 36  1  0  0  0
 17 21  1  0  0  0
 17 33  1  0  0  0
 38 18  1  0  0  0
 19 39  1  0  0  0
 19 40  1  0  0  0
 40 20  1  0  0  0
 21 22  1  0  0  0
 22 23  4  0  0  0
 22 27  4  0  0  0
 23 24  4  0  0  0
 24 25  4  0  0  0
 26 25  4  0  0  0
 27 26  4  0  0  0
 31 28  1  0  0  0
 28 42  1  0  0  0
 31 41  1  0  0  0
 32 43  1  0  0  0
 43 34  2  0  0  0
 43 35  2  0  0  0
  1 44  1  0  0  0
  1 45  1  0  0  0
  2 46  1  0  0  0
  2 47  1  0  0  0
  4 48  1  0  0  0
  4 49  1  0  0  0
  5 50  1  0  0  0
  6 51  1  0  0  0
  6 52  1  0  0  0
  8 53  1  0  0  0
  9 54  1  0  0  0
 11 55  1  0  0  0
 12 56  1  0  0  0
 13 57  1  0  0  0
 13 58  1  0  0  0
 14 59  1  0  0  0
 15 60  1  0  0  0
 15 61  1  0  0  0
 16 62  1  0  0  0
 17 63  1  0  0  0
 18 64  1  0  0  0
 19 65  1  0  0  0
 20 66  1  0  0  0
 20 67  1  0  0  0
 21 68  1  0  0  0
 21 69  1  0  0  0
 23 70  1  0  0  0
 24 71  1  0  0  0
 25 72  1  0  0  0
 26 73  1  0  0  0
 27 74  1  0  0  0
 28 75  1  0  0  0
 28 76  1  0  0  0
 29 77  1  0  0  0
 29 78  1  0  0  0
 29 79  1  0  0  0
 30 80  1  0  0  0
 30 81  1  0  0  0
 30 82  1  0  0  0
 31 83  1  0  0  0
 33 84  1  0  0  0
 36 85  1  0  0  0
 41 86  1  0  0  0
 42 87  1  0  0  0
M  END
$$$$
