6cvw_ligand
  -I-interpret- 

103108  0  0  0  0  0  0  0  0999 V2000
  -13.5700   -9.8220   14.1960 C   0  0  0  0  0
  -20.0010  -11.7730   16.2750 C   0  0  0  0  0
  -21.1500  -11.5530   17.3700 C   0  0  0  0  0
  -17.6130   -7.7080   12.7030 C   0  0  0  0  0
  -18.8960   -7.9850   11.8900 C   0  0  0  0  0
  -15.9970   -8.9200   14.1500 C   0  0  0  0  0
  -13.8200  -11.6790   12.9420 C   0  0  0  0  0
  -12.8490  -10.8330   13.2700 C   0  0  0  0  0
  -15.1130  -10.7550   12.6630 C   0  0  0  0  0
  -14.5580   -3.7460   14.8020 C   0  0  0  0  0
  -13.5130   -4.1870   15.5310 C   0  0  0  0  0
  -13.4920   -5.6750   15.9570 C   0  0  0  0  0
  -12.5530   -6.0980   17.0670 C   0  0  0  0  0
  -12.2430   -6.5110   15.6320 C   0  0  0  0  0
  -13.1590   -8.4020   14.1570 C   0  0  0  0  0
  -17.3870   -8.9980   13.5140 C   0  0  0  0  0
  -18.6800  -10.5040   14.9070 C   0  0  0  0  0
  -18.9130  -12.5720   17.0390 C   0  0  0  0  0
  -17.7810   -6.4620   13.5890 C   0  0  0  0  0
  -16.4940   -7.3840   11.6920 C   0  0  0  0  0
  -13.6930  -13.6460   14.2590 C   0  0  0  0  0
  -13.9600  -14.3920   15.5330 C   0  0  0  0  0
  -14.9680  -13.8650   16.5300 C   0  0  0  0  0
  -12.2990  -16.0410   14.8580 C   0  0  0  0  0
  -11.5660  -17.3390   15.1860 C   0  0  0  0  0
  -10.5800  -17.8170   14.1890 C   0  0  0  0  0
  -10.3180  -17.0380   12.9310 C   0  0  0  0  0
  -11.0480  -15.7630   12.5600 C   0  0  0  0  0
  -12.0570  -15.2960   13.5870 C   0  0  0  0  0
   -9.1550  -16.8950   10.8960 C   0  0  0  0  0
  -11.0420   -5.8380   15.0780 C   0  0  0  0  0
   -8.3820   -7.0170   12.2440 C   0  0  0  0  0
   -7.2870   -7.9290   12.7370 C   0  0  0  0  0
   -6.9290   -6.7330   11.8770 C   0  0  0  0  0
  -20.3760  -11.3510   18.4730 C   0  0  0  0  0
  -19.2160  -12.4950   18.3780 C   0  0  0  0  0
   -9.3790   -7.5440   11.2150 C   0  0  0  0  0
  -12.5670   -7.8900   15.3720 N   0  0  0  0  0
  -14.9890   -9.8420   13.6330 N   0  0  0  0  0
  -18.3430   -9.1610   14.5440 N   0  0  0  0  0
  -13.2560  -15.5810   15.8270 N   0  0  0  0  0
  -12.7490  -14.0800   13.2850 N   0  0  0  0  0
  -10.3440   -6.6460   14.1290 N   0  0  0  0  0
  -13.2770   -7.6860   13.2010 O   0  0  0  0  0
  -15.7470   -8.1670   15.0530 O   0  0  0  0  0
  -18.2810  -11.4550   14.3240 O   0  0  0  0  0
  -19.5190  -10.5820   15.9870 O   0  0  0  0  0
  -14.3690  -12.4620   14.0490 O   0  0  0  0  0
   -9.4250  -17.6180   12.0920 O   0  0  0  0  0
  -10.6700   -4.7750   15.4320 O   0  0  0  0  0
   -7.9760   -5.4870   14.3920 O   0  0  0  0  0
   -9.5230   -4.7610   12.7070 O   0  0  0  0  0
   -9.0360   -5.9100   13.4870 S   0  0  0  0  0
  -13.3773  -10.1270   15.2246 H   0  0  0  0  0
  -20.3339  -12.2734   15.3657 H   0  0  0  0  0
  -21.8587  -12.3766   17.4568 H   0  0  0  0  0
  -21.8421  -10.7413   17.1457 H   0  0  0  0  0
  -18.7366   -8.8493   11.2453 H   0  0  0  0  0
  -19.7210   -8.1870   12.5732 H   0  0  0  0  0
  -19.1330   -7.1136   11.2796 H   0  0  0  0  0
  -13.4005  -12.3129   12.1608 H   0  0  0  0  0
  -12.0052  -11.3241   13.7547 H   0  0  0  0  0
  -12.3890  -10.3594   12.4027 H   0  0  0  0  0
  -16.0572  -11.2990   12.6878 H   0  0  0  0  0
  -15.1433  -10.3306   11.6595 H   0  0  0  0  0
  -15.3594   -4.4320   14.5278 H   0  0  0  0  0
  -14.6014   -2.7034   14.4869 H   0  0  0  0  0
  -12.7040   -3.5132   15.8130 H   0  0  0  0  0
  -14.5610   -5.7792   15.7713 H   0  0  0  0  0
  -12.6173   -6.5655   18.0496 H   0  0  0  0  0
  -12.0343   -5.6398   17.9091 H   0  0  0  0  0
  -17.4811   -9.8467   12.8366 H   0  0  0  0  0
  -17.9244  -12.1560   16.8449 H   0  0  0  0  0
  -18.8968  -13.6106   16.7085 H   0  0  0  0  0
  -18.6418   -6.5969   14.2440 H   0  0  0  0  0
  -16.8832   -6.3221   14.1910 H   0  0  0  0  0
  -17.9367   -5.5872   12.9577 H   0  0  0  0  0
  -15.5498   -7.2640   12.2232 H   0  0  0  0  0
  -16.4074   -8.1996   10.9741 H   0  0  0  0  0
  -16.7369   -6.4602   11.1669 H   0  0  0  0  0
  -14.6604  -12.8751   16.8670 H   0  0  0  0  0
  -15.9471  -13.8007   16.0553 H   0  0  0  0  0
  -15.0203  -14.5408   17.3836 H   0  0  0  0  0
  -11.7585  -17.8872   16.1083 H   0  0  0  0  0
  -10.0379  -18.7451   14.3702 H   0  0  0  0  0
  -10.8617  -15.2262   11.6298 H   0  0  0  0  0
  -10.0785  -16.7738   10.3299 H   0  0  0  0  0
   -8.7511  -15.9147   11.1489 H   0  0  0  0  0
   -8.4294  -17.4448   10.2966 H   0  0  0  0  0
   -7.0737   -8.9973   12.7726 H   0  0  0  0  0
   -6.9662   -8.3798   13.6761 H   0  0  0  0  0
   -6.2283   -5.8981   11.8807 H   0  0  0  0  0
   -6.3340   -6.5050   10.9927 H   0  0  0  0  0
  -20.9520  -11.4307   19.3949 H   0  0  0  0  0
  -19.9555  -10.3456   18.4969 H   0  0  0  0  0
  -18.3430  -12.2409   18.9792 H   0  0  0  0  0
  -19.5544  -13.4522   18.7748 H   0  0  0  0  0
   -8.8447   -7.8422   10.3129 H   0  0  0  0  0
   -9.9052   -8.4044   11.6284 H   0  0  0  0  0
  -10.0964   -6.7603   10.9716 H   0  0  0  0  0
  -12.3607   -8.5639   16.1094 H   0  0  0  0  0
  -18.7719   -8.3593   15.0062 H   0  0  0  0  0
  -10.6346   -7.5907   13.8771 H   0  0  0  0  0
  1  8  1  0  0  0
 15  1  1  0  0  0
  1 39  1  0  0  0
  2  3  1  0  0  0
  2 18  1  0  0  0
 47  2  1  0  0  0
  3 35  1  0  0  0
  4  5  1  0  0  0
 16  4  1  0  0  0
  4 19  1  0  0  0
  4 20  1  0  0  0
  6 16  1  0  0  0
 39  6  1  0  0  0
  6 45  2  0  0  0
  8  7  1  0  0  0
  9  7  1  0  0  0
  7 48  1  0  0  0
 39  9  1  0  0  0
 11 10  2  0  0  0
 12 11  1  0  0  0
 13 12  1  0  0  0
 14 12  1  0  0  0
 14 13  1  0  0  0
 31 14  1  0  0  0
 14 38  1  0  0  0
 38 15  1  0  0  0
 15 44  2  0  0  0
 16 40  1  0  0  0
 40 17  1  0  0  0
 17 46  2  0  0  0
 17 47  1  0  0  0
 18 36  1  0  0  0
 21 22  4  0  0  0
 21 42  4  0  0  0
 48 21  1  0  0  0
 22 23  1  0  0  0
 22 41  4  0  0  0
 24 25  4  0  0  0
 29 24  4  0  0  0
 41 24  4  0  0  0
 25 26  4  0  0  0
 27 26  4  0  0  0
 28 27  4  0  0  0
 27 49  1  0  0  0
 29 28  4  0  0  0
 42 29  4  0  0  0
 49 30  1  0  0  0
 43 31  1  0  0  0
 31 50  2  0  0  0
 32 33  1  0  0  0
 32 34  1  0  0  0
 32 37  1  0  0  0
 53 32  1  0  0  0
 34 33  1  0  0  0
 36 35  1  0  0  0
 43 53  1  0  0  0
 53 51  2  0  0  0
 53 52  2  0  0  0
  1 54  1  0  0  0
  2 55  1  0  0  0
  3 56  1  0  0  0
  3 57  1  0  0  0
  5 58  1  0  0  0
  5 59  1  0  0  0
  5 60  1  0  0  0
  7 61  1  0  0  0
  8 62  1  0  0  0
  8 63  1  0  0  0
  9 64  1  0  0  0
  9 65  1  0  0  0
 10 66  1  0  0  0
 10 67  1  0  0  0
 11 68  1  0  0  0
 12 69  1  0  0  0
 13 70  1  0  0  0
 13 71  1  0  0  0
 16 72  1  0  0  0
 18 73  1  0  0  0
 18 74  1  0  0  0
 19 75  1  0  0  0
 19 76  1  0  0  0
 19 77  1  0  0  0
 20 78  1  0  0  0
 20 79  1  0  0  0
 20 80  1  0  0  0
 23 81  1  0  0  0
 23 82  1  0  0  0
 23 83  1  0  0  0
 25 84  1  0  0  0
 26 85  1  0  0  0
 28 86  1  0  0  0
 30 87  1  0  0  0
 30 88  1  0  0  0
 30 89  1  0  0  0
 33 90  1  0  0  0
 33 91  1  0  0  0
 34 92  1  0  0  0
 34 93  1  0  0  0
 35 94  1  0  0  0
 35 95  1  0  0  0
 36 96  1  0  0  0
 36 97  1  0  0  0
 37 98  1  0  0  0
 37 99  1  0  0  0
 37100  1  0  0  0
 38101  1  0  0  0
 40102  1  0  0  0
 43103  1  0  0  0
M  END
$$$$
