2fs8_ligand
  -I-interpret- 

 81 85  0  0  0  0  0  0  0  0999 V2000
    0.9720   18.4470   72.1530 C   0  0  0  0  0
   -0.1230   21.1900   70.1580 C   0  0  0  0  0
    2.0830   18.0260   71.3570 C   0  0  0  0  0
    0.1260   19.8730   72.3780 C   0  0  0  0  0
   -0.7850   20.7230   71.3370 O   0  0  0  0  0
    1.0820   20.5910   69.9620 O   0  0  0  0  0
   -1.4350   22.4380   68.1450 C   0  0  0  0  0
   -0.9800   23.9010   67.8760 C   0  0  0  0  0
   -0.4110   21.8450   69.0080 N   0  0  0  0  0
    0.4550   23.8930   67.1980 C   0  0  0  0  0
    1.4460   25.0010   67.6030 C   0  0  0  0  0
    1.0480   25.9870   68.7150 C   0  0  0  0  0
    1.7360   27.2840   68.2710 C   0  0  0  0  0
    2.4120   27.0140   67.0040 N   0  3  0  0  0
    1.7800   25.8670   66.4220 C   0  0  0  0  0
   -2.8620   22.1000   68.4190 C   0  0  0  0  0
   -3.6130   23.1900   68.7200 O   0  0  0  0  0
   -3.3960   21.1440   69.3190 C   0  0  0  0  0
   -4.4990   21.3110   69.9960 N   0  0  0  0  0
   -4.7760   20.2280   70.7140 O   0  0  0  0  0
   -3.7500   19.3320   70.4400 C   0  0  0  0  0
   -3.6510   18.0800   70.9630 C   0  0  0  0  0
   -4.9610   17.3780   70.9310 C   0  0  0  0  0
   -5.9200   17.5510   72.0860 C   0  0  0  0  0
   -7.2030   16.8570   72.0810 C   0  0  0  0  0
   -7.5080   16.0090   70.9270 C   0  0  0  0  0
   -6.5530   15.8850   69.8500 C   0  0  0  0  0
   -5.3300   16.5350   69.8330 C   0  0  0  0  0
   -8.7210   15.2390   70.8220 C   0  0  0  0  0
   -9.7090   15.5570   71.2840 O   0  0  0  0  0
   -8.5040   14.1150   70.1750 N   0  0  0  0  0
   -9.2050   12.9560   69.7950 C   0  0  0  0  0
  -10.1690   12.2090   70.6270 C   0  0  0  0  0
  -11.0440   11.5320   69.6940 C   0  0  0  0  0
  -12.0930   10.5950   70.0370 C   0  0  0  0  0
  -12.8560   10.0240   68.9540 C   0  0  0  0  0
  -12.5780   10.3720   67.5570 C   0  0  0  0  0
  -11.5310   11.3190   67.2420 C   0  0  0  0  0
  -10.7500   11.8800   68.3200 C   0  0  0  0  0
   -9.6310   12.8730   68.2390 C   0  0  0  0  0
   -2.8980   19.8940   69.5820 N   0  0  0  0  0
    1.4558   18.4000   73.1286 H   0  0  0  0  0
    0.1926   17.8859   71.6375 H   0  0  0  0  0
    1.8466   18.1664   70.3023 H   0  0  0  0  0
    2.9597   18.6195   71.6163 H   0  0  0  0  0
    2.2865   16.9723   71.5479 H   0  0  0  0  0
    0.9526   20.5681   72.5251 H   0  0  0  0  0
   -0.6401   19.5362   73.0764 H   0  0  0  0  0
   -1.4917   21.9396   67.1773 H   0  0  0  0  0
   -0.9332   24.4460   68.8188 H   0  0  0  0  0
   -1.6935   24.3867   67.2103 H   0  0  0  0  0
    0.4797   21.9891   68.5323 H   0  0  0  0  0
    0.2747   24.0386   66.1329 H   0  0  0  0  0
    0.9197   22.9580   67.5109 H   0  0  0  0  0
    2.2657   24.4000   67.9967 H   0  0  0  0  0
    1.3563   25.6583   69.7075 H   0  0  0  0  0
   -0.0312   26.0925   68.8259 H   0  0  0  0  0
    2.4542   27.6102   69.0232 H   0  0  0  0  0
    1.0024   28.0808   68.1484 H   0  0  0  0  0
    3.4049   26.8377   67.1572 H   0  0  0  0  0
    2.3408   27.8182   66.3806 H   0  0  0  0  0
    0.8974   26.1314   65.8396 H   0  0  0  0  0
    2.4243   25.3586   65.7047 H   0  0  0  0  0
   -2.9000   21.5917   67.4555 H   0  0  0  0  0
   -4.5183   22.9174   68.8866 H   0  0  0  0  0
   -3.3254   18.1612   72.0001 H   0  0  0  0  0
   -2.9368   17.5104   70.3684 H   0  0  0  0  0
   -5.6527   18.1951   72.9237 H   0  0  0  0  0
   -7.9080   16.9656   72.9052 H   0  0  0  0  0
   -6.8087   15.2454   69.0052 H   0  0  0  0  0
   -4.6523   16.4059   68.9891 H   0  0  0  0  0
   -7.5376   14.0699   69.8517 H   0  0  0  0  0
   -8.3155   12.3894   70.0704 H   0  0  0  0  0
  -10.7268   12.8744   71.2859 H   0  0  0  0  0
   -9.6639   11.5019   71.2851 H   0  0  0  0  0
  -12.2985   10.3309   71.0744 H   0  0  0  0  0
  -13.6562    9.3189   69.1790 H   0  0  0  0  0
  -13.1604    9.9170   66.7558 H   0  0  0  0  0
  -11.3346   11.6045   66.2086 H   0  0  0  0  0
   -8.8223   12.5822   67.5685 H   0  0  0  0  0
   -9.9131   13.8303   67.8006 H   0  0  0  0  0
  1  3  1  0  0  0
  4  1  1  0  0  0
  2  5  1  0  0  0
  2  6  2  0  0  0
  9  2  1  0  0  0
  5  4  1  0  0  0
  7  8  1  0  0  0
  7  9  1  0  0  0
  7 16  1  0  0  0
  8 10  1  0  0  0
 10 11  1  0  0  0
 11 12  1  0  0  0
 11 15  1  0  0  0
 12 13  1  0  0  0
 13 14  1  0  0  0
 14 15  1  0  0  0
 16 17  1  0  0  0
 16 18  1  0  0  0
 18 19  4  0  0  0
 18 41  4  0  0  0
 19 20  4  0  0  0
 20 21  4  0  0  0
 21 22  1  0  0  0
 21 41  4  0  0  0
 22 23  1  0  0  0
 23 24  4  0  0  0
 23 28  4  0  0  0
 24 25  4  0  0  0
 25 26  4  0  0  0
 26 27  4  0  0  0
 26 29  1  0  0  0
 27 28  4  0  0  0
 29 30  2  0  0  0
 29 31  1  0  0  0
 31 32  1  0  0  0
 32 33  1  0  0  0
 32 40  1  0  0  0
 33 34  1  0  0  0
 34 35  4  0  0  0
 34 39  4  0  0  0
 35 36  4  0  0  0
 36 37  4  0  0  0
 37 38  4  0  0  0
 38 39  4  0  0  0
 39 40  1  0  0  0
  1 42  1  0  0  0
  1 43  1  0  0  0
  3 44  1  0  0  0
  3 45  1  0  0  0
  3 46  1  0  0  0
  4 47  1  0  0  0
  4 48  1  0  0  0
  7 49  1  0  0  0
  8 50  1  0  0  0
  8 51  1  0  0  0
  9 52  1  0  0  0
 10 53  1  0  0  0
 10 54  1  0  0  0
 11 55  1  0  0  0
 12 56  1  0  0  0
 12 57  1  0  0  0
 13 58  1  0  0  0
 13 59  1  0  0  0
 14 60  1  0  0  0
 14 61  1  0  0  0
 15 62  1  0  0  0
 15 63  1  0  0  0
 16 64  1  0  0  0
 17 65  1  0  0  0
 22 66  1  0  0  0
 22 67  1  0  0  0
 24 68  1  0  0  0
 25 69  1  0  0  0
 27 70  1  0  0  0
 28 71  1  0  0  0
 31 72  1  0  0  0
 32 73  1  0  0  0
 33 74  1  0  0  0
 33 75  1  0  0  0
 35 76  1  0  0  0
 36 77  1  0  0  0
 37 78  1  0  0  0
 38 79  1  0  0  0
 40 80  1  0  0  0
 40 81  1  0  0  0
M  END
$$$$
