5duf_ligand
  -I-interpret- 

 40 42  0  0  0  0  0  0  0  0999 V2000
  -46.9910   12.9330   11.5160 O   0  0  0  0  0
  -47.5880   11.9190   11.1190 C   0  0  0  0  0
  -48.4180   11.3260   11.8430 O   0  0  0  0  0
  -47.3620   11.4070    9.7370 C   0  0  0  0  0
  -47.8650   10.2690    9.1040 C   0  0  0  0  0
  -47.4010   10.2200    7.8230 N   0  0  0  0  0
  -46.5910   11.3530    7.6650 N   0  0  0  0  0
  -45.9460   11.6440    6.3710 C   0  0  0  0  0
  -45.4380   10.3970    5.6480 C   0  0  0  0  0
  -46.4400    9.5860    5.3200 F   0  0  0  0  0
  -44.8290   10.7730    4.5430 F   0  0  0  0  0
  -44.5780    9.7540    6.4160 F   0  0  0  0  0
  -46.5910   12.0410    8.7760 C   0  0  0  0  0
  -45.8590   13.1960    8.8740 N   0  0  0  0  0
  -45.2920   13.7810    7.6460 C   0  0  0  0  0
  -44.8380   12.6490    6.7030 C   0  0  0  0  0
  -44.1390   14.6670    7.9710 C   0  0  0  0  0
  -43.1530   14.2830    8.8860 C   0  0  0  0  0
  -42.0840   15.1290    9.1800 C   0  0  0  0  0
  -41.9760   16.3760    8.5630 C   0  0  0  0  0
  -40.8190   17.2960    8.8830 C   0  0  0  0  0
  -40.7750   17.6050   10.3640 C   0  0  0  0  0
  -42.9550   16.7590    7.6570 C   0  0  0  0  0
  -44.0180   15.9170    7.3610 C   0  0  0  0  0
  -48.7728   10.5706   11.3685 H   0  0  0  0  0
  -48.5261    9.5337    9.5627 H   0  0  0  0  0
  -46.6580   12.0556    5.6557 H   0  0  0  0  0
  -45.7097   13.6417    9.7792 H   0  0  0  0  0
  -46.0570   14.3815    7.1539 H   0  0  0  0  0
  -44.5245   13.1104    5.7665 H   0  0  0  0  0
  -44.0423   12.1022    7.2089 H   0  0  0  0  0
  -43.2210   13.3112    9.3749 H   0  0  0  0  0
  -41.3266   14.8136    9.8976 H   0  0  0  0  0
  -40.9471   18.2279    8.3323 H   0  0  0  0  0
  -39.8888   16.8046    8.5978 H   0  0  0  0  0
  -41.7046   18.0909   10.6602 H   0  0  0  0  0
  -40.6538   16.6777   10.9239 H   0  0  0  0  0
  -39.9350   18.2682   10.5707 H   0  0  0  0  0
  -42.8883   17.7329    7.1720 H   0  0  0  0  0
  -44.7707   16.2369    6.6405 H   0  0  0  0  0
  1  2  2  0  0  0
  2  3  1  0  0  0
  2  4  1  0  0  0
  4  5  4  0  0  0
  4 13  4  0  0  0
  5  6  4  0  0  0
  6  7  4  0  0  0
  7  8  1  0  0  0
  7 13  4  0  0  0
  8  9  1  0  0  0
  8 16  1  0  0  0
  9 10  1  0  0  0
  9 11  1  0  0  0
  9 12  1  0  0  0
 13 14  1  0  0  0
 14 15  1  0  0  0
 15 16  1  0  0  0
 15 17  1  0  0  0
 17 18  4  0  0  0
 17 24  4  0  0  0
 18 19  4  0  0  0
 19 20  4  0  0  0
 20 21  1  0  0  0
 20 23  4  0  0  0
 21 22  1  0  0  0
 23 24  4  0  0  0
  3 25  1  0  0  0
  5 26  1  0  0  0
  8 27  1  0  0  0
 14 28  1  0  0  0
 15 29  1  0  0  0
 16 30  1  0  0  0
 16 31  1  0  0  0
 18 32  1  0  0  0
 19 33  1  0  0  0
 21 34  1  0  0  0
 21 35  1  0  0  0
 22 36  1  0  0  0
 22 37  1  0  0  0
 22 38  1  0  0  0
 23 39  1  0  0  0
 24 40  1  0  0  0
M  END
$$$$
