3hwx_ligand
  -I-interpret- 

 46 47  0  0  0  0  0  0  0  0999 V2000
   10.7240    0.5480   -0.9940 N   0  0  0  0  0
   10.1430    1.7670   -1.2600 C   0  0  0  0  0
    8.6640    1.8990   -1.2260 C   0  0  0  0  0
   10.9100    2.8670   -1.5800 N   0  0  0  0  0
   12.2890    2.7780   -1.6430 C   0  0  0  0  0
   13.0200    3.8590   -1.9780 N   0  0  0  0  0
   12.8850    1.5530   -1.3500 C   0  0  0  0  0
   12.0980    0.4540   -1.0040 C   0  0  0  0  0
   14.3750    1.4030   -1.3500 C   0  0  0  0  0
   14.9950    1.3120   -2.6360 N   0  0  0  0  0
   15.6120    2.3830   -3.2140 C   0  0  0  0  0
   16.2680    2.0330   -4.6140 S   0  0  0  0  0
   15.8060    0.4940   -4.5560 C   0  0  0  0  0
   15.1090    0.1890   -3.3980 C   0  0  0  0  0
   14.5400   -1.1680   -3.0720 C   0  0  0  0  0
   16.2050   -0.3690   -5.7260 C   0  0  0  0  0
   15.2130   -0.3860   -6.8830 C   0  0  0  0  0
   15.6480   -1.3440   -7.8430 O   0  0  0  0  0
   15.4130   -1.1490   -9.4340 P   0  0  0  0  0
   13.9410   -0.8660   -9.6670 O   0  0  0  0  0
   15.8850   -2.2750  -10.3390 O   0  0  0  0  0
   16.3320    0.1300   -9.6970 O   0  0  0  0  0
   17.9360   -0.0330   -9.8010 P   0  0  0  0  0
   18.5360    1.2320  -10.3940 O   0  0  0  0  0
   18.3760   -0.1130   -8.3290 O   0  0  0  0  0
   18.3690   -1.2790  -10.5970 O   0  0  0  0  0
    8.2235    1.2262   -1.9618 H   0  0  0  0  0
    8.3002    1.6404   -0.2316 H   0  0  0  0  0
    8.3868    2.9269   -1.4597 H   0  0  0  0  0
   12.5566    4.7437   -2.1854 H   0  0  0  0  0
   14.0368    3.7927   -2.0243 H   0  0  0  0  0
   12.5758   -0.4891   -0.7388 H   0  0  0  0  0
   14.5885    0.4638   -0.8396 H   0  0  0  0  0
   14.7736    2.3023   -0.8805 H   0  0  0  0  0
   16.4080    2.7104   -2.5452 H   0  0  0  0  0
   14.8578    3.1518   -3.3819 H   0  0  0  0  0
   13.8204   -1.4528   -3.8396 H   0  0  0  0  0
   15.3466   -1.9004   -3.0388 H   0  0  0  0  0
   14.0429   -1.1288   -2.1027 H   0  0  0  0  0
   16.2717   -1.3914   -5.3541 H   0  0  0  0  0
   17.1362    0.0416   -6.1164 H   0  0  0  0  0
   15.1622    0.6014   -7.3419 H   0  0  0  0  0
   14.2215   -0.6524   -6.5169 H   0  0  0  0  0
   16.8169   -2.4423  -10.1803 H   0  0  0  0  0
   18.0097   -0.9052   -7.9293 H   0  0  0  0  0
   17.9772   -2.0615  -10.2024 H   0  0  0  0  0
  1  2  4  0  0  0
  1  8  4  0  0  0
  2  3  1  0  0  0
  2  4  4  0  0  0
  4  5  4  0  0  0
  5  6  1  0  0  0
  5  7  4  0  0  0
  7  8  4  0  0  0
  7  9  1  0  0  0
  9 10  1  0  0  0
 10 11  1  0  0  0
 10 14  1  0  0  0
 11 12  1  0  0  0
 12 13  1  0  0  0
 13 14  2  0  0  0
 13 16  1  0  0  0
 14 15  1  0  0  0
 16 17  1  0  0  0
 17 18  1  0  0  0
 18 19  1  0  0  0
 19 20  2  0  0  0
 19 21  1  0  0  0
 19 22  1  0  0  0
 22 23  1  0  0  0
 23 24  2  0  0  0
 23 25  1  0  0  0
 23 26  1  0  0  0
  3 27  1  0  0  0
  3 28  1  0  0  0
  3 29  1  0  0  0
  6 30  1  0  0  0
  6 31  1  0  0  0
  8 32  1  0  0  0
  9 33  1  0  0  0
  9 34  1  0  0  0
 11 35  1  0  0  0
 11 36  1  0  0  0
 15 37  1  0  0  0
 15 38  1  0  0  0
 15 39  1  0  0  0
 16 40  1  0  0  0
 16 41  1  0  0  0
 17 42  1  0  0  0
 17 43  1  0  0  0
 21 44  1  0  0  0
 25 45  1  0  0  0
 26 46  1  0  0  0
M  END
$$$$
