### 
### Created by X-TOOL on Mon Sep 10 21:13:00 2018
### 

@<TRIPOS>MOLECULE
3hwx_ligand
   42    43     1     0     0
SMALL
GAST_HUCK


@<TRIPOS>ATOM
      1 N1'        10.7240    0.5480   -0.9940 N.ar      1 TPP        -0.2937
      2 C2'        10.1430    1.7670   -1.2600 C.ar      1 TPP         0.0758
      3 CM2         8.6640    1.8990   -1.2260 C.3       1 TPP        -0.0029
      4 N3'        10.9100    2.8670   -1.5800 N.ar      1 TPP        -0.2609
      5 C4'        12.2890    2.7780   -1.6430 C.ar      1 TPP         0.1237
      6 N4'        13.0200    3.8590   -1.9780 N.pl3     1 TPP        -0.3186
      7 C5'        12.8850    1.5530   -1.3500 C.ar      1 TPP         0.0466
      8 C6'        12.0980    0.4540   -1.0040 C.ar      1 TPP         0.0089
      9 C7'        14.3750    1.4030   -1.3500 C.3       1 TPP         0.0762
     10 N3         14.9950    1.3120   -2.6360 N.pl3     1 TPP        -0.3021
     11 C2         15.6120    2.3830   -3.2140 C.2       1 TPP         0.0206
     12 S1         16.2680    2.0330   -4.6140 S.3       1 TPP        -0.1084
     13 C5         15.8060    0.4940   -4.5560 C.2       1 TPP         0.0056
     14 C4         15.1090    0.1890   -3.3980 C.2       1 TPP         0.0355
     15 CM4        14.5400   -1.1680   -3.0720 C.3       1 TPP        -0.0181
     16 C6         16.2050   -0.3690   -5.7260 C.3       1 TPP         0.0017
     17 C7         15.2130   -0.3860   -6.8830 C.3       1 TPP         0.0894
     18 O7         15.6480   -1.3440   -7.8430 O.3       1 TPP        -0.2448
     19 PA         15.4130   -1.1490   -9.4340 P.3       1 TPP         0.3276
     20 O1A        13.9410   -0.8660   -9.6670 O.co2     1 TPP        -0.5556
     21 O2A        15.8850   -2.2750  -10.3390 O.co2     1 TPP        -0.5556
     22 O3A        16.3320    0.1300   -9.6970 O.3       1 TPP        -0.1548
     23 PB         17.9360   -0.0330   -9.8010 P.3       1 TPP         0.2069
     24 O1B        18.5360    1.2320  -10.3940 O.co2     1 TPP        -0.5891
     25 O2B        18.3760   -0.1130   -8.3290 O.co2     1 TPP        -0.5891
     26 O3B        18.3690   -1.2790  -10.5970 O.co2     1 TPP        -0.5891
     27 H1          8.2157    0.9317   -0.9550 H         1 TPP         0.0449
     28 H2          8.3004    2.2067   -2.2175 H         1 TPP         0.0449
     29 H3          8.3805    2.6562   -0.4802 H         1 TPP         0.0449
     30 H4         14.0468    3.7921   -2.0247 H         1 TPP         0.1789
     31 H5         12.5521    4.7524   -2.1874 H         1 TPP         0.1789
     32 H6         12.5732   -0.4839   -0.7402 H         1 TPP         0.0791
     33 H7         14.6214    0.4877   -0.7919 H         1 TPP         0.0732
     34 H8         14.8012    2.2745   -0.8316 H         1 TPP         0.0732
     35 H9         15.6498    3.3729   -2.7617 H         1 TPP         0.0291
     36 H10        14.7951   -1.8751   -3.8751 H         1 TPP         0.0375
     37 H11        13.4462   -1.0949   -2.9816 H         1 TPP         0.0375
     38 H12        14.9635   -1.5245   -2.1215 H         1 TPP         0.0375
     39 H13        16.3241   -1.4008   -5.3638 H         1 TPP         0.0387
     40 H14        17.1685   -0.0010   -6.1083 H         1 TPP         0.0387
     41 H15        15.1691    0.6100   -7.3477 H         1 TPP         0.0637
     42 H16        14.2151   -0.6615   -6.5111 H         1 TPP         0.0637
@<TRIPOS>BOND
     1    1    2 ar 
     2    1    8 ar 
     3    2    3 1  
     4    2    4 ar 
     5    4    5 ar 
     6    5    6 1  
     7    5    7 ar 
     8    7    8 ar 
     9    7    9 1  
    10    9   10 1  
    11   10   11 1  
    12   10   14 1  
    13   11   12 1  
    14   12   13 1  
    15   13   14 2  
    16   13   16 1  
    17   14   15 1  
    18   16   17 1  
    19   17   18 1  
    20   18   19 1  
    21   19   20 ar 
    22   19   21 ar 
    23   19   22 1  
    24   22   23 1  
    25   23   24 ar 
    26   23   25 ar 
    27   23   26 ar 
    28    3   27 1  
    29    3   28 1  
    30    3   29 1  
    31    6   30 1  
    32    6   31 1  
    33    8   32 1  
    34    9   33 1  
    35    9   34 1  
    36   11   35 1  
    37   15   36 1  
    38   15   37 1  
    39   15   38 1  
    40   16   39 1  
    41   16   40 1  
    42   17   41 1  
    43   17   42 1  
@<TRIPOS>SUBSTRUCTURE
     1 TPP         1

