3ppk_ligand
  -I-interpret- 

 45 49  0  0  0  0  0  0  0  0999 V2000
   80.7220   10.9630   -8.4450 C   0  0  0  0  0
   81.4950   11.8560   -9.1060 N   0  0  0  0  0
   82.8070   11.5990   -9.3100 C   0  0  0  0  0
   83.3650   10.3960   -8.8320 C   0  0  0  0  0
   82.5820    9.4650   -8.1500 C   0  0  0  0  0
   81.2160    9.7370   -7.9400 C   0  0  0  0  0
   84.6640    9.9790   -8.9480 O   0  0  0  0  0
   84.6190    8.7330   -8.2900 C   0  0  0  0  0
   83.3410    8.3440   -7.7680 C   0  0  0  0  0
   85.8330    7.9950   -8.2160 C   0  0  0  0  0
   83.0670    7.2040   -7.1070 N   0  0  0  0  0
   82.0240    6.3790   -6.9570 C   0  0  0  0  0
   82.0540    5.4650   -5.8830 C   0  0  0  0  0
   80.9780    4.5780   -5.6820 C   0  0  0  0  0
   79.8730    4.6090   -6.5560 C   0  0  0  0  0
   79.8430    5.5250   -7.6310 C   0  0  0  0  0
   80.9190    6.4120   -7.8340 C   0  0  0  0  0
   78.7950    3.7230   -6.3540 C   0  0  0  0  0
   77.6890    3.7530   -7.2290 C   0  0  0  0  0
   77.6620    4.6690   -8.3030 C   0  0  0  0  0
   78.7390    5.5570   -8.5060 C   0  0  0  0  0
   85.7660    6.7680   -8.1670 O   0  0  0  0  0
   78.8180    2.8300   -5.3110 O   0  0  0  0  0
   86.9590    8.7190   -8.1670 N   0  0  0  0  0
   88.3110    8.3040   -8.0870 C   0  0  0  0  0
   89.3100    9.2030   -8.2530 N   0  0  0  0  0
   90.5700    8.7380   -8.1670 C   0  0  0  0  0
   90.9260    7.4530   -7.9290 N   0  0  0  0  0
   89.9430    6.5360   -7.7600 C   0  0  0  0  0
   88.5930    6.9370   -7.8340 C   0  0  0  0  0
   79.6687   11.1996   -8.2945 H   0  0  0  0  0
   83.4299   12.3185   -9.8414 H   0  0  0  0  0
   80.5694    9.0355   -7.4129 H   0  0  0  0  0
   83.8750    6.8805   -6.5751 H   0  0  0  0  0
   82.9099    5.4450   -5.2084 H   0  0  0  0  0
   81.0002    3.8702   -4.8533 H   0  0  0  0  0
   80.8979    7.1191   -8.6632 H   0  0  0  0  0
   76.8546    3.0685   -7.0759 H   0  0  0  0  0
   76.8061    4.6901   -8.9776 H   0  0  0  0  0
   78.7173    6.2641   -9.3352 H   0  0  0  0  0
   78.0126    2.3077   -5.3205 H   0  0  0  0  0
   86.8209    9.7293   -8.1911 H   0  0  0  0  0
   91.3758    9.4598   -8.3008 H   0  0  0  0  0
   90.1945    5.4930   -7.5677 H   0  0  0  0  0
   87.7872    6.2153   -7.7003 H   0  0  0  0  0
  1  2  4  0  0  0
  1  6  4  0  0  0
  2  3  4  0  0  0
  3  4  4  0  0  0
  4  5  4  0  0  0
  4  7  4  0  0  0
  5  6  4  0  0  0
  5  9  4  0  0  0
  7  8  4  0  0  0
  8  9  4  0  0  0
  8 10  1  0  0  0
  9 11  1  0  0  0
 10 22  2  0  0  0
 10 24  1  0  0  0
 11 12  1  0  0  0
 12 13  4  0  0  0
 12 17  4  0  0  0
 13 14  4  0  0  0
 14 15  4  0  0  0
 15 16  4  0  0  0
 15 18  4  0  0  0
 16 17  4  0  0  0
 16 21  4  0  0  0
 18 19  4  0  0  0
 18 23  1  0  0  0
 19 20  4  0  0  0
 20 21  4  0  0  0
 24 25  1  0  0  0
 25 26  4  0  0  0
 25 30  4  0  0  0
 26 27  4  0  0  0
 27 28  4  0  0  0
 28 29  4  0  0  0
 29 30  4  0  0  0
  1 31  1  0  0  0
  3 32  1  0  0  0
  6 33  1  0  0  0
 11 34  1  0  0  0
 13 35  1  0  0  0
 14 36  1  0  0  0
 17 37  1  0  0  0
 19 38  1  0  0  0
 20 39  1  0  0  0
 21 40  1  0  0  0
 23 41  1  0  0  0
 24 42  1  0  0  0
 27 43  1  0  0  0
 29 44  1  0  0  0
 30 45  1  0  0  0
M  END
$$$$
