### 
### Created by X-TOOL on Wed Jan  1 15:39:37 2020
### 

@<TRIPOS>MOLECULE
6mim_ligand
  109   108     1     0     0
SMALL
GAST_HUCK


@<TRIPOS>ATOM
      1 N          11.2500    3.5460   -6.4070 N.4       1 GLN         0.2380
      2 CA         11.8730    2.2340   -6.5190 C.3       1 GLN         0.0671
      3 C          13.2890    2.2140   -5.9390 C.2       1 GLN         0.2269
      4 O          13.8860    3.2710   -5.7110 O.2       1 GLN        -0.3907
      5 CB         11.8850    1.7810   -7.9800 C.3       1 GLN         0.0247
      6 CG         12.8590    2.4940   -8.8450 C.3       1 GLN         0.0443
      7 CD         13.0160    1.7960  -10.1670 C.2       1 GLN         0.1738
      8 OE1        13.9020    0.9600  -10.3390 O.2       1 GLN        -0.3973
      9 NE2        12.1470    2.1250  -11.1140 N.am      1 GLN        -0.3009
     10 N          13.8260    1.0140   -5.7070 N.am      1 THR        -0.2586
     11 CA         15.0950    0.8510   -5.0080 C.3       1 THR         0.1566
     12 C          16.2620    1.3790   -5.8580 C.2       1 THR         0.2065
     13 O          16.0820    1.9660   -6.9360 O.2       1 THR        -0.3943
     14 CB         15.3400   -0.6210   -4.6520 C.3       1 THR         0.0924
     15 OG1        15.6200   -1.3860   -5.8440 O.3       1 THR        -0.3874
     16 CG2        14.1430   -1.2520   -3.9180 C.3       1 THR        -0.0346
     17 N          17.4820    1.1910   -5.3390 N.am      1 ALA        -0.2639
     18 CA         18.6930    1.4600   -6.1040 C.3       1 ALA         0.1282
     19 C          18.7640    0.5550   -7.3270 C.2       1 ALA         0.2036
     20 O          18.1760   -0.5350   -7.3610 O.2       1 ALA        -0.3944
     21 CB         19.9210    1.2090   -5.2460 C.3       1 ALA        -0.0244
     22 N          19.5530    0.9810   -8.3160 N.am      1 ARG        -0.2637
     23 CA         19.8810    0.1000   -9.4460 C.3       1 ARG         0.1311
     24 C          21.3880   -0.1230   -9.5950 C.2       1 ARG         0.2039
     25 O          22.1820    0.7320   -9.2060 O.2       1 ARG        -0.3944
     26 CB         19.3320    0.6780  -10.7350 C.3       1 ARG        -0.0092
     27 CG         18.1050    1.4970  -10.5130 C.3       1 ARG        -0.0156
     28 CD         16.9900    0.8270  -11.1560 C.3       1 ARG         0.0627
     29 NE         17.4030    0.4270  -12.4930 N.pl3     1 ARG        -0.2723
     30 CZ         16.6510   -0.3220  -13.2800 C.cat     1 ARG         0.2882
     31 NH1        15.4660   -0.7450  -12.8520 N.pl3     1 ARG        -0.2849
     32 NH2        17.0770   -0.6450  -14.4800 N.pl3     1 ARG        -0.2849
     33 N          21.5500   -1.4070  -10.1530 N.am      1 KCR        -0.2637
     34 CA         23.0100   -1.5700  -10.2920 C.3       1 KCR         0.1309
     35 CB         23.4460   -2.8560   -9.6020 C.3       1 KCR        -0.0123
     36 CG         22.3290   -3.8920   -9.6190 C.3       1 KCR        -0.0470
     37 CD         22.8490   -5.2640   -9.2070 C.3       1 KCR        -0.0327
     38 CE         21.8280   -6.0000   -8.3480 C.3       1 KCR         0.0295
     39 NZ         22.5060   -7.2110   -7.9100 N.am      1 KCR        -0.2917
     40 CH         22.0570   -8.1110   -7.0400 C.2       1 KCR         0.1759
     41 OH         20.9740   -8.0160   -6.4850 O.2       1 KCR        -0.4012
     42 CX         22.9420   -9.2580   -6.7640 C.2       1 KCR        -0.0032
     43 CY         22.4400  -10.3740   -6.2420 C.2       1 KCR        -0.0626
     44 CH3        23.3460  -11.5480   -5.9590 C.3       1 KCR        -0.0267
     45 C          23.3720   -1.6370  -11.7560 C.2       1 KCR         0.2034
     46 O          22.5180   -1.8710  -12.5950 O.2       1 KCR        -0.3944
     47 N          24.5680   -1.3260  -12.1790 N.am      1 SER        -0.2672
     48 CA         24.9410   -1.3830  -13.5890 C.3       1 SER         0.1173
     49 C          26.0450   -2.4120  -13.8060 C.2       1 SER         0.0623
     50 O          26.0560   -3.1160  -14.8170 O.co2     1 SER        -0.5665
     51 CB         25.3870   -0.0090  -14.0920 C.3       1 SER         0.0789
     52 OG         25.4920    0.0120  -15.5070 O.3       1 SER        -0.3910
     53 OXT        26.9420   -2.5540  -12.9730 O.co2     1 SER        -0.5665
     54 H1         10.3225    3.5121   -6.8002 H         1 GLN         0.2015
     55 H2         11.8026    4.2242   -6.9077 H         1 GLN         0.2015
     56 H3         11.1938    3.8095   -5.4357 H         1 GLN         0.2015
     57 H4         11.2643    1.5212   -5.9434 H         1 GLN         0.1100
     58 H5         10.8788    1.9388   -8.3955 H         1 GLN         0.0370
     59 H6         12.1275    0.7083   -8.0037 H         1 GLN         0.0370
     60 H7         13.8343    2.5270   -8.3374 H         1 GLN         0.0506
     61 H8         12.5017    3.5196   -9.0198 H         1 GLN         0.0506
     62 H9         12.2017    1.6937  -12.0145 H         1 GLN         0.1814
     63 H10        11.4373    2.8043  -10.9273 H         1 GLN         0.1814
     64 H11        13.3411    0.1988   -6.0236 H         1 THR         0.1885
     65 H12        15.0515    1.4327   -4.0754 H         1 THR         0.0826
     66 H13        16.2160   -0.6696   -3.9885 H         1 THR         0.0639
     67 H14        16.3946   -1.0364   -6.2687 H         1 THR         0.2101
     68 H15        14.3680   -2.3035   -3.6860 H         1 THR         0.0257
     69 H16        13.2510   -1.2009   -4.5597 H         1 THR         0.0257
     70 H17        13.9547   -0.7027   -2.9838 H         1 THR         0.0257
     71 H18        17.5645    0.8566   -4.4002 H         1 ALA         0.1883
     72 H19        18.6842    2.5107   -6.4295 H         1 ALA         0.0797
     73 H20        20.8275    1.4153   -5.8340 H         1 ALA         0.0277
     74 H21        19.9292    0.1599   -4.9155 H         1 ALA         0.0277
     75 H22        19.8957    1.8701   -4.3672 H         1 ALA         0.0277
     76 H23        19.9247    1.9089   -8.2878 H         1 ARG         0.1883
     77 H24        19.4052   -0.8754   -9.2667 H         1 ARG         0.0800
     78 H25        19.0860   -0.1494  -11.4168 H         1 ARG         0.0313
     79 H26        20.1032    1.3142  -11.1938 H         1 ARG         0.0313
     80 H27        18.2407    2.4971  -10.9504 H         1 ARG         0.0301
     81 H28        17.9106    1.5917   -9.4345 H         1 ARG         0.0301
     82 H29        16.1325    1.5128  -11.2218 H         1 ARG         0.0689
     83 H30        16.7050   -0.0618  -10.5739 H         1 ARG         0.0689
     84 H31        18.3204    0.7411  -12.8405 H         1 ARG         0.2642
     85 H32        14.8765   -1.3291  -13.4622 H         1 ARG         0.2615
     86 H33        15.1371   -0.4888  -11.9101 H         1 ARG         0.2615
     87 H34        17.9962   -0.3144  -14.8065 H         1 ARG         0.2615
     88 H35        16.4918   -1.2289  -15.0944 H         1 ARG         0.2615
     89 H36        20.8352   -2.0614  -10.3996 H         1 KCR         0.1883
     90 H37        23.5202   -0.7135   -9.8271 H         1 KCR         0.0800
     91 H38        23.7123   -2.6317   -8.5586 H         1 KCR         0.0312
     92 H39        24.3233   -3.2648  -10.1246 H         1 KCR         0.0312
     93 H40        21.9130   -3.9556  -10.6353 H         1 KCR         0.0268
     94 H41        21.5398   -3.5814   -8.9185 H         1 KCR         0.0268
     95 H42        23.7787   -5.1387   -8.6325 H         1 KCR         0.0285
     96 H43        23.0533   -5.8574  -10.1104 H         1 KCR         0.0285
     97 H44        20.9342   -6.2496   -8.9386 H         1 KCR         0.0518
     98 H45        21.5363   -5.3861   -7.4831 H         1 KCR         0.0518
     99 H46        23.4074   -7.3853   -8.3063 H         1 KCR         0.1831
    100 H47        24.0058   -9.1915   -6.9874 H         1 KCR         0.0472
    101 H48        21.3762  -10.4406   -6.0190 H         1 KCR         0.0843
    102 H49        22.7555  -12.3724   -5.5326 H         1 KCR         0.0453
    103 H50        24.1246  -11.2461   -5.2430 H         1 KCR         0.0453
    104 H51        23.8180  -11.8810   -6.8951 H         1 KCR         0.0453
    105 H52        25.2544   -1.0378  -11.5113 H         1 SER         0.1876
    106 H53        24.0584   -1.6931  -14.1676 H         1 SER         0.0749
    107 H54        26.3680    0.2312  -13.6562 H         1 SER         0.0599
    108 H55        24.6508    0.7448  -13.7760 H         1 SER         0.0599
    109 H56        25.7699    0.8752  -15.7900 H         1 SER         0.2096
@<TRIPOS>BOND
     1    1    2 1  
     2    2    3 1  
     3    2    5 1  
     4    3    4 2  
     5    3   10 am 
     6    5    6 1  
     7    6    7 1  
     8    7    8 2  
     9    7    9 am 
    10   10   11 1  
    11   11   12 1  
    12   11   14 1  
    13   12   13 2  
    14   12   17 am 
    15   14   15 1  
    16   14   16 1  
    17   17   18 1  
    18   18   19 1  
    19   18   21 1  
    20   19   20 2  
    21   19   22 am 
    22   22   23 1  
    23   23   24 1  
    24   23   26 1  
    25   24   25 2  
    26   24   33 am 
    27   26   27 1  
    28   27   28 1  
    29   28   29 1  
    30   29   30 ar 
    31   30   31 ar 
    32   30   32 ar 
    33   33   34 1  
    34   34   35 1  
    35   34   45 1  
    36   35   36 1  
    37   36   37 1  
    38   37   38 1  
    39   38   39 1  
    40   39   40 am 
    41   40   41 2  
    42   40   42 1  
    43   42   43 2  
    44   43   44 1  
    45   45   46 2  
    46   45   47 am 
    47   47   48 1  
    48   48   49 1  
    49   48   51 1  
    50   49   50 ar 
    51   49   53 ar 
    52   51   52 1  
    53    1   54 1  
    54    1   55 1  
    55    1   56 1  
    56    2   57 1  
    57    5   58 1  
    58    5   59 1  
    59    6   60 1  
    60    6   61 1  
    61    9   62 1  
    62    9   63 1  
    63   10   64 1  
    64   11   65 1  
    65   14   66 1  
    66   15   67 1  
    67   16   68 1  
    68   16   69 1  
    69   16   70 1  
    70   17   71 1  
    71   18   72 1  
    72   21   73 1  
    73   21   74 1  
    74   21   75 1  
    75   22   76 1  
    76   23   77 1  
    77   26   78 1  
    78   26   79 1  
    79   27   80 1  
    80   27   81 1  
    81   28   82 1  
    82   28   83 1  
    83   29   84 1  
    84   31   85 1  
    85   31   86 1  
    86   32   87 1  
    87   32   88 1  
    88   33   89 1  
    89   34   90 1  
    90   35   91 1  
    91   35   92 1  
    92   36   93 1  
    93   36   94 1  
    94   37   95 1  
    95   37   96 1  
    96   38   97 1  
    97   38   98 1  
    98   39   99 1  
    99   42  100 1  
   100   43  101 1  
   101   44  102 1  
   102   44  103 1  
   103   44  104 1  
   104   47  105 1  
   105   48  106 1  
   106   51  107 1  
   107   51  108 1  
   108   52  109 1  
@<TRIPOS>SUBSTRUCTURE
     1 GLN         1

