6mim_ligand
  -I-interpret- 

109108  0  0  0  0  0  0  0  0999 V2000
   11.2500    3.5460   -6.4070 N   0  3  0  0  0
   11.8730    2.2340   -6.5190 C   0  0  0  0  0
   13.2890    2.2140   -5.9390 C   0  0  0  0  0
   13.8860    3.2710   -5.7110 O   0  0  0  0  0
   11.8850    1.7810   -7.9800 C   0  0  0  0  0
   12.8590    2.4940   -8.8450 C   0  0  0  0  0
   13.0160    1.7960  -10.1670 C   0  0  0  0  0
   13.9020    0.9600  -10.3390 O   0  0  0  0  0
   12.1470    2.1250  -11.1140 N   0  0  0  0  0
   13.8260    1.0140   -5.7070 N   0  0  0  0  0
   15.0950    0.8510   -5.0080 C   0  0  0  0  0
   16.2620    1.3790   -5.8580 C   0  0  0  0  0
   16.0820    1.9660   -6.9360 O   0  0  0  0  0
   15.3400   -0.6210   -4.6520 C   0  0  0  0  0
   15.6200   -1.3860   -5.8440 O   0  0  0  0  0
   14.1430   -1.2520   -3.9180 C   0  0  0  0  0
   17.4820    1.1910   -5.3390 N   0  0  0  0  0
   18.6930    1.4600   -6.1040 C   0  0  0  0  0
   18.7640    0.5550   -7.3270 C   0  0  0  0  0
   18.1760   -0.5350   -7.3610 O   0  0  0  0  0
   19.9210    1.2090   -5.2460 C   0  0  0  0  0
   19.5530    0.9810   -8.3160 N   0  0  0  0  0
   19.8810    0.1000   -9.4460 C   0  0  0  0  0
   21.3880   -0.1230   -9.5950 C   0  0  0  0  0
   22.1820    0.7320   -9.2060 O   0  0  0  0  0
   19.3320    0.6780  -10.7350 C   0  0  0  0  0
   18.1050    1.4970  -10.5130 C   0  0  0  0  0
   16.9900    0.8270  -11.1560 C   0  0  0  0  0
   17.4030    0.4270  -12.4930 N   0  0  0  0  0
   16.6510   -0.3220  -13.2800 C   0  0  0  0  0
   15.4660   -0.7450  -12.8520 N   0  0  0  0  0
   17.0770   -0.6450  -14.4800 N   0  0  0  0  0
   21.5500   -1.4070  -10.1530 N   0  0  0  0  0
   23.0100   -1.5700  -10.2920 C   0  0  0  0  0
   23.4460   -2.8560   -9.6020 C   0  0  0  0  0
   22.3290   -3.8920   -9.6190 C   0  0  0  0  0
   22.8490   -5.2640   -9.2070 C   0  0  0  0  0
   21.8280   -6.0000   -8.3480 C   0  0  0  0  0
   22.5060   -7.2110   -7.9100 N   0  0  0  0  0
   22.0570   -8.1110   -7.0400 C   0  0  0  0  0
   20.9740   -8.0160   -6.4850 O   0  0  0  0  0
   22.9420   -9.2580   -6.7640 C   0  0  0  0  0
   22.4400  -10.3740   -6.2420 C   0  0  0  0  0
   23.3460  -11.5480   -5.9590 C   0  0  0  0  0
   23.3720   -1.6370  -11.7560 C   0  0  0  0  0
   22.5180   -1.8710  -12.5950 O   0  0  0  0  0
   24.5680   -1.3260  -12.1790 N   0  0  0  0  0
   24.9410   -1.3830  -13.5890 C   0  0  0  0  0
   26.0450   -2.4120  -13.8060 C   0  0  0  0  0
   26.0560   -3.1160  -14.8170 O   0  0  0  0  0
   25.3870   -0.0090  -14.0920 C   0  0  0  0  0
   25.4920    0.0120  -15.5070 O   0  0  0  0  0
   26.9420   -2.5540  -12.9730 O   0  0  0  0  0
   11.2476    3.8376   -5.4296 H   0  0  0  0  0
   11.7768    4.2198   -6.9627 H   0  0  0  0  0
   10.2909    3.4961   -6.7505 H   0  0  0  0  0
   11.2770    1.5366   -5.9304 H   0  0  0  0  0
   10.8935    1.9869   -8.3833 H   0  0  0  0  0
   12.1701    0.7290   -7.9828 H   0  0  0  0  0
   13.8258    2.5125   -8.3420 H   0  0  0  0  0
   12.4933    3.5050   -9.0243 H   0  0  0  0  0
   12.1974    1.6787  -12.0298 H   0  0  0  0  0
   11.4285    2.8242  -10.9263 H   0  0  0  0  0
   13.3314    0.1825   -6.0299 H   0  0  0  0  0
   15.0393    1.4313   -4.0870 H   0  0  0  0  0
   16.1987   -0.6438   -3.9810 H   0  0  0  0  0
   15.7709   -2.3037   -5.6058 H   0  0  0  0  0
   13.9574   -0.7068   -2.9926 H   0  0  0  0  0
   13.2598   -1.2007   -4.5548 H   0  0  0  0  0
   14.3671   -2.2938   -3.6887 H   0  0  0  0  0
   17.5661    0.8500   -4.3814 H   0  0  0  0  0
   18.6663    2.5026   -6.4208 H   0  0  0  0  0
   19.8947    1.8646   -4.3756 H   0  0  0  0  0
   19.9279    0.1692   -4.9192 H   0  0  0  0  0
   20.8185    1.4137   -5.8297 H   0  0  0  0  0
   19.9321    1.9275   -8.2872 H   0  0  0  0  0
   19.4195   -0.8655   -9.2389 H   0  0  0  0  0
   19.0699   -0.1513  -11.3921 H   0  0  0  0  0
   20.0957    1.3246  -11.1672 H   0  0  0  0  0
   18.2378    2.4929  -10.9356 H   0  0  0  0  0
   17.9133    1.6027   -9.4452 H   0  0  0  0  0
   16.1348    1.5001  -11.2157 H   0  0  0  0  0
   16.6983   -0.0499  -10.5779 H   0  0  0  0  0
   18.3114    0.7380  -12.8371 H   0  0  0  0  0
   14.8823   -1.3235  -13.4562 H   0  0  0  0  0
   15.1403   -0.4912  -11.9193 H   0  0  0  0  0
   17.9874   -0.3176  -14.8033 H   0  0  0  0  0
   20.8209   -2.0745  -10.4046 H   0  0  0  0  0
   23.5153   -0.7213   -9.8311 H   0  0  0  0  0
   23.6959   -2.6289   -8.5656 H   0  0  0  0  0
   24.3072   -3.2623  -10.1324 H   0  0  0  0  0
   21.9301   -3.9591  -10.6312 H   0  0  0  0  0
   21.5568   -3.5848   -8.9137 H   0  0  0  0  0
   23.7629   -5.1320   -8.6278 H   0  0  0  0  0
   23.0374   -5.8508  -10.1060 H   0  0  0  0  0
   20.9190   -6.2255   -8.9057 H   0  0  0  0  0
   21.4989   -5.3939   -7.5039 H   0  0  0  0  0
   23.4255   -7.3888   -8.3142 H   0  0  0  0  0
   24.0067   -9.1914   -6.9876 H   0  0  0  0  0
   21.3752  -10.4407   -6.0188 H   0  0  0  0  0
   23.8130  -11.8769   -6.8873 H   0  0  0  0  0
   24.1170  -11.2476   -5.2495 H   0  0  0  0  0
   22.7598  -12.3641   -5.5366 H   0  0  0  0  0
   25.2681   -1.0321  -11.4979 H   0  0  0  0  0
   24.0635   -1.6859  -14.1603 H   0  0  0  0  0
   26.3657    0.2153  -13.6678 H   0  0  0  0  0
   24.6455    0.7297  -13.7878 H   0  0  0  0  0
   25.7728    0.8843  -15.7930 H   0  0  0  0  0
   26.8020   -1.9426  -12.2462 H   0  0  0  0  0
  1  2  1  0  0  0
  2  3  1  0  0  0
  2  5  1  0  0  0
  3  4  2  0  0  0
  3 10  1  0  0  0
  5  6  1  0  0  0
  6  7  1  0  0  0
  7  8  2  0  0  0
  7  9  1  0  0  0
 10 11  1  0  0  0
 11 12  1  0  0  0
 11 14  1  0  0  0
 12 13  2  0  0  0
 12 17  1  0  0  0
 14 15  1  0  0  0
 14 16  1  0  0  0
 17 18  1  0  0  0
 18 19  1  0  0  0
 18 21  1  0  0  0
 19 20  2  0  0  0
 19 22  1  0  0  0
 22 23  1  0  0  0
 23 24  1  0  0  0
 23 26  1  0  0  0
 24 25  2  0  0  0
 24 33  1  0  0  0
 26 27  1  0  0  0
 27 28  1  0  0  0
 28 29  1  0  0  0
 29 30  1  0  0  0
 30 31  1  0  0  0
 30 32  2  0  0  0
 33 34  1  0  0  0
 34 35  1  0  0  0
 34 45  1  0  0  0
 35 36  1  0  0  0
 36 37  1  0  0  0
 37 38  1  0  0  0
 38 39  1  0  0  0
 39 40  1  0  0  0
 40 41  2  0  0  0
 40 42  1  0  0  0
 42 43  2  0  0  0
 43 44  1  0  0  0
 45 46  2  0  0  0
 45 47  1  0  0  0
 47 48  1  0  0  0
 48 49  1  0  0  0
 48 51  1  0  0  0
 49 50  2  0  0  0
 49 53  1  0  0  0
 51 52  1  0  0  0
  1 54  1  0  0  0
  1 55  1  0  0  0
  1 56  1  0  0  0
  2 57  1  0  0  0
  5 58  1  0  0  0
  5 59  1  0  0  0
  6 60  1  0  0  0
  6 61  1  0  0  0
  9 62  1  0  0  0
  9 63  1  0  0  0
 10 64  1  0  0  0
 11 65  1  0  0  0
 14 66  1  0  0  0
 15 67  1  0  0  0
 16 68  1  0  0  0
 16 69  1  0  0  0
 16 70  1  0  0  0
 17 71  1  0  0  0
 18 72  1  0  0  0
 21 73  1  0  0  0
 21 74  1  0  0  0
 21 75  1  0  0  0
 22 76  1  0  0  0
 23 77  1  0  0  0
 26 78  1  0  0  0
 26 79  1  0  0  0
 27 80  1  0  0  0
 27 81  1  0  0  0
 28 82  1  0  0  0
 28 83  1  0  0  0
 29 84  1  0  0  0
 31 85  1  0  0  0
 31 86  1  0  0  0
 32 87  1  0  0  0
 33 88  1  0  0  0
 34 89  1  0  0  0
 35 90  1  0  0  0
 35 91  1  0  0  0
 36 92  1  0  0  0
 36 93  1  0  0  0
 37 94  1  0  0  0
 37 95  1  0  0  0
 38 96  1  0  0  0
 38 97  1  0  0  0
 39 98  1  0  0  0
 42 99  1  0  0  0
 43100  1  0  0  0
 44101  1  0  0  0
 44102  1  0  0  0
 44103  1  0  0  0
 47104  1  0  0  0
 48105  1  0  0  0
 51106  1  0  0  0
 51107  1  0  0  0
 52108  1  0  0  0
 53109  1  0  0  0
M  END
$$$$
