5mrb_ligand
  -I-interpret- 

 82 87  0  0  0  0  0  0  0  0999 V2000
   -1.3810   -6.6790  -16.8540 O   0  0  0  0  0
    3.1430  -16.6370  -18.5370 O   0  0  0  0  0
   -1.2620   -5.3460  -16.3630 C   0  0  0  0  0
   -1.6190   -7.6870  -15.9660 C   0  0  0  0  0
   -1.7060   -7.5090  -14.5910 C   0  0  0  0  0
   -1.9390   -8.5880  -13.7450 C   0  0  0  0  0
   -1.9930   -8.3820  -12.3520 N   0  0  0  0  0
   -1.0600   -7.4390  -11.7200 C   0  0  0  0  0
   -0.6110   -7.8850  -10.3470 C   0  0  0  0  0
   -1.7520   -8.2760   -9.5170 N   0  3  0  0  0
   -1.3300   -8.6090   -8.1530 C   0  0  0  0  0
   -2.4270   -9.4090  -10.1530 C   0  0  0  0  0
   -3.0000   -9.0060  -11.4900 C   0  0  0  0  0
   -2.0850   -9.8660  -14.2930 C   0  0  0  0  0
   -2.0120  -10.0600  -15.6520 C   0  0  0  0  0
   -1.7750   -8.9770  -16.4980 C   0  0  0  0  0
   -1.6860   -9.1450  -17.9030 N   0  0  0  0  0
   -1.0040  -10.0820  -18.6160 C   0  0  0  0  0
   -0.9840   -9.9880  -19.9670 N   0  0  0  0  0
   -0.3030  -10.9060  -20.6270 C   0  0  0  0  0
    0.3660  -11.9950  -19.9370 C   0  0  0  0  0
    1.1570  -13.0600  -20.6640 C   0  0  0  0  0
    1.5470  -14.3250  -19.9030 C   0  0  0  0  0
    1.5120  -14.1670  -18.4120 C   0  0  0  0  0
    0.9180  -13.0820  -17.8100 C   0  0  0  0  0
    1.0210  -13.2590  -16.4710 N   0  0  0  0  0
    0.5670  -12.4040  -15.3870 C   0  0  0  0  0
    1.6810  -14.4270  -16.2160 N   0  0  0  0  0
    1.9690  -14.9660  -17.3900 C   0  0  0  0  0
    2.6860  -16.2450  -17.4640 C   0  0  0  0  0
    2.8130  -16.9240  -16.2970 N   0  0  0  0  0
    3.5360  -18.1480  -16.1460 C   0  0  0  0  0
    2.8620  -19.3640  -16.3040 C   0  0  0  0  0
    1.3790  -19.4400  -16.5830 C   0  0  0  0  0
    0.4940  -19.2900  -15.3740 C   0  0  0  0  0
    3.6080  -20.5390  -16.1900 C   0  0  0  0  0
    4.9640  -20.5110  -15.9480 C   0  0  0  0  0
    5.6090  -19.3020  -15.8160 C   0  0  0  0  0
    4.9170  -18.0930  -15.9270 C   0  0  0  0  0
    5.6610  -16.7880  -15.7790 C   0  0  0  0  0
    5.5850  -16.1840  -14.4030 C   0  0  0  0  0
    0.2850  -12.0090  -18.5500 C   0  0  0  0  0
   -0.4060  -11.0630  -17.8910 N   0  0  0  0  0
   -2.1872   -5.0606  -15.8624 H   0  0  0  0  0
   -0.4338   -5.2930  -15.6563 H   0  0  0  0  0
   -1.0743   -4.6687  -17.1961 H   0  0  0  0  0
   -1.5901   -6.5105  -14.1696 H   0  0  0  0  0
   -1.5761   -6.4855  -11.6077 H   0  0  0  0  0
   -0.1755   -7.3714  -12.3534 H   0  0  0  0  0
   -0.0971   -7.0547   -9.8626 H   0  0  0  0  0
    0.0482   -8.7457  -10.4594 H   0  0  0  0  0
   -2.3997   -7.4917   -9.4412 H   0  0  0  0  0
   -0.6235   -9.4384   -8.1849 H   0  0  0  0  0
   -0.8523   -7.7405   -7.6996 H   0  0  0  0  0
   -2.2015   -8.8948   -7.5640 H   0  0  0  0  0
   -3.2394   -9.7429   -9.5075 H   0  0  0  0  0
   -1.7033  -10.2096  -10.3065 H   0  0  0  0  0
   -3.3670   -9.9032  -11.9884 H   0  0  0  0  0
   -3.7960   -8.2820  -11.3158 H   0  0  0  0  0
   -2.2586  -10.7178  -13.6355 H   0  0  0  0  0
   -2.1393  -11.0595  -16.0679 H   0  0  0  0  0
   -2.2075   -8.4668  -18.4584 H   0  0  0  0  0
   -0.2413  -10.8455  -21.7136 H   0  0  0  0  0
    1.4421  -12.9273  -21.7076 H   0  0  0  0  0
    1.8249  -15.2559  -20.3972 H   0  0  0  0  0
    1.0546  -11.4322  -15.4639 H   0  0  0  0  0
   -0.5134  -12.2762  -15.4548 H   0  0  0  0  0
    0.8204  -12.8646  -14.4322 H   0  0  0  0  0
    2.3613  -16.5344  -15.4696 H   0  0  0  0  0
    1.1867  -20.4319  -16.9919 H   0  0  0  0  0
    1.1421  -18.6115  -17.2505 H   0  0  0  0  0
    0.7185  -20.0827  -14.6604 H   0  0  0  0  0
    0.6753  -18.3202  -14.9107 H   0  0  0  0  0
   -0.5502  -19.3589  -15.6789 H   0  0  0  0  0
    3.1058  -21.5007  -16.2949 H   0  0  0  0  0
    5.5238  -21.4423  -15.8614 H   0  0  0  0  0
    6.6813  -19.2874  -15.6209 H   0  0  0  0  0
    5.2021  -16.0776  -16.4667 H   0  0  0  0  0
    6.7122  -16.9936  -15.9812 H   0  0  0  0  0
    4.5429  -15.9879  -14.1508 H   0  0  0  0  0
    6.0110  -16.8784  -13.6788 H   0  0  0  0  0
    6.1463  -15.2498  -14.3862 H   0  0  0  0  0
  1  3  1  0  0  0
  4  1  1  0  0  0
 30  2  2  0  0  0
  4  5  4  0  0  0
 16  4  4  0  0  0
  5  6  4  0  0  0
  6  7  1  0  0  0
 14  6  4  0  0  0
  7  8  1  0  0  0
  7 13  1  0  0  0
  8  9  1  0  0  0
  9 10  1  0  0  0
 10 11  1  0  0  0
 12 10  1  0  0  0
 13 12  1  0  0  0
 15 14  4  0  0  0
 16 15  4  0  0  0
 17 16  1  0  0  0
 18 17  1  0  0  0
 19 18  4  0  0  0
 18 43  4  0  0  0
 20 19  4  0  0  0
 21 20  4  0  0  0
 22 21  4  0  0  0
 42 21  4  0  0  0
 23 22  4  0  0  0
 24 23  4  0  0  0
 24 25  4  0  0  0
 29 24  4  0  0  0
 26 25  4  0  0  0
 25 42  4  0  0  0
 26 27  1  0  0  0
 28 26  4  0  0  0
 29 28  4  0  0  0
 29 30  1  0  0  0
 30 31  1  0  0  0
 31 32  1  0  0  0
 32 33  4  0  0  0
 32 39  4  0  0  0
 33 34  1  0  0  0
 33 36  4  0  0  0
 34 35  1  0  0  0
 36 37  4  0  0  0
 37 38  4  0  0  0
 38 39  4  0  0  0
 39 40  1  0  0  0
 40 41  1  0  0  0
 42 43  4  0  0  0
  3 44  1  0  0  0
  3 45  1  0  0  0
  3 46  1  0  0  0
  5 47  1  0  0  0
  8 48  1  0  0  0
  8 49  1  0  0  0
  9 50  1  0  0  0
  9 51  1  0  0  0
 10 52  1  0  0  0
 11 53  1  0  0  0
 11 54  1  0  0  0
 11 55  1  0  0  0
 12 56  1  0  0  0
 12 57  1  0  0  0
 13 58  1  0  0  0
 13 59  1  0  0  0
 14 60  1  0  0  0
 15 61  1  0  0  0
 17 62  1  0  0  0
 20 63  1  0  0  0
 22 64  1  0  0  0
 23 65  1  0  0  0
 27 66  1  0  0  0
 27 67  1  0  0  0
 27 68  1  0  0  0
 31 69  1  0  0  0
 34 70  1  0  0  0
 34 71  1  0  0  0
 35 72  1  0  0  0
 35 73  1  0  0  0
 35 74  1  0  0  0
 36 75  1  0  0  0
 37 76  1  0  0  0
 38 77  1  0  0  0
 40 78  1  0  0  0
 40 79  1  0  0  0
 41 80  1  0  0  0
 41 81  1  0  0  0
 41 82  1  0  0  0
M  END
$$$$
