5o5f_ligand
  -I-interpret- 

 51 54  0  0  0  0  0  0  0  0999 V2000
   16.2320    3.4000   -7.8850 C   0  0  0  0  0
   10.0230    4.1150    2.0360 C   0  0  0  0  0
   11.6600    8.1620    0.1000 C   0  0  0  0  0
   13.1770    2.4430    2.5000 C   0  0  0  0  0
   12.9280    8.5050    0.5510 C   0  0  0  0  0
   11.3550    6.8320   -0.1690 C   0  0  0  0  0
   14.4460    3.0040   -3.5080 C   0  0  0  0  0
   15.0670    2.6690   -4.7190 C   0  0  0  0  0
   11.9490    2.7570    2.9200 C   0  0  0  0  0
   13.5870    6.1880    0.4630 C   0  0  0  0  0
   12.5010    1.7790   -4.1730 C   0  0  0  0  0
   16.3340    2.0500   -7.1480 C   0  0  0  0  0
   12.4560    2.8510   -2.0350 C   0  0  0  0  0
   13.8870    7.5170    0.7370 C   0  0  0  0  0
   13.1570    2.5460   -3.2200 C   0  0  0  0  0
   12.3210    5.8450    0.0090 C   0  0  0  0  0
   12.2710    3.6760    1.0160 C   0  0  0  0  0
   13.0230    0.3540   -7.4950 C   0  0  0  0  0
   14.3140    0.7990   -7.7620 C   0  0  0  0  0
   13.1070    1.4500   -5.3770 C   0  0  0  0  0
   14.3940    1.8890   -5.6690 C   0  0  0  0  0
   12.0200    4.5080   -0.2540 C   0  0  0  0  0
   15.1190    7.8400    1.1760 F   0  0  0  0  0
   13.3830    3.0170    1.3150 N   0  0  0  0  0
   12.7610    4.0240   -1.4460 N   0  0  0  0  0
   12.4070    0.6690   -6.2950 N   0  0  0  0  0
   11.3810    3.5270    1.9930 N   0  0  0  0  0
   14.9730    1.5570   -6.8480 N   0  0  0  0  0
   11.5270    2.1400   -1.6240 O   0  0  0  0  0
   12.4130   -0.3270   -8.3210 O   0  0  0  0  0
   14.8390    0.4980   -8.8420 O   0  0  0  0  0
   15.6780    3.2645   -8.8139 H   0  0  0  0  0
   15.7124    4.1196   -7.2523 H   0  0  0  0  0
   17.2337    3.7672   -8.1082 H   0  0  0  0  0
    9.2845    3.3161    2.1033 H   0  0  0  0  0
    9.9373    4.7650    2.9068 H   0  0  0  0  0
    9.8508    4.6953    1.1295 H   0  0  0  0  0
   10.9045    8.9345   -0.0430 H   0  0  0  0  0
   13.8924    1.8204    3.0373 H   0  0  0  0  0
   13.1703    9.5472    0.7586 H   0  0  0  0  0
   10.3588    6.5620   -0.5195 H   0  0  0  0  0
   14.9725    3.6268   -2.7848 H   0  0  0  0  0
   16.0795    3.0173   -4.9231 H   0  0  0  0  0
   11.4916    2.4391    3.8569 H   0  0  0  0  0
   14.3442    5.4167    0.6043 H   0  0  0  0  0
   11.4890    1.4280   -3.9713 H   0  0  0  0  0
   16.8890    2.1810   -6.2191 H   0  0  0  0  0
   16.8546    1.3279   -7.7770 H   0  0  0  0  0
   10.9655    4.3982   -0.5073 H   0  0  0  0  0
   13.5176    4.5918   -1.8275 H   0  0  0  0  0
   11.4647    0.3377   -6.0883 H   0  0  0  0  0
 12  1  1  0  0  0
 27  2  1  0  0  0
  3  5  4  0  0  0
  6  3  4  0  0  0
  9  4  4  0  0  0
 24  4  4  0  0  0
 14  5  4  0  0  0
 16  6  4  0  0  0
  7  8  4  0  0  0
 15  7  4  0  0  0
  8 21  4  0  0  0
 27  9  4  0  0  0
 10 14  4  0  0  0
 16 10  4  0  0  0
 15 11  4  0  0  0
 11 20  4  0  0  0
 28 12  1  0  0  0
 13 15  1  0  0  0
 25 13  1  0  0  0
 13 29  2  0  0  0
 14 23  1  0  0  0
 22 16  1  0  0  0
 22 17  1  0  0  0
 17 24  4  0  0  0
 17 27  4  0  0  0
 18 19  1  0  0  0
 26 18  1  0  0  0
 18 30  2  0  0  0
 28 19  1  0  0  0
 19 31  2  0  0  0
 20 21  4  0  0  0
 20 26  1  0  0  0
 21 28  1  0  0  0
 22 25  1  0  0  0
  1 32  1  0  0  0
  1 33  1  0  0  0
  1 34  1  0  0  0
  2 35  1  0  0  0
  2 36  1  0  0  0
  2 37  1  0  0  0
  3 38  1  0  0  0
  4 39  1  0  0  0
  5 40  1  0  0  0
  6 41  1  0  0  0
  7 42  1  0  0  0
  8 43  1  0  0  0
  9 44  1  0  0  0
 10 45  1  0  0  0
 11 46  1  0  0  0
 12 47  1  0  0  0
 12 48  1  0  0  0
 22 49  1  0  0  0
 25 50  1  0  0  0
 26 51  1  0  0  0
M  END
$$$$
