6u5m_ligand
  -I-interpret- 

 39 40  0  0  0  0  0  0  0  0999 V2000
  137.2850    6.1570   18.4270 C   0  0  0  0  0
  140.2420    3.2460   12.1660 C   0  0  0  0  0
  140.5690    3.6630   17.4020 C   0  0  0  0  0
  141.6180    3.8510   16.4980 C   0  0  0  0  0
  141.3280    4.1670   15.1690 C   0  0  0  0  0
  140.0140    4.2980   14.7410 C   0  0  0  0  0
  138.9730    4.1120   15.6450 C   0  0  0  0  0
  139.2500    3.8030   16.9730 C   0  0  0  0  0
  136.2790    8.5380   17.3540 C   0  0  0  0  0
  137.4290    8.5500   18.1420 C   0  0  0  0  0
  137.9280    7.3690   18.6730 C   0  0  0  0  0
  136.1360    6.1460   17.6470 C   0  0  0  0  0
  135.6260    7.3330   17.1060 C   0  0  0  0  0
  143.8900    4.7120   15.7490 F   0  0  0  0  0
  143.2050    5.0610   18.0330 F   0  0  0  0  0
  142.8800    2.6260   18.2910 F   0  0  0  0  0
  144.9960    3.4950   17.5360 F   0  0  0  0  0
  143.5540    2.3220   15.9810 F   0  0  0  0  0
  138.1700    3.6120   17.8310 N   0  0  0  0  0
  136.9010    4.0480   19.9000 O   0  0  0  0  0
  139.1580    4.8920   19.7620 O   0  0  0  0  0
  135.4970    4.9470   17.4070 O   0  0  0  0  0
  138.2950    4.8290   12.8360 O   0  0  0  0  0
  140.5220    5.7920   12.6400 O   0  0  0  0  0
  137.9230    4.6320   19.1130 S   0  0  0  0  0
  139.6950    4.7020   13.0200 S   0  0  0  0  0
  143.3710    3.6800   17.0260 S   0  0  0  0  0
  138.3460   10.1560   18.5090 Br  0  0  0  0  0
  139.7310    2.3737   12.5736 H   0  0  0  0  0
  140.0117    3.3407   11.1048 H   0  0  0  0  0
  141.3181    3.1323   12.2969 H   0  0  0  0  0
  140.7816    3.4075   18.4401 H   0  0  0  0  0
  142.1427    4.3124   14.4597 H   0  0  0  0  0
  137.9394    4.2084   15.3126 H   0  0  0  0  0
  135.8929    9.4668   16.9341 H   0  0  0  0  0
  138.8287    7.3893   19.2865 H   0  0  0  0  0
  134.7237    7.3139   16.4947 H   0  0  0  0  0
  137.5258    2.8379   17.6689 H   0  0  0  0  0
  134.7255    5.1013   16.8570 H   0  0  0  0  0
  1 11  4  0  0  0
  1 12  4  0  0  0
 25  1  1  0  0  0
 26  2  1  0  0  0
  3  4  4  0  0  0
  8  3  4  0  0  0
  4  5  4  0  0  0
  4 27  1  0  0  0
  6  5  4  0  0  0
  7  6  4  0  0  0
  6 26  1  0  0  0
  8  7  4  0  0  0
 19  8  1  0  0  0
 10  9  4  0  0  0
 13  9  4  0  0  0
 11 10  4  0  0  0
 10 28  1  0  0  0
 12 13  4  0  0  0
 12 22  1  0  0  0
 27 15  1  0  0  0
 27 16  1  0  0  0
 27 17  1  0  0  0
 19 25  1  0  0  0
 25 20  2  0  0  0
 25 21  2  0  0  0
 26 23  2  0  0  0
 26 24  2  0  0  0
 27 18  1  0  0  0
 14 27  1  0  0  0
  2 29  1  0  0  0
  2 30  1  0  0  0
  2 31  1  0  0  0
  3 32  1  0  0  0
  5 33  1  0  0  0
  7 34  1  0  0  0
  9 35  1  0  0  0
 11 36  1  0  0  0
 13 37  1  0  0  0
 19 38  1  0  0  0
 22 39  1  0  0  0
M  END
$$$$
