### 
### Created by X-TOOL on Mon Aug  2 16:16:56 2021
### 

@<TRIPOS>MOLECULE
6u5m_ligand
   39    40     1     0     0
SMALL
GAST_HUCK


@<TRIPOS>ATOM
      1 C10       137.2850    6.1570   18.4270 C.ar      1 Q0S         0.1762
      2 C13       140.2420    3.2460   12.1660 C.3       1 Q0S         0.0779
      3 C01       140.5690    3.6630   17.4020 C.ar      1 Q0S         0.3665
      4 C02       141.6180    3.8510   16.4980 C.ar      1 Q0S         0.4492
      5 C03       141.3280    4.1670   15.1690 C.ar      1 Q0S         0.2815
      6 C04       140.0140    4.2980   14.7410 C.ar      1 Q0S         0.3727
      7 C05       138.9730    4.1120   15.6450 C.ar      1 Q0S         0.3211
      8 C06       139.2500    3.8030   16.9730 C.ar      1 Q0S         0.5202
      9 C07       136.2790    8.5380   17.3540 C.ar      1 Q0S        -0.0610
     10 C08       137.4290    8.5500   18.1420 C.ar      1 Q0S         0.0032
     11 C09       137.9280    7.3690   18.6730 C.ar      1 Q0S        -0.0307
     12 C11       136.1360    6.1460   17.6470 C.ar      1 Q0S         0.1208
     13 C12       135.6260    7.3330   17.1060 C.ar      1 Q0S        -0.0284
     14 F01       143.8900    4.7120   15.7490 F         1 Q0S        -0.0381
     15 F02       143.2050    5.0610   18.0330 F         1 Q0S        -0.0381
     16 F03       142.8800    2.6260   18.2910 F         1 Q0S        -0.0381
     17 F04       144.9960    3.4950   17.5360 F         1 Q0S        -0.0381
     18 F05       143.5540    2.3220   15.9810 F         1 Q0S        -0.0381
     19 N01       138.1700    3.6120   17.8310 N.am      1 Q0S         0.0213
     20 O01       136.9010    4.0480   19.9000 O.2       1 Q0S        -0.1163
     21 O02       139.1580    4.8920   19.7620 O.2       1 Q0S        -0.1163
     22 O03       135.4970    4.9470   17.4070 O.3       1 Q0S        -0.3289
     23 O04       138.2950    4.8290   12.8360 O.2       1 Q0S        -0.1516
     24 O05       140.5220    5.7920   12.6400 O.2       1 Q0S        -0.1516
     25 S01       137.9230    4.6320   19.1130 S.o2      1 Q0S         0.1823
     26 S02       139.6950    4.7020   13.0200 S.o2      1 Q0S         0.0811
     27 S03       143.3710    3.6800   17.0260 S.3       1 Q0S         0.4323
     28 BR1       138.3460   10.1560   18.5090 Br        1 Q0S        -0.0599
     29 H1        140.0934    3.3779   11.0841 H         1 Q0S         0.0484
     30 H2        139.6620    2.3780   12.5125 H         1 Q0S         0.0484
     31 H3        141.3097    3.0795   12.3718 H         1 Q0S         0.0484
     32 H4        140.7804    3.4089   18.4344 H         1 Q0S         0.3149
     33 H5        142.1382    4.3116   14.4636 H         1 Q0S         0.2124
     34 H6        137.9451    4.2079   15.3144 H         1 Q0S         0.2720
     35 H7        135.8950    9.4617   16.9365 H         1 Q0S         0.0615
     36 H8        138.8238    7.3892   19.2831 H         1 Q0S         0.0636
     37 H9        134.7287    7.3140   16.4981 H         1 Q0S         0.0550
     38 H10       137.5384    2.8531   17.6721 H         1 Q0S         0.4547
     39 H11       134.6093    4.9898   17.7427 H         1 Q0S         0.2493
@<TRIPOS>BOND
     1    1   11 ar 
     2    1   12 ar 
     3   25    1 1  
     4   26    2 1  
     5    3    4 ar 
     6    8    3 ar 
     7    4    5 ar 
     8    4   27 1  
     9    6    5 ar 
    10    7    6 ar 
    11    6   26 1  
    12    8    7 ar 
    13   19    8 1  
    14   10    9 ar 
    15   13    9 ar 
    16   11   10 ar 
    17   10   28 1  
    18   12   13 ar 
    19   12   22 1  
    20   27   15 1  
    21   27   16 1  
    22   27   17 1  
    23   19   25 am 
    24   25   20 2  
    25   25   21 2  
    26   26   23 2  
    27   26   24 2  
    28   27   18 1  
    29   14   27 1  
    30    2   29 1  
    31    2   30 1  
    32    2   31 1  
    33    3   32 1  
    34    5   33 1  
    35    7   34 1  
    36    9   35 1  
    37   11   36 1  
    38   13   37 1  
    39   19   38 1  
    40   22   39 1  
@<TRIPOS>SUBSTRUCTURE
     1 Q0S         1

