3k99_ligand
  -I-interpret- 

 32 34  0  0  0  0  0  0  0  0999 V2000
   47.3610   72.4170   63.9750 N   0  0  0  0  0
   46.8840   72.3460   65.3310 C   0  0  0  0  0
   47.9460   73.7040   63.3900 C   0  0  0  0  0
   47.4000   71.2900   62.9030 C   0  0  0  0  0
   46.3460   70.9760   65.7460 C   0  0  0  0  0
   47.0030   73.3770   65.9400 O   0  0  0  0  0
   48.3410   73.2780   61.9270 C   0  0  0  0  0
   48.0030   71.8750   61.7010 C   0  0  0  0  0
   47.3290   70.2410   66.5330 C   0  0  0  0  0
   45.0550   70.4720   65.4110 C   0  0  0  0  0
   48.9480   73.9550   60.8150 C   0  0  0  0  0
   48.2190   71.1280   60.4850 C   0  0  0  0  0
   47.1570   68.9440   67.0730 C   0  0  0  0  0
   48.5810   70.7310   66.8530 O   0  0  0  0  0
   44.8000   69.1840   65.9070 C   0  0  0  0  0
   49.1890   73.2210   59.5520 C   0  0  0  0  0
   48.8130   71.8050   59.4170 C   0  0  0  0  0
   45.8350   68.4890   66.6970 C   0  0  0  0  0
   45.5210   67.2820   67.1210 O   0  0  0  0  0
   48.7920   74.0830   63.9633 H   0  0  0  0  0
   47.2432   74.5369   63.4130 H   0  0  0  0  0
   46.3973   70.9175   62.6934 H   0  0  0  0  0
   47.9818   70.4381   63.2550 H   0  0  0  0  0
   44.3313   71.0361   64.8227 H   0  0  0  0  0
   49.2299   75.0044   60.9006 H   0  0  0  0  0
   47.9308   70.0799   60.4034 H   0  0  0  0  0
   47.2588   68.9658   68.1580 H   0  0  0  0  0
   47.9181   68.2659   66.6869 H   0  0  0  0  0
   49.0548   70.0791   67.3747 H   0  0  0  0  0
   43.8434   68.7000   65.7100 H   0  0  0  0  0
   49.6514   73.7368   58.7105 H   0  0  0  0  0
   48.9988   71.2816   58.4791 H   0  0  0  0  0
  1  2  1  0  0  0
  1  3  1  0  0  0
  1  4  1  0  0  0
  2  5  1  0  0  0
  2  6  2  0  0  0
  3  7  1  0  0  0
  4  8  1  0  0  0
  5  9  2  0  0  0
  5 10  1  0  0  0
  7  8  4  0  0  0
  7 11  4  0  0  0
  8 12  4  0  0  0
  9 13  1  0  0  0
  9 14  1  0  0  0
 10 15  2  0  0  0
 11 16  4  0  0  0
 12 17  4  0  0  0
 13 18  1  0  0  0
 15 18  1  0  0  0
 16 17  4  0  0  0
 18 19  2  0  0  0
  3 20  1  0  0  0
  3 21  1  0  0  0
  4 22  1  0  0  0
  4 23  1  0  0  0
 10 24  1  0  0  0
 11 25  1  0  0  0
 12 26  1  0  0  0
 13 27  1  0  0  0
 13 28  1  0  0  0
 14 29  1  0  0  0
 15 30  1  0  0  0
 16 31  1  0  0  0
 17 32  1  0  0  0
M  END
$$$$
