3o9b_ligand
  -I-interpret- 

 80 83  0  0  0  0  0  0  0  0999 V2000
   14.4380   35.8720   18.1600 C   0  0  0  0  0
   14.8780   35.8530   19.5200 O   0  0  0  0  0
   15.3400   34.9860   17.3250 C   0  0  0  0  0
   15.1730   33.6060   17.2980 C   0  0  0  0  0
   16.0200   32.8070   16.5100 C   0  0  0  0  0
   17.0480   33.3780   15.7560 C   0  0  0  0  0
   17.2020   34.7690   15.8050 C   0  0  0  0  0
   16.3580   35.5640   16.5770 C   0  0  0  0  0
   18.0590   32.4580   14.8510 S   0  0  0  0  0
   18.7050   33.2860   13.8770 O   0  0  0  0  0
   17.3100   31.3870   14.2920 O   0  0  0  0  0
   19.2950   31.8410   15.7160 N   0  0  0  0  0
   20.0050   32.8810   16.5120 C   0  0  0  0  0
   21.5080   32.6080   16.5480 C   0  0  0  0  0
   22.1360   32.5700   15.1530 C   0  0  0  0  0
   22.1890   33.6270   17.4650 C   0  0  0  0  0
   18.9830   30.5720   16.4190 C   0  0  0  0  0
   19.9020   29.4720   15.8520 C   0  0  0  0  0
   22.0610   35.0490   16.9680 C   0  0  0  0  0
   19.8240   28.3060   16.6990 O   0  0  0  0  0
   19.5720   29.0820   14.4110 C   0  0  0  0  0
   20.6510   28.2500   13.9230 N   0  0  0  0  0
   21.5330   28.6230   13.0110 C   0  0  0  0  0
   21.6000   29.6810   12.4120 O   0  0  0  0  0
   22.5140   27.6090   12.7640 O   0  0  0  0  0
   23.3400   27.7570   11.6190 C   0  0  0  0  0
   24.6600   27.1610   12.0530 C   0  0  0  0  0
   24.4580   25.7540   11.8940 O   0  0  0  0  0
   23.5610   25.5260   10.8110 C   0  0  0  0  0
   22.5520   24.5950   11.1860 O   0  0  0  0  0
   21.2730   25.2420   11.2340 C   0  0  0  0  0
   21.3980   26.5350   10.4380 C   0  0  0  0  0
   22.8850   26.8470   10.5100 C   0  0  0  0  0
   18.2660   28.2930   14.2550 C   0  0  0  0  0
   17.7190   28.8950   11.8580 C   0  0  0  0  0
   17.5150   28.5510   10.5250 C   0  0  0  0  0
   17.5970   27.2270   10.1230 C   0  0  0  0  0
   17.8940   26.2620   11.0550 C   0  0  0  0  0
   18.1060   26.5940   12.3890 C   0  0  0  0  0
   18.0280   27.9170   12.8070 C   0  0  0  0  0
   14.4778   36.8926   17.7794 H   0  0  0  0  0
   13.4138   35.5032   18.1043 H   0  0  0  0  0
   14.3059   36.4146   20.0481 H   0  0  0  0  0
   14.3834   33.1423   17.8893 H   0  0  0  0  0
   15.8725   31.7273   16.4871 H   0  0  0  0  0
   17.9981   35.2390   15.2276 H   0  0  0  0  0
   16.4970   36.6450   16.5943 H   0  0  0  0  0
   19.6211   32.8646   17.5320 H   0  0  0  0  0
   19.8362   33.8531   16.0487 H   0  0  0  0  0
   21.6643   31.6099   16.9573 H   0  0  0  0  0
   21.6669   31.7802   14.5662 H   0  0  0  0  0
   21.9825   33.5302   14.6606 H   0  0  0  0  0
   23.2043   32.3725   15.2421 H   0  0  0  0  0
   23.2507   33.3828   17.5015 H   0  0  0  0  0
   21.7046   33.5716   18.4399 H   0  0  0  0  0
   17.9376   30.3044   16.2651 H   0  0  0  0  0
   19.1493   30.6852   17.4903 H   0  0  0  0  0
   20.9128   29.8797   15.8378 H   0  0  0  0  0
   22.5203   35.1310   15.9829 H   0  0  0  0  0
   21.0062   35.3159   16.9018 H   0  0  0  0  0
   22.5645   35.7219   17.6622 H   0  0  0  0  0
   20.3953   27.6186   16.3487 H   0  0  0  0  0
   19.4498   30.0093   13.8512 H   0  0  0  0  0
   20.7372   27.3100   14.3096 H   0  0  0  0  0
   23.3505   28.7941   11.2836 H   0  0  0  0  0
   24.9258   27.4326   13.0746 H   0  0  0  0  0
   25.4998   27.5320   11.4654 H   0  0  0  0  0
   24.1074   25.1328    9.9537 H   0  0  0  0  0
   20.9842   25.4497   12.2643 H   0  0  0  0  0
   20.5003   24.6010   10.8097 H   0  0  0  0  0
   20.7805   27.3377   10.8412 H   0  0  0  0  0
   21.0393   26.4338    9.4137 H   0  0  0  0  0
   23.1267   27.3465    9.5718 H   0  0  0  0  0
   17.4386   28.9159   14.5949 H   0  0  0  0  0
   18.3365   27.3799   14.8461 H   0  0  0  0  0
   17.6369   29.9377   12.1648 H   0  0  0  0  0
   17.2896   29.3268    9.7933 H   0  0  0  0  0
   17.4281   26.9549    9.0811 H   0  0  0  0  0
   17.9646   25.2197   10.7440 H   0  0  0  0  0
   18.3350   25.8108   13.1117 H   0  0  0  0  0
  1  2  1  0  0  0
  3  1  1  0  0  0
  4  3  4  0  0  0
  8  3  4  0  0  0
  5  4  4  0  0  0
  6  5  4  0  0  0
  6  7  4  0  0  0
  9  6  1  0  0  0
  7  8  4  0  0  0
  9 10  2  0  0  0
  9 11  2  0  0  0
 12  9  1  0  0  0
 12 13  1  0  0  0
 17 12  1  0  0  0
 13 14  1  0  0  0
 14 15  1  0  0  0
 14 16  1  0  0  0
 16 19  1  0  0  0
 18 17  1  0  0  0
 18 20  1  0  0  0
 21 18  1  0  0  0
 21 22  1  0  0  0
 34 21  1  0  0  0
 22 23  1  0  0  0
 23 24  2  0  0  0
 23 25  1  0  0  0
 25 26  1  0  0  0
 26 27  1  0  0  0
 26 33  1  0  0  0
 27 28  1  0  0  0
 29 28  1  0  0  0
 29 30  1  0  0  0
 33 29  1  0  0  0
 31 30  1  0  0  0
 32 31  1  0  0  0
 33 32  1  0  0  0
 40 34  1  0  0  0
 35 36  4  0  0  0
 35 40  4  0  0  0
 36 37  4  0  0  0
 37 38  4  0  0  0
 38 39  4  0  0  0
 39 40  4  0  0  0
  1 41  1  0  0  0
  1 42  1  0  0  0
  2 43  1  0  0  0
  4 44  1  0  0  0
  5 45  1  0  0  0
  7 46  1  0  0  0
  8 47  1  0  0  0
 13 48  1  0  0  0
 13 49  1  0  0  0
 14 50  1  0  0  0
 15 51  1  0  0  0
 15 52  1  0  0  0
 15 53  1  0  0  0
 16 54  1  0  0  0
 16 55  1  0  0  0
 17 56  1  0  0  0
 17 57  1  0  0  0
 18 58  1  0  0  0
 19 59  1  0  0  0
 19 60  1  0  0  0
 19 61  1  0  0  0
 20 62  1  0  0  0
 21 63  1  0  0  0
 22 64  1  0  0  0
 26 65  1  0  0  0
 27 66  1  0  0  0
 27 67  1  0  0  0
 29 68  1  0  0  0
 31 69  1  0  0  0
 31 70  1  0  0  0
 32 71  1  0  0  0
 32 72  1  0  0  0
 33 73  1  0  0  0
 34 74  1  0  0  0
 34 75  1  0  0  0
 35 76  1  0  0  0
 36 77  1  0  0  0
 37 78  1  0  0  0
 38 79  1  0  0  0
 39 80  1  0  0  0
M  END
$$$$
