4u0m_ligand
  -I-interpret- 

 77 79  0  0  0  0  0  0  0  0999 V2000
   69.3290    9.9930  168.9000 O   0  0  0  0  0
   68.1370   10.3400  169.0750 C   0  0  0  0  0
   67.3610    9.6070  169.7470 O   0  0  0  0  0
   67.6380   11.6230  168.4870 C   0  0  0  0  0
   66.5760   11.3210  167.4380 C   0  0  0  0  0
   66.3970   12.5290  166.4960 C   0  0  0  0  0
   65.2230   12.2480  165.5380 C   0  0  0  0  0
   64.6080   11.2140  165.6370 O   0  0  0  0  0
   68.7230   12.3060  167.8500 N   0  0  0  0  0
   69.5660   13.2390  168.5720 C   0  0  0  0  0
   69.3770   13.4710  169.7540 O   0  0  0  0  0
   70.7040   13.9310  167.8030 C   0  0  0  0  0
   71.1930   13.3170  166.4970 C   0  0  0  0  0
   72.1940   13.9150  165.7960 C   0  0  0  0  0
   72.8240   15.1990  166.3190 C   0  0  0  0  0
   72.3880   15.7490  167.4790 C   0  0  0  0  0
   71.2580   15.0770  168.2680 C   0  0  0  0  0
   73.8810   15.8320  165.5730 N   0  0  0  0  0
   73.9070   15.7280  164.1410 C   0  0  0  0  0
   72.6640   16.3580  163.5320 C   0  0  0  0  0
   72.7400   16.2600  162.1030 N   0  3  0  0  0
   72.5720   17.8150  163.8710 C   0  0  0  0  0
   73.5480   18.6090  163.1980 N   0  0  0  0  0
   74.1330   18.1690  161.9830 C   0  0  0  0  0
   73.7570   17.0340  161.4350 C   0  0  0  0  0
   75.0960   18.8750  161.3340 N   0  0  0  0  0
   75.7860   18.6350  160.1730 C   0  0  0  0  0
   76.7750   19.5510  159.6860 N   0  0  0  0  0
   75.5020   17.5110  159.5160 N   0  0  0  0  0
   74.4480   16.5990  160.0940 C   0  0  0  0  0
   74.1060   15.4030  159.4500 O   0  0  0  0  0
   64.8700   13.2070  164.5200 N   0  0  0  0  0
   63.7930   12.9270  163.6330 C   0  0  0  0  0
   64.3490   12.2250  162.4260 C   0  0  0  0  0
   63.6230   12.0140  161.4150 O   0  0  0  0  0
   65.5430   11.8360  162.4180 O   0  0  0  0  0
   63.0920   14.2220  163.2160 C   0  0  0  0  0
   61.6900   14.3280  163.8630 C   0  0  0  0  0
   60.8290   13.0950  163.5380 C   0  0  0  0  0
   59.9050   12.7530  164.3190 O   0  0  0  0  0
   61.0500   12.4130  162.4950 O   0  0  0  0  0
   71.8340   15.4500  161.3530 C   0  0  0  0  0
   66.4921   10.0133  169.7853 H   0  0  0  0  0
   67.2167   12.2415  169.2795 H   0  0  0  0  0
   65.6295   11.1159  167.9381 H   0  0  0  0  0
   66.8890   10.4562  166.8529 H   0  0  0  0  0
   67.3103   12.6864  165.9222 H   0  0  0  0  0
   66.1876   13.4241  167.0816 H   0  0  0  0  0
   68.9079   12.1317  166.8622 H   0  0  0  0  0
   70.7406   12.3981  166.1241 H   0  0  0  0  0
   72.5443   13.4759  164.8619 H   0  0  0  0  0
   72.8405   16.6684  167.8505 H   0  0  0  0  0
   70.9020   15.5190  169.1986 H   0  0  0  0  0
   74.6096   16.3531  166.0609 H   0  0  0  0  0
   73.9382   14.6739  163.8654 H   0  0  0  0  0
   74.7864   16.2516  163.7662 H   0  0  0  0  0
   71.7955   15.8324  163.9288 H   0  0  0  0  0
   72.3128   15.3531  161.9148 H   0  0  0  0  0
   72.7435   17.9172  164.9426 H   0  0  0  0  0
   71.5880   18.1659  163.5601 H   0  0  0  0  0
   73.8288   19.5052  163.5960 H   0  0  0  0  0
   73.3750   16.1296  160.9614 H   0  0  0  0  0
   76.9795   20.4045  160.2057 H   0  0  0  0  0
   75.9828   17.2742  158.6482 H   0  0  0  0  0
   73.9787   15.6884  159.7216 H   0  0  0  0  0
   74.6305   15.3095  158.6514 H   0  0  0  0  0
   65.3894   14.0809  164.4364 H   0  0  0  0  0
   63.0579   12.2941  164.1301 H   0  0  0  0  0
   62.7447   12.3675  161.5738 H   0  0  0  0  0
   62.9776   14.2239  162.1320 H   0  0  0  0  0
   63.6945   15.0677  163.5473 H   0  0  0  0  0
   61.1916   15.2130  163.4675 H   0  0  0  0  0
   61.8110   14.3912  164.9444 H   0  0  0  0  0
   61.7811   12.8014  162.0090 H   0  0  0  0  0
   71.9242   14.4126  161.6750 H   0  0  0  0  0
   70.8143   15.7966  161.5211 H   0  0  0  0  0
   72.0744   15.5248  160.2925 H   0  0  0  0  0
  1  2  2  0  0  0
  2  3  1  0  0  0
  2  4  1  0  0  0
  4  5  1  0  0  0
  4  9  1  0  0  0
  5  6  1  0  0  0
  6  7  1  0  0  0
  7  8  2  0  0  0
  7 32  1  0  0  0
  9 10  1  0  0  0
 10 11  2  0  0  0
 10 12  1  0  0  0
 12 13  4  0  0  0
 12 17  4  0  0  0
 13 14  4  0  0  0
 14 15  4  0  0  0
 15 16  4  0  0  0
 15 18  1  0  0  0
 16 17  4  0  0  0
 18 19  1  0  0  0
 19 20  1  0  0  0
 20 21  1  0  0  0
 20 22  1  0  0  0
 21 25  1  0  0  0
 21 42  1  0  0  0
 22 23  1  0  0  0
 23 24  1  0  0  0
 24 25  1  0  0  0
 24 26  2  0  0  0
 25 30  1  0  0  0
 26 27  4  0  0  0
 27 28  2  0  0  0
 27 29  1  0  0  0
 29 30  1  0  0  0
 30 31  1  0  0  0
 32 33  1  0  0  0
 33 34  1  0  0  0
 33 37  1  0  0  0
 34 35  1  0  0  0
 34 36  2  0  0  0
 37 38  1  0  0  0
 38 39  1  0  0  0
 39 40  2  0  0  0
 39 41  1  0  0  0
  3 43  1  0  0  0
  4 44  1  0  0  0
  5 45  1  0  0  0
  5 46  1  0  0  0
  6 47  1  0  0  0
  6 48  1  0  0  0
  9 49  1  0  0  0
 13 50  1  0  0  0
 14 51  1  0  0  0
 16 52  1  0  0  0
 17 53  1  0  0  0
 18 54  1  0  0  0
 19 55  1  0  0  0
 19 56  1  0  0  0
 20 57  1  0  0  0
 21 58  1  0  0  0
 22 59  1  0  0  0
 22 60  1  0  0  0
 23 61  1  0  0  0
 25 62  1  0  0  0
 28 63  1  0  0  0
 29 64  1  0  0  0
 30 65  1  0  0  0
 31 66  1  0  0  0
 32 67  1  0  0  0
 33 68  1  0  0  0
 35 69  1  0  0  0
 37 70  1  0  0  0
 37 71  1  0  0  0
 38 72  1  0  0  0
 38 73  1  0  0  0
 41 74  1  0  0  0
 42 75  1  0  0  0
 42 76  1  0  0  0
 42 77  1  0  0  0
M  END
$$$$
