### 
### Created by X-TOOL on Mon Sep 10 21:13:07 2018
### 

@<TRIPOS>MOLECULE
2xn7_ligand
   71    77     1     0     0
SMALL
GAST_HUCK


@<TRIPOS>ATOM
      1 C1         -6.7570  -12.2210    2.9710 C.ar      1 T44        -0.0435
      2 C2         -7.4830  -11.7160    4.0460 C.ar      1 T44        -0.0542
      3 C3         -8.6170  -12.3690    4.4990 C.ar      1 T44         0.0381
      4 C4         -9.0580  -13.6040    3.8310 C.ar      1 T44         0.1288
      5 C5         -8.2660  -14.0890    2.6900 C.ar      1 T44         0.0381
      6 C6         -7.1400  -13.3780    2.2900 C.ar      1 T44        -0.0542
      7 C7         -5.5370  -11.4720    2.4970 C.3       1 T44         0.0122
      8 C8         -4.3530  -11.4890    3.4520 C.3       1 T44         0.1023
      9 C9         -4.7250  -11.6620    4.8940 C.2       1 T44         0.0619
     10 C1'       -10.1100  -15.1580    5.2920 C.ar      1 T44         0.1107
     11 C2'       -11.2940  -15.5150    5.9220 C.ar      1 T44        -0.0230
     12 C3'       -11.2840  -16.4080    6.9880 C.ar      1 T44         0.0330
     13 C4'       -10.0140  -16.9880    7.4590 C.ar      1 T44         0.0996
     14 C5'        -8.7930  -16.5770    6.7560 C.ar      1 T44         0.0330
     15 C6'        -8.8770  -15.6740    5.6960 C.ar      1 T44        -0.0230
     16 N8         -3.4590  -12.5510    2.9770 N.am      1 T44        -0.2675
     17 O4        -10.1730  -14.2770    4.2440 O.3       1 T44        -0.2638
     18 O4'        -9.9820  -17.8670    8.5040 O.3       1 T44        -0.3355
     19 O9         -5.1090  -12.7790    5.2980 O.co2     1 T44        -0.5665
     20 O10        -4.6190  -10.6580    5.6320 O.co2     1 T44        -0.5665
     21 I3         -9.7130  -11.6390    6.1100 I         1 T44        -0.0570
     22 I3'       -13.0340  -16.9680    7.9560 I         1 T44        -0.0586
     23 I5         -8.8980  -15.8350    1.7470 I         1 T44        -0.0570
     24 I5'        -6.9900  -17.3830    7.4180 I         1 T44        -0.0586
     25 O1         -0.9850   -7.1080   -0.2100 O.2       1 F6Z        -0.3533
     26 C1         -0.7270   -7.3450    0.9590 C.2       1 F6Z         0.2525
     27 C2         -1.1620   -8.5180    1.7640 C.ar      1 F6Z         0.0626
     28 C3         -1.7660   -9.7060    1.3880 C.ar      1 F6Z        -0.0103
     29 C4         -2.0400  -10.6440    2.3750 C.ar      1 F6Z         0.0674
     30 O2          0.0680   -6.5010    1.8400 O.3       1 F6Z        -0.3560
     31 C5         -0.1710   -6.9020    3.2060 C.3       1 F6Z         0.0731
     32 C6         -0.9890   -5.8290    3.8600 C.ar      1 F6Z        -0.0340
     33 C7         -2.3100   -5.6570    3.4950 C.ar      1 F6Z        -0.0663
     34 C8         -3.0680   -4.6560    4.0890 C.ar      1 F6Z        -0.0208
     35 C9         -2.5290   -3.8040    5.0450 C.ar      1 F6Z         0.1037
     36 O3         -3.3300   -2.8420    5.5860 O.3       1 F6Z        -0.3218
     37 C11        -1.1970   -3.9280    5.4380 C.ar      1 F6Z         0.0232
     38 C12        -0.3950   -4.9150    4.8730 C.ar      1 F6Z         0.1354
     39 O4          0.9180   -5.0520    5.2490 O.3       1 F6Z        -0.2250
     40 C13         1.5510   -6.2520    5.0450 C.ar      1 F6Z         0.1354
     41 C14         2.6760   -6.6130    5.7770 C.ar      1 F6Z         0.0232
     42 C15         3.2880   -7.8440    5.5420 C.ar      1 F6Z         0.1037
     43 O5          4.3870   -8.2080    6.2520 O.3       1 F6Z        -0.3218
     44 C16         2.8030   -8.7300    4.5870 C.ar      1 F6Z        -0.0208
     45 C17         1.6840   -8.4150    3.8330 C.ar      1 F6Z        -0.0663
     46 C18         1.0490   -7.1960    4.0180 C.ar      1 F6Z        -0.0340
     47 C19        -0.8480   -8.2440    3.0600 C.ar      1 F6Z        -0.0543
     48 C20        -1.1010   -9.1720    4.0600 C.ar      1 F6Z        -0.0537
     49 C21        -1.7130  -10.3760    3.7070 C.ar      1 F6Z        -0.0268
     50 O6         -2.5710  -12.4490    0.9120 O.2       1 F6Z        -0.3793
     51 C25        -2.6950  -11.9440    2.0180 C.2       1 F6Z         0.2161
     52 H          -7.1560  -10.7986    4.5354 H         1 T44         0.0581
     53 H          -6.5530  -13.7259    1.4400 H         1 T44         0.0581
     54 H          -5.8341  -10.4291    2.3863 H         1 T44         0.0447
     55 H          -5.2064  -11.9613    1.5808 H         1 T44         0.0447
     56 H          -3.8627  -10.5156    3.4399 H         1 T44         0.0747
     57 H         -12.2384  -15.0925    5.5788 H         1 T44         0.0576
     58 H          -7.9690  -15.3675    5.1767 H         1 T44         0.0576
     59 H          -3.4167  -13.5208    3.2903 H         1 T44         0.1872
     60 H         -10.8743  -18.0091    8.8286 H         1 T44         0.2470
     61 H          -2.0195   -9.8997    0.3457 H         1 T44         0.0757
     62 H          -2.7570   -6.3059    2.7419 H         1 T44         0.0684
     63 H          -4.1115   -4.5359    3.7979 H         1 T44         0.0569
     64 H          -2.8283   -2.3323    6.2264 H         1 T44         0.2557
     65 H          -0.7842   -3.2524    6.1872 H         1 T44         0.0527
     66 H           3.0782   -5.9369    6.5315 H         1 T44         0.0527
     67 H           4.6779   -9.0771    5.9662 H         1 T44         0.2557
     68 H           3.3084   -9.6828    4.4296 H         1 T44         0.0569
     69 H           1.3039   -9.1231    3.0967 H         1 T44         0.0684
     70 H          -0.8287   -8.9661    5.0952 H         1 T44         0.0731
     71 H          -1.9378  -11.1137    4.4773 H         1 T44         0.0733
@<TRIPOS>BOND
     1    1    2 ar 
     2    1    6 ar 
     3    7    1 1  
     4    2    3 ar 
     5    3    4 ar 
     6    3   21 1  
     7    5    4 ar 
     8    4   17 1  
     9    6    5 ar 
    10    5   23 1  
    11    8    7 1  
    12    8    9 1  
    13   16    8 1  
    14    9   19 ar 
    15    9   20 ar 
    16   10   11 ar 
    17   10   15 ar 
    18   17   10 1  
    19   11   12 ar 
    20   12   13 ar 
    21   12   22 1  
    22   14   13 ar 
    23   13   18 1  
    24   15   14 ar 
    25   14   24 1  
    26   51   16 am 
    27   26   25 2  
    28   27   26 1  
    29   26   30 1  
    30   28   27 ar 
    31   27   47 ar 
    32   29   28 ar 
    33   29   49 ar 
    34   29   51 1  
    35   30   31 1  
    36   31   32 1  
    37   31   46 1  
    38   31   47 1  
    39   32   33 ar 
    40   32   38 ar 
    41   33   34 ar 
    42   34   35 ar 
    43   35   36 1  
    44   35   37 ar 
    45   37   38 ar 
    46   38   39 1  
    47   39   40 1  
    48   40   41 ar 
    49   40   46 ar 
    50   41   42 ar 
    51   42   43 1  
    52   42   44 ar 
    53   44   45 ar 
    54   45   46 ar 
    55   47   48 ar 
    56   48   49 ar 
    57   51   50 2  
    58    2   52 1  
    59    6   53 1  
    60    7   54 1  
    61    7   55 1  
    62    8   56 1  
    63   11   57 1  
    64   15   58 1  
    65   16   59 1  
    66   18   60 1  
    67   28   61 1  
    68   33   62 1  
    69   34   63 1  
    70   36   64 1  
    71   37   65 1  
    72   41   66 1  
    73   43   67 1  
    74   44   68 1  
    75   45   69 1  
    76   48   70 1  
    77   49   71 1  
@<TRIPOS>SUBSTRUCTURE
     1 T44         1

