4nw6_ligand
  -I-interpret- 

 50 54  0  0  0  0  0  0  0  0999 V2000
  -24.3960   -0.6270  -24.5350 C   0  0  0  0  0
  -23.8940    0.6630  -24.1800 O   0  0  0  0  0
  -22.5590    0.7780  -23.8880 C   0  0  0  0  0
  -21.6540   -0.2620  -23.9590 C   0  0  0  0  0
  -22.1370    2.0520  -23.4920 C   0  0  0  0  0
  -23.0450    3.0980  -23.4630 O   0  0  0  0  0
  -23.0340    3.9560  -24.6090 C   0  0  0  0  0
  -20.7990    2.2600  -23.1390 C   0  0  0  0  0
  -20.4850    3.5280  -22.7320 O   0  0  0  0  0
  -19.1580    3.7720  -22.2450 C   0  0  0  0  0
  -19.8910    1.2150  -23.2150 C   0  0  0  0  0
  -20.3180   -0.0450  -23.6320 C   0  0  0  0  0
  -19.4710   -1.1740  -23.7200 N   0  0  0  0  0
  -18.1180   -1.2690  -23.6630 C   0  0  0  0  0
  -17.4180   -0.1100  -23.5160 O   0  0  0  0  0
  -17.4010   -2.4240  -23.6770 N   0  0  0  0  0
  -16.1010   -1.9350  -23.5090 C   0  0  0  0  0
  -14.8820   -2.6140  -23.4270 C   0  0  0  0  0
  -13.7120   -1.8750  -23.2440 C   0  0  0  0  0
  -13.7470   -0.4890  -23.1350 C   0  0  0  0  0
  -14.9580    0.2040  -23.2100 C   0  0  0  0  0
  -16.1160   -0.5440  -23.4070 C   0  0  0  0  0
  -15.0280    1.6910  -23.0200 C   0  0  0  0  0
  -14.3270    2.3480  -21.9220 C   0  0  0  0  0
  -13.5690    1.8820  -20.8590 N   0  0  0  0  0
  -13.2650    2.9770  -20.1890 C   0  0  0  0  0
  -13.7630    4.1140  -20.7330 N   0  0  0  0  0
  -14.4610    3.7400  -21.8570 C   0  0  0  0  0
  -15.2100    4.4950  -22.7620 C   0  0  0  0  0
  -15.8800    3.8340  -23.7820 C   0  0  0  0  0
  -15.7960    2.4510  -23.9100 C   0  0  0  0  0
  -23.8794   -0.9839  -25.4260 H   0  0  0  0  0
  -24.2253   -1.3210  -23.7120 H   0  0  0  0  0
  -25.4648   -0.5566  -24.7368 H   0  0  0  0  0
  -21.9851   -1.2526  -24.2709 H   0  0  0  0  0
  -22.0474    4.4074  -24.7139 H   0  0  0  0  0
  -23.2646    3.3725  -25.5003 H   0  0  0  0  0
  -23.7816    4.7390  -24.4822 H   0  0  0  0  0
  -18.9694    3.1411  -21.3764 H   0  0  0  0  0
  -18.4364    3.5393  -23.0281 H   0  0  0  0  0
  -19.0633    4.8203  -21.9617 H   0  0  0  0  0
  -18.8465    1.3780  -22.9495 H   0  0  0  0  0
  -19.9560   -2.0623  -23.8471 H   0  0  0  0  0
  -14.8457   -3.7006  -23.5045 H   0  0  0  0  0
  -12.7547   -2.3930  -23.1855 H   0  0  0  0  0
  -12.8186    0.0633  -22.9893 H   0  0  0  0  0
  -12.6662    2.9681  -19.2783 H   0  0  0  0  0
  -15.2672    5.5796  -22.6694 H   0  0  0  0  0
  -16.4791    4.4051  -24.4913 H   0  0  0  0  0
  -16.3360    1.9522  -24.7148 H   0  0  0  0  0
  1  2  1  0  0  0
  2  3  1  0  0  0
  3  4  4  0  0  0
  3  5  4  0  0  0
  4 12  4  0  0  0
  5  6  1  0  0  0
  5  8  4  0  0  0
  6  7  1  0  0  0
  8  9  1  0  0  0
  8 11  4  0  0  0
  9 10  1  0  0  0
 11 12  4  0  0  0
 12 13  1  0  0  0
 13 14  1  0  0  0
 14 15  4  0  0  0
 14 16  4  0  0  0
 15 22  4  0  0  0
 16 17  4  0  0  0
 17 18  4  0  0  0
 17 22  4  0  0  0
 18 19  4  0  0  0
 19 20  4  0  0  0
 20 21  4  0  0  0
 21 22  4  0  0  0
 21 23  1  0  0  0
 23 24  4  0  0  0
 23 31  4  0  0  0
 24 25  4  0  0  0
 24 28  4  0  0  0
 25 26  4  0  0  0
 26 27  4  0  0  0
 27 28  4  0  0  0
 28 29  4  0  0  0
 29 30  4  0  0  0
 30 31  4  0  0  0
  1 32  1  0  0  0
  1 33  1  0  0  0
  1 34  1  0  0  0
  4 35  1  0  0  0
  7 36  1  0  0  0
  7 37  1  0  0  0
  7 38  1  0  0  0
 10 39  1  0  0  0
 10 40  1  0  0  0
 10 41  1  0  0  0
 11 42  1  0  0  0
 13 43  1  0  0  0
 18 44  1  0  0  0
 19 45  1  0  0  0
 20 46  1  0  0  0
 26 47  1  0  0  0
 29 48  1  0  0  0
 30 49  1  0  0  0
 31 50  1  0  0  0
M  END
$$$$
