4nnw_ligand
  -I-interpret- 

 80 80  0  0  0  0  0  0  0  0999 V2000
   58.9940 -135.5500   35.2480 C   0  0  0  0  0
   58.9060 -136.7710   35.3980 O   0  0  0  0  0
   57.9450 -134.8150   34.7500 O   0  0  0  0  0
   56.9690 -135.5200   33.9920 C   0  0  0  0  0
   55.7050 -135.1170   34.4730 C   0  0  0  0  0
   55.4290 -135.1310   35.8440 C   0  0  0  0  0
   54.1750 -134.7410   36.3170 C   0  0  0  0  0
   53.1830 -134.3380   35.4270 C   0  0  0  0  0
   53.4470 -134.3270   34.0600 C   0  0  0  0  0
   54.6990 -134.7170   33.5870 C   0  0  0  0  0
   60.1280 -134.9130   35.5960 N   0  0  0  0  0
   61.2850 -135.6220   36.1730 C   0  0  0  0  0
   60.9830 -135.9140   37.6480 C   0  0  0  0  0
   60.3690 -135.0880   38.3240 O   0  0  0  0  0
   62.5330 -134.7410   36.0930 C   0  0  0  0  0
   62.9730 -134.5450   34.6370 C   0  0  0  0  0
   63.8930 -135.6900   34.2160 C   0  0  0  0  0
   63.7220 -133.2160   34.5030 C   0  0  0  0  0
   61.4200 -137.0960   38.1200 N   0  0  0  0  0
   61.1940 -137.5030   39.5210 C   0  0  0  0  0
   62.4760 -137.2640   40.3300 C   0  0  0  0  0
   63.5870 -137.3710   39.8150 O   0  0  0  0  0
   60.7570 -138.9710   39.5810 C   0  0  0  0  0
   59.5910 -139.1460   40.5690 C   0  0  0  0  0
   59.3290 -140.6470   40.7440 C   0  0  0  0  0
   58.3210 -138.4430   40.0530 C   0  0  0  0  0
   64.3180 -134.1400   42.3080 C   0  0  0  0  0
   63.7650 -138.7400   43.6890 C   0  0  0  0  0
   63.2360 -137.2920   43.8530 C   0  0  0  0  0
   61.8510 -137.2850   44.2790 O   0  0  0  0  0
   63.3370 -136.5260   42.5190 C   0  0  0  0  0
   63.1170 -135.0060   42.7020 C   0  0  0  0  0
   63.9170 -132.6610   42.4510 C   0  0  0  0  0
   64.7640 -134.4280   40.8640 C   0  0  0  0  0
   62.2610 -136.9220   41.6070 N   0  0  0  0  0
   57.0986 -136.5967   34.1016 H   0  0  0  0  0
   57.0679 -135.2947   32.9301 H   0  0  0  0  0
   56.1983 -135.4486   36.5479 H   0  0  0  0  0
   53.9715 -134.7520   37.3878 H   0  0  0  0  0
   52.2048 -134.0327   35.7985 H   0  0  0  0  0
   52.6738 -134.0131   33.3588 H   0  0  0  0  0
   54.8963 -134.7102   32.5150 H   0  0  0  0  0
   60.1889 -133.9045   35.4556 H   0  0  0  0  0
   61.4616 -136.5451   35.6209 H   0  0  0  0  0
   63.3405 -135.2270   36.6405 H   0  0  0  0  0
   62.3020 -133.7665   36.5233 H   0  0  0  0  0
   62.0923 -134.5348   33.9949 H   0  0  0  0  0
   64.7722 -135.7036   34.8602 H   0  0  0  0  0
   63.3591 -136.6359   34.3077 H   0  0  0  0  0
   64.2017 -135.5445   33.1808 H   0  0  0  0  0
   63.0640 -132.3983   34.7970 H   0  0  0  0  0
   64.5996 -133.2282   35.1494 H   0  0  0  0  0
   64.0337 -133.0789   33.4676 H   0  0  0  0  0
   61.9202 -137.7269   37.4938 H   0  0  0  0  0
   60.3939 -136.9043   39.9563 H   0  0  0  0  0
   61.5986 -139.5777   39.9154 H   0  0  0  0  0
   60.4309 -139.2842   38.5892 H   0  0  0  0  0
   59.8538 -138.6934   41.5251 H   0  0  0  0  0
   59.0712 -141.0844   39.7795 H   0  0  0  0  0
   60.2258 -141.1280   41.1344 H   0  0  0  0  0
   58.5044 -140.7916   41.4420 H   0  0  0  0  0
   58.5205 -137.3783   39.9314 H   0  0  0  0  0
   58.0343 -138.8722   39.0930 H   0  0  0  0  0
   57.5128 -138.5828   40.7708 H   0  0  0  0  0
   65.1578 -134.3721   42.9630 H   0  0  0  0  0
   63.6913 -139.2626   44.6427 H   0  0  0  0  0
   63.1678 -139.2610   42.9407 H   0  0  0  0  0
   64.8065 -138.7109   43.3687 H   0  0  0  0  0
   63.8510 -136.8078   44.6115 H   0  0  0  0  0
   61.5506 -136.3780   44.3722 H   0  0  0  0  0
   64.3323 -136.7537   42.1375 H   0  0  0  0  0
   62.2906 -134.7219   42.0504 H   0  0  0  0  0
   62.9339 -134.8350   43.7628 H   0  0  0  0  0
   63.0726 -132.4498   41.7950 H   0  0  0  0  0
   63.6347 -132.4607   43.4846 H   0  0  0  0  0
   64.7607 -132.0287   42.1744 H   0  0  0  0  0
   65.0474 -135.4767   40.7750 H   0  0  0  0  0
   63.9417 -134.2133   40.1815 H   0  0  0  0  0
   65.6177 -133.7973   40.6161 H   0  0  0  0  0
   61.3044 -136.9380   41.9607 H   0  0  0  0  0
  1  2  2  0  0  0
  1  3  1  0  0  0
 11  1  1  0  0  0
  3  4  1  0  0  0
  4  5  1  0  0  0
  5  6  4  0  0  0
  5 10  4  0  0  0
  6  7  4  0  0  0
  7  8  4  0  0  0
  9  8  4  0  0  0
 10  9  4  0  0  0
 12 11  1  0  0  0
 13 12  1  0  0  0
 12 15  1  0  0  0
 13 14  2  0  0  0
 19 13  1  0  0  0
 15 16  1  0  0  0
 16 17  1  0  0  0
 16 18  1  0  0  0
 20 19  1  0  0  0
 21 20  1  0  0  0
 20 23  1  0  0  0
 21 22  2  0  0  0
 35 21  1  0  0  0
 23 24  1  0  0  0
 24 25  1  0  0  0
 24 26  1  0  0  0
 32 27  1  0  0  0
 27 33  1  0  0  0
 27 34  1  0  0  0
 29 28  1  0  0  0
 29 30  1  0  0  0
 31 29  1  0  0  0
 31 32  1  0  0  0
 31 35  1  0  0  0
  4 36  1  0  0  0
  4 37  1  0  0  0
  6 38  1  0  0  0
  7 39  1  0  0  0
  8 40  1  0  0  0
  9 41  1  0  0  0
 10 42  1  0  0  0
 11 43  1  0  0  0
 12 44  1  0  0  0
 15 45  1  0  0  0
 15 46  1  0  0  0
 16 47  1  0  0  0
 17 48  1  0  0  0
 17 49  1  0  0  0
 17 50  1  0  0  0
 18 51  1  0  0  0
 18 52  1  0  0  0
 18 53  1  0  0  0
 19 54  1  0  0  0
 20 55  1  0  0  0
 23 56  1  0  0  0
 23 57  1  0  0  0
 24 58  1  0  0  0
 25 59  1  0  0  0
 25 60  1  0  0  0
 25 61  1  0  0  0
 26 62  1  0  0  0
 26 63  1  0  0  0
 26 64  1  0  0  0
 27 65  1  0  0  0
 28 66  1  0  0  0
 28 67  1  0  0  0
 28 68  1  0  0  0
 29 69  1  0  0  0
 30 70  1  0  0  0
 31 71  1  0  0  0
 32 72  1  0  0  0
 32 73  1  0  0  0
 33 74  1  0  0  0
 33 75  1  0  0  0
 33 76  1  0  0  0
 34 77  1  0  0  0
 34 78  1  0  0  0
 34 79  1  0  0  0
 35 80  1  0  0  0
M  END
$$$$
