1o6r_ligand
  -I-interpret- 

 57 59  0  0  0  0  0  0  0  0999 V2000
   62.9540   69.0520   58.3270 C   0  0  0  0  0
   62.7160   69.4010   59.7780 C   0  0  0  0  0
   62.2090   70.7880   59.9590 N   0  3  0  0  0
   60.7210   70.8160   59.8630 C   0  0  0  0  0
   62.6510   71.4000   61.2670 C   0  0  0  0  0
   62.1090   70.7320   62.5800 C   0  0  0  0  0
   63.1200   69.7030   63.1510 C   0  0  0  0  0
   63.8060   70.2380   64.4170 C   0  0  0  0  0
   63.4140   69.3830   65.6290 C   0  0  0  0  0
   64.6170   69.2380   66.5670 C   0  0  0  0  0
   64.1850   69.5400   67.8970 O   0  0  0  0  0
   65.1650   70.0590   68.7550 C   0  0  0  0  0
   65.4410   71.4550   68.7280 C   0  0  0  0  0
   66.4230   72.0450   69.5810 C   0  0  0  0  0
   67.1190   71.2000   70.4610 C   0  0  0  0  0
   68.1580   71.4620   71.4410 C   0  0  0  0  0
   68.8180   72.7850   71.8210 C   0  0  0  0  0
   68.0370   73.9170   72.2120 C   0  0  0  0  0
   68.6730   75.1430   72.5840 C   0  0  0  0  0
   70.1080   75.2510   72.5690 C   0  0  0  0  0
   70.9870   76.8570   73.0760 Br  0  0  0  0  0
   70.8750   74.1130   72.1710 C   0  0  0  0  0
   70.2360   72.8970   71.8020 C   0  0  0  0  0
   68.4430   70.2330   71.9910 C   0  0  0  0  0
   67.6610   69.2200   71.4320 O   0  0  0  0  0
   66.8400   69.7740   70.4910 C   0  0  0  0  0
   65.8630   69.1990   69.6420 C   0  0  0  0  0
   63.8030   68.0950   57.9370 C   0  0  0  0  0
   62.4085   69.6058   57.5629 H   0  0  0  0  0
   63.6685   69.3217   60.3020 H   0  0  0  0  0
   61.9633   68.7159   60.1680 H   0  0  0  0  0
   62.6112   71.3491   59.2082 H   0  0  0  0  0
   60.2941   70.2474   60.6892 H   0  0  0  0  0
   60.3743   71.8482   59.9131 H   0  0  0  0  0
   60.4108   70.3728   58.9167 H   0  0  0  0  0
   62.2627   72.4185   61.2672 H   0  0  0  0  0
   63.7347   71.2871   61.2991 H   0  0  0  0  0
   61.1805   70.2114   62.3455 H   0  0  0  0  0
   61.9508   71.5117   63.3251 H   0  0  0  0  0
   63.8836   69.5117   62.3971 H   0  0  0  0  0
   62.5799   68.7917   63.4078 H   0  0  0  0  0
   63.4903   71.2672   64.5876 H   0  0  0  0  0
   64.8870   70.1959   64.2836 H   0  0  0  0  0
   63.0988   68.3964   65.2893 H   0  0  0  0  0
   62.5950   69.8653   66.1626 H   0  0  0  0  0
   65.4113   69.9213   66.2665 H   0  0  0  0  0
   65.0076   68.2214   66.5214 H   0  0  0  0  0
   64.8877   72.0914   68.0373 H   0  0  0  0  0
   66.6256   73.1156   69.5501 H   0  0  0  0  0
   66.9495   73.8452   72.2267 H   0  0  0  0  0
   68.0678   75.9997   72.8803 H   0  0  0  0  0
   71.9629   74.1775   72.1499 H   0  0  0  0  0
   70.8399   72.0409   71.5011 H   0  0  0  0  0
   69.1889   70.0700   72.7689 H   0  0  0  0  0
   65.6539   68.1296   69.6691 H   0  0  0  0  0
   64.3613   67.5258   58.6802 H   0  0  0  0  0
   63.9366   67.8843   56.8759 H   0  0  0  0  0
  1  2  1  0  0  0
  1 28  2  0  0  0
  2  3  1  0  0  0
  3  4  1  0  0  0
  3  5  1  0  0  0
  5  6  1  0  0  0
  6  7  1  0  0  0
  7  8  1  0  0  0
  8  9  1  0  0  0
  9 10  1  0  0  0
 10 11  1  0  0  0
 11 12  1  0  0  0
 12 13  4  0  0  0
 12 27  4  0  0  0
 13 14  4  0  0  0
 14 15  4  0  0  0
 15 16  4  0  0  0
 15 26  4  0  0  0
 16 17  1  0  0  0
 16 24  4  0  0  0
 17 18  4  0  0  0
 17 23  4  0  0  0
 18 19  4  0  0  0
 19 20  4  0  0  0
 20 21  1  0  0  0
 20 22  4  0  0  0
 22 23  4  0  0  0
 24 25  4  0  0  0
 25 26  4  0  0  0
 26 27  4  0  0  0
  1 29  1  0  0  0
  2 30  1  0  0  0
  2 31  1  0  0  0
  3 32  1  0  0  0
  4 33  1  0  0  0
  4 34  1  0  0  0
  4 35  1  0  0  0
  5 36  1  0  0  0
  5 37  1  0  0  0
  6 38  1  0  0  0
  6 39  1  0  0  0
  7 40  1  0  0  0
  7 41  1  0  0  0
  8 42  1  0  0  0
  8 43  1  0  0  0
  9 44  1  0  0  0
  9 45  1  0  0  0
 10 46  1  0  0  0
 10 47  1  0  0  0
 13 48  1  0  0  0
 14 49  1  0  0  0
 18 50  1  0  0  0
 19 51  1  0  0  0
 22 52  1  0  0  0
 23 53  1  0  0  0
 24 54  1  0  0  0
 27 55  1  0  0  0
 28 56  1  0  0  0
 28 57  1  0  0  0
M  END
$$$$
