5wbz_ligand
  -I-interpret- 

 45 47  0  0  0  0  0  0  0  0999 V2000
   -7.6260   -1.1790   21.6460 N   0  0  0  0  0
   -5.0920    1.6920   19.0180 C   0  0  0  0  0
   -5.9500   -0.4780   20.2620 N   0  0  0  0  0
   -4.0020   -1.8520   19.7120 C   0  0  0  0  0
   -4.7820   -0.6500   19.6350 C   0  0  0  0  0
   -5.7760   -2.6700   21.1940 C   0  0  0  0  0
   -9.4260    0.0560   22.4680 C   0  0  0  0  0
   -4.5770   -2.8580   20.5110 C   0  0  0  0  0
   -2.7090   -2.0560   19.1230 C   0  0  0  0  0
   -2.7230    2.1820   16.1730 C   0  0  0  0  0
   -3.8890    1.6300   16.9800 C   0  0  0  0  0
   -4.4100    2.6120   18.0200 C   0  0  0  0  0
   -4.3260    0.4430   18.9500 N   0  0  0  0  0
   -3.4850    0.3930   17.7600 C   0  0  0  0  0
   -6.4360   -1.4480   21.0370 C   0  0  0  0  0
   -8.4120   -2.0940   22.4870 C   0  0  0  0  0
   -9.7810   -1.4400   22.4140 C   0  0  0  0  0
   -8.2620    0.1400   21.4970 C   0  0  0  0  0
   -8.9970    0.4370   23.7780 O   0  0  0  0  0
  -10.3860   -1.7220   21.1490 O   0  0  0  0  0
   -3.9090   -4.2020   20.6380 C   0  0  0  0  0
   -4.6670   -5.0980   21.2440 F   0  0  0  0  0
   -3.6200   -4.7440   19.4460 F   0  0  0  0  0
   -2.7700   -4.1430   21.3580 F   0  0  0  0  0
   -1.6730   -2.1820   18.6710 N   0  0  0  0  0
   -4.9410    1.2390   16.0870 O   0  0  0  0  0
   -6.1445    1.5390   18.7793 H   0  0  0  0  0
   -5.0981    2.1130   20.0234 H   0  0  0  0  0
   -6.1874   -3.4523   21.8318 H   0  0  0  0  0
  -10.2647    0.7088   22.2259 H   0  0  0  0  0
   -3.0402    3.0834   15.6487 H   0  0  0  0  0
   -1.8990    2.4219   16.8450 H   0  0  0  0  0
   -2.3976    1.4347   15.4493 H   0  0  0  0  0
   -3.6247    3.2226   18.4657 H   0  0  0  0  0
   -5.0790    3.3647   17.6029 H   0  0  0  0  0
   -2.4224    0.3837   18.0026 H   0  0  0  0  0
   -3.6287   -0.5238   17.1882 H   0  0  0  0  0
   -8.0273   -2.2054   23.5007 H   0  0  0  0  0
   -8.3970   -3.1302   22.1490 H   0  0  0  0  0
  -10.4685   -1.7742   23.1910 H   0  0  0  0  0
   -8.5740    0.3502   20.4740 H   0  0  0  0  0
   -7.5853    0.9669   21.7125 H   0  0  0  0  0
   -8.7823    1.3727   23.7837 H   0  0  0  0  0
  -10.6119   -2.6540   21.1043 H   0  0  0  0  0
   -5.6773    0.8905   16.5949 H   0  0  0  0  0
 15  1  1  0  0  0
  1 16  1  0  0  0
  1 18  1  0  0  0
 12  2  1  0  0  0
  2 13  1  0  0  0
  5  3  4  0  0  0
  3 15  4  0  0  0
  5  4  4  0  0  0
  4  8  4  0  0  0
  4  9  1  0  0  0
 13  5  1  0  0  0
  8  6  4  0  0  0
 15  6  4  0  0  0
  7 17  1  0  0  0
 18  7  1  0  0  0
  7 19  1  0  0  0
  8 21  1  0  0  0
  9 25  3  0  0  0
 11 10  1  0  0  0
 11 12  1  0  0  0
 11 14  1  0  0  0
 11 26  1  0  0  0
 13 14  1  0  0  0
 16 17  1  0  0  0
 17 20  1  0  0  0
 21 22  1  0  0  0
 21 23  1  0  0  0
 21 24  1  0  0  0
  2 27  1  0  0  0
  2 28  1  0  0  0
  6 29  1  0  0  0
  7 30  1  0  0  0
 10 31  1  0  0  0
 10 32  1  0  0  0
 10 33  1  0  0  0
 12 34  1  0  0  0
 12 35  1  0  0  0
 14 36  1  0  0  0
 14 37  1  0  0  0
 16 38  1  0  0  0
 16 39  1  0  0  0
 17 40  1  0  0  0
 18 41  1  0  0  0
 18 42  1  0  0  0
 19 43  1  0  0  0
 20 44  1  0  0  0
 26 45  1  0  0  0
M  END
$$$$
