5t2y_ligand
  -I-interpret- 

 40 42  0  0  0  0  0  0  0  0999 V2000
   51.3890  106.2060   -7.6390 C   0  0  0  0  0
   51.7470  105.1980   -6.7750 C   0  0  0  0  0
   51.6610  105.0810   -5.2910 C   0  0  0  0  0
   52.3070  104.6160   -9.1360 C   0  0  0  0  0
   51.7150  105.8790   -9.0310 C   0  0  0  0  0
   51.5760  106.4820  -10.3840 C   0  0  0  0  0
   50.8400  108.3260  -11.8280 C   0  0  0  0  0
   52.4950  104.6510  -11.4130 C   0  0  0  0  0
   51.0970  105.7930   -4.4620 O   0  0  0  0  0
   51.9650  105.8750  -11.5250 N   0  0  0  0  0
   52.6910  104.0030  -10.2640 N   0  0  0  0  0
   51.0080  107.6830  -10.5430 N   0  0  0  0  0
   50.7440  107.4930   -7.2050 C   0  0  0  0  0
   52.2680  103.9410   -5.0000 O   0  0  0  0  0
   52.4780  103.8430   -7.5840 S   0  0  0  0  0
   52.8930  103.8650  -12.6250 C   0  0  0  0  0
   51.6530  103.3400  -13.4910 C   0  0  0  0  0
   52.0070  102.3450  -14.5740 C   0  0  0  0  0
   52.0970  102.7390  -15.9030 C   0  0  0  0  0
   52.3900  101.8190  -16.8960 C   0  0  0  0  0
   52.5880  100.4950  -16.5760 C   0  0  0  0  0
   52.5020  100.0880  -15.2600 C   0  0  0  0  0
   52.2150  101.0070  -14.2650 C   0  0  0  0  0
   51.8164  108.4732  -12.2896 H   0  0  0  0  0
   50.2243  107.6963  -12.4702 H   0  0  0  0  0
   50.3532  109.2913  -11.6889 H   0  0  0  0  0
   50.6750  108.1723   -9.7122 H   0  0  0  0  0
   49.7978  107.2748   -6.7099 H   0  0  0  0  0
   51.4057  108.0144   -6.5133 H   0  0  0  0  0
   50.5626  108.1195   -8.0783 H   0  0  0  0  0
   52.6346  103.5612   -5.8018 H   0  0  0  0  0
   53.4414  102.9890  -12.2785 H   0  0  0  0  0
   53.4783  104.5266  -13.2635 H   0  0  0  0  0
   51.2260  104.2101  -13.9897 H   0  0  0  0  0
   50.9807  102.8295  -12.8015 H   0  0  0  0  0
   51.9352  103.7840  -16.1674 H   0  0  0  0  0
   52.4640  102.1443  -17.9337 H   0  0  0  0  0
   52.8119   99.7706  -17.3591 H   0  0  0  0  0
   52.6604   99.0405  -15.0034 H   0  0  0  0  0
   52.1516  100.6769  -13.2281 H   0  0  0  0  0
  1  2  4  0  0  0
  1  5  4  0  0  0
  1 13  1  0  0  0
  2  3  1  0  0  0
  2 15  4  0  0  0
  3  9  2  0  0  0
  3 14  1  0  0  0
  5  4  4  0  0  0
  4 11  4  0  0  0
  4 15  4  0  0  0
  5  6  4  0  0  0
  6 10  4  0  0  0
  6 12  1  0  0  0
 12  7  1  0  0  0
 10  8  4  0  0  0
  8 11  4  0  0  0
  8 16  1  0  0  0
 16 17  1  0  0  0
 17 18  1  0  0  0
 18 19  4  0  0  0
 18 23  4  0  0  0
 19 20  4  0  0  0
 20 21  4  0  0  0
 21 22  4  0  0  0
 22 23  4  0  0  0
  7 24  1  0  0  0
  7 25  1  0  0  0
  7 26  1  0  0  0
 12 27  1  0  0  0
 13 28  1  0  0  0
 13 29  1  0  0  0
 13 30  1  0  0  0
 14 31  1  0  0  0
 16 32  1  0  0  0
 16 33  1  0  0  0
 17 34  1  0  0  0
 17 35  1  0  0  0
 19 36  1  0  0  0
 20 37  1  0  0  0
 21 38  1  0  0  0
 22 39  1  0  0  0
 23 40  1  0  0  0
M  END
$$$$
