1xdd_ligand
  -I-interpret- 

 93 97  0  0  0  0  0  0  0  0999 V2000
   29.1670   85.3540   38.8860 O   0  0  0  0  0
   29.7230   86.2550   38.2960 C   0  0  0  0  0
   29.1350   86.9140   37.0540 C   0  0  0  0  0
   28.7540   85.8550   36.0080 C   0  0  0  0  0
   27.8940   87.7040   37.4450 C   0  0  0  0  0
   28.2410   88.7810   38.4910 C   0  0  0  0  0
   30.8820   86.8020   38.6570 O   0  0  0  0  0
   31.6430   86.1280   39.6900 C   0  0  0  0  0
   32.2890   84.8370   39.1730 C   0  0  0  0  0
   33.3240   85.1000   38.0670 C   0  0  0  0  0
   32.7270   84.9580   36.6380 C   0  0  0  0  0
   33.9480   86.4520   38.0870 C   0  0  0  0  0
   33.7310   87.3600   39.0360 C   0  0  0  0  0
   32.7210   87.1360   40.1510 C   0  0  0  0  0
   34.4430   88.5050   38.9530 C   0  0  0  0  0
   34.3460   89.4710   39.8620 C   0  0  0  0  0
   33.2230   89.5060   40.8810 C   0  0  0  0  0
   33.8410   89.2000   42.2700 C   0  0  0  0  0
   32.1100   88.5150   40.5100 C   0  0  0  0  0
   30.9840   88.3680   41.6010 C   0  0  0  0  0
   30.4750   89.7330   42.1220 C   0  0  0  0  0
   29.3430   89.6190   43.1780 C   0  0  0  0  0
   29.7070   88.9010   44.4010 N   0  0  0  0  0
   28.8580   88.0190   44.9870 C   0  0  0  0  0
   29.1390   87.4550   46.0250 O   0  0  0  0  0
   27.5150   87.6950   44.4260 C   0  0  0  0  0
   26.9890   88.8510   43.5730 C   0  0  0  0  0
   25.7750   88.4650   42.9330 O   0  0  0  0  0
   28.0770   89.0560   42.5080 C   0  0  0  0  0
   30.9690   89.1450   45.0580 C   0  0  0  0  0
   30.8210   90.4090   45.8560 C   0  0  0  0  0
   31.2340   91.6260   45.3320 C   0  0  0  0  0
   31.0940   92.8040   46.0580 C   0  0  0  0  0
   30.5330   92.7450   47.3400 C   0  0  0  0  0
   30.3700   93.9040   48.1170 C   0  0  0  0  0
   30.8120   95.2890   47.6190 C   0  0  0  0  0
   30.0640   95.6950   46.4720 O   0  0  0  0  0
   29.7900   93.7890   49.3850 C   0  0  0  0  0
   29.6220   94.9180   50.1740 O   0  0  0  0  0
   28.2370   95.3000   50.3360 C   0  0  0  0  0
   29.3730   92.5510   49.8860 C   0  0  0  0  0
   29.5440   91.4070   49.1180 C   0  0  0  0  0
   30.1190   91.5080   47.8540 C   0  0  0  0  0
   30.2530   90.3390   47.1130 C   0  0  0  0  0
   29.8828   87.5793   36.6223 H   0  0  0  0  0
   28.0093   85.1804   36.4304 H   0  0  0  0  0
   28.3419   86.3478   35.1274 H   0  0  0  0  0
   29.6415   85.2882   35.7267 H   0  0  0  0  0
   27.1613   87.0200   37.8733 H   0  0  0  0  0
   27.4926   88.1919   36.5568 H   0  0  0  0  0
   28.6499   88.3028   39.3811 H   0  0  0  0  0
   28.9787   89.4664   38.0739 H   0  0  0  0  0
   27.3390   89.3329   38.7553 H   0  0  0  0  0
   30.9939   85.8271   40.5123 H   0  0  0  0  0
   31.5013   84.2103   38.7549 H   0  0  0  0  0
   32.8021   84.3595   40.0077 H   0  0  0  0  0
   34.0747   84.3406   38.2859 H   0  0  0  0  0
   32.3451   83.9459   36.5041 H   0  0  0  0  0
   31.9147   85.6738   36.5122 H   0  0  0  0  0
   33.5043   85.1551   35.8997 H   0  0  0  0  0
   34.6247   86.7145   37.2738 H   0  0  0  0  0
   33.1938   86.7102   41.0360 H   0  0  0  0  0
   35.1213   88.6421   38.1109 H   0  0  0  0  0
   35.0963   90.2616   39.8751 H   0  0  0  0  0
   32.7527   90.4891   40.9011 H   0  0  0  0  0
   34.3063   88.2145   42.2501 H   0  0  0  0  0
   34.5926   89.9534   42.5058 H   0  0  0  0  0
   33.0569   89.2177   43.0270 H   0  0  0  0  0
   31.6087   88.9340   39.6375 H   0  0  0  0  0
   31.4058   87.8236   42.4459 H   0  0  0  0  0
   30.1414   87.8489   41.1442 H   0  0  0  0  0
   30.0691   90.2756   41.2682 H   0  0  0  0  0
   31.3171   90.2321   42.6013 H   0  0  0  0  0
   29.1429   90.6277   43.5393 H   0  0  0  0  0
   26.8223   87.5226   45.2498 H   0  0  0  0  0
   27.6007   86.8069   43.7999 H   0  0  0  0  0
   26.7878   89.7472   44.1598 H   0  0  0  0  0
   25.4500   89.1940   42.3995 H   0  0  0  0  0
   28.3081   88.1023   42.0335 H   0  0  0  0  0
   27.7213   89.7564   41.7524 H   0  0  0  0  0
   31.7688   89.2470   44.3245 H   0  0  0  0  0
   31.2295   88.3101   45.7085 H   0  0  0  0  0
   31.6750   91.6591   44.3358 H   0  0  0  0  0
   31.4153   93.7565   45.6366 H   0  0  0  0  0
   31.8655   95.2375   47.3441 H   0  0  0  0  0
   30.6428   96.0131   48.4160 H   0  0  0  0  0
   30.3632   96.5613   46.1864 H   0  0  0  0  0
   27.8036   95.5135   49.3589 H   0  0  0  0  0
   27.6892   94.4841   50.8075 H   0  0  0  0  0
   28.1777   96.1894   50.9633 H   0  0  0  0  0
   28.9165   92.4850   50.8736 H   0  0  0  0  0
   29.2302   90.4364   49.5021 H   0  0  0  0  0
   29.9158   89.3844   47.5170 H   0  0  0  0  0
  1  2  2  0  0  0
  2  3  1  0  0  0
  2  7  1  0  0  0
  3  4  1  0  0  0
  3  5  1  0  0  0
  5  6  1  0  0  0
  7  8  1  0  0  0
  8  9  1  0  0  0
  8 14  1  0  0  0
  9 10  1  0  0  0
 10 11  1  0  0  0
 10 12  1  0  0  0
 12 13  2  0  0  0
 13 14  1  0  0  0
 13 15  1  0  0  0
 14 19  1  0  0  0
 15 16  2  0  0  0
 16 17  1  0  0  0
 17 18  1  0  0  0
 17 19  1  0  0  0
 19 20  1  0  0  0
 20 21  1  0  0  0
 21 22  1  0  0  0
 22 23  1  0  0  0
 22 29  1  0  0  0
 23 24  1  0  0  0
 23 30  1  0  0  0
 24 25  2  0  0  0
 24 26  1  0  0  0
 26 27  1  0  0  0
 27 28  1  0  0  0
 27 29  1  0  0  0
 30 31  1  0  0  0
 31 32  4  0  0  0
 31 44  4  0  0  0
 32 33  4  0  0  0
 33 34  4  0  0  0
 34 35  4  0  0  0
 34 43  4  0  0  0
 35 36  1  0  0  0
 35 38  4  0  0  0
 36 37  1  0  0  0
 38 39  1  0  0  0
 38 41  4  0  0  0
 39 40  1  0  0  0
 41 42  4  0  0  0
 42 43  4  0  0  0
 43 44  4  0  0  0
  3 45  1  0  0  0
  4 46  1  0  0  0
  4 47  1  0  0  0
  4 48  1  0  0  0
  5 49  1  0  0  0
  5 50  1  0  0  0
  6 51  1  0  0  0
  6 52  1  0  0  0
  6 53  1  0  0  0
  8 54  1  0  0  0
  9 55  1  0  0  0
  9 56  1  0  0  0
 10 57  1  0  0  0
 11 58  1  0  0  0
 11 59  1  0  0  0
 11 60  1  0  0  0
 12 61  1  0  0  0
 14 62  1  0  0  0
 15 63  1  0  0  0
 16 64  1  0  0  0
 17 65  1  0  0  0
 18 66  1  0  0  0
 18 67  1  0  0  0
 18 68  1  0  0  0
 19 69  1  0  0  0
 20 70  1  0  0  0
 20 71  1  0  0  0
 21 72  1  0  0  0
 21 73  1  0  0  0
 22 74  1  0  0  0
 26 75  1  0  0  0
 26 76  1  0  0  0
 27 77  1  0  0  0
 28 78  1  0  0  0
 29 79  1  0  0  0
 29 80  1  0  0  0
 30 81  1  0  0  0
 30 82  1  0  0  0
 32 83  1  0  0  0
 33 84  1  0  0  0
 36 85  1  0  0  0
 36 86  1  0  0  0
 37 87  1  0  0  0
 40 88  1  0  0  0
 40 89  1  0  0  0
 40 90  1  0  0  0
 41 91  1  0  0  0
 42 92  1  0  0  0
 44 93  1  0  0  0
M  END
$$$$
