5fot_ligand
  -I-interpret- 

 72 73  0  0  0  0  0  0  0  0999 V2000
   28.4230    1.8220   39.7030 C   0  0  0  0  0
   28.1010    2.9590   40.0620 O   0  0  0  0  0
   29.7110    1.5930   38.9670 C   0  0  0  0  0
   27.7210    0.7720   40.0760 N   0  0  0  0  0
   26.4720    0.9090   40.8050 C   0  0  0  0  0
   26.7110    1.2340   42.2740 C   0  0  0  0  0
   27.6530    0.7280   42.8840 O   0  0  0  0  0
   25.6440   -0.3680   40.6640 C   0  0  0  0  0
   25.1010   -0.5990   39.2740 C   0  0  0  0  0
   25.8260   -1.3170   38.3360 C   0  0  0  0  0
   23.8610   -0.1200   38.9300 C   0  0  0  0  0
   25.3240   -1.5250   37.0630 C   0  0  0  0  0
   23.3450   -0.3410   37.6760 C   0  0  0  0  0
   24.0800   -1.0450   36.7350 C   0  0  0  0  0
   25.8850    2.1200   42.8120 N   0  0  0  0  0
   25.9630    2.4820   44.2150 C   0  0  0  0  0
   24.5770    2.5070   44.7860 C   0  0  0  0  0
   23.6220    2.8450   44.1090 O   0  0  0  0  0
   26.5580    3.8720   44.4010 C   0  0  0  0  0
   27.9730    3.9720   43.9630 C   0  0  0  0  0
   28.3490    4.5810   42.7900 N   0  0  0  0  0
   29.1150    3.5390   44.5470 C   0  0  0  0  0
   29.6640    4.5110   42.6620 C   0  0  0  0  0
   30.1530    3.8890   43.7180 N   0  0  0  0  0
   24.4760    2.1720   46.0590 N   0  0  0  0  0
   23.2050    2.2600   46.7470 C   0  0  0  0  0
   22.6540    3.6780   46.7060 C   0  0  0  0  0
   23.4010    4.6620   46.7240 O   0  0  0  0  0
   23.2860    1.7620   48.2130 C   0  0  0  0  0
   21.9780    1.7480   48.7730 O   0  0  0  0  0
   24.1510    2.6710   49.0430 C   0  0  0  0  0
   21.3400    3.7830   46.6480 N   0  0  0  0  0
   20.6930    5.1130   46.7310 C   0  0  0  0  0
   20.3480    5.4870   48.1740 C   0  0  0  0  0
   19.8870    6.6030   48.4030 O   0  0  0  0  0
   19.4590    5.1420   45.8270 C   0  0  0  0  0
   19.8170    4.9360   44.3760 C   0  0  0  0  0
   20.5580    4.6370   49.0640 N   0  0  0  0  0
   29.7051    2.1662   38.0399 H   0  0  0  0  0
   30.5459    1.9150   39.5894 H   0  0  0  0  0
   29.8141    0.5321   38.7391 H   0  0  0  0  0
   28.0630   -0.1613   39.8472 H   0  0  0  0  0
   25.9188    1.7434   40.3738 H   0  0  0  0  0
   24.7888   -0.2739   41.3332 H   0  0  0  0  0
   26.3007   -1.2061   40.8975 H   0  0  0  0  0
   26.8019   -1.7222   38.6037 H   0  0  0  0  0
   23.2792    0.4422   39.6604 H   0  0  0  0  0
   25.9137   -2.0675   36.3240 H   0  0  0  0  0
   22.3555    0.0381   37.4205 H   0  0  0  0  0
   23.6722   -1.2169   35.7389 H   0  0  0  0  0
   25.1760    2.5588   42.2245 H   0  0  0  0  0
   26.5965    1.7494   44.7151 H   0  0  0  0  0
   26.5269    4.1026   45.4659 H   0  0  0  0  0
   25.9759    4.5626   43.7908 H   0  0  0  0  0
   29.1958    3.0113   45.4973 H   0  0  0  0  0
   30.2448    4.9009   41.8261 H   0  0  0  0  0
   25.3015    1.8480   46.5629 H   0  0  0  0  0
   22.5220    1.5988   46.2137 H   0  0  0  0  0
   23.7192    0.7618   48.2133 H   0  0  0  0  0
   22.0232    1.4401   49.6812 H   0  0  0  0  0
   25.1573    2.6947   48.6247 H   0  0  0  0  0
   23.7299    3.6764   49.0370 H   0  0  0  0  0
   24.1903    2.2982   50.0665 H   0  0  0  0  0
   20.7675    2.9451   46.5456 H   0  0  0  0  0
   21.3990    5.8655   46.3797 H   0  0  0  0  0
   18.9865    6.1192   45.9262 H   0  0  0  0  0
   18.7937    4.3343   46.1321 H   0  0  0  0  0
   20.4942    5.7272   44.0543 H   0  0  0  0  0
   20.3043    3.9683   44.2572 H   0  0  0  0  0
   18.9102    4.9642   43.7718 H   0  0  0  0  0
   20.3450    4.8546   50.0375 H   0  0  0  0  0
   20.9426    3.7250   48.8176 H   0  0  0  0  0
  1  2  2  0  0  0
  1  3  1  0  0  0
  1  4  1  0  0  0
  4  5  1  0  0  0
  5  6  1  0  0  0
  5  8  1  0  0  0
  6  7  2  0  0  0
  6 15  1  0  0  0
  8  9  1  0  0  0
  9 10  4  0  0  0
  9 11  4  0  0  0
 10 12  4  0  0  0
 11 13  4  0  0  0
 12 14  4  0  0  0
 13 14  4  0  0  0
 15 16  1  0  0  0
 16 17  1  0  0  0
 16 19  1  0  0  0
 17 18  2  0  0  0
 17 25  1  0  0  0
 19 20  1  0  0  0
 20 21  4  0  0  0
 20 22  4  0  0  0
 21 23  4  0  0  0
 22 24  4  0  0  0
 23 24  4  0  0  0
 25 26  1  0  0  0
 26 27  1  0  0  0
 26 29  1  0  0  0
 27 28  2  0  0  0
 27 32  1  0  0  0
 29 30  1  0  0  0
 29 31  1  0  0  0
 32 33  1  0  0  0
 33 34  1  0  0  0
 33 36  1  0  0  0
 34 35  2  0  0  0
 34 38  1  0  0  0
 36 37  1  0  0  0
  3 39  1  0  0  0
  3 40  1  0  0  0
  3 41  1  0  0  0
  4 42  1  0  0  0
  5 43  1  0  0  0
  8 44  1  0  0  0
  8 45  1  0  0  0
 10 46  1  0  0  0
 11 47  1  0  0  0
 12 48  1  0  0  0
 13 49  1  0  0  0
 14 50  1  0  0  0
 15 51  1  0  0  0
 16 52  1  0  0  0
 19 53  1  0  0  0
 19 54  1  0  0  0
 22 55  1  0  0  0
 23 56  1  0  0  0
 25 57  1  0  0  0
 26 58  1  0  0  0
 29 59  1  0  0  0
 30 60  1  0  0  0
 31 61  1  0  0  0
 31 62  1  0  0  0
 31 63  1  0  0  0
 32 64  1  0  0  0
 33 65  1  0  0  0
 36 66  1  0  0  0
 36 67  1  0  0  0
 37 68  1  0  0  0
 37 69  1  0  0  0
 37 70  1  0  0  0
 38 71  1  0  0  0
 38 72  1  0  0  0
M  END
$$$$
