4joj_ligand
  -I-interpret- 

135136  0  0  0  0  0  0  0  0999 V2000
   21.7660   21.7120   17.2320 N   0  3  0  0  0
   20.9710   22.1420   16.0860 C   0  0  0  0  0
   21.3350   23.5630   15.6490 C   0  0  0  0  0
   21.7250   24.3920   16.4730 O   0  0  0  0  0
   19.4740   22.0360   16.4010 C   0  0  0  0  0
   19.1490   22.6830   17.6230 O   0  0  0  0  0
   21.2150   23.8330   14.3510 N   0  0  0  0  0
   21.5010   25.1600   13.8120 C   0  0  0  0  0
   20.7120   26.2170   14.5730 C   0  0  0  0  0
   21.2470   27.2580   14.9550 O   0  0  0  0  0
   21.1600   25.2220   12.3200 C   0  0  0  0  0
   21.4050   26.5840   11.6810 C   0  0  0  0  0
   21.3110   26.5280   10.1580 C   0  0  0  0  0
   19.9680   26.1980    9.6850 N   0  0  0  0  0
   19.5980   24.9970    9.2510 C   0  0  0  0  0
   20.4740   24.0010    9.2240 N   0  0  0  0  0
   18.3530   24.7910    8.8390 N   0  0  0  0  0
   19.4330   25.9380   14.7880 N   0  0  0  0  0
   18.5790   26.8130   15.5730 C   0  0  0  0  0
   18.0310   26.0340   16.7600 C   0  0  0  0  0
   18.1790   24.8170   16.8140 O   0  0  0  0  0
   17.4430   27.3390   14.7060 C   0  0  0  0  0
   17.9080   28.0500   13.4720 C   0  0  0  0  0
   18.5830   29.2560   13.5640 C   0  0  0  0  0
   17.6660   27.5190   12.2160 C   0  0  0  0  0
   19.0110   29.9160   12.4270 C   0  0  0  0  0
   18.0910   28.1780   11.0770 C   0  0  0  0  0
   18.7650   29.3740   11.1850 C   0  0  0  0  0
   17.3880   26.7280   17.7140 N   0  0  0  0  0
   16.8760   26.0350   18.9040 C   0  0  0  0  0
   15.9270   24.8830   18.5680 C   0  0  0  0  0
   15.2290   24.9260   17.5570 O   0  0  0  0  0
   16.1370   27.1410   19.6750 C   0  0  0  0  0
   15.9250   28.2360   18.6900 C   0  0  0  0  0
   17.0730   28.1650   17.7360 C   0  0  0  0  0
   15.9280   23.8610   19.4140 N   0  0  0  0  0
   15.0630   22.7070   19.2300 C   0  0  0  0  0
   14.2440   22.5250   20.4920 C   0  0  0  0  0
   14.7640   22.6690   21.5970 O   0  0  0  0  0
   15.8930   21.4470   18.9730 C   0  0  0  0  0
   16.5940   21.6020   17.7370 O   0  0  0  0  0
   15.0040   20.2010   18.8940 C   0  0  0  0  0
   12.9620   22.2050   20.3350 N   0  0  0  0  0
   12.1060   21.8720   21.4610 C   0  0  0  0  0
   11.5170   20.4860   21.2640 C   0  0  0  0  0
   11.0890   20.1370   20.1530 O   0  0  0  0  0
   10.9690   22.8830   21.6120 C   0  0  0  0  0
   11.4700   24.1670   21.9440 O   0  0  0  0  0
   11.5010   19.6990   22.3350 N   0  0  0  0  0
   10.8250   18.4070   22.3370 C   0  0  0  0  0
    9.4060   18.6450   22.8300 C   0  0  0  0  0
    9.2080   19.2610   23.8790 O   0  0  0  0  0
   11.5400   17.4310   23.2900 C   0  0  0  0  0
   13.0030   17.2350   22.8830 C   0  0  0  0  0
   10.8020   16.1080   23.3820 C   0  0  0  0  0
   13.8870   16.7590   24.0310 C   0  0  0  0  0
    8.4230   18.1630   22.0740 N   0  0  0  0  0
    7.0140   18.4250   22.3630 C   0  0  0  0  0
    6.1430   17.1970   22.1300 C   0  0  0  0  0
    6.6050   16.1580   21.6120 O   0  0  0  0  0
    6.4620   19.6010   21.5140 C   0  0  0  0  0
    6.5080   19.2830   20.0220 C   0  0  0  0  0
    7.2230   20.8950   21.7970 C   0  0  0  0  0
    5.8750   20.3600   19.1410 C   0  0  0  0  0
    4.9500   17.2520   22.4590 O   0  0  0  0  0
   22.7574   21.7891   17.0047 H   0  0  0  0  0
   21.5527   22.3050   18.0340 H   0  0  0  0  0
   21.5416   20.7424   17.4554 H   0  0  0  0  0
   21.1996   21.4758   15.2541 H   0  0  0  0  0
   19.2151   20.9810   16.4907 H   0  0  0  0  0
   18.9182   22.5191   15.5974 H   0  0  0  0  0
   18.2073   22.5974   17.7885 H   0  0  0  0  0
   20.9153   23.0933   13.7158 H   0  0  0  0  0
   22.5662   25.3578   13.9317 H   0  0  0  0  0
   20.0957   25.0076   12.2235 H   0  0  0  0  0
   21.8065   24.5066   11.8117 H   0  0  0  0  0
   22.4104   26.9094   11.9482 H   0  0  0  0  0
   20.6419   27.2725   12.0440 H   0  0  0  0  0
   21.9883   25.7480    9.8103 H   0  0  0  0  0
   21.5681   27.5141    9.7713 H   0  0  0  0  0
   19.2673   26.9392    9.6881 H   0  0  0  0  0
   21.4325   24.1562    9.5364 H   0  0  0  0  0
   18.0728   23.8695    8.5032 H   0  0  0  0  0
   17.6766   25.5542    8.8582 H   0  0  0  0  0
   19.0381   25.0854   14.3911 H   0  0  0  0  0
   19.1532   27.6645   15.9382 H   0  0  0  0  0
   16.8815   28.0567   15.3041 H   0  0  0  0  0
   16.8530   26.4805   14.3851 H   0  0  0  0  0
   18.7791   29.6899   14.5445 H   0  0  0  0  0
   17.1349   26.5716   12.1243 H   0  0  0  0  0
   19.5423   30.8638   12.5134 H   0  0  0  0  0
   17.8926   27.7509   10.0940 H   0  0  0  0  0
   19.1038   29.8917   10.2876 H   0  0  0  0  0
   17.6814   25.5661   19.4693 H   0  0  0  0  0
   16.7130   27.4825   20.5351 H   0  0  0  0  0
   15.1924   26.7815   20.0831 H   0  0  0  0  0
   15.8834   29.2068   19.1839 H   0  0  0  0  0
   14.9739   28.1191   18.1705 H   0  0  0  0  0
   16.8313   28.5621   16.7501 H   0  0  0  0  0
   17.9187   28.7807   18.0423 H   0  0  0  0  0
   16.5549   23.8856   20.2182 H   0  0  0  0  0
   14.4141   22.8697   18.3695 H   0  0  0  0  0
   16.5911   21.3158   19.7998 H   0  0  0  0  0
   17.1181   20.8159   17.5669 H   0  0  0  0  0
   14.4684   20.0781   19.8353 H   0  0  0  0  0
   14.2886   20.3177   18.0800 H   0  0  0  0  0
   15.6250   19.3242   18.7107 H   0  0  0  0  0
   12.5676   22.1931   19.3944 H   0  0  0  0  0
   12.7145   21.8969   22.3650 H   0  0  0  0  0
   10.3081   22.5485   22.4117 H   0  0  0  0  0
   10.4341   22.9511   20.6647 H   0  0  0  0  0
   10.7380   24.7817   22.0329 H   0  0  0  0  0
   11.9767   20.0087   23.1825 H   0  0  0  0  0
   10.8305   17.9729   21.3372 H   0  0  0  0  0
   11.5340   17.8735   24.2861 H   0  0  0  0  0
   13.3853   18.1998   22.5496 H   0  0  0  0  0
   13.0303   16.4709   22.1061 H   0  0  0  0  0
    9.7930   16.2815   23.7561 H   0  0  0  0  0
   10.7509   15.6524   22.3931 H   0  0  0  0  0
   11.3339   15.4433   24.0627 H   0  0  0  0  0
   13.8638   17.4947   24.8349 H   0  0  0  0  0
   13.5165   15.8030   24.4009 H   0  0  0  0  0
   14.9103   16.6403   23.6748 H   0  0  0  0  0
    8.6608   17.5904   21.2641 H   0  0  0  0  0
    6.9713   18.6926   23.4188 H   0  0  0  0  0
    7.5371   16.2847   21.4201 H   0  0  0  0  0
    5.4204   19.7413   21.8030 H   0  0  0  0  0
    5.9425   18.3639   19.8683 H   0  0  0  0  0
    7.5577   19.2070   19.7384 H   0  0  0  0  0
    7.1225   21.1509   22.8518 H   0  0  0  0  0
    8.2765   20.7559   21.5544 H   0  0  0  0  0
    6.8111   21.6983   21.1861 H   0  0  0  0  0
    4.8268   20.4812   19.4142 H   0  0  0  0  0
    6.4014   21.3031   19.2875 H   0  0  0  0  0
    5.9470   20.0609   18.0953 H   0  0  0  0  0
  1  2  1  0  0  0
  2  3  1  0  0  0
  2  5  1  0  0  0
  3  4  2  0  0  0
  3  7  1  0  0  0
  5  6  1  0  0  0
  7  8  1  0  0  0
  8  9  1  0  0  0
  8 11  1  0  0  0
  9 10  2  0  0  0
  9 18  1  0  0  0
 11 12  1  0  0  0
 12 13  1  0  0  0
 13 14  1  0  0  0
 14 15  1  0  0  0
 15 16  2  0  0  0
 15 17  1  0  0  0
 18 19  1  0  0  0
 19 20  1  0  0  0
 19 22  1  0  0  0
 20 21  2  0  0  0
 20 29  1  0  0  0
 22 23  1  0  0  0
 23 24  4  0  0  0
 23 25  4  0  0  0
 24 26  4  0  0  0
 25 27  4  0  0  0
 26 28  4  0  0  0
 27 28  4  0  0  0
 29 30  1  0  0  0
 29 35  1  0  0  0
 30 31  1  0  0  0
 30 33  1  0  0  0
 31 32  2  0  0  0
 31 36  1  0  0  0
 33 34  1  0  0  0
 34 35  1  0  0  0
 36 37  1  0  0  0
 37 38  1  0  0  0
 37 40  1  0  0  0
 38 39  2  0  0  0
 38 43  1  0  0  0
 40 41  1  0  0  0
 40 42  1  0  0  0
 43 44  1  0  0  0
 44 45  1  0  0  0
 44 47  1  0  0  0
 45 46  2  0  0  0
 45 49  1  0  0  0
 47 48  1  0  0  0
 49 50  1  0  0  0
 50 51  1  0  0  0
 50 53  1  0  0  0
 51 52  2  0  0  0
 51 57  1  0  0  0
 53 54  1  0  0  0
 53 55  1  0  0  0
 54 56  1  0  0  0
 57 58  1  0  0  0
 58 59  1  0  0  0
 58 61  1  0  0  0
 59 60  1  0  0  0
 59 65  2  0  0  0
 61 62  1  0  0  0
 61 63  1  0  0  0
 62 64  1  0  0  0
  1 66  1  0  0  0
  1 67  1  0  0  0
  1 68  1  0  0  0
  2 69  1  0  0  0
  5 70  1  0  0  0
  5 71  1  0  0  0
  6 72  1  0  0  0
  7 73  1  0  0  0
  8 74  1  0  0  0
 11 75  1  0  0  0
 11 76  1  0  0  0
 12 77  1  0  0  0
 12 78  1  0  0  0
 13 79  1  0  0  0
 13 80  1  0  0  0
 14 81  1  0  0  0
 16 82  1  0  0  0
 17 83  1  0  0  0
 17 84  1  0  0  0
 18 85  1  0  0  0
 19 86  1  0  0  0
 22 87  1  0  0  0
 22 88  1  0  0  0
 24 89  1  0  0  0
 25 90  1  0  0  0
 26 91  1  0  0  0
 27 92  1  0  0  0
 28 93  1  0  0  0
 30 94  1  0  0  0
 33 95  1  0  0  0
 33 96  1  0  0  0
 34 97  1  0  0  0
 34 98  1  0  0  0
 35 99  1  0  0  0
 35100  1  0  0  0
 36101  1  0  0  0
 37102  1  0  0  0
 40103  1  0  0  0
 41104  1  0  0  0
 42105  1  0  0  0
 42106  1  0  0  0
 42107  1  0  0  0
 43108  1  0  0  0
 44109  1  0  0  0
 47110  1  0  0  0
 47111  1  0  0  0
 48112  1  0  0  0
 49113  1  0  0  0
 50114  1  0  0  0
 53115  1  0  0  0
 54116  1  0  0  0
 54117  1  0  0  0
 55118  1  0  0  0
 55119  1  0  0  0
 55120  1  0  0  0
 56121  1  0  0  0
 56122  1  0  0  0
 56123  1  0  0  0
 57124  1  0  0  0
 58125  1  0  0  0
 60126  1  0  0  0
 61127  1  0  0  0
 62128  1  0  0  0
 62129  1  0  0  0
 63130  1  0  0  0
 63131  1  0  0  0
 63132  1  0  0  0
 64133  1  0  0  0
 64134  1  0  0  0
 64135  1  0  0  0
M  END
$$$$
