### 
### Created by X-TOOL on Mon Sep 10 21:13:18 2018
### 

@<TRIPOS>MOLECULE
4joj_ligand
  135   136     1     0     0
SMALL
GAST_HUCK


@<TRIPOS>ATOM
      1 N          21.7660   21.7120   17.2320 N.4       1 SER         0.2396
      2 CA         20.9710   22.1420   16.0860 C.3       1 SER         0.0885
      3 C          21.3350   23.5630   15.6490 C.2       1 SER         0.2290
      4 O          21.7250   24.3920   16.4730 O.2       1 SER        -0.3906
      5 CB         19.4740   22.0360   16.4010 C.3       1 SER         0.1041
      6 OG         19.1490   22.6830   17.6230 O.3       1 SER        -0.3870
      7 N          21.2150   23.8330   14.3510 N.am      1 ARG        -0.2609
      8 CA         21.5010   25.1600   13.8120 C.3       1 ARG         0.1312
      9 C          20.7120   26.2170   14.5730 C.2       1 ARG         0.2040
     10 O          21.2470   27.2580   14.9550 O.2       1 ARG        -0.3944
     11 CB         21.1600   25.2220   12.3200 C.3       1 ARG        -0.0092
     12 CG         21.4050   26.5840   11.6810 C.3       1 ARG        -0.0156
     13 CD         21.3110   26.5280   10.1580 C.3       1 ARG         0.0627
     14 NE         19.9680   26.1980    9.6850 N.pl3     1 ARG        -0.2723
     15 CZ         19.5980   24.9970    9.2510 C.cat     1 ARG         0.2882
     16 NH1        20.4740   24.0010    9.2240 N.pl3     1 ARG        -0.2849
     17 NH2        18.3530   24.7910    8.8390 N.pl3     1 ARG        -0.2849
     18 N          19.4330   25.9380   14.7880 N.am      1 PHE        -0.2619
     19 CA         18.5790   26.8130   15.5730 C.3       1 PHE         0.1406
     20 C          18.0310   26.0340   16.7600 C.2       1 PHE         0.2085
     21 O          18.1790   24.8170   16.8140 O.2       1 PHE        -0.3940
     22 CB         17.4430   27.3390   14.7060 C.3       1 PHE         0.0214
     23 CG         17.9080   28.0500   13.4720 C.ar      1 PHE        -0.0386
     24 CD1        18.5830   29.2560   13.5640 C.ar      1 PHE        -0.0601
     25 CD2        17.6660   27.5190   12.2160 C.ar      1 PHE        -0.0601
     26 CE1        19.0110   29.9160   12.4270 C.ar      1 PHE        -0.0686
     27 CE2        18.0910   28.1780   11.0770 C.ar      1 PHE        -0.0686
     28 CZ         18.7650   29.3740   11.1850 C.ar      1 PHE        -0.0687
     29 N          17.3880   26.7280   17.7140 N.am      1 PRO        -0.2497
     30 CA         16.8760   26.0350   18.9040 C.3       1 PRO         0.1338
     31 C          15.9270   24.8830   18.5680 C.2       1 PRO         0.2042
     32 O          15.2290   24.9260   17.5570 O.2       1 PRO        -0.3944
     33 CB         16.1370   27.1410   19.6750 C.3       1 PRO        -0.0104
     34 CG         15.9250   28.2360   18.6900 C.3       1 PRO        -0.0281
     35 CD         17.0730   28.1650   17.7360 C.3       1 PRO         0.0369
     36 N          15.9280   23.8610   19.4140 N.am      1 THR        -0.2613
     37 CA         15.0630   22.7070   19.2300 C.3       1 THR         0.1565
     38 C          14.2440   22.5250   20.4920 C.2       1 THR         0.2065
     39 O          14.7640   22.6690   21.5970 O.2       1 THR        -0.3943
     40 CB         15.8930   21.4470   18.9730 C.3       1 THR         0.0924
     41 OG1        16.5940   21.6020   17.7370 O.3       1 THR        -0.3874
     42 CG2        15.0040   20.2010   18.8940 C.3       1 THR        -0.0346
     43 N          12.9620   22.2050   20.3350 N.am      1 SER        -0.2615
     44 CA         12.1060   21.8720   21.4610 C.3       1 SER         0.1539
     45 C          11.5170   20.4860   21.2640 C.2       1 SER         0.2062
     46 O          11.0890   20.1370   20.1530 O.2       1 SER        -0.3943
     47 CB         10.9690   22.8830   21.6120 C.3       1 SER         0.0843
     48 OG         11.4700   24.1670   21.9440 O.3       1 SER        -0.3903
     49 N          11.5010   19.6990   22.3350 N.am      1 ILE        -0.2634
     50 CA         10.8250   18.4070   22.3370 C.3       1 ILE         0.1335
     51 C           9.4060   18.6450   22.8300 C.2       1 ILE         0.2036
     52 O           9.2080   19.2610   23.8790 O.2       1 ILE        -0.3944
     53 CB         11.5400   17.4310   23.2900 C.3       1 ILE        -0.0037
     54 CG1        13.0030   17.2350   22.8830 C.3       1 ILE        -0.0491
     55 CG2        10.8020   16.1080   23.3820 C.3       1 ILE        -0.0582
     56 CD1        13.8870   16.7590   24.0310 C.3       1 ILE        -0.0648
     57 N           8.4230   18.1630   22.0740 N.am      1 ILE        -0.2692
     58 CA          7.0140   18.4250   22.3630 C.3       1 ILE         0.0969
     59 C           6.1430   17.1970   22.1300 C.2       1 ILE         0.0604
     60 O           6.6050   16.1580   21.6120 O.co2     1 ILE        -0.5666
     61 CB          6.4620   19.6010   21.5140 C.3       1 ILE        -0.0092
     62 CG1         6.5080   19.2830   20.0220 C.3       1 ILE        -0.0497
     63 CG2         7.2230   20.8950   21.7970 C.3       1 ILE        -0.0588
     64 CD1         5.8750   20.3600   19.1410 C.3       1 ILE        -0.0649
     65 OXT         4.9500   17.2520   22.4590 O.co2     1 ILE        -0.5666
     66 H          21.5009   20.7749   17.4922 H         1 SER         0.2016
     67 H          21.6022   22.3350   18.0073 H         1 SER         0.2016
     68 H          22.7439   21.7290   16.9880 H         1 SER         0.2016
     69 H          21.1919   21.4646   15.2479 H         1 SER         0.1122
     70 H          19.1994   20.9735   16.4758 H         1 SER         0.0640
     71 H          18.9037   22.5056   15.5860 H         1 SER         0.0640
     72 H          18.2171   22.5983   17.7868 H         1 SER         0.2099
     73 H          20.9212   23.1078   13.7283 H         1 ARG         0.1884
     74 H          22.5747   25.3646   13.9353 H         1 ARG         0.0800
     75 H          20.0963   24.9698   12.1981 H         1 ARG         0.0313
     76 H          21.7760   24.4779   11.7938 H         1 ARG         0.0313
     77 H          22.4099   26.9322   11.9619 H         1 ARG         0.0301
     78 H          20.6528   27.2930   12.0571 H         1 ARG         0.0301
     79 H          22.0108   25.7630    9.7906 H         1 ARG         0.0689
     80 H          21.5951   27.5101    9.7520 H         1 ARG         0.0689
     81 H          19.2604   26.9465    9.6881 H         1 ARG         0.2642
     82 H          20.1862   23.0710    8.8876 H         1 ARG         0.2615
     83 H          21.4419   24.1577    9.5395 H         1 ARG         0.2615
     84 H          17.6699   25.5617    8.8584 H         1 ARG         0.2615
     85 H          18.0701   23.8605    8.4999 H         1 ARG         0.2615
     86 H          19.0458   25.1021   14.3989 H         1 PHE         0.1885
     87 H          19.1708   27.6637   15.9419 H         1 PHE         0.0823
     88 H          16.8439   28.0399   15.3059 H         1 PHE         0.0474
     89 H          16.8159   26.4882   14.4013 H         1 PHE         0.0474
     90 H          18.7780   29.6875   14.5391 H         1 PHE         0.0557
     91 H          17.1378   26.5768   12.1248 H         1 PHE         0.0557
     92 H          19.5394   30.8586   12.5130 H         1 PHE         0.0599
     93 H          17.8937   27.7532   10.0994 H         1 PHE         0.0599
     94 H          19.1019   29.8888   10.2925 H         1 PHE         0.0559
     95 H          17.7120   25.6404   19.5001 H         1 PRO         0.0802
     96 H          16.7472   27.4954   20.5188 H         1 PRO         0.0313
     97 H          15.1723   26.7694   20.0507 H         1 PRO         0.0313
     98 H          15.9124   29.2106   19.1998 H         1 PRO         0.0287
     99 H          14.9750   28.0895   18.1552 H         1 PRO         0.0287
    100 H          16.7813   28.5223   16.7374 H         1 PRO         0.0524
    101 H          17.9283   28.7529   18.1005 H         1 PRO         0.0524
    102 H          16.5426   23.8852   20.2025 H         1 THR         0.1884
    103 H          14.3939   22.8815   18.3745 H         1 THR         0.0826
    104 H          16.6162   21.3196   19.7920 H         1 THR         0.0639
    105 H          17.1126   20.8240   17.5686 H         1 THR         0.2101
    106 H          15.6296   19.3154   18.7090 H         1 THR         0.0257
    107 H          14.2815   20.3175   18.0728 H         1 THR         0.0257
    108 H          14.4629   20.0758   19.8435 H         1 THR         0.0257
    109 H          12.5754   22.1933   19.4128 H         1 SER         0.1884
    110 H          12.7117   21.8794   22.3792 H         1 SER         0.0823
    111 H          10.2906   22.5447   22.4091 H         1 SER         0.0606
    112 H          10.4165   22.9471   20.6630 H         1 SER         0.0606
    113 H          12.0539   24.4654   21.2565 H         1 SER         0.2097
    114 H          11.9674   20.0026   23.1658 H         1 ILE         0.1883
    115 H          10.8100   17.9868   21.3205 H         1 ILE         0.0803
    116 H          11.5336   17.8824   24.2931 H         1 ILE         0.0345
    117 H          13.3950   18.1944   22.5145 H         1 ILE         0.0267
    118 H          13.0446   16.4879   22.0767 H         1 ILE         0.0267
    119 H           9.7578   16.2903   23.6759 H         1 ILE         0.0235
    120 H          11.2880   15.4685   24.1335 H         1 ILE         0.0235
    121 H          10.8252   15.6063   22.4033 H         1 ILE         0.0235
    122 H          14.9201   16.6388   23.6727 H         1 ILE         0.0230
    123 H          13.5141   15.7942   24.4052 H         1 ILE         0.0230
    124 H          13.8645   17.5007   24.8430 H         1 ILE         0.0230
    125 H           8.6562   17.6016   21.2800 H         1 ILE         0.1875
    126 H           6.9384   18.7022   23.4248 H         1 ILE         0.0729
    127 H           5.4103   19.7550   21.7971 H         1 ILE         0.0338
    128 H           5.9722   18.3374   19.8524 H         1 ILE         0.0267
    129 H           7.5606   19.1665   19.7247 H         1 ILE         0.0267
    130 H           7.1840   21.1152   22.8740 H         1 ILE         0.0234
    131 H           6.7617   21.7217   21.2368 H         1 ILE         0.0234
    132 H           8.2712   20.7799   21.4841 H         1 ILE         0.0234
    133 H           5.9471   20.0592   18.0854 H         1 ILE         0.0230
    134 H           6.4054   21.3124   19.2879 H         1 ILE         0.0230
    135 H           4.8170   20.4833   19.4156 H         1 ILE         0.0230
@<TRIPOS>BOND
     1    1    2 1  
     2    2    3 1  
     3    2    5 1  
     4    3    4 2  
     5    3    7 am 
     6    5    6 1  
     7    7    8 1  
     8    8    9 1  
     9    8   11 1  
    10    9   10 2  
    11    9   18 am 
    12   11   12 1  
    13   12   13 1  
    14   13   14 1  
    15   14   15 ar 
    16   15   16 ar 
    17   15   17 ar 
    18   18   19 1  
    19   19   20 1  
    20   19   22 1  
    21   20   21 2  
    22   20   29 am 
    23   22   23 1  
    24   23   24 ar 
    25   23   25 ar 
    26   24   26 ar 
    27   25   27 ar 
    28   26   28 ar 
    29   27   28 ar 
    30   29   30 1  
    31   29   35 1  
    32   30   31 1  
    33   30   33 1  
    34   31   32 2  
    35   31   36 am 
    36   33   34 1  
    37   34   35 1  
    38   36   37 1  
    39   37   38 1  
    40   37   40 1  
    41   38   39 2  
    42   38   43 am 
    43   40   41 1  
    44   40   42 1  
    45   43   44 1  
    46   44   45 1  
    47   44   47 1  
    48   45   46 2  
    49   45   49 am 
    50   47   48 1  
    51   49   50 1  
    52   50   51 1  
    53   50   53 1  
    54   51   52 2  
    55   51   57 am 
    56   53   54 1  
    57   53   55 1  
    58   54   56 1  
    59   57   58 1  
    60   58   59 1  
    61   58   61 1  
    62   59   60 ar 
    63   59   65 ar 
    64   61   62 1  
    65   61   63 1  
    66   62   64 1  
    67    1   66 1  
    68    1   67 1  
    69    1   68 1  
    70    2   69 1  
    71    5   70 1  
    72    5   71 1  
    73    6   72 1  
    74    7   73 1  
    75    8   74 1  
    76   11   75 1  
    77   11   76 1  
    78   12   77 1  
    79   12   78 1  
    80   13   79 1  
    81   13   80 1  
    82   14   81 1  
    83   16   82 1  
    84   16   83 1  
    85   17   84 1  
    86   17   85 1  
    87   18   86 1  
    88   19   87 1  
    89   22   88 1  
    90   22   89 1  
    91   24   90 1  
    92   25   91 1  
    93   26   92 1  
    94   27   93 1  
    95   28   94 1  
    96   30   95 1  
    97   33   96 1  
    98   33   97 1  
    99   34   98 1  
   100   34   99 1  
   101   35  100 1  
   102   35  101 1  
   103   36  102 1  
   104   37  103 1  
   105   40  104 1  
   106   41  105 1  
   107   42  106 1  
   108   42  107 1  
   109   42  108 1  
   110   43  109 1  
   111   44  110 1  
   112   47  111 1  
   113   47  112 1  
   114   48  113 1  
   115   49  114 1  
   116   50  115 1  
   117   53  116 1  
   118   54  117 1  
   119   54  118 1  
   120   55  119 1  
   121   55  120 1  
   122   55  121 1  
   123   56  122 1  
   124   56  123 1  
   125   56  124 1  
   126   57  125 1  
   127   58  126 1  
   128   61  127 1  
   129   62  128 1  
   130   62  129 1  
   131   63  130 1  
   132   63  131 1  
   133   63  132 1  
   134   64  133 1  
   135   64  134 1  
   136   64  135 1  
@<TRIPOS>SUBSTRUCTURE
     1 SER         1

