3zlx_ligand
  -I-interpret- 

 39 41  0  0  0  0  0  0  0  0999 V2000
  -14.1690   23.0800   -4.4850 N   0  3  0  0  0
  -15.4140   23.9130   -4.5070 C   0  0  0  0  0
  -13.0530   24.0640   -4.3720 C   0  0  0  0  0
  -15.1250   25.0650   -3.5010 C   0  0  0  0  0
  -13.6420   25.3560   -3.7290 C   0  0  0  0  0
  -15.9810   26.2860   -3.7710 C   0  0  0  0  0
  -17.2070   25.9850   -3.0950 O   0  0  0  0  0
  -20.8020   26.9370   -2.8900 C   0  0  0  0  0
  -19.5430   26.1450   -2.7100 C   0  0  0  0  0
  -18.3750   26.7320   -3.4670 C   0  0  0  0  0
  -18.2270   28.1830   -3.1140 C   0  0  0  0  0
  -20.6990   28.2640   -2.9350 C   0  0  0  0  0
  -19.3650   28.9500   -2.9700 C   0  0  0  0  0
  -19.3280   30.3680   -2.7360 C   0  0  0  0  0
  -20.4720   31.0810   -2.6400 C   0  0  0  0  0
  -21.7660   30.5260   -2.7670 N   0  0  0  0  0
  -21.9410   29.1280   -3.0660 C   0  0  0  0  0
  -22.9780   28.5220   -2.4240 O   0  0  0  0  0
  -19.8050   24.4160   -3.2950 Cl  0  0  0  0  0
  -14.0833   22.5035   -5.3221 H   0  0  0  0  0
  -14.1699   22.4167   -3.7102 H   0  0  0  0  0
  -16.2971   23.3378   -4.2289 H   0  0  0  0  0
  -15.6391   24.2875   -5.5056 H   0  0  0  0  0
  -12.6316   24.2812   -5.3535 H   0  0  0  0  0
  -12.2473   23.6621   -3.7576 H   0  0  0  0  0
  -15.3575   24.7942   -2.4711 H   0  0  0  0  0
  -13.5016   26.2218   -4.3761 H   0  0  0  0  0
  -13.1367   25.6012   -2.7949 H   0  0  0  0  0
  -16.1235   26.4714   -4.8356 H   0  0  0  0  0
  -15.5210   27.2079   -3.4151 H   0  0  0  0  0
  -21.7697   26.4437   -2.9811 H   0  0  0  0  0
  -19.3059   26.1682   -1.6463 H   0  0  0  0  0
  -18.5256   26.6693   -4.5447 H   0  0  0  0  0
  -17.2395   28.6227   -2.9740 H   0  0  0  0  0
  -18.3674   30.8732   -2.6350 H   0  0  0  0  0
  -20.3919   32.1518   -2.4528 H   0  0  0  0  0
  -22.5847   31.1222   -2.6455 H   0  0  0  0  0
  -22.1875   29.1879   -4.1261 H   0  0  0  0  0
  -23.7648   29.0660   -2.5051 H   0  0  0  0  0
  2  1  1  0  0  0
  3  1  1  0  0  0
  4  2  1  0  0  0
  5  3  1  0  0  0
  4  5  1  0  0  0
  6  4  1  0  0  0
  7  6  1  0  0  0
 10  7  1  0  0  0
  9  8  1  0  0  0
  8 12  2  0  0  0
  9 10  1  0  0  0
  9 19  1  0  0  0
 10 11  1  0  0  0
 11 13  2  0  0  0
 12 13  1  0  0  0
 12 17  1  0  0  0
 13 14  1  0  0  0
 14 15  2  0  0  0
 15 16  1  0  0  0
 16 17  1  0  0  0
 17 18  1  0  0  0
  1 20  1  0  0  0
  1 21  1  0  0  0
  2 22  1  0  0  0
  2 23  1  0  0  0
  3 24  1  0  0  0
  3 25  1  0  0  0
  4 26  1  0  0  0
  5 27  1  0  0  0
  5 28  1  0  0  0
  6 29  1  0  0  0
  6 30  1  0  0  0
  8 31  1  0  0  0
  9 32  1  0  0  0
 10 33  1  0  0  0
 11 34  1  0  0  0
 14 35  1  0  0  0
 15 36  1  0  0  0
 16 37  1  0  0  0
 17 38  1  0  0  0
 18 39  1  0  0  0
M  END
$$$$
