5cs6_ligand
  -I-interpret- 

 28 28  0  0  0  0  0  0  0  0999 V2000
   34.8480  152.3520  337.7990 Cl  0  0  0  0  0
   33.6650  153.6000  337.5830 C   0  0  0  0  0
   33.7710  154.7600  338.3220 C   0  0  0  0  0
   32.8370  155.7760  338.1700 C   0  0  0  0  0
   32.9770  157.0330  338.9720 C   0  0  0  0  0
   34.0180  157.8620  338.3610 N   0  3  0  0  0
   31.8010  155.5890  337.2650 C   0  0  0  0  0
   31.6920  154.4270  336.5230 C   0  0  0  0  0
   32.6290  153.4190  336.6760 C   0  0  0  0  0
   32.6150  152.2290  335.9980 O   0  0  0  0  0
   31.7880  152.1320  334.8300 C   0  0  0  0  0
   31.4400  150.6980  334.5930 C   0  0  0  0  0
   30.1760  150.5450  333.7920 C   0  0  0  0  0
   34.5921  154.8796  339.0288 H   0  0  0  0  0
   33.2504  156.7901  339.9988 H   0  0  0  0  0
   32.0306  157.5737  338.9837 H   0  0  0  0  0
   34.1242  158.7228  338.8978 H   0  0  0  0  0
   34.9004  157.3505  338.3584 H   0  0  0  0  0
   33.7520  158.0882  337.4026 H   0  0  0  0  0
   31.0571  156.3753  337.1364 H   0  0  0  0  0
   30.8693  154.3048  335.8185 H   0  0  0  0  0
   32.3253  152.5257  333.9672 H   0  0  0  0  0
   30.8761  152.7104  334.9781 H   0  0  0  0  0
   31.2876  150.2215  335.5614 H   0  0  0  0  0
   32.2545  150.2396  334.0322 H   0  0  0  0  0
   29.3490  151.0106  334.3281 H   0  0  0  0  0
   30.3006  151.0284  332.8231 H   0  0  0  0  0
   29.9656  149.4854  333.6464 H   0  0  0  0  0
  1  2  1  0  0  0
  2  3  4  0  0  0
  2  9  4  0  0  0
  3  4  4  0  0  0
  4  5  1  0  0  0
  4  7  4  0  0  0
  5  6  1  0  0  0
  7  8  4  0  0  0
  8  9  4  0  0  0
  9 10  1  0  0  0
 10 11  1  0  0  0
 11 12  1  0  0  0
 12 13  1  0  0  0
  3 14  1  0  0  0
  5 15  1  0  0  0
  5 16  1  0  0  0
  6 17  1  0  0  0
  6 18  1  0  0  0
  6 19  1  0  0  0
  7 20  1  0  0  0
  8 21  1  0  0  0
 11 22  1  0  0  0
 11 23  1  0  0  0
 12 24  1  0  0  0
 12 25  1  0  0  0
 13 26  1  0  0  0
 13 27  1  0  0  0
 13 28  1  0  0  0
M  END
$$$$
