5c2o_ligand
  -I-interpret- 

 46 47  0  0  0  0  0  0  0  0999 V2000
   67.0270   56.4620   38.8800 P   0  0  0  0  0
   66.6320   56.6950   37.4380 O   0  0  0  0  0
   65.8120   56.0830   39.7040 O   0  0  0  0  0
   68.2090   55.3570   39.0850 O   0  0  0  0  0
   68.6060   54.1580   38.0620 P   0  0  0  0  0
   67.5910   54.0270   36.9300 O   0  0  0  0  0
   68.7790   52.8350   38.7820 O   0  0  0  0  0
   70.0810   54.5900   37.5410 O   0  0  0  0  0
   70.3840   55.4410   36.1900 P   0  0  0  0  0
   71.0470   54.5190   35.1850 O   0  0  0  0  0
   71.3250   56.5730   36.5450 O   0  0  0  0  0
   69.1210   56.0810   35.6430 O   0  0  0  0  0
   67.7540   57.7910   39.4600 O   0  0  0  0  0
   68.6330   58.5280   38.6120 C   0  0  0  0  0
   68.8450   59.9470   39.1230 C   0  0  0  0  0
   68.7650   60.0010   40.5500 O   0  0  0  0  0
   70.2350   60.4180   38.7610 C   0  0  0  0  0
   70.1070   61.7820   38.3830 O   0  0  0  0  0
   71.0390   60.3720   40.0500 C   0  0  0  0  0
   69.9810   60.4700   41.1370 C   0  0  0  0  0
   70.3220   59.7040   42.3570 N   0  0  0  0  0
   71.2540   60.2670   43.2750 C   0  0  0  0  0
   71.7670   61.3860   43.0220 O   0  0  0  0  0
   71.5930   59.6310   44.4220 N   0  0  0  0  0
   71.0590   58.4330   44.7180 C   0  0  0  0  0
   71.3770   57.8510   45.7810 O   0  0  0  0  0
   70.0850   57.8080   43.7670 C   0  0  0  0  0
   69.4630   56.4600   44.0770 C   0  0  0  0  0
   69.7560   58.5040   42.6020 C   0  0  0  0  0
   66.0772   55.9384   40.6152 H   0  0  0  0  0
   67.4959   54.8736   36.4874 H   0  0  0  0  0
   70.4462   53.8037   34.9638 H   0  0  0  0  0
   68.4936   55.3948   35.4041 H   0  0  0  0  0
   68.1881   58.5824   37.6184 H   0  0  0  0  0
   69.5978   58.0212   38.5919 H   0  0  0  0  0
   68.0717   60.5687   38.6717 H   0  0  0  0  0
   70.6966   59.8245   37.9719 H   0  0  0  0  0
   70.9694   62.1285   38.1425 H   0  0  0  0  0
   71.7739   61.1746   40.1110 H   0  0  0  0  0
   71.6393   59.4661   40.1340 H   0  0  0  0  0
   69.8952   61.5014   41.4789 H   0  0  0  0  0
   72.2569   60.0632   45.0645 H   0  0  0  0  0
   68.3804   56.5676   44.1439 H   0  0  0  0  0
   69.7110   55.7556   43.2830 H   0  0  0  0  0
   69.8521   56.0914   45.0261 H   0  0  0  0  0
   69.0448   58.0795   41.8934 H   0  0  0  0  0
  1  2  2  0  0  0
  1  3  1  0  0  0
  1  4  1  0  0  0
  1 13  1  0  0  0
  4  5  1  0  0  0
  5  6  1  0  0  0
  5  7  2  0  0  0
  5  8  1  0  0  0
  8  9  1  0  0  0
  9 10  1  0  0  0
  9 11  2  0  0  0
  9 12  1  0  0  0
 13 14  1  0  0  0
 14 15  1  0  0  0
 15 16  1  0  0  0
 15 17  1  0  0  0
 16 20  1  0  0  0
 17 18  1  0  0  0
 17 19  1  0  0  0
 19 20  1  0  0  0
 20 21  1  0  0  0
 21 22  1  0  0  0
 21 29  1  0  0  0
 22 23  2  0  0  0
 22 24  1  0  0  0
 24 25  1  0  0  0
 25 26  2  0  0  0
 25 27  1  0  0  0
 27 28  1  0  0  0
 27 29  2  0  0  0
  3 30  1  0  0  0
  6 31  1  0  0  0
 10 32  1  0  0  0
 12 33  1  0  0  0
 14 34  1  0  0  0
 14 35  1  0  0  0
 15 36  1  0  0  0
 17 37  1  0  0  0
 18 38  1  0  0  0
 19 39  1  0  0  0
 19 40  1  0  0  0
 20 41  1  0  0  0
 24 42  1  0  0  0
 28 43  1  0  0  0
 28 44  1  0  0  0
 28 45  1  0  0  0
 29 46  1  0  0  0
M  END
$$$$
