5nka_ligand
  -I-interpret- 

 60 63  0  0  0  0  0  0  0  0999 V2000
   88.4050   17.0380    3.3770 C   0  0  0  0  0
   87.5290   17.2970    2.1390 C   0  0  0  0  0
   88.2590   18.1400    1.0600 C   0  0  0  0  0
   88.6600   17.3100   -0.1820 C   0  0  0  0  0
   89.8790   17.2020   -0.4480 O   0  0  0  0  0
   87.7220   16.8490   -0.8710 O   0  0  0  0  0
   89.4570   18.8950    1.6680 C   0  0  0  0  0
   90.4690   17.9830    2.3720 C   0  0  0  0  0
   89.8070   16.7190    2.9120 C   0  0  0  0  0
   90.6440   16.2260    4.0090 N   0  0  0  0  0
   90.7500   14.9360    4.3390 C   0  0  0  0  0
   90.2000   14.0020    3.7500 O   0  0  0  0  0
   91.6480   14.7250    5.3720 C   0  0  0  0  0
   92.9980   14.7650    5.0480 C   0  0  0  0  0
   91.2470   14.5140    6.6760 C   0  0  0  0  0
   92.2000   14.3130    7.6600 C   0  0  0  0  0
   93.5550   14.3520    7.3220 C   0  0  0  0  0
   93.9540   14.6100    6.0050 C   0  0  0  0  0
   95.2470   14.6300    5.5310 N   0  0  0  0  0
   96.2760   15.0700    6.2610 C   0  0  0  0  0
   96.1530   15.8500    7.8060 S   0  0  0  0  0
   97.5500   15.0240    5.8500 N   0  0  0  0  0
   98.4430   15.5240    6.7630 C   0  0  0  0  0
   97.8820   16.0540    7.9030 C   0  0  0  0  0
   98.4460   16.6080    9.0230 C   0  0  0  0  0
   97.7050   16.8210    9.9840 O   0  0  0  0  0
   99.7830   16.8770    9.0890 N   0  0  0  0  0
  100.3690   17.3610   10.2280 C   0  0  0  0  0
  100.6870   18.7180   10.3140 C   0  0  0  0  0
  100.2960   19.8250    9.0440 Cl  0  0  0  0  0
  101.3640   19.2090   11.4430 C   0  0  0  0  0
  101.6770   18.3570   12.4970 C   0  0  0  0  0
  101.3610   16.9990   12.4030 C   0  0  0  0  0
  100.7340   16.4950   11.2740 C   0  0  0  0  0
  100.4440   15.1080   11.2280 C   0  0  0  0  0
   88.0031   16.2022    3.9497 H   0  0  0  0  0
   88.4163   17.9204    4.0168 H   0  0  0  0  0
   86.6482   17.8527    2.4607 H   0  0  0  0  0
   87.2764   16.3327    1.6982 H   0  0  0  0  0
   87.5468   18.8821    0.6991 H   0  0  0  0  0
   90.3941   17.6398    0.2336 H   0  0  0  0  0
   89.0627   19.5824    2.4164 H   0  0  0  0  0
   89.9793   19.3899    0.8492 H   0  0  0  0  0
   90.9004   18.5303    3.2101 H   0  0  0  0  0
   91.2299   17.6905    1.6485 H   0  0  0  0  0
   89.7224   15.9502    2.1440 H   0  0  0  0  0
   91.1759   16.9066    4.5515 H   0  0  0  0  0
   93.2967   14.9229    4.0117 H   0  0  0  0  0
   90.1869   14.5057    6.9293 H   0  0  0  0  0
   91.8956   14.1259    8.6898 H   0  0  0  0  0
   94.3085   14.1800    8.0906 H   0  0  0  0  0
   95.4263   14.2954    4.5843 H   0  0  0  0  0
   99.5202   15.5032    6.5978 H   0  0  0  0  0
  100.3623   16.7126    8.2657 H   0  0  0  0  0
  101.6449   20.2610   11.4931 H   0  0  0  0  0
  102.1655   18.7460   13.3904 H   0  0  0  0  0
  101.6101   16.3291   13.2260 H   0  0  0  0  0
   99.3658   14.9658   11.1541 H   0  0  0  0  0
  100.9306   14.6650   10.3591 H   0  0  0  0  0
  100.8134   14.6306   12.1356 H   0  0  0  0  0
  1  2  1  0  0  0
  1  9  1  0  0  0
  2  3  1  0  0  0
  3  4  1  0  0  0
  3  7  1  0  0  0
  4  5  1  0  0  0
  4  6  2  0  0  0
  7  8  1  0  0  0
  8  9  1  0  0  0
  9 10  1  0  0  0
 10 11  1  0  0  0
 11 12  2  0  0  0
 11 13  1  0  0  0
 13 14  4  0  0  0
 13 15  4  0  0  0
 14 18  4  0  0  0
 15 16  4  0  0  0
 16 17  4  0  0  0
 17 18  4  0  0  0
 18 19  1  0  0  0
 19 20  1  0  0  0
 20 21  4  0  0  0
 20 22  4  0  0  0
 21 24  4  0  0  0
 22 23  4  0  0  0
 23 24  4  0  0  0
 24 25  1  0  0  0
 25 26  2  0  0  0
 25 27  1  0  0  0
 27 28  1  0  0  0
 28 29  4  0  0  0
 28 34  4  0  0  0
 29 30  1  0  0  0
 29 31  4  0  0  0
 31 32  4  0  0  0
 32 33  4  0  0  0
 33 34  4  0  0  0
 34 35  1  0  0  0
  1 36  1  0  0  0
  1 37  1  0  0  0
  2 38  1  0  0  0
  2 39  1  0  0  0
  3 40  1  0  0  0
  5 41  1  0  0  0
  7 42  1  0  0  0
  7 43  1  0  0  0
  8 44  1  0  0  0
  8 45  1  0  0  0
  9 46  1  0  0  0
 10 47  1  0  0  0
 14 48  1  0  0  0
 15 49  1  0  0  0
 16 50  1  0  0  0
 17 51  1  0  0  0
 19 52  1  0  0  0
 23 53  1  0  0  0
 27 54  1  0  0  0
 31 55  1  0  0  0
 32 56  1  0  0  0
 33 57  1  0  0  0
 35 58  1  0  0  0
 35 59  1  0  0  0
 35 60  1  0  0  0
M  END
$$$$
