5aeh_ligand
  -I-interpret- 

 52 55  0  0  0  0  0  0  0  0999 V2000
   26.0000    5.8180  -30.5290 Cl  0  0  0  0  0
   27.3790    6.2070  -29.3910 C   0  0  0  0  0
   28.5520    6.7320  -29.9340 C   0  0  0  0  0
   29.6460    7.0520  -29.1480 C   0  0  0  0  0
   29.5980    6.8630  -27.7810 C   0  0  0  0  0
   28.4500    6.3420  -27.2130 C   0  0  0  0  0
   27.3550    6.0070  -27.9950 C   0  0  0  0  0
   26.2730    5.5180  -27.3990 N   0  0  0  0  0
   25.1610    6.2510  -27.2410 C   0  0  0  0  0
   24.0220    5.7960  -27.8070 N   0  0  0  0  0
   22.8330    6.5000  -27.6710 C   0  0  0  0  0
   22.8000    7.6860  -26.9260 N   0  0  0  0  0
   23.9810    8.1460  -26.3180 C   0  0  0  0  0
   25.1560    7.4230  -26.4830 C   0  0  0  0  0
   26.2920    4.3220  -26.8420 C   0  0  0  0  0
   25.3290    3.8900  -26.2380 O   0  0  0  0  0
   27.4560    3.5670  -27.0450 C   0  0  0  0  0
   27.8250    3.3020  -28.3660 C   0  0  0  0  0
   28.9580    2.5460  -28.6610 C   0  0  0  0  0
   28.2390    3.0510  -26.0110 C   0  0  0  0  0
   29.3850    2.2990  -26.3050 C   0  0  0  0  0
   29.7610    2.0280  -27.6380 C   0  0  0  0  0
   30.8920    1.3370  -27.9670 N   0  0  0  0  0
   31.1860    0.1210  -27.4430 C   0  0  0  0  0
   30.4930   -0.5020  -26.6410 O   0  0  0  0  0
   32.4150   -0.3880  -27.8720 C   0  0  0  0  0
   32.7860   -1.7040  -27.6710 C   0  0  0  0  0
   34.0350   -2.1450  -28.0960 C   0  0  0  0  0
   34.9290   -1.2750  -28.7210 C   0  0  0  0  0
   36.1160   -1.7470  -29.1490 O   0  0  0  0  0
   37.2230   -0.8360  -29.1330 C   0  0  0  0  0
   34.5580    0.0370  -28.9350 C   0  0  0  0  0
   33.3070    0.4650  -28.5030 C   0  0  0  0  0
   28.6090    6.8953  -31.0102 H   0  0  0  0  0
   30.5478    7.4543  -29.6096 H   0  0  0  0  0
   30.4541    7.1212  -27.1577 H   0  0  0  0  0
   28.4051    6.1924  -26.1343 H   0  0  0  0  0
   21.9239    6.1294  -28.1446 H   0  0  0  0  0
   23.9751    9.0597  -25.7237 H   0  0  0  0  0
   26.0780    7.7726  -26.0184 H   0  0  0  0  0
   27.2158    3.6936  -29.1807 H   0  0  0  0  0
   29.2222    2.3557  -29.7012 H   0  0  0  0  0
   27.9589    3.2330  -24.9734 H   0  0  0  0  0
   29.9973    1.9163  -25.4885 H   0  0  0  0  0
   31.5423    1.7523  -28.6341 H   0  0  0  0  0
   32.1010   -2.3954  -27.1802 H   0  0  0  0  0
   34.3194   -3.1854  -27.9385 H   0  0  0  0  0
   36.9987    0.0177  -29.7726 H   0  0  0  0  0
   37.3943   -0.4923  -28.1129 H   0  0  0  0  0
   38.1147   -1.3432  -29.5014 H   0  0  0  0  0
   35.2360    0.7283  -29.4356 H   0  0  0  0  0
   33.0191    1.5036  -28.6657 H   0  0  0  0  0
  1  2  1  0  0  0
  2  3  4  0  0  0
  2  7  4  0  0  0
  3  4  4  0  0  0
  4  5  4  0  0  0
  5  6  4  0  0  0
  6  7  4  0  0  0
  7  8  1  0  0  0
  8  9  1  0  0  0
  8 15  1  0  0  0
  9 10  4  0  0  0
  9 14  4  0  0  0
 10 11  4  0  0  0
 11 12  4  0  0  0
 12 13  4  0  0  0
 13 14  4  0  0  0
 15 16  2  0  0  0
 15 17  1  0  0  0
 17 18  4  0  0  0
 17 20  4  0  0  0
 18 19  4  0  0  0
 19 22  4  0  0  0
 20 21  4  0  0  0
 21 22  4  0  0  0
 22 23  1  0  0  0
 23 24  1  0  0  0
 24 25  2  0  0  0
 24 26  1  0  0  0
 26 27  4  0  0  0
 26 33  4  0  0  0
 27 28  4  0  0  0
 28 29  4  0  0  0
 29 30  1  0  0  0
 29 32  4  0  0  0
 30 31  1  0  0  0
 32 33  4  0  0  0
  3 34  1  0  0  0
  4 35  1  0  0  0
  5 36  1  0  0  0
  6 37  1  0  0  0
 11 38  1  0  0  0
 13 39  1  0  0  0
 14 40  1  0  0  0
 18 41  1  0  0  0
 19 42  1  0  0  0
 20 43  1  0  0  0
 21 44  1  0  0  0
 23 45  1  0  0  0
 27 46  1  0  0  0
 28 47  1  0  0  0
 31 48  1  0  0  0
 31 49  1  0  0  0
 31 50  1  0  0  0
 32 51  1  0  0  0
 33 52  1  0  0  0
M  END
$$$$
