5gn6_ligand
  -I-interpret- 

 31 32  0  0  0  0  0  0  0  0999 V2000
   -7.6620    5.3700   33.9460 C   0  0  0  0  0
   -6.1860    5.7880   34.1790 C   0  0  0  0  0
   -5.3590    5.5470   32.9130 C   0  0  0  0  0
   -3.8630    5.4130   33.2450 C   0  0  0  0  0
   -3.0840    5.7430   32.0950 C   0  0  0  0  0
   -2.3330    6.9380   32.0940 C   0  0  0  0  0
   -1.5580    7.3280   30.9830 C   0  0  0  0  0
   -0.9460    8.3910   31.0480 O   0  0  0  0  0
   -1.4260    6.5140   29.9000 O   0  0  0  0  0
   -2.0900    5.3140   29.8910 C   0  0  0  0  0
   -2.9410    4.9040   30.9580 C   0  0  0  0  0
   -3.5860    3.6430   30.8170 C   0  0  0  0  0
   -3.3920    2.8440   29.6800 C   0  0  0  0  0
   -2.5500    3.2600   28.6470 C   0  0  0  0  0
   -2.3490    2.4840   27.5480 O   0  0  0  0  0
   -1.8890    4.5080   28.7600 C   0  0  0  0  0
   -1.0540    4.9950   27.7920 O   0  0  0  0  0
   -8.0804    5.9586   33.1296 H   0  0  0  0  0
   -7.7024    4.3112   33.6901 H   0  0  0  0  0
   -8.2364    5.5476   34.8552 H   0  0  0  0  0
   -5.7720    5.1930   34.9930 H   0  0  0  0  0
   -6.1518    6.8482   34.4298 H   0  0  0  0  0
   -5.4925    6.3960   32.2426 H   0  0  0  0  0
   -5.6968    4.6214   32.4470 H   0  0  0  0  0
   -3.6495    4.3868   33.5439 H   0  0  0  0  0
   -3.6112    6.0923   34.0593 H   0  0  0  0  0
   -2.3528    7.5770   32.9768 H   0  0  0  0  0
   -4.2454    3.2902   31.6100 H   0  0  0  0  0
   -3.9055    1.8857   29.6022 H   0  0  0  0  0
   -1.7447    2.9292   26.9495 H   0  0  0  0  0
   -0.9949    4.3611   27.0734 H   0  0  0  0  0
  1  2  1  0  0  0
  2  3  1  0  0  0
  3  4  1  0  0  0
  4  5  1  0  0  0
  5  6  2  0  0  0
  5 11  1  0  0  0
  6  7  1  0  0  0
  7  8  2  0  0  0
  7  9  1  0  0  0
  9 10  1  0  0  0
 10 11  4  0  0  0
 10 16  4  0  0  0
 11 12  4  0  0  0
 12 13  4  0  0  0
 13 14  4  0  0  0
 14 15  1  0  0  0
 14 16  4  0  0  0
 16 17  1  0  0  0
  1 18  1  0  0  0
  1 19  1  0  0  0
  1 20  1  0  0  0
  2 21  1  0  0  0
  2 22  1  0  0  0
  3 23  1  0  0  0
  3 24  1  0  0  0
  4 25  1  0  0  0
  4 26  1  0  0  0
  6 27  1  0  0  0
 12 28  1  0  0  0
 13 29  1  0  0  0
 15 30  1  0  0  0
 17 31  1  0  0  0
M  END
$$$$
