### 
### Created by X-TOOL on Mon Sep 10 21:13:27 2018
### 

@<TRIPOS>MOLECULE
5jc1_ligand
   45    45     1     0     0
SMALL
GAST_HUCK


@<TRIPOS>ATOM
      1 C1         -0.2000   14.2320   21.4380 C.3       1 6JB         0.0245
      2 C2          0.9330   14.1190   20.3950 C.3       1 6JB        -0.0091
      3 C3          2.1490   13.3400   20.9530 C.3       1 6JB         0.0432
      4 C4          3.3870   13.8920   20.2770 C.2       1 6JB         0.2014
      5 O7          0.0660   16.7810   22.3370 O.co2     1 6JB        -0.5622
      6 O8         -0.9570   16.5360   20.1360 O.co2     1 6JB        -0.5622
      7 C11         3.5650   12.0420   18.5870 C.3       1 6JB         0.0516
      8 C14        -0.1830   12.1330   19.0750 C.3       1 6JB        -0.0430
      9 C15        -0.5830   11.6890   17.6470 C.3       1 6JB        -0.0216
     10 C17         1.2310   10.0380   17.1840 C.ar      1 6JB        -0.0323
     11 C18         1.0790   11.9520   15.7510 C.ar      1 6JB        -0.0714
     12 C19         2.3330    9.5880   16.4640 C.ar      1 6JB         0.0841
     13 C20         2.1790   11.5090   15.0250 C.ar      1 6JB        -0.0772
     14 C21         2.8000   10.3230   15.3780 C.ar      1 6JB        -0.0401
     15 P5         -0.8520   15.9350   21.4970 P.3       1 6JB         0.0583
     16 O6         -2.2260   15.8750   22.1130 O.co2     1 6JB        -0.5622
     17 N9          3.9860   13.3160   19.2080 N.am      1 6JB        -0.1538
     18 O10         5.0800   13.9770   18.6310 O.3       1 6JB        -0.2694
     19 O12         3.8150   14.9500   20.7150 O.2       1 6JB        -0.3968
     20 C13         0.4280   13.5580   19.0360 C.3       1 6JB        -0.0451
     21 C16         0.6120   11.2160   16.8380 C.ar      1 6JB        -0.0519
     22 O22         2.9670    8.4240   16.7760 O.3       1 6JB        -0.3230
     23 C23         2.7290    7.6650   17.9920 C.3       1 6JB         0.0592
     24 H1          0.1927   13.9609   22.4291 H         1 6JB         0.0455
     25 H2         -1.0129   13.5431   21.1647 H         1 6JB         0.0455
     26 H3          1.2821   15.1432   20.1974 H         1 6JB         0.0339
     27 H4          2.0443   12.2682   20.7291 H         1 6JB         0.0505
     28 H5          2.2197   13.4820   22.0415 H         1 6JB         0.0505
     29 H6          4.2261   11.8116   17.7385 H         1 6JB         0.0514
     30 H7          2.5285   12.1329   18.2300 H         1 6JB         0.0514
     31 H8          3.6272   11.2336   19.3303 H         1 6JB         0.0514
     32 H9          0.5590   11.4296   19.4807 H         1 6JB         0.0287
     33 H10        -1.0750   12.1367   19.7186 H         1 6JB         0.0287
     34 H11        -1.0474   12.5405   17.1282 H         1 6JB         0.0424
     35 H12        -1.3084   10.8655   17.7221 H         1 6JB         0.0424
     36 H13         0.8590    9.4579   18.0208 H         1 6JB         0.0478
     37 H14         0.5827   12.8739   15.4701 H         1 6JB         0.0464
     38 H15         2.5484   12.0891   14.1871 H         1 6JB         0.0572
     39 H16         3.6505    9.9665   14.8083 H         1 6JB         0.0486
     40 H17         5.2551   14.7769   19.1125 H         1 6JB         0.2492
     41 H18         1.2807   13.5399   18.3413 H         1 6JB         0.0271
     42 H19        -0.3420   14.2442   18.6536 H         1 6JB         0.0271
     43 H20         3.3682    6.7698   17.9964 H         1 6JB         0.0577
     44 H21         1.6726    7.3614   18.0339 H         1 6JB         0.0577
     45 H22         2.9662    8.2891   18.8662 H         1 6JB         0.0577
@<TRIPOS>BOND
     1    2    1 1  
     2    1   15 1  
     3    2    3 1  
     4   20    2 1  
     5    3    4 1  
     6    4   17 am 
     7    4   19 2  
     8   15    5 ar 
     9   15    6 ar 
    10   17    7 1  
    11    9    8 1  
    12    8   20 1  
    13   21    9 1  
    14   10   12 ar 
    15   21   10 ar 
    16   11   13 ar 
    17   11   21 ar 
    18   12   14 ar 
    19   12   22 1  
    20   13   14 ar 
    21   15   16 ar 
    22   17   18 1  
    23   22   23 1  
    24    1   24 1  
    25    1   25 1  
    26    2   26 1  
    27    3   27 1  
    28    3   28 1  
    29    7   29 1  
    30    7   30 1  
    31    7   31 1  
    32    8   32 1  
    33    8   33 1  
    34    9   34 1  
    35    9   35 1  
    36   10   36 1  
    37   11   37 1  
    38   13   38 1  
    39   14   39 1  
    40   18   40 1  
    41   20   41 1  
    42   20   42 1  
    43   23   43 1  
    44   23   44 1  
    45   23   45 1  
@<TRIPOS>SUBSTRUCTURE
     1 6JB         1

