5jc1_ligand
  -I-interpret- 

 47 47  0  0  0  0  0  0  0  0999 V2000
   -0.2000   14.2320   21.4380 C   0  0  0  0  0
    0.9330   14.1190   20.3950 C   0  0  0  0  0
    2.1490   13.3400   20.9530 C   0  0  0  0  0
    3.3870   13.8920   20.2770 C   0  0  0  0  0
    0.0660   16.7810   22.3370 O   0  0  0  0  0
   -0.9570   16.5360   20.1360 O   0  0  0  0  0
    3.5650   12.0420   18.5870 C   0  0  0  0  0
   -0.1830   12.1330   19.0750 C   0  0  0  0  0
   -0.5830   11.6890   17.6470 C   0  0  0  0  0
    1.2310   10.0380   17.1840 C   0  0  0  0  0
    1.0790   11.9520   15.7510 C   0  0  0  0  0
    2.3330    9.5880   16.4640 C   0  0  0  0  0
    2.1790   11.5090   15.0250 C   0  0  0  0  0
    2.8000   10.3230   15.3780 C   0  0  0  0  0
   -0.8520   15.9350   21.4970 P   0  0  0  0  0
   -2.2260   15.8750   22.1130 O   0  0  0  0  0
    3.9860   13.3160   19.2080 N   0  0  0  0  0
    5.0800   13.9770   18.6310 O   0  0  0  0  0
    3.8150   14.9500   20.7150 O   0  0  0  0  0
    0.4280   13.5580   19.0360 C   0  0  0  0  0
    0.6120   11.2160   16.8380 C   0  0  0  0  0
    2.9670    8.4240   16.7760 O   0  0  0  0  0
    2.7290    7.6650   17.9920 C   0  0  0  0  0
    0.1964   13.9716   22.4194 H   0  0  0  0  0
   -1.0067   13.5547   21.1576 H   0  0  0  0  0
    1.2824   15.1306   20.1882 H   0  0  0  0  0
    2.0459   12.2738   20.7512 H   0  0  0  0  0
    2.2174   13.4605   22.0342 H   0  0  0  0  0
    0.1376   16.3989   23.2148 H   0  0  0  0  0
    3.2849   12.2204   17.5488 H   0  0  0  0  0
    4.3900   11.3307   18.6249 H   0  0  0  0  0
    2.7108   11.6389   19.1310 H   0  0  0  0  0
    0.5554   11.4371   19.4732 H   0  0  0  0  0
   -1.0691   12.1401   19.7097 H   0  0  0  0  0
   -1.0213   12.5460   17.1355 H   0  0  0  0  0
   -1.2841   10.8589   17.7337 H   0  0  0  0  0
    0.8569    9.4547   18.0254 H   0  0  0  0  0
    0.5799   12.8790   15.4686 H   0  0  0  0  0
    2.5504   12.0923   14.1825 H   0  0  0  0  0
    3.6552    9.9645   14.8051 H   0  0  0  0  0
   -2.1658   15.4889   22.9899 H   0  0  0  0  0
    5.2570   14.7854   19.1176 H   0  0  0  0  0
    1.3005   13.4997   18.3852 H   0  0  0  0  0
   -0.3691   14.2244   18.7065 H   0  0  0  0  0
    2.9643    8.2845   18.8574 H   0  0  0  0  0
    1.6819    7.3649   18.0324 H   0  0  0  0  0
    3.3628    6.7782   17.9952 H   0  0  0  0  0
  2  1  1  0  0  0
  1 15  1  0  0  0
  2  3  1  0  0  0
 20  2  1  0  0  0
  3  4  1  0  0  0
  4 17  1  0  0  0
  4 19  2  0  0  0
 15  5  1  0  0  0
 15  6  2  0  0  0
 17  7  1  0  0  0
  9  8  1  0  0  0
  8 20  1  0  0  0
 21  9  1  0  0  0
 10 12  4  0  0  0
 21 10  4  0  0  0
 11 13  4  0  0  0
 11 21  4  0  0  0
 12 14  4  0  0  0
 12 22  1  0  0  0
 13 14  4  0  0  0
 15 16  1  0  0  0
 17 18  1  0  0  0
 22 23  1  0  0  0
  1 24  1  0  0  0
  1 25  1  0  0  0
  2 26  1  0  0  0
  3 27  1  0  0  0
  3 28  1  0  0  0
  5 29  1  0  0  0
  7 30  1  0  0  0
  7 31  1  0  0  0
  7 32  1  0  0  0
  8 33  1  0  0  0
  8 34  1  0  0  0
  9 35  1  0  0  0
  9 36  1  0  0  0
 10 37  1  0  0  0
 11 38  1  0  0  0
 13 39  1  0  0  0
 14 40  1  0  0  0
 16 41  1  0  0  0
 18 42  1  0  0  0
 20 43  1  0  0  0
 20 44  1  0  0  0
 23 45  1  0  0  0
 23 46  1  0  0  0
 23 47  1  0  0  0
M  END
$$$$
