3f3t_ligand
  -I-interpret- 

 55 58  0  0  0  0  0  0  0  0999 V2000
   -5.3160   35.3030   -9.1670 C   0  0  0  0  0
   -5.2040   35.0410  -10.5340 C   0  0  0  0  0
   -6.1790   35.5510  -11.3950 C   0  0  0  0  0
   -7.2460   36.3230  -10.9300 C   0  0  0  0  0
   -7.3510   36.5850   -9.5690 C   0  0  0  0  0
   -6.4010   36.0790   -8.6920 C   0  0  0  0  0
   -6.5370   36.3470   -7.3330 C   0  0  0  0  0
   -5.5930   35.8300   -6.4480 C   0  0  0  0  0
   -4.5190   35.0780   -6.9020 C   0  0  0  0  0
   -4.3570   34.7970   -8.2690 C   0  0  0  0  0
   -3.3200   34.0400   -8.7110 N   0  0  0  0  0
   -2.8390   32.9920   -8.0100 C   0  0  0  0  0
   -3.3070   32.6940   -6.9070 O   0  0  0  0  0
   -1.8200   32.3100   -8.5620 N   0  0  0  0  0
   -1.1910   31.2560   -7.9900 C   0  0  0  0  0
   -1.7670   30.2030   -7.3820 C   0  0  0  0  0
   -0.7350   29.4500   -6.9680 C   0  0  0  0  0
   -0.7610   28.0740   -6.2210 C   0  0  0  0  0
   -1.4560   27.0300   -7.1120 C   0  0  0  0  0
    0.6670   27.6190   -5.9250 C   0  0  0  0  0
   -1.4570   28.1530   -4.8590 C   0  0  0  0  0
    0.4010   30.0380   -7.3350 N   0  0  0  0  0
    0.1480   31.0980   -7.9140 N   0  0  0  0  0
    1.1320   31.8850   -8.3950 C   0  0  0  0  0
    1.1860   33.2460   -8.1640 C   0  0  0  0  0
    2.1700   31.3200   -9.1490 C   0  0  0  0  0
    3.2300   32.0820   -9.6820 C   0  0  0  0  0
    3.2610   33.4540   -9.4390 C   0  0  0  0  0
    2.2330   34.0250   -8.6840 C   0  0  0  0  0
    2.2460   35.3370   -8.4280 N   0  0  0  0  0
   -4.3733   34.4510  -10.9212 H   0  0  0  0  0
   -6.1047   35.3400  -12.4618 H   0  0  0  0  0
   -7.9875   36.7153  -11.6260 H   0  0  0  0  0
   -8.1776   37.1866   -9.1909 H   0  0  0  0  0
   -7.3675   36.9508   -6.9673 H   0  0  0  0  0
   -5.7002   36.0197   -5.3800 H   0  0  0  0  0
   -3.7892   34.6991   -6.1865 H   0  0  0  0  0
   -2.8887   34.2720   -9.6058 H   0  0  0  0  0
   -1.4961   32.6094   -9.4817 H   0  0  0  0  0
   -2.8313   30.0056   -7.2543 H   0  0  0  0  0
   -2.4757   27.3536   -7.3210 H   0  0  0  0  0
   -0.9064   26.9293   -8.0479 H   0  0  0  0  0
   -1.4766   26.0700   -6.5962 H   0  0  0  0  0
    1.2141   27.5111   -6.8616 H   0  0  0  0  0
    1.1608   28.3611   -5.2977 H   0  0  0  0  0
    0.6414   26.6612   -5.4053 H   0  0  0  0  0
   -0.9320   28.8676   -4.2250 H   0  0  0  0  0
   -2.4883   28.4775   -4.9977 H   0  0  0  0  0
   -1.4443   27.1699   -4.3883 H   0  0  0  0  0
    0.4056   33.7219   -7.5702 H   0  0  0  0  0
    2.1572   30.2454   -9.3311 H   0  0  0  0  0
    4.0118   31.6061  -10.2740 H   0  0  0  0  0
    4.0711   34.0695   -9.8301 H   0  0  0  0  0
    1.5049   35.7541   -7.8648 H   0  0  0  0  0
    2.9970   35.9210   -8.7959 H   0  0  0  0  0
  1  2  4  0  0  0
  1  6  4  0  0  0
  1 10  4  0  0  0
  2  3  4  0  0  0
  3  4  4  0  0  0
  4  5  4  0  0  0
  5  6  4  0  0  0
  6  7  4  0  0  0
  7  8  4  0  0  0
  8  9  4  0  0  0
  9 10  4  0  0  0
 10 11  1  0  0  0
 11 12  1  0  0  0
 12 13  2  0  0  0
 12 14  1  0  0  0
 14 15  1  0  0  0
 15 16  4  0  0  0
 15 23  4  0  0  0
 16 17  4  0  0  0
 17 18  1  0  0  0
 17 22  4  0  0  0
 18 19  1  0  0  0
 18 20  1  0  0  0
 18 21  1  0  0  0
 22 23  4  0  0  0
 23 24  1  0  0  0
 24 25  4  0  0  0
 24 26  4  0  0  0
 25 29  4  0  0  0
 26 27  4  0  0  0
 27 28  4  0  0  0
 28 29  4  0  0  0
 29 30  1  0  0  0
  2 31  1  0  0  0
  3 32  1  0  0  0
  4 33  1  0  0  0
  5 34  1  0  0  0
  7 35  1  0  0  0
  8 36  1  0  0  0
  9 37  1  0  0  0
 11 38  1  0  0  0
 14 39  1  0  0  0
 16 40  1  0  0  0
 19 41  1  0  0  0
 19 42  1  0  0  0
 19 43  1  0  0  0
 20 44  1  0  0  0
 20 45  1  0  0  0
 20 46  1  0  0  0
 21 47  1  0  0  0
 21 48  1  0  0  0
 21 49  1  0  0  0
 25 50  1  0  0  0
 26 51  1  0  0  0
 27 52  1  0  0  0
 28 53  1  0  0  0
 30 54  1  0  0  0
 30 55  1  0  0  0
M  END
$$$$
