4uvc_ligand
  -I-interpret- 

120127  0  0  0  0  0  0  0  0999 V2000
   -6.4900   65.7070   90.5900 P   0  0  0  0  0
   -8.6400   58.1400   85.8140 N   0  0  0  0  0
   -9.6340   57.2140   85.9670 C   0  0  0  0  0
  -10.0210   56.8760   87.1130 O   0  0  0  0  0
  -10.2420   56.6450   84.9070 N   0  0  0  0  0
  -10.0370   57.0600   83.6490 C   0  0  0  0  0
  -10.5110   56.3850   82.7070 O   0  0  0  0  0
   -8.3820   58.2610   82.0130 N   0  0  0  0  0
   -7.6760   60.0950   80.6520 C   0  0  0  0  0
   -7.0050   61.2920   80.4850 C   0  0  0  0  0
   -6.3500   61.9290   81.6550 C   0  0  0  0  0
   -6.4100   61.3060   82.9090 C   0  0  0  0  0
   -6.6280   67.6350   88.4810 P   0  0  0  0  0
   -6.4190   60.0120   85.5280 C   0  0  0  0  0
   -8.1850   58.5000   84.5780 C   0  0  0  0  0
   -7.1480   59.4480   84.3670 N   0  0  0  0  0
   -4.0120   77.8930   89.9550 N   0  0  0  0  0
   -5.6330   68.1020   87.4300 O   0  0  0  0  0
   -6.0690   73.3350   88.5960 C   0  0  0  0  0
   -5.3230   65.0170   91.2770 O   0  0  0  0  0
   -7.3230   60.9550   86.3330 C   0  0  0  0  0
   -8.1490   61.7090   85.4370 O   0  0  0  0  0
   -5.2360   77.3680   90.2240 C   0  0  0  0  0
   -7.9320   66.9440   88.1110 O   0  0  0  0  0
   -6.3900   72.5270   87.3700 C   0  0  0  0  0
   -7.0070   73.3550   86.3930 O   0  0  0  0  0
   -7.5550   66.4160   91.4080 O   0  0  0  0  0
   -6.5390   61.9300   87.2040 C   0  0  0  0  0
   -5.6930   61.1960   88.0870 O   0  0  0  0  0
   -5.6360   76.1560   89.7880 N   0  0  0  0  0
   -7.2960   71.4510   87.9580 C   0  0  0  0  0
   -8.6810   71.8320   87.9900 O   0  0  0  0  0
   -5.8120   66.7450   89.5520 O   0  0  0  0  0
   -7.4520   62.8160   88.0460 C   0  0  0  0  0
   -8.5580   63.3340   87.2800 O   0  0  0  0  0
   -4.7890   75.3880   89.0410 C   0  0  0  0  0
   -6.8370   71.3180   89.3990 C   0  0  0  0  0
   -5.8610   72.3370   89.5870 O   0  0  0  0  0
   -8.8390   57.8940   83.3880 C   0  0  0  0  0
   -6.6190   63.9590   88.6320 C   0  0  0  0  0
   -7.3030   64.6520   89.6870 O   0  0  0  0  0
   -3.4350   75.8860   88.7030 C   0  0  0  0  0
   -6.2110   69.9660   89.6830 C   0  0  0  0  0
   -7.1140   68.9280   89.3130 O   0  0  0  0  0
   -7.7420   59.4600   81.8950 C   0  0  0  0  0
   -3.0850   77.2230   89.2190 C   0  0  0  0  0
   -1.8680   77.7340   88.9380 N   0  0  0  0  0
   -2.8120   74.9390   87.9670 N   0  0  0  0  0
   -6.9530   61.9340   79.1250 C   0  0  0  0  0
   -3.6950   73.9080   87.8450 C   0  0  0  0  0
   -5.6300   63.2430   81.4810 C   0  0  0  0  0
   -7.0800   60.0890   83.0890 C   0  0  0  0  0
   -4.8680   74.1820   88.4750 N   0  0  0  0  0
   -6.3580   57.7930   81.2880 N   0  3  0  0  0
   -6.6480   50.9290   81.5080 C   0  0  0  0  0
   -9.2630   56.2410   77.6030 C   0  0  0  0  0
   -7.7320   51.7380   81.1360 C   0  0  0  0  0
   -5.4100   51.5040   81.8230 C   0  0  0  0  0
   -8.0810   56.9650   77.7200 C   0  0  0  0  0
   -9.9030   55.8050   78.7590 C   0  0  0  0  0
   -7.5760   53.1270   81.0790 C   0  0  0  0  0
   -5.2540   52.8960   81.7660 C   0  0  0  0  0
   -7.5550   57.2450   78.9820 C   0  0  0  0  0
   -9.3770   56.0900   80.0210 C   0  0  0  0  0
   -6.1490   55.0770   81.3560 C   0  0  0  0  0
   -7.3000   55.7740   82.1090 C   0  0  0  0  0
   -6.3340   53.7040   81.3960 C   0  0  0  0  0
   -8.1940   56.8210   80.1570 C   0  0  0  0  0
   -7.6470   57.1130   81.4340 C   0  0  0  0  0
  -10.8831   55.8683   85.0685 H   0  0  0  0  0
   -8.1654   59.6354   79.7933 H   0  0  0  0  0
   -5.9247   61.7788   83.7629 H   0  0  0  0  0
   -5.5595   60.5748   85.1638 H   0  0  0  0  0
   -6.1003   59.1940   86.1741 H   0  0  0  0  0
   -6.8672   74.0456   88.8104 H   0  0  0  0  0
   -4.7504   64.6236   90.6145 H   0  0  0  0  0
   -7.9232   60.3274   86.9918 H   0  0  0  0  0
   -8.7134   62.2980   85.9430 H   0  0  0  0  0
   -5.9306   77.9568   90.8232 H   0  0  0  0  0
   -8.4172   66.7292   88.9110 H   0  0  0  0  0
   -5.5432   72.0964   86.8356 H   0  0  0  0  0
   -7.2089   72.8323   85.6135 H   0  0  0  0  0
   -5.9605   62.5685   86.5363 H   0  0  0  0  0
   -5.1981   61.8080   88.6367 H   0  0  0  0  0
   -7.2269   70.5444   87.3568 H   0  0  0  0  0
   -9.1994   71.1181   88.3685 H   0  0  0  0  0
   -7.8815   62.2151   88.8475 H   0  0  0  0  0
   -9.1065   63.8843   87.8439 H   0  0  0  0  0
   -7.6886   71.4121   90.0728 H   0  0  0  0  0
   -8.2894   57.0947   82.8908 H   0  0  0  0  0
   -6.4197   64.6738   87.8336 H   0  0  0  0  0
   -5.7059   63.5318   89.0466 H   0  0  0  0  0
   -5.9895   69.8882   90.7474 H   0  0  0  0  0
   -5.2918   69.8664   89.1058 H   0  0  0  0  0
   -1.6117   78.6595   89.2818 H   0  0  0  0  0
   -1.2045   77.1948   88.3818 H   0  0  0  0  0
   -6.4683   61.2558   78.4228 H   0  0  0  0  0
   -7.9669   62.1465   78.7859 H   0  0  0  0  0
   -6.3863   62.8632   79.1847 H   0  0  0  0  0
   -3.4870   72.9813   87.3101 H   0  0  0  0  0
   -4.8252   63.1216   80.7560 H   0  0  0  0  0
   -6.3323   63.9961   81.1236 H   0  0  0  0  0
   -5.2141   63.5575   82.4382 H   0  0  0  0  0
   -5.6779   57.1474   80.8867 H   0  0  0  0  0
   -6.4679   58.5989   80.6725 H   0  0  0  0  0
   -6.0337   58.1046   82.2035 H   0  0  0  0  0
   -6.7697   49.8467   81.5522 H   0  0  0  0  0
   -9.6812   56.0188   76.6213 H   0  0  0  0  0
   -8.6932   51.2855   80.8920 H   0  0  0  0  0
   -4.5708   50.8711   82.1115 H   0  0  0  0  0
   -7.5652   57.3139   76.8254 H   0  0  0  0  0
  -10.8275   55.2332   78.6785 H   0  0  0  0  0
   -8.4149   53.7599   80.7897 H   0  0  0  0  0
   -4.2925   53.3479   82.0097 H   0  0  0  0  0
   -6.6242   57.8073   79.0567 H   0  0  0  0  0
   -9.8964   55.7374   80.9120 H   0  0  0  0  0
   -5.2002   55.3293   81.8295 H   0  0  0  0  0
   -6.1387   55.4118   80.3187 H   0  0  0  0  0
   -6.9895   55.9636   83.1365 H   0  0  0  0  0
   -8.1784   55.1289   82.0918 H   0  0  0  0  0
  1 20  1  0  0  0
  1 27  2  0  0  0
  1 33  1  0  0  0
 41  1  1  0  0  0
  2  3  1  0  0  0
 15  2  2  0  0  0
  3  4  2  0  0  0
  5  3  1  0  0  0
  6  5  1  0  0  0
  6  7  2  0  0  0
 39  6  1  0  0  0
  8 39  1  0  0  0
  8 45  1  0  0  0
 69  8  1  0  0  0
  9 10  4  0  0  0
 45  9  4  0  0  0
 10 11  4  0  0  0
 10 49  1  0  0  0
 12 11  4  0  0  0
 11 51  1  0  0  0
 52 12  4  0  0  0
 13 18  2  0  0  0
 13 24  1  0  0  0
 33 13  1  0  0  0
 13 44  1  0  0  0
 16 14  1  0  0  0
 14 21  1  0  0  0
 15 16  1  0  0  0
 39 15  1  0  0  0
 52 16  1  0  0  0
 23 17  4  0  0  0
 46 17  4  0  0  0
 19 25  1  0  0  0
 38 19  1  0  0  0
 19 53  1  0  0  0
 21 22  1  0  0  0
 21 28  1  0  0  0
 30 23  4  0  0  0
 25 26  1  0  0  0
 31 25  1  0  0  0
 28 29  1  0  0  0
 28 34  1  0  0  0
 36 30  4  0  0  0
 31 32  1  0  0  0
 37 31  1  0  0  0
 34 35  1  0  0  0
 34 40  1  0  0  0
 36 42  4  0  0  0
 53 36  4  0  0  0
 37 38  1  0  0  0
 43 37  1  0  0  0
 40 41  1  0  0  0
 42 46  4  0  0  0
 48 42  4  0  0  0
 44 43  1  0  0  0
 45 52  4  0  0  0
 46 47  1  0  0  0
 50 48  4  0  0  0
 53 50  4  0  0  0
 69 54  1  0  0  0
 57 55  4  0  0  0
 58 55  4  0  0  0
 59 56  4  0  0  0
 60 56  4  0  0  0
 61 57  4  0  0  0
 62 58  4  0  0  0
 63 59  4  0  0  0
 64 60  4  0  0  0
 67 61  4  0  0  0
 67 62  4  0  0  0
 68 63  4  0  0  0
 68 64  4  0  0  0
 66 65  1  0  0  0
 65 67  1  0  0  0
 69 66  1  0  0  0
 68 69  1  0  0  0
  5 70  1  0  0  0
  9 71  1  0  0  0
 12 72  1  0  0  0
 14 73  1  0  0  0
 14 74  1  0  0  0
 19 75  1  0  0  0
 20 76  1  0  0  0
 21 77  1  0  0  0
 22 78  1  0  0  0
 23 79  1  0  0  0
 24 80  1  0  0  0
 25 81  1  0  0  0
 26 82  1  0  0  0
 28 83  1  0  0  0
 29 84  1  0  0  0
 31 85  1  0  0  0
 32 86  1  0  0  0
 34 87  1  0  0  0
 35 88  1  0  0  0
 37 89  1  0  0  0
 39 90  1  0  0  0
 40 91  1  0  0  0
 40 92  1  0  0  0
 43 93  1  0  0  0
 43 94  1  0  0  0
 47 95  1  0  0  0
 47 96  1  0  0  0
 49 97  1  0  0  0
 49 98  1  0  0  0
 49 99  1  0  0  0
 50100  1  0  0  0
 51101  1  0  0  0
 51102  1  0  0  0
 51103  1  0  0  0
 54104  1  0  0  0
 54105  1  0  0  0
 54106  1  0  0  0
 55107  1  0  0  0
 56108  1  0  0  0
 57109  1  0  0  0
 58110  1  0  0  0
 59111  1  0  0  0
 60112  1  0  0  0
 61113  1  0  0  0
 62114  1  0  0  0
 63115  1  0  0  0
 64116  1  0  0  0
 65117  1  0  0  0
 65118  1  0  0  0
 66119  1  0  0  0
 66120  1  0  0  0
M  END
$$$$
