### 
### Created by X-TOOL on Mon Sep 10 21:13:19 2018
### 

@<TRIPOS>MOLECULE
4uvc_ligand
  118   125     1     0     0
SMALL
GAST_HUCK


@<TRIPOS>ATOM
      1 P          -6.4900   65.7070   90.5900 P.3       1 D52         0.2972
      2 N1         -8.6400   58.1400   85.8140 N.2       1 D52        -0.2502
      3 C2         -9.6340   57.2140   85.9670 C.2       1 D52         0.2452
      4 O2        -10.0210   56.8760   87.1130 O.2       1 D52        -0.3898
      5 N3        -10.2420   56.6450   84.9070 N.am      1 D52        -0.1933
      6 C4        -10.0370   57.0600   83.6490 C.2       1 D52         0.2528
      7 O4        -10.5110   56.3850   82.7070 O.2       1 D52        -0.3802
      8 N5         -8.3820   58.2610   82.0130 N.pl3     1 D52        -0.2611
      9 C6         -7.6760   60.0950   80.6520 C.ar      1 D52        -0.0568
     10 C7         -7.0050   61.2920   80.4850 C.ar      1 D52        -0.0658
     11 C8         -6.3500   61.9290   81.6550 C.ar      1 D52        -0.0652
     12 C9         -6.4100   61.3060   82.9090 C.ar      1 D52        -0.0515
     13 PA         -6.6280   67.6350   88.4810 P.3       1 D52         0.2972
     14 C1'        -6.4190   60.0120   85.5280 C.3       1 D52         0.0827
     15 C10        -8.1850   58.5000   84.5780 C.2       1 D52         0.1799
     16 N10        -7.1480   59.4480   84.3670 N.pl3     1 D52        -0.2238
     17 N1A        -4.0120   77.8930   89.9550 N.ar      1 D52        -0.2698
     18 O1A        -5.6330   68.1020   87.4300 O.co2     1 D52        -0.6127
     19 C1B        -6.0690   73.3350   88.5960 C.3       1 D52         0.2010
     20 O1P        -5.3230   65.0170   91.2770 O.co2     1 D52        -0.6127
     21 C2'        -7.3230   60.9550   86.3330 C.3       1 D52         0.1085
     22 O2'        -8.1490   61.7090   85.4370 O.3       1 D52        -0.3867
     23 C2A        -5.2360   77.3680   90.2240 C.ar      1 D52         0.0533
     24 O2A        -7.9320   66.9440   88.1110 O.co2     1 D52        -0.6127
     25 C2B        -6.3900   72.5270   87.3700 C.3       1 D52         0.1385
     26 O2B        -7.0070   73.3550   86.3930 O.3       1 D52        -0.3836
     27 O2P        -7.5550   66.4160   91.4080 O.co2     1 D52        -0.6127
     28 C3'        -6.5390   61.9300   87.2040 C.3       1 D52         0.1117
     29 O3'        -5.6930   61.1960   88.0870 O.3       1 D52        -0.3865
     30 N3A        -5.6360   76.1560   89.7880 N.ar      1 D52        -0.2714
     31 C3B        -7.2960   71.4510   87.9580 C.3       1 D52         0.1149
     32 O3B        -8.6810   71.8320   87.9900 O.3       1 D52        -0.3864
     33 O3P        -5.8120   66.7450   89.5520 O.3       1 D52        -0.1319
     34 C4'        -7.4520   62.8160   88.0460 C.3       1 D52         0.1118
     35 O4'        -8.5580   63.3340   87.2800 O.3       1 D52        -0.3865
     36 C4A        -4.7890   75.3880   89.0410 C.ar      1 D52         0.1613
     37 C4B        -6.8370   71.3180   89.3990 C.3       1 D52         0.1189
     38 O4B        -5.8610   72.3370   89.5870 O.3       1 D52        -0.3364
     39 C4X        -8.8390   57.8940   83.3880 C.3       1 D52         0.2173
     40 C5'        -6.6190   63.9590   88.6320 C.3       1 D52         0.1124
     41 O5'        -7.3030   64.6520   89.6870 O.3       1 D52        -0.2477
     42 C5A        -3.4350   75.8860   88.7030 C.ar      1 D52         0.1045
     43 C5B        -6.2110   69.9660   89.6830 C.3       1 D52         0.1128
     44 O5B        -7.1140   68.9280   89.3130 O.3       1 D52        -0.2476
     45 C5X        -7.7420   59.4600   81.8950 C.ar      1 D52         0.0566
     46 C6A        -3.0850   77.2230   89.2190 C.ar      1 D52         0.1298
     47 N6A        -1.8680   77.7340   88.9380 N.pl3     1 D52        -0.3152
     48 N7A        -2.8120   74.9390   87.9670 N.2       1 D52        -0.2958
     49 C7M        -6.9530   61.9340   79.1250 C.3       1 D52        -0.0413
     50 C8A        -3.6950   73.9080   87.8450 C.2       1 D52         0.1123
     51 C8M        -5.6300   63.2430   81.4810 C.3       1 D52        -0.0419
     52 C9A        -7.0800   60.0890   83.0890 C.ar      1 D52         0.0822
     53 N9A        -4.8680   74.1820   88.4750 N.pl3     1 D52        -0.1919
     54 NAA        -6.3580   57.7930   81.2880 N.4       1 D52         0.1957
     55 CAB        -6.6480   50.9290   81.5080 C.ar      1 D52        -0.0687
     56 CAC        -9.2630   56.2410   77.6030 C.ar      1 D52        -0.0340
     57 CAD        -7.7320   51.7380   81.1360 C.ar      1 D52        -0.0686
     58 CAE        -5.4100   51.5040   81.8230 C.ar      1 D52        -0.0686
     59 CAF        -8.0810   56.9650   77.7200 C.ar      1 D52        -0.0321
     60 CAG        -9.9030   55.8050   78.7590 C.ar      1 D52        -0.0321
     61 CAH        -7.5760   53.1270   81.0790 C.ar      1 D52        -0.0604
     62 CAI        -5.2540   52.8960   81.7660 C.ar      1 D52        -0.0604
     63 CAJ        -7.5550   57.2450   78.9820 C.ar      1 D52        -0.0321
     64 CAK        -9.3770   56.0900   80.0210 C.ar      1 D52        -0.0321
     65 CAL        -6.1490   55.0770   81.3560 C.3       1 D52        -0.0191
     66 CAM        -7.3000   55.7740   82.1090 C.3       1 D52         0.0027
     67 CAN        -6.3340   53.7040   81.3960 C.ar      1 D52        -0.0435
     68 CAO        -8.1940   56.8210   80.1570 C.ar      1 D52         0.0219
     69 CAP        -7.6470   57.1130   81.4340 C.3       1 D52         0.0709
     70 H         -10.8706   55.8835   85.0653 H         1 D52         0.2256
     71 H          -8.1627   59.6379   79.7981 H         1 D52         0.0408
     72 H          -5.9274   61.7762   83.7582 H         1 D52         0.0431
     73 H          -5.5440   60.5723   85.1669 H         1 D52         0.0610
     74 H          -6.0853   59.1900   86.1783 H         1 D52         0.0610
     75 H          -6.9242   73.9755   88.8575 H         1 D52         0.0996
     76 H          -7.9638   60.3436   86.9854 H         1 D52         0.0645
     77 H          -8.7076   62.2919   85.9377 H         1 D52         0.2100
     78 H          -5.9268   77.9536   90.8199 H         1 D52         0.0996
     79 H          -5.4864   72.0756   86.9345 H         1 D52         0.0676
     80 H          -7.8096   73.7183   86.7486 H         1 D52         0.2101
     81 H          -5.9244   62.5688   86.5528 H         1 D52         0.0647
     82 H          -6.2243   60.6327   88.6375 H         1 D52         0.2100
     83 H          -7.1799   70.5071   87.4053 H         1 D52         0.0648
     84 H          -8.7811   72.6135   88.5208 H         1 D52         0.2100
     85 H          -7.8592   62.2142   88.8718 H         1 D52         0.0647
     86 H          -9.0740   62.6113   86.9424 H         1 D52         0.2100
     87 H          -7.6888   71.4708   90.0780 H         1 D52         0.0651
     88 H          -8.1748   57.0173   83.4037 H         1 D52         0.1112
     89 H          -6.3895   64.6758   87.8298 H         1 D52         0.0647
     90 H          -5.6821   63.5439   89.0319 H         1 D52         0.0647
     91 H          -5.9841   69.8870   90.7564 H         1 D52         0.0648
     92 H          -5.2816   69.8650   89.1034 H         1 D52         0.0648
     93 H          -1.1980   77.1895   88.3763 H         1 D52         0.1820
     94 H          -1.6092   78.6685   89.2852 H         1 D52         0.1820
     95 H          -7.4953   61.3065   78.4024 H         1 D52         0.0356
     96 H          -5.9048   62.0363   78.8076 H         1 D52         0.0356
     97 H          -7.4210   62.9284   79.1708 H         1 D52         0.0356
     98 H          -3.4872   72.9822   87.3106 H         1 D52         0.1349
     99 H          -5.6975   63.5618   80.4304 H         1 D52         0.0351
    100 H          -4.5729   63.1217   81.7601 H         1 D52         0.0351
    101 H          -6.0945   64.0038   82.1255 H         1 D52         0.0351
    102 H          -5.6850   57.1558   80.8915 H         1 D52         0.1976
    103 H          -6.0365   58.1014   82.1922 H         1 D52         0.1976
    104 H          -6.4653   58.5896   80.6798 H         1 D52         0.1976
    105 H          -6.7690   49.8527   81.5520 H         1 D52         0.0559
    106 H          -9.6789   56.0200   76.6267 H         1 D52         0.0856
    107 H          -8.6879   51.2880   80.8934 H         1 D52         0.0599
    108 H          -4.5754   50.8746   82.1099 H         1 D52         0.0599
    109 H          -7.5681   57.3120   76.8303 H         1 D52         0.0698
    110 H         -10.8224   55.2364   78.6790 H         1 D52         0.0698
    111 H          -8.4103   53.7564   80.7913 H         1 D52         0.0557
    112 H          -4.2978   53.3454   82.0083 H         1 D52         0.0557
    113 H          -6.6293   57.8042   79.0563 H         1 D52         0.0853
    114 H          -9.8936   55.7393   80.9071 H         1 D52         0.0853
    115 H          -5.1914   55.3318   81.8335 H         1 D52         0.0421
    116 H          -6.1382   55.4149   80.3093 H         1 D52         0.0421
    117 H          -6.9929   55.9607   83.1486 H         1 D52         0.0272
    118 H          -8.1864   55.1227   82.0999 H         1 D52         0.0272
@<TRIPOS>BOND
     1    1   20 ar 
     2    1   27 ar 
     3    1   33 1  
     4   41    1 1  
     5    2    3 1  
     6   15    2 2  
     7    3    4 2  
     8    5    3 am 
     9    6    5 am 
    10    6    7 2  
    11   39    6 1  
    12    8   39 1  
    13    8   45 1  
    14   69    8 1  
    15    9   10 ar 
    16   45    9 ar 
    17   10   11 ar 
    18   10   49 1  
    19   12   11 ar 
    20   11   51 1  
    21   52   12 ar 
    22   13   18 ar 
    23   13   24 ar 
    24   33   13 1  
    25   13   44 1  
    26   16   14 1  
    27   14   21 1  
    28   15   16 1  
    29   39   15 1  
    30   52   16 1  
    31   23   17 ar 
    32   46   17 ar 
    33   19   25 1  
    34   38   19 1  
    35   19   53 1  
    36   21   22 1  
    37   21   28 1  
    38   30   23 ar 
    39   25   26 1  
    40   31   25 1  
    41   28   29 1  
    42   28   34 1  
    43   36   30 ar 
    44   31   32 1  
    45   37   31 1  
    46   34   35 1  
    47   34   40 1  
    48   36   42 ar 
    49   53   36 1  
    50   37   38 1  
    51   43   37 1  
    52   40   41 1  
    53   42   46 ar 
    54   48   42 1  
    55   44   43 1  
    56   45   52 ar 
    57   46   47 1  
    58   50   48 2  
    59   53   50 1  
    60   69   54 1  
    61   57   55 ar 
    62   58   55 ar 
    63   59   56 ar 
    64   60   56 ar 
    65   61   57 ar 
    66   62   58 ar 
    67   63   59 ar 
    68   64   60 ar 
    69   67   61 ar 
    70   67   62 ar 
    71   68   63 ar 
    72   68   64 ar 
    73   66   65 1  
    74   65   67 1  
    75   69   66 1  
    76   68   69 1  
    77    5   70 1  
    78    9   71 1  
    79   12   72 1  
    80   14   73 1  
    81   14   74 1  
    82   19   75 1  
    83   21   76 1  
    84   22   77 1  
    85   23   78 1  
    86   25   79 1  
    87   26   80 1  
    88   28   81 1  
    89   29   82 1  
    90   31   83 1  
    91   32   84 1  
    92   34   85 1  
    93   35   86 1  
    94   37   87 1  
    95   39   88 1  
    96   40   89 1  
    97   40   90 1  
    98   43   91 1  
    99   43   92 1  
   100   47   93 1  
   101   47   94 1  
   102   49   95 1  
   103   49   96 1  
   104   49   97 1  
   105   50   98 1  
   106   51   99 1  
   107   51  100 1  
   108   51  101 1  
   109   54  102 1  
   110   54  103 1  
   111   54  104 1  
   112   55  105 1  
   113   56  106 1  
   114   57  107 1  
   115   58  108 1  
   116   59  109 1  
   117   60  110 1  
   118   61  111 1  
   119   62  112 1  
   120   63  113 1  
   121   64  114 1  
   122   65  115 1  
   123   65  116 1  
   124   66  117 1  
   125   66  118 1  
@<TRIPOS>SUBSTRUCTURE
     1 D52         1

