4u3f_ligand
  -I-interpret- 

 46 48  0  0  0  0  0  0  0  0999 V2000
   12.2940  133.0950   77.4950 C   0  0  0  0  0
   11.6150  133.6540   78.6380 O   0  0  0  0  0
   10.2830  133.7950   78.5320 C   0  0  0  0  0
    9.6280  133.3290   77.6470 O   0  0  0  0  0
    9.7390  134.5920   79.6530 C   0  0  0  0  0
   10.5640  135.0570   80.5800 C   0  0  0  0  0
   10.0950  135.7790   81.5990 O   0  0  0  0  0
   11.0670  136.4740   82.3950 C   0  0  0  0  0
    8.2720  134.8300   79.6600 C   0  0  0  0  0
    7.7970  135.9650   79.0150 C   0  0  0  0  0
    6.4480  136.2330   78.9900 C   0  0  0  0  0
    5.5570  135.3830   79.6040 C   0  0  0  0  0
    6.0160  134.2630   80.2450 C   0  0  0  0  0
    7.3770  133.9730   80.2790 C   0  0  0  0  0
    7.8680  132.7480   80.9810 C   0  0  0  0  0
    6.7660  131.3010   80.8550 S   0  0  0  0  0
    7.7410  130.1430   81.7070 C   0  0  0  0  0
    7.0570  128.5400   81.8810 S   0  0  0  0  0
    8.4860  128.0680   82.7390 C   0  0  0  0  0
    8.8220  126.8410   83.2970 C   0  0  0  0  0
   10.0300  126.7200   83.9330 C   0  0  0  0  0
   10.9060  127.7940   84.0240 C   0  0  0  0  0
   12.0780  127.5410   84.6810 O   0  0  0  0  0
   12.2150  126.3650   85.4630 C   0  0  0  0  0
   10.5830  129.0200   83.4730 C   0  0  0  0  0
    9.3630  129.1510   82.8270 C   0  0  0  0  0
    8.9060  130.3310   82.2250 N   0  0  0  0  0
   11.9026  132.0979   77.2933 H   0  0  0  0  0
   12.1287  133.7339   76.6275 H   0  0  0  0  0
   13.3620  133.0322   77.7034 H   0  0  0  0  0
   11.6315  134.8484   80.5095 H   0  0  0  0  0
   11.7577  135.7538   82.8335 H   0  0  0  0  0
   11.6189  137.1716   81.7650 H   0  0  0  0  0
   10.5597  137.0225   83.1887 H   0  0  0  0  0
    8.4953  136.6452   78.5273 H   0  0  0  0  0
    6.0825  137.1245   78.4805 H   0  0  0  0  0
    4.4891  135.6003   79.5803 H   0  0  0  0  0
    5.3088  133.5924   80.7331 H   0  0  0  0  0
    7.9421  132.9981   82.0393 H   0  0  0  0  0
    8.8107  132.4698   80.5099 H   0  0  0  0  0
    8.1400  125.9933   83.2305 H   0  0  0  0  0
   10.3083  125.7635   84.3755 H   0  0  0  0  0
   11.4647  126.3665   86.2537 H   0  0  0  0  0
   12.0743  125.4899   84.8286 H   0  0  0  0  0
   13.2108  126.3384   85.9054 H   0  0  0  0  0
   11.2704  129.8629   83.5446 H   0  0  0  0  0
  1  2  1  0  0  0
  2  3  1  0  0  0
  3  4  2  0  0  0
  3  5  1  0  0  0
  5  6  2  0  0  0
  5  9  1  0  0  0
  6  7  1  0  0  0
  7  8  1  0  0  0
  9 10  4  0  0  0
  9 14  4  0  0  0
 10 11  4  0  0  0
 11 12  4  0  0  0
 12 13  4  0  0  0
 13 14  4  0  0  0
 14 15  1  0  0  0
 15 16  1  0  0  0
 16 17  1  0  0  0
 17 18  4  0  0  0
 17 27  4  0  0  0
 18 19  4  0  0  0
 19 20  4  0  0  0
 19 26  4  0  0  0
 20 21  4  0  0  0
 21 22  4  0  0  0
 22 23  1  0  0  0
 22 25  4  0  0  0
 23 24  1  0  0  0
 25 26  4  0  0  0
 26 27  4  0  0  0
  1 28  1  0  0  0
  1 29  1  0  0  0
  1 30  1  0  0  0
  6 31  1  0  0  0
  8 32  1  0  0  0
  8 33  1  0  0  0
  8 34  1  0  0  0
 10 35  1  0  0  0
 11 36  1  0  0  0
 12 37  1  0  0  0
 13 38  1  0  0  0
 15 39  1  0  0  0
 15 40  1  0  0  0
 20 41  1  0  0  0
 21 42  1  0  0  0
 24 43  1  0  0  0
 24 44  1  0  0  0
 24 45  1  0  0  0
 25 46  1  0  0  0
M  END
$$$$
