1jgl_ligand
  -I-interpret- 

 44 47  0  0  0  0  0  0  0  0999 V2000
   43.1480   25.8150   67.9760 C   0  0  0  0  0
   44.5470   25.7240   68.2820 C   0  0  0  0  0
   45.3400   24.6720   67.7000 C   0  0  0  0  0
   46.6790   24.5930   68.0030 O   0  0  0  0  0
   44.7490   23.7110   66.8090 C   0  0  0  0  0
   43.3380   23.7840   66.4790 C   0  0  0  0  0
   42.7360   22.7450   65.5040 C   0  0  0  0  0
   41.2140   22.9120   65.1790 C   0  0  0  0  0
   40.7130   24.3810   65.2470 C   0  0  0  0  0
   40.9720   24.9410   66.7220 C   0  0  0  0  0
   42.5000   24.8610   67.0770 C   0  0  0  0  0
   40.4190   26.4050   66.7950 C   0  0  0  0  0
   38.9070   26.5280   66.4270 C   0  0  0  0  0
   38.6580   26.0230   64.9750 C   0  0  0  0  0
   39.1610   24.5000   64.9040 C   0  0  0  0  0
   38.6040   24.0730   63.5350 C   0  0  0  0  0
   37.1110   24.5910   63.6240 C   0  0  0  0  0
   37.1590   25.8400   64.5770 C   0  0  0  0  0
   36.5330   26.9730   63.9170 O   0  0  0  0  0
   39.3540   27.0060   63.9250 C   0  0  0  0  0
   42.5553   26.6128   68.4235 H   0  0  0  0  0
   45.0081   26.4488   68.9529 H   0  0  0  0  0
   47.0667   23.8456   67.5419 H   0  0  0  0  0
   45.3653   22.9219   66.3783 H   0  0  0  0  0
   42.8414   21.7739   65.9876 H   0  0  0  0  0
   43.2663   22.8677   64.5596 H   0  0  0  0  0
   40.6589   22.3453   65.9266 H   0  0  0  0  0
   41.0607   22.5643   64.1574 H   0  0  0  0  0
   41.2599   24.9630   64.5052 H   0  0  0  0  0
   40.4507   24.3338   67.4620 H   0  0  0  0  0
   40.9782   26.9995   66.0726 H   0  0  0  0  0
   40.5308   26.7431   67.8252 H   0  0  0  0  0
   38.6095   27.5744   66.4945 H   0  0  0  0  0
   38.3230   25.9209   67.1188 H   0  0  0  0  0
   38.8066   23.7916   65.6528 H   0  0  0  0  0
   38.6832   23.0022   63.3472 H   0  0  0  0  0
   39.1584   24.4845   62.6915 H   0  0  0  0  0
   36.4420   23.8205   64.0072 H   0  0  0  0  0
   36.7185   24.8521   62.6412 H   0  0  0  0  0
   36.5888   25.7230   65.4986 H   0  0  0  0  0
   35.6189   26.7597   63.7158 H   0  0  0  0  0
   38.9353   28.0065   64.0332 H   0  0  0  0  0
   40.4269   27.0373   64.1145 H   0  0  0  0  0
   39.1729   26.6424   62.9135 H   0  0  0  0  0
  1  2  4  0  0  0
  1 11  4  0  0  0
  2  3  4  0  0  0
  3  4  1  0  0  0
  3  5  4  0  0  0
  5  6  4  0  0  0
  6  7  1  0  0  0
  6 11  4  0  0  0
  7  8  1  0  0  0
  8  9  1  0  0  0
  9 10  1  0  0  0
  9 15  1  0  0  0
 10 11  1  0  0  0
 10 12  1  0  0  0
 12 13  1  0  0  0
 13 14  1  0  0  0
 14 15  1  0  0  0
 14 18  1  0  0  0
 14 20  1  0  0  0
 15 16  1  0  0  0
 16 17  1  0  0  0
 17 18  1  0  0  0
 18 19  1  0  0  0
  1 21  1  0  0  0
  2 22  1  0  0  0
  4 23  1  0  0  0
  5 24  1  0  0  0
  7 25  1  0  0  0
  7 26  1  0  0  0
  8 27  1  0  0  0
  8 28  1  0  0  0
  9 29  1  0  0  0
 10 30  1  0  0  0
 12 31  1  0  0  0
 12 32  1  0  0  0
 13 33  1  0  0  0
 13 34  1  0  0  0
 15 35  1  0  0  0
 16 36  1  0  0  0
 16 37  1  0  0  0
 17 38  1  0  0  0
 17 39  1  0  0  0
 18 40  1  0  0  0
 19 41  1  0  0  0
 20 42  1  0  0  0
 20 43  1  0  0  0
 20 44  1  0  0  0
M  END
$$$$
