### 
### Created by X-TOOL on Mon Sep 10 21:13:07 2018
### 

@<TRIPOS>MOLECULE
3qo2_ligand
  226   225     1     0     0
SMALL
GAST_HUCK


@<TRIPOS>ATOM
      1 N          39.4620   20.2870   -5.9610 N.4       1 ALA         0.2377
      2 CA         39.9210   20.1810   -4.5810 C.3       1 ALA         0.0621
      3 C          41.1630   19.2920   -4.4420 C.2       1 ALA         0.2264
      4 O          41.0870   18.1970   -3.8810 O.2       1 ALA        -0.3907
      5 CB         38.7950   19.6630   -3.6910 C.3       1 ALA        -0.0040
      6 N          42.3060   19.7610   -4.9410 N.am      1 ARG        -0.2613
      7 CA         42.4100   21.0550   -5.6110 C.3       1 ARG         0.1283
      8 C          42.0870   20.9240   -7.1040 C.2       1 ARG         0.2037
      9 O          41.2330   21.6400   -7.6380 O.2       1 ARG        -0.3944
     10 CB         43.8050   21.6340   -5.4100 C.3       1 ARG        -0.0244
     11 N          42.7800   20.0030   -7.7680 N.am      1 THR        -0.2613
     12 CA         42.4970   19.6580   -9.1570 C.3       1 THR         0.1565
     13 C          41.6030   18.4180   -9.1940 C.2       1 THR         0.2065
     14 O          41.3800   17.7750   -8.1650 O.2       1 THR        -0.3943
     15 CB         43.8010   19.4150   -9.9510 C.3       1 THR         0.0924
     16 OG1        44.5680   20.6250   -9.9720 O.3       1 THR        -0.3874
     17 CG2        43.5060   19.0000  -11.3820 C.3       1 THR        -0.0346
     18 N          41.0760   18.0990  -10.3710 N.am      1 LYS        -0.2637
     19 CA         40.1620   16.9800  -10.5150 C.3       1 LYS         0.1310
     20 C          40.9500   15.6800  -10.4130 C.2       1 LYS         0.2039
     21 O          41.8920   15.4640  -11.1720 O.2       1 LYS        -0.3944
     22 CB         39.4280   17.0710  -11.8530 C.3       1 LYS        -0.0122
     23 CG         38.8880   18.4630  -12.1600 C.3       1 LYS        -0.0440
     24 CD         38.1290   19.0280  -10.9620 C.3       1 LYS        -0.0124
     25 CE         38.6720   20.3950  -10.5220 C.3       1 LYS        -0.0354
     26 NZ         38.3440   21.4810  -11.4880 N.4       1 LYS         0.2185
     27 N          40.5760   14.8280   -9.4600 N.am      1 GLN        -0.2636
     28 CA         41.2690   13.5650   -9.2450 C.3       1 GLN         0.1330
     29 C          40.5240   12.4310   -9.9440 C.2       1 GLN         0.2041
     30 O          39.4730   11.9880   -9.4790 O.2       1 GLN        -0.3944
     31 CB         41.3880   13.2770   -7.7480 C.3       1 GLN         0.0045
     32 CG         42.1480   14.3340   -6.9740 C.3       1 GLN         0.0412
     33 CD         43.5570   14.4950   -7.4800 C.2       1 GLN         0.1737
     34 OE1        44.3220   13.5300   -7.5450 O.2       1 GLN        -0.3973
     35 NE2        43.9080   15.7160   -7.8640 N.am      1 GLN        -0.3009
     36 N          41.0630   11.9670  -11.0660 N.am      1 THR        -0.2613
     37 CA         40.4050   10.9190  -11.8430 C.3       1 THR         0.1565
     38 C          41.3290    9.7260  -12.1580 C.2       1 THR         0.2065
     39 O          42.5390    9.7970  -11.9620 O.2       1 THR        -0.3943
     40 CB         39.7490   11.4900  -13.1430 C.3       1 THR         0.0924
     41 OG1        40.7590   11.8320  -14.1000 O.3       1 THR        -0.3874
     42 CG2        38.8900   12.7310  -12.8270 C.3       1 THR        -0.0346
     43 N          40.7390    8.6390  -12.6500 N.am      1 ALA        -0.2639
     44 CA         41.4290    7.3610  -12.7960 C.3       1 ALA         0.1282
     45 C          40.5740    6.3890  -13.5900 C.2       1 ALA         0.2036
     46 O          39.3410    6.4970  -13.5820 O.2       1 ALA        -0.3944
     47 CB         41.7200    6.7720  -11.4190 C.3       1 ALA        -0.0244
     48 N          41.2160    5.4310  -14.2650 N.am      1 ARG        -0.2637
     49 CA         40.5120    4.3960  -15.0090 C.3       1 ARG         0.1311
     50 C          39.9480    3.3530  -14.0240 C.2       1 ARG         0.2039
     51 O          40.6410    2.9340  -13.1140 O.2       1 ARG        -0.3944
     52 CB         41.4880    3.7630  -16.0130 C.3       1 ARG        -0.0092
     53 CG         40.8520    3.1890  -17.2810 C.3       1 ARG        -0.0156
     54 CD         41.8950    3.0030  -18.3790 C.3       1 ARG         0.0627
     55 NE         42.4120    4.2820  -18.8640 N.pl3     1 ARG        -0.2723
     56 CZ         41.9740    4.8930  -19.9620 C.cat     1 ARG         0.2882
     57 NH1        41.0130    4.3420  -20.6880 N.pl3     1 ARG        -0.2849
     58 NH2        42.4990    6.0510  -20.3390 N.pl3     1 ARG        -0.2849
     59 N          38.7020    2.9390  -14.2040 N.am      1 M3L        -0.2637
     60 CA         38.0990    1.9770  -13.3010 C.3       1 M3L         0.1310
     61 CB         36.7240    2.4890  -12.9020 C.3       1 M3L        -0.0122
     62 CG         35.8630    1.3640  -12.2450 C.3       1 M3L        -0.0440
     63 CD         34.8090    1.9250  -11.2990 C.3       1 M3L        -0.0123
     64 CE         33.6230    2.4750  -12.0780 C.3       1 M3L        -0.0309
     65 NZ         32.5640    2.9810  -11.2240 N.4       1 M3L         0.2369
     66 C          38.1170    0.5840  -13.9450 C.2       1 M3L         0.2040
     67 O          37.7500    0.4320  -15.1230 O.2       1 M3L        -0.3944
     68 CM1        32.3240    2.0660  -10.1090 C.3       1 M3L        -0.0418
     69 CM2        31.3170    3.0610  -11.9580 C.3       1 M3L        -0.0418
     70 CM3        32.9160    4.2970  -10.7500 C.3       1 M3L        -0.0418
     71 N          38.5400   -0.4210  -13.1950 N.am      1 SER        -0.2616
     72 CA         38.6460   -1.7860  -13.7140 C.3       1 SER         0.1539
     73 C          37.3330   -2.5530  -13.6320 C.2       1 SER         0.2063
     74 O          36.6880   -2.5910  -12.5950 O.2       1 SER        -0.3943
     75 CB         39.7440   -2.5600  -12.9850 C.3       1 SER         0.0843
     76 OG         41.0160   -2.0080  -13.2890 O.3       1 SER        -0.3903
     77 N          36.9590   -3.1800  -14.7400 N.am      1 THR        -0.2613
     78 CA         35.7220   -3.9280  -14.8310 C.3       1 THR         0.1565
     79 C          35.9870   -5.4330  -14.9280 C.2       1 THR         0.2063
     80 O          35.0980   -6.2470  -14.6820 O.2       1 THR        -0.3943
     81 CB         34.8950   -3.4270  -16.0240 C.3       1 THR         0.0924
     82 OG1        35.7460   -3.3000  -17.1650 O.3       1 THR        -0.3874
     83 CG2        34.3530   -2.0540  -15.7140 C.3       1 THR        -0.0346
     84 N          37.2180   -5.8060  -15.2600 N.am      1 GLY        -0.2663
     85 CA         37.5830   -7.2120  -15.3130 C.3       1 GLY         0.1201
     86 C          38.3560   -7.6470  -14.0830 C.2       1 GLY         0.2005
     87 O          38.3170   -6.9800  -13.0580 O.2       1 GLY        -0.3947
     88 N          39.0620   -8.7670  -14.1820 N.am      1 GLY        -0.2666
     89 CA         39.8840   -9.2480  -13.0910 C.3       1 GLY         0.1201
     90 C          40.0660  -10.7450  -13.1750 C.2       1 GLY         0.2007
     91 O          39.3270  -11.4240  -13.8710 O.2       1 GLY        -0.3947
     92 N          41.0530  -11.2650  -12.4620 N.am      1 LYS        -0.2640
     93 CA         41.3510  -12.6940  -12.4870 C.3       1 LYS         0.1309
     94 C          40.0890  -13.5530  -12.4010 C.2       1 LYS         0.2033
     95 O          39.2330  -13.3130  -11.5650 O.2       1 LYS        -0.3944
     96 CB         42.2790  -13.0500  -11.3210 C.3       1 LYS        -0.0122
     97 CG         41.6060  -12.9210   -9.9510 C.3       1 LYS        -0.0440
     98 CD         42.4850  -13.4390   -8.8050 C.3       1 LYS        -0.0124
     99 CE         41.9120  -13.0710   -7.4190 C.3       1 LYS        -0.0354
    100 NZ         40.5710  -13.6800   -7.1220 N.4       1 LYS         0.2185
    101 N          39.9700  -14.5550  -13.2650 N.am      1 ALA        -0.2698
    102 CA         38.9390  -15.5650  -13.0810 C.3       1 ALA         0.0916
    103 C          39.4740  -16.6940  -12.2170 C.2       1 ALA         0.0598
    104 O          39.0250  -16.8880  -11.0900 O.co2     1 ALA        -0.5666
    105 CB         38.4640  -16.1030  -14.3980 C.3       1 ALA        -0.0300
    106 H          40.2227   20.6339   -6.5454 H         1 ALA         0.2015
    107 H          39.1692   19.3678   -6.2922 H         1 ALA         0.2015
    108 H          38.6742   20.9332   -6.0073 H         1 ALA         0.2015
    109 H          40.2082   21.1819   -4.2588 H         1 ALA         0.1095
    110 H          38.5392   18.6454   -3.9862 H         1 ALA         0.0310
    111 H          39.1229   19.6696   -2.6515 H         1 ALA         0.0310
    112 H          37.9213   20.3053   -3.8018 H         1 ALA         0.0310
    113 H          43.1467   19.1905   -4.8511 H         1 ARG         0.1884
    114 H          41.6811   21.7351   -5.1701 H         1 ARG         0.0797
    115 H          44.5403   20.9763   -5.8735 H         1 ARG         0.0277
    116 H          43.8572   22.6208   -5.8701 H         1 ARG         0.0277
    117 H          44.0120   21.7177   -4.3431 H         1 ARG         0.0277
    118 H          43.5386   19.5193   -7.2875 H         1 THR         0.1884
    119 H          41.9801   20.4931   -9.6298 H         1 THR         0.0826
    120 H          44.3543   18.6127   -9.4629 H         1 THR         0.0639
    121 H          45.3794   20.4797  -10.4641 H         1 THR         0.2101
    122 H          42.9240   18.0784  -11.3790 H         1 THR         0.0257
    123 H          42.9388   19.7878  -11.8778 H         1 THR         0.0257
    124 H          44.4442   18.8371  -11.9124 H         1 THR         0.0257
    125 H          41.3190   18.6528  -11.1924 H         1 LYS         0.1883
    126 H          39.4156   17.0058   -9.7210 H         1 LYS         0.0800
    127 H          38.5756   16.3933  -11.8047 H         1 LYS         0.0312
    128 H          40.1432   16.8182  -12.6357 H         1 LYS         0.0312
    129 H          38.2060   18.3958  -13.0076 H         1 LYS         0.0269
    130 H          39.7258   19.1222  -12.3873 H         1 LYS         0.0269
    131 H          38.2447   18.3338  -10.1297 H         1 LYS         0.0317
    132 H          37.0858   19.1551  -11.2513 H         1 LYS         0.0317
    133 H          39.7575   20.3196  -10.4586 H         1 LYS         0.0813
    134 H          38.2119   20.6464   -9.5664 H         1 LYS         0.0813
    135 H          38.7266   22.3634  -11.1484 H         1 LYS         0.1994
    136 H          38.7506   21.2601  -12.3970 H         1 LYS         0.1994
    137 H          37.3310   21.5603  -11.5775 H         1 LYS         0.1994
    138 H          39.7828   15.0664   -8.8646 H         1 GLN         0.1883
    139 H          42.2712   13.6376   -9.6674 H         1 GLN         0.0801
    140 H          41.9377   12.3418   -7.6420 H         1 GLN         0.0337
    141 H          40.3761   13.2462   -7.3439 H         1 GLN         0.0337
    142 H          42.1928   14.0267   -5.9292 H         1 GLN         0.0504
    143 H          41.6301   15.2854   -7.0955 H         1 GLN         0.0504
    144 H          44.8444   15.8857   -8.2311 H         1 GLN         0.1814
    145 H          43.2414   16.4847   -7.7920 H         1 GLN         0.1814
    146 H          41.9514   12.3488  -11.3906 H         1 THR         0.1884
    147 H          39.6096   10.5299  -11.2074 H         1 THR         0.0826
    148 H          39.1035   10.7180  -13.5619 H         1 THR         0.0639
    149 H          41.3422   12.4958  -13.7247 H         1 THR         0.2101
    150 H          38.1007   12.4564  -12.1272 H         1 THR         0.0257
    151 H          39.5186   13.5029  -12.3830 H         1 THR         0.0257
    152 H          38.4456   13.1079  -13.7482 H         1 THR         0.0257
    153 H          39.7624    8.7018  -12.9375 H         1 ALA         0.1883
    154 H          42.3657    7.5279  -13.3278 H         1 ALA         0.0797
    155 H          42.3501    7.4608  -10.8564 H         1 ALA         0.0277
    156 H          40.7820    6.6175  -10.8857 H         1 ALA         0.0277
    157 H          42.2350    5.8183  -11.5346 H         1 ALA         0.0277
    158 H          42.2360    5.4245  -14.2589 H         1 ARG         0.1883
    159 H          39.6728    4.8172  -15.5626 H         1 ARG         0.0800
    160 H          41.9622    2.9271  -15.4988 H         1 ARG         0.0313
    161 H          42.1591    4.5588  -16.3362 H         1 ARG         0.0313
    162 H          40.0905    3.8835  -17.6357 H         1 ARG         0.0301
    163 H          40.4154    2.2185  -17.0450 H         1 ARG         0.0301
    164 H          41.4225    2.4869  -19.2147 H         1 ARG         0.0689
    165 H          42.7273    2.4329  -17.9662 H         1 ARG         0.0689
    166 H          43.1534    4.7332  -18.3281 H         1 ARG         0.2642
    167 H          40.6086    3.4492  -20.4055 H         1 ARG         0.2615
    168 H          40.6773    4.8104  -21.5296 H         1 ARG         0.2615
    169 H          43.2425    6.4779  -19.7864 H         1 ARG         0.2615
    170 H          42.1593    6.5148  -21.1816 H         1 ARG         0.2615
    171 H          38.1597    3.3017  -14.9881 H         1 M3L         0.1883
    172 H          38.6649    1.8676  -12.3759 H         1 M3L         0.0800
    173 H          36.2114    2.8368  -13.7989 H         1 M3L         0.0312
    174 H          36.8519    3.2934  -12.1777 H         1 M3L         0.0312
    175 H          36.5280    0.7206  -11.6689 H         1 M3L         0.0269
    176 H          35.3512    0.8208  -13.0394 H         1 M3L         0.0269
    177 H          35.2528    2.7327  -10.7170 H         1 M3L         0.0317
    178 H          34.4605    1.1247  -10.6461 H         1 M3L         0.0317
    179 H          33.2089    1.6586  -12.6697 H         1 M3L         0.0815
    180 H          33.9829    3.3053  -12.6855 H         1 M3L         0.0815
    181 H          32.0308    1.0908  -10.4976 H         1 M3L         0.0778
    182 H          33.2361    1.9649   -9.5209 H         1 M3L         0.0778
    183 H          31.5268    2.4627   -9.4803 H         1 M3L         0.0778
    184 H          31.4395    3.7325  -12.8078 H         1 M3L         0.0778
    185 H          31.0423    2.0682  -12.3144 H         1 M3L         0.0778
    186 H          30.5345    3.4423  -11.3019 H         1 M3L         0.0778
    187 H          33.8453    4.2411  -10.1831 H         1 M3L         0.0778
    188 H          33.0478    4.9651  -11.6011 H         1 M3L         0.0778
    189 H          32.1200    4.6758  -10.1089 H         1 M3L         0.0778
    190 H          38.8002   -0.2391  -12.2257 H         1 SER         0.1884
    191 H          38.9037   -1.6933  -14.7690 H         1 SER         0.0823
    192 H          39.7205   -3.6013  -13.3063 H         1 SER         0.0606
    193 H          39.5738   -2.4945  -11.9104 H         1 SER         0.0606
    194 H          41.0399   -1.0895  -13.0105 H         1 SER         0.2097
    195 H          37.5656   -3.1335  -15.5587 H         1 THR         0.1884
    196 H          35.1487   -3.7635  -13.9187 H         1 THR         0.0826
    197 H          34.0850   -4.1306  -16.2164 H         1 THR         0.0639
    198 H          35.2320   -2.9869  -17.9129 H         1 THR         0.2101
    199 H          33.7210   -2.1059  -14.8274 H         1 THR         0.0257
    200 H          35.1820   -1.3703  -15.5313 H         1 THR         0.0257
    201 H          33.7657   -1.6971  -16.5600 H         1 THR         0.0257
    202 H          37.9165   -5.0962  -15.4807 H         1 GLY         0.1881
    203 H          38.2177   -7.3660  -16.1857 H         1 GLY         0.0763
    204 H          36.6664   -7.7997  -15.3642 H         1 GLY         0.0763
    205 H          39.0245   -9.3027  -15.0492 H         1 GLY         0.1881
    206 H          39.3930   -9.0063  -12.1484 H         1 GLY         0.0763
    207 H          40.8624   -8.7714  -13.1519 H         1 GLY         0.0763
    208 H          41.6210  -10.6502  -11.8791 H         1 LYS         0.1883
    209 H          41.8353  -12.9050  -13.4405 H         1 LYS         0.0800
    210 H          43.1180  -12.3545  -11.3431 H         1 LYS         0.0312
    211 H          42.5791  -14.0906  -11.4443 H         1 LYS         0.0312
    212 H          40.6949  -13.5191   -9.9692 H         1 LYS         0.0269
    213 H          41.4137  -11.8631   -9.7720 H         1 LYS         0.0269
    214 H          43.4692  -12.9800   -8.8981 H         1 LYS         0.0317
    215 H          42.5296  -14.5258   -8.8761 H         1 LYS         0.0317
    216 H          41.7832  -11.9888   -7.4025 H         1 LYS         0.0813
    217 H          42.6092  -13.4517   -6.6726 H         1 LYS         0.0813
    218 H          40.2651  -13.3894   -6.1934 H         1 LYS         0.1994
    219 H          39.8946  -13.3659   -7.8179 H         1 LYS         0.1994
    220 H          40.6461  -14.6967   -7.1538 H         1 LYS         0.1994
    221 H          40.6045  -14.6166  -14.0613 H         1 ALA         0.1875
    222 H          38.0887  -15.0990  -12.5831 H         1 ALA         0.0723
    223 O1         40.3878  -17.4393  -12.6608 O.co2     1 ALA        -0.5666
    224 H          38.0512  -15.2890  -14.9940 H         1 ALA         0.0270
    225 H          39.3025  -16.5544  -14.9284 H         1 ALA         0.0270
    226 H          37.6943  -16.8552  -14.2254 H         1 ALA         0.0270
@<TRIPOS>BOND
     1    1    2 1  
     2    2    3 1  
     3    2    5 1  
     4    3    4 2  
     5    3    6 am 
     6    6    7 1  
     7    7    8 1  
     8    7   10 1  
     9    8    9 2  
    10    8   11 am 
    11   11   12 1  
    12   12   13 1  
    13   12   15 1  
    14   13   14 2  
    15   13   18 am 
    16   15   16 1  
    17   15   17 1  
    18   18   19 1  
    19   19   20 1  
    20   19   22 1  
    21   20   21 2  
    22   20   27 am 
    23   22   23 1  
    24   23   24 1  
    25   24   25 1  
    26   25   26 1  
    27   27   28 1  
    28   28   29 1  
    29   28   31 1  
    30   29   30 2  
    31   29   36 am 
    32   31   32 1  
    33   32   33 1  
    34   33   34 2  
    35   33   35 am 
    36   36   37 1  
    37   37   38 1  
    38   37   40 1  
    39   38   39 2  
    40   38   43 am 
    41   40   41 1  
    42   40   42 1  
    43   43   44 1  
    44   44   45 1  
    45   44   47 1  
    46   45   46 2  
    47   45   48 am 
    48   48   49 1  
    49   49   50 1  
    50   49   52 1  
    51   50   51 2  
    52   50   59 am 
    53   52   53 1  
    54   53   54 1  
    55   54   55 1  
    56   55   56 ar 
    57   56   57 ar 
    58   56   58 ar 
    59   59   60 1  
    60   60   61 1  
    61   60   66 1  
    62   61   62 1  
    63   62   63 1  
    64   63   64 1  
    65   64   65 1  
    66   65   68 1  
    67   65   69 1  
    68   65   70 1  
    69   66   67 2  
    70   66   71 am 
    71   71   72 1  
    72   72   73 1  
    73   72   75 1  
    74   73   74 2  
    75   73   77 am 
    76   75   76 1  
    77   77   78 1  
    78   78   79 1  
    79   78   81 1  
    80   79   80 2  
    81   79   84 am 
    82   81   82 1  
    83   81   83 1  
    84   84   85 1  
    85   85   86 1  
    86   86   87 2  
    87   86   88 am 
    88   88   89 1  
    89   89   90 1  
    90   90   91 2  
    91   90   92 am 
    92   92   93 1  
    93   93   94 1  
    94   93   96 1  
    95   94   95 2  
    96   94  101 am 
    97   96   97 1  
    98   97   98 1  
    99   98   99 1  
   100   99  100 1  
   101  101  102 1  
   102  102  103 1  
   103  102  105 1  
   104  103  104 ar 
   105    1  106 1  
   106    1  107 1  
   107    1  108 1  
   108    2  109 1  
   109    5  110 1  
   110    5  111 1  
   111    5  112 1  
   112    6  113 1  
   113    7  114 1  
   114   10  115 1  
   115   10  116 1  
   116   10  117 1  
   117   11  118 1  
   118   12  119 1  
   119   15  120 1  
   120   16  121 1  
   121   17  122 1  
   122   17  123 1  
   123   17  124 1  
   124   18  125 1  
   125   19  126 1  
   126   22  127 1  
   127   22  128 1  
   128   23  129 1  
   129   23  130 1  
   130   24  131 1  
   131   24  132 1  
   132   25  133 1  
   133   25  134 1  
   134   26  135 1  
   135   26  136 1  
   136   26  137 1  
   137   27  138 1  
   138   28  139 1  
   139   31  140 1  
   140   31  141 1  
   141   32  142 1  
   142   32  143 1  
   143   35  144 1  
   144   35  145 1  
   145   36  146 1  
   146   37  147 1  
   147   40  148 1  
   148   41  149 1  
   149   42  150 1  
   150   42  151 1  
   151   42  152 1  
   152   43  153 1  
   153   44  154 1  
   154   47  155 1  
   155   47  156 1  
   156   47  157 1  
   157   48  158 1  
   158   49  159 1  
   159   52  160 1  
   160   52  161 1  
   161   53  162 1  
   162   53  163 1  
   163   54  164 1  
   164   54  165 1  
   165   55  166 1  
   166   57  167 1  
   167   57  168 1  
   168   58  169 1  
   169   58  170 1  
   170   59  171 1  
   171   60  172 1  
   172   61  173 1  
   173   61  174 1  
   174   62  175 1  
   175   62  176 1  
   176   63  177 1  
   177   63  178 1  
   178   64  179 1  
   179   64  180 1  
   180   68  181 1  
   181   68  182 1  
   182   68  183 1  
   183   69  184 1  
   184   69  185 1  
   185   69  186 1  
   186   70  187 1  
   187   70  188 1  
   188   70  189 1  
   189   71  190 1  
   190   72  191 1  
   191   75  192 1  
   192   75  193 1  
   193   76  194 1  
   194   77  195 1  
   195   78  196 1  
   196   81  197 1  
   197   82  198 1  
   198   83  199 1  
   199   83  200 1  
   200   83  201 1  
   201   84  202 1  
   202   85  203 1  
   203   85  204 1  
   204   88  205 1  
   205   89  206 1  
   206   89  207 1  
   207   92  208 1  
   208   93  209 1  
   209   96  210 1  
   210   96  211 1  
   211   97  212 1  
   212   97  213 1  
   213   98  214 1  
   214   98  215 1  
   215   99  216 1  
   216   99  217 1  
   217  100  218 1  
   218  100  219 1  
   219  100  220 1  
   220  101  221 1  
   221  102  222 1  
   222  103  223 ar 
   223  105  224 1  
   224  105  225 1  
   225  105  226 1  
@<TRIPOS>SUBSTRUCTURE
     1 ALA         1

