3qo2_ligand
  -I-interpret- 

226225  0  0  0  0  0  0  0  0999 V2000
   39.4620   20.2870   -5.9610 N   0  3  0  0  0
   39.9210   20.1810   -4.5810 C   0  0  0  0  0
   41.1630   19.2920   -4.4420 C   0  0  0  0  0
   41.0870   18.1970   -3.8810 O   0  0  0  0  0
   38.7950   19.6630   -3.6910 C   0  0  0  0  0
   42.3060   19.7610   -4.9410 N   0  0  0  0  0
   42.4100   21.0550   -5.6110 C   0  0  0  0  0
   42.0870   20.9240   -7.1040 C   0  0  0  0  0
   41.2330   21.6400   -7.6380 O   0  0  0  0  0
   43.8050   21.6340   -5.4100 C   0  0  0  0  0
   42.7800   20.0030   -7.7680 N   0  0  0  0  0
   42.4970   19.6580   -9.1570 C   0  0  0  0  0
   41.6030   18.4180   -9.1940 C   0  0  0  0  0
   41.3800   17.7750   -8.1650 O   0  0  0  0  0
   43.8010   19.4150   -9.9510 C   0  0  0  0  0
   44.5680   20.6250   -9.9720 O   0  0  0  0  0
   43.5060   19.0000  -11.3820 C   0  0  0  0  0
   41.0760   18.0990  -10.3710 N   0  0  0  0  0
   40.1620   16.9800  -10.5150 C   0  0  0  0  0
   40.9500   15.6800  -10.4130 C   0  0  0  0  0
   41.8920   15.4640  -11.1720 O   0  0  0  0  0
   39.4280   17.0710  -11.8530 C   0  0  0  0  0
   38.8880   18.4630  -12.1600 C   0  0  0  0  0
   38.1290   19.0280  -10.9620 C   0  0  0  0  0
   38.6720   20.3950  -10.5220 C   0  0  0  0  0
   38.3440   21.4810  -11.4880 N   0  3  0  0  0
   40.5760   14.8280   -9.4600 N   0  0  0  0  0
   41.2690   13.5650   -9.2450 C   0  0  0  0  0
   40.5240   12.4310   -9.9440 C   0  0  0  0  0
   39.4730   11.9880   -9.4790 O   0  0  0  0  0
   41.3880   13.2770   -7.7480 C   0  0  0  0  0
   42.1480   14.3340   -6.9740 C   0  0  0  0  0
   43.5570   14.4950   -7.4800 C   0  0  0  0  0
   44.3220   13.5300   -7.5450 O   0  0  0  0  0
   43.9080   15.7160   -7.8640 N   0  0  0  0  0
   41.0630   11.9670  -11.0660 N   0  0  0  0  0
   40.4050   10.9190  -11.8430 C   0  0  0  0  0
   41.3290    9.7260  -12.1580 C   0  0  0  0  0
   42.5390    9.7970  -11.9620 O   0  0  0  0  0
   39.7490   11.4900  -13.1430 C   0  0  0  0  0
   40.7590   11.8320  -14.1000 O   0  0  0  0  0
   38.8900   12.7310  -12.8270 C   0  0  0  0  0
   40.7390    8.6390  -12.6500 N   0  0  0  0  0
   41.4290    7.3610  -12.7960 C   0  0  0  0  0
   40.5740    6.3890  -13.5900 C   0  0  0  0  0
   39.3410    6.4970  -13.5820 O   0  0  0  0  0
   41.7200    6.7720  -11.4190 C   0  0  0  0  0
   41.2160    5.4310  -14.2650 N   0  0  0  0  0
   40.5120    4.3960  -15.0090 C   0  0  0  0  0
   39.9480    3.3530  -14.0240 C   0  0  0  0  0
   40.6410    2.9340  -13.1140 O   0  0  0  0  0
   41.4880    3.7630  -16.0130 C   0  0  0  0  0
   40.8520    3.1890  -17.2810 C   0  0  0  0  0
   41.8950    3.0030  -18.3790 C   0  0  0  0  0
   42.4120    4.2820  -18.8640 N   0  0  0  0  0
   41.9740    4.8930  -19.9620 C   0  0  0  0  0
   41.0130    4.3420  -20.6880 N   0  0  0  0  0
   42.4990    6.0510  -20.3390 N   0  0  0  0  0
   38.7020    2.9390  -14.2040 N   0  0  0  0  0
   38.0990    1.9770  -13.3010 C   0  0  0  0  0
   36.7240    2.4890  -12.9020 C   0  0  0  0  0
   35.8630    1.3640  -12.2450 C   0  0  0  0  0
   34.8090    1.9250  -11.2990 C   0  0  0  0  0
   33.6230    2.4750  -12.0780 C   0  0  0  0  0
   32.5640    2.9810  -11.2240 N   0  3  0  0  0
   38.1170    0.5840  -13.9450 C   0  0  0  0  0
   37.7500    0.4320  -15.1230 O   0  0  0  0  0
   32.3240    2.0660  -10.1090 C   0  0  0  0  0
   31.3170    3.0610  -11.9580 C   0  0  0  0  0
   32.9160    4.2970  -10.7500 C   0  0  0  0  0
   38.5400   -0.4210  -13.1950 N   0  0  0  0  0
   38.6460   -1.7860  -13.7140 C   0  0  0  0  0
   37.3330   -2.5530  -13.6320 C   0  0  0  0  0
   36.6880   -2.5910  -12.5950 O   0  0  0  0  0
   39.7440   -2.5600  -12.9850 C   0  0  0  0  0
   41.0160   -2.0080  -13.2890 O   0  0  0  0  0
   36.9590   -3.1800  -14.7400 N   0  0  0  0  0
   35.7220   -3.9280  -14.8310 C   0  0  0  0  0
   35.9870   -5.4330  -14.9280 C   0  0  0  0  0
   35.0980   -6.2470  -14.6820 O   0  0  0  0  0
   34.8950   -3.4270  -16.0240 C   0  0  0  0  0
   35.7460   -3.3000  -17.1650 O   0  0  0  0  0
   34.3530   -2.0540  -15.7140 C   0  0  0  0  0
   37.2180   -5.8060  -15.2600 N   0  0  0  0  0
   37.5830   -7.2120  -15.3130 C   0  0  0  0  0
   38.3560   -7.6470  -14.0830 C   0  0  0  0  0
   38.3170   -6.9800  -13.0580 O   0  0  0  0  0
   39.0620   -8.7670  -14.1820 N   0  0  0  0  0
   39.8840   -9.2480  -13.0910 C   0  0  0  0  0
   40.0660  -10.7450  -13.1750 C   0  0  0  0  0
   39.3270  -11.4240  -13.8710 O   0  0  0  0  0
   41.0530  -11.2650  -12.4620 N   0  0  0  0  0
   41.3510  -12.6940  -12.4870 C   0  0  0  0  0
   40.0890  -13.5530  -12.4010 C   0  0  0  0  0
   39.2330  -13.3130  -11.5650 O   0  0  0  0  0
   42.2790  -13.0500  -11.3210 C   0  0  0  0  0
   41.6060  -12.9210   -9.9510 C   0  0  0  0  0
   42.4850  -13.4390   -8.8050 C   0  0  0  0  0
   41.9120  -13.0710   -7.4190 C   0  0  0  0  0
   40.5710  -13.6800   -7.1220 N   0  3  0  0  0
   39.9700  -14.5550  -13.2650 N   0  0  0  0  0
   38.9390  -15.5650  -13.0810 C   0  0  0  0  0
   39.4740  -16.6940  -12.2170 C   0  0  0  0  0
   39.0250  -16.8880  -11.0900 O   0  0  0  0  0
   38.4640  -16.1030  -14.3980 C   0  0  0  0  0
   40.3878  -17.4393  -12.6608 O   0  0  0  0  0
   40.2227   20.6339   -6.5454 H   0  0  0  0  0
   39.1692   19.3678   -6.2922 H   0  0  0  0  0
   38.6742   20.9332   -6.0073 H   0  0  0  0  0
   40.2082   21.1819   -4.2588 H   0  0  0  0  0
   38.5392   18.6454   -3.9862 H   0  0  0  0  0
   39.1229   19.6696   -2.6515 H   0  0  0  0  0
   37.9213   20.3053   -3.8018 H   0  0  0  0  0
   43.1467   19.1905   -4.8511 H   0  0  0  0  0
   41.6811   21.7351   -5.1701 H   0  0  0  0  0
   44.5403   20.9763   -5.8735 H   0  0  0  0  0
   43.8572   22.6208   -5.8701 H   0  0  0  0  0
   44.0120   21.7177   -4.3431 H   0  0  0  0  0
   43.5386   19.5193   -7.2875 H   0  0  0  0  0
   41.9801   20.4931   -9.6298 H   0  0  0  0  0
   44.3543   18.6127   -9.4629 H   0  0  0  0  0
   45.3794   20.4797  -10.4641 H   0  0  0  0  0
   42.9240   18.0784  -11.3790 H   0  0  0  0  0
   42.9388   19.7878  -11.8778 H   0  0  0  0  0
   44.4442   18.8371  -11.9124 H   0  0  0  0  0
   41.3190   18.6528  -11.1924 H   0  0  0  0  0
   39.4156   17.0058   -9.7210 H   0  0  0  0  0
   38.5756   16.3933  -11.8047 H   0  0  0  0  0
   40.1432   16.8182  -12.6357 H   0  0  0  0  0
   38.2060   18.3958  -13.0076 H   0  0  0  0  0
   39.7258   19.1222  -12.3873 H   0  0  0  0  0
   38.2447   18.3338  -10.1297 H   0  0  0  0  0
   37.0858   19.1551  -11.2513 H   0  0  0  0  0
   39.7575   20.3196  -10.4586 H   0  0  0  0  0
   38.2119   20.6464   -9.5664 H   0  0  0  0  0
   38.7266   22.3634  -11.1484 H   0  0  0  0  0
   38.7506   21.2601  -12.3970 H   0  0  0  0  0
   37.3310   21.5603  -11.5775 H   0  0  0  0  0
   39.7828   15.0664   -8.8646 H   0  0  0  0  0
   42.2712   13.6376   -9.6674 H   0  0  0  0  0
   41.9377   12.3418   -7.6420 H   0  0  0  0  0
   40.3761   13.2462   -7.3439 H   0  0  0  0  0
   42.1928   14.0267   -5.9292 H   0  0  0  0  0
   41.6301   15.2854   -7.0955 H   0  0  0  0  0
   44.8444   15.8857   -8.2311 H   0  0  0  0  0
   43.2414   16.4847   -7.7920 H   0  0  0  0  0
   41.9514   12.3488  -11.3906 H   0  0  0  0  0
   39.6096   10.5299  -11.2074 H   0  0  0  0  0
   39.1035   10.7180  -13.5619 H   0  0  0  0  0
   40.3430   12.1807  -14.8918 H   0  0  0  0  0
   38.1007   12.4564  -12.1272 H   0  0  0  0  0
   39.5186   13.5029  -12.3830 H   0  0  0  0  0
   38.4456   13.1079  -13.7482 H   0  0  0  0  0
   39.7624    8.7018  -12.9375 H   0  0  0  0  0
   42.3657    7.5279  -13.3278 H   0  0  0  0  0
   42.3501    7.4608  -10.8564 H   0  0  0  0  0
   40.7820    6.6175  -10.8857 H   0  0  0  0  0
   42.2350    5.8183  -11.5346 H   0  0  0  0  0
   42.2360    5.4245  -14.2589 H   0  0  0  0  0
   39.6728    4.8172  -15.5626 H   0  0  0  0  0
   41.9622    2.9271  -15.4988 H   0  0  0  0  0
   42.1591    4.5588  -16.3362 H   0  0  0  0  0
   40.0905    3.8835  -17.6357 H   0  0  0  0  0
   40.4154    2.2185  -17.0450 H   0  0  0  0  0
   41.4225    2.4869  -19.2147 H   0  0  0  0  0
   42.7273    2.4329  -17.9662 H   0  0  0  0  0
   43.1534    4.7332  -18.3281 H   0  0  0  0  0
   40.6086    3.4492  -20.4055 H   0  0  0  0  0
   42.1625    6.5125  -21.1841 H   0  0  0  0  0
   43.2393    6.4801  -19.7839 H   0  0  0  0  0
   38.1597    3.3017  -14.9881 H   0  0  0  0  0
   38.6649    1.8676  -12.3759 H   0  0  0  0  0
   36.2114    2.8368  -13.7989 H   0  0  0  0  0
   36.8519    3.2934  -12.1777 H   0  0  0  0  0
   36.5280    0.7206  -11.6689 H   0  0  0  0  0
   35.3512    0.8208  -13.0394 H   0  0  0  0  0
   35.2528    2.7327  -10.7170 H   0  0  0  0  0
   34.4605    1.1247  -10.6461 H   0  0  0  0  0
   33.2089    1.6586  -12.6697 H   0  0  0  0  0
   33.9829    3.3053  -12.6855 H   0  0  0  0  0
   32.0308    1.0908  -10.4976 H   0  0  0  0  0
   33.2361    1.9649   -9.5209 H   0  0  0  0  0
   31.5268    2.4627   -9.4803 H   0  0  0  0  0
   31.4395    3.7325  -12.8078 H   0  0  0  0  0
   31.0423    2.0682  -12.3144 H   0  0  0  0  0
   30.5345    3.4423  -11.3019 H   0  0  0  0  0
   33.8453    4.2411  -10.1831 H   0  0  0  0  0
   33.0478    4.9651  -11.6011 H   0  0  0  0  0
   32.1200    4.6758  -10.1089 H   0  0  0  0  0
   38.8002   -0.2391  -12.2257 H   0  0  0  0  0
   38.9037   -1.6933  -14.7690 H   0  0  0  0  0
   39.7205   -3.6013  -13.3063 H   0  0  0  0  0
   39.5738   -2.4945  -11.9104 H   0  0  0  0  0
   41.6968   -2.5018  -12.8260 H   0  0  0  0  0
   37.5656   -3.1335  -15.5587 H   0  0  0  0  0
   35.1487   -3.7635  -13.9187 H   0  0  0  0  0
   34.0850   -4.1306  -16.2164 H   0  0  0  0  0
   35.2320   -2.9869  -17.9129 H   0  0  0  0  0
   33.7210   -2.1059  -14.8274 H   0  0  0  0  0
   35.1820   -1.3703  -15.5313 H   0  0  0  0  0
   33.7657   -1.6971  -16.5600 H   0  0  0  0  0
   37.9165   -5.0962  -15.4807 H   0  0  0  0  0
   38.2177   -7.3660  -16.1857 H   0  0  0  0  0
   36.6664   -7.7997  -15.3642 H   0  0  0  0  0
   39.0245   -9.3027  -15.0492 H   0  0  0  0  0
   39.3930   -9.0063  -12.1484 H   0  0  0  0  0
   40.8624   -8.7714  -13.1519 H   0  0  0  0  0
   41.6210  -10.6502  -11.8791 H   0  0  0  0  0
   41.8353  -12.9050  -13.4405 H   0  0  0  0  0
   43.1180  -12.3545  -11.3431 H   0  0  0  0  0
   42.5791  -14.0906  -11.4443 H   0  0  0  0  0
   40.6949  -13.5191   -9.9692 H   0  0  0  0  0
   41.4137  -11.8631   -9.7720 H   0  0  0  0  0
   43.4692  -12.9800   -8.8981 H   0  0  0  0  0
   42.5296  -14.5258   -8.8761 H   0  0  0  0  0
   41.7832  -11.9888   -7.4025 H   0  0  0  0  0
   42.6092  -13.4517   -6.6726 H   0  0  0  0  0
   40.2651  -13.3894   -6.1934 H   0  0  0  0  0
   39.8946  -13.3659   -7.8179 H   0  0  0  0  0
   40.6461  -14.6967   -7.1538 H   0  0  0  0  0
   40.6045  -14.6166  -14.0613 H   0  0  0  0  0
   38.0887  -15.0990  -12.5831 H   0  0  0  0  0
   38.0512  -15.2890  -14.9940 H   0  0  0  0  0
   39.3025  -16.5544  -14.9284 H   0  0  0  0  0
   37.6943  -16.8552  -14.2254 H   0  0  0  0  0
   40.6260  -17.1584  -13.5474 H   0  0  0  0  0
  1  2  1  0  0  0
  2  3  1  0  0  0
  2  5  1  0  0  0
  3  4  2  0  0  0
  3  6  1  0  0  0
  6  7  1  0  0  0
  7  8  1  0  0  0
  7 10  1  0  0  0
  8  9  2  0  0  0
  8 11  1  0  0  0
 11 12  1  0  0  0
 12 13  1  0  0  0
 12 15  1  0  0  0
 13 14  2  0  0  0
 13 18  1  0  0  0
 15 16  1  0  0  0
 15 17  1  0  0  0
 18 19  1  0  0  0
 19 20  1  0  0  0
 19 22  1  0  0  0
 20 21  2  0  0  0
 20 27  1  0  0  0
 22 23  1  0  0  0
 23 24  1  0  0  0
 24 25  1  0  0  0
 25 26  1  0  0  0
 27 28  1  0  0  0
 28 29  1  0  0  0
 28 31  1  0  0  0
 29 30  2  0  0  0
 29 36  1  0  0  0
 31 32  1  0  0  0
 32 33  1  0  0  0
 33 34  2  0  0  0
 33 35  1  0  0  0
 36 37  1  0  0  0
 37 38  1  0  0  0
 37 40  1  0  0  0
 38 39  2  0  0  0
 38 43  1  0  0  0
 40 41  1  0  0  0
 40 42  1  0  0  0
 43 44  1  0  0  0
 44 45  1  0  0  0
 44 47  1  0  0  0
 45 46  2  0  0  0
 45 48  1  0  0  0
 48 49  1  0  0  0
 49 50  1  0  0  0
 49 52  1  0  0  0
 50 51  2  0  0  0
 50 59  1  0  0  0
 52 53  1  0  0  0
 53 54  1  0  0  0
 54 55  1  0  0  0
 55 56  1  0  0  0
 56 57  2  0  0  0
 56 58  1  0  0  0
 59 60  1  0  0  0
 60 61  1  0  0  0
 60 66  1  0  0  0
 61 62  1  0  0  0
 62 63  1  0  0  0
 63 64  1  0  0  0
 64 65  1  0  0  0
 65 68  1  0  0  0
 65 69  1  0  0  0
 65 70  1  0  0  0
 66 67  2  0  0  0
 66 71  1  0  0  0
 71 72  1  0  0  0
 72 73  1  0  0  0
 72 75  1  0  0  0
 73 74  2  0  0  0
 73 77  1  0  0  0
 75 76  1  0  0  0
 77 78  1  0  0  0
 78 79  1  0  0  0
 78 81  1  0  0  0
 79 80  2  0  0  0
 79 84  1  0  0  0
 81 82  1  0  0  0
 81 83  1  0  0  0
 84 85  1  0  0  0
 85 86  1  0  0  0
 86 87  2  0  0  0
 86 88  1  0  0  0
 88 89  1  0  0  0
 89 90  1  0  0  0
 90 91  2  0  0  0
 90 92  1  0  0  0
 92 93  1  0  0  0
 93 94  1  0  0  0
 93 96  1  0  0  0
 94 95  2  0  0  0
 94101  1  0  0  0
 96 97  1  0  0  0
 97 98  1  0  0  0
 98 99  1  0  0  0
 99100  1  0  0  0
101102  1  0  0  0
102103  1  0  0  0
102105  1  0  0  0
103104  2  0  0  0
103106  1  0  0  0
  1107  1  0  0  0
  1108  1  0  0  0
  1109  1  0  0  0
  2110  1  0  0  0
  5111  1  0  0  0
  5112  1  0  0  0
  5113  1  0  0  0
  6114  1  0  0  0
  7115  1  0  0  0
 10116  1  0  0  0
 10117  1  0  0  0
 10118  1  0  0  0
 11119  1  0  0  0
 12120  1  0  0  0
 15121  1  0  0  0
 16122  1  0  0  0
 17123  1  0  0  0
 17124  1  0  0  0
 17125  1  0  0  0
 18126  1  0  0  0
 19127  1  0  0  0
 22128  1  0  0  0
 22129  1  0  0  0
 23130  1  0  0  0
 23131  1  0  0  0
 24132  1  0  0  0
 24133  1  0  0  0
 25134  1  0  0  0
 25135  1  0  0  0
 26136  1  0  0  0
 26137  1  0  0  0
 26138  1  0  0  0
 27139  1  0  0  0
 28140  1  0  0  0
 31141  1  0  0  0
 31142  1  0  0  0
 32143  1  0  0  0
 32144  1  0  0  0
 35145  1  0  0  0
 35146  1  0  0  0
 36147  1  0  0  0
 37148  1  0  0  0
 40149  1  0  0  0
 41150  1  0  0  0
 42151  1  0  0  0
 42152  1  0  0  0
 42153  1  0  0  0
 43154  1  0  0  0
 44155  1  0  0  0
 47156  1  0  0  0
 47157  1  0  0  0
 47158  1  0  0  0
 48159  1  0  0  0
 49160  1  0  0  0
 52161  1  0  0  0
 52162  1  0  0  0
 53163  1  0  0  0
 53164  1  0  0  0
 54165  1  0  0  0
 54166  1  0  0  0
 55167  1  0  0  0
 57168  1  0  0  0
 58169  1  0  0  0
 58170  1  0  0  0
 59171  1  0  0  0
 60172  1  0  0  0
 61173  1  0  0  0
 61174  1  0  0  0
 62175  1  0  0  0
 62176  1  0  0  0
 63177  1  0  0  0
 63178  1  0  0  0
 64179  1  0  0  0
 64180  1  0  0  0
 68181  1  0  0  0
 68182  1  0  0  0
 68183  1  0  0  0
 69184  1  0  0  0
 69185  1  0  0  0
 69186  1  0  0  0
 70187  1  0  0  0
 70188  1  0  0  0
 70189  1  0  0  0
 71190  1  0  0  0
 72191  1  0  0  0
 75192  1  0  0  0
 75193  1  0  0  0
 76194  1  0  0  0
 77195  1  0  0  0
 78196  1  0  0  0
 81197  1  0  0  0
 82198  1  0  0  0
 83199  1  0  0  0
 83200  1  0  0  0
 83201  1  0  0  0
 84202  1  0  0  0
 85203  1  0  0  0
 85204  1  0  0  0
 88205  1  0  0  0
 89206  1  0  0  0
 89207  1  0  0  0
 92208  1  0  0  0
 93209  1  0  0  0
 96210  1  0  0  0
 96211  1  0  0  0
 97212  1  0  0  0
 97213  1  0  0  0
 98214  1  0  0  0
 98215  1  0  0  0
 99216  1  0  0  0
 99217  1  0  0  0
100218  1  0  0  0
100219  1  0  0  0
100220  1  0  0  0
101221  1  0  0  0
102222  1  0  0  0
105223  1  0  0  0
105224  1  0  0  0
105225  1  0  0  0
106226  1  0  0  0
M  END
$$$$
