3w9r_ligand
  -I-interpret- 

 39 39  0  0  0  0  0  0  0  0999 V2000
   38.3560  -40.9270   -6.7730 C   0  0  0  0  0
   37.3830  -41.4280   -7.7860 C   0  0  0  0  0
   37.1140  -42.7330   -8.0660 C   0  0  0  0  0
   37.7400  -43.8870   -7.4050 C   0  0  0  0  0
   37.5860  -45.1540   -7.8870 C   0  0  0  0  0
   36.1210  -42.9670   -9.1800 C   0  0  0  0  0
   38.2680  -46.3410   -7.2470 C   0  0  0  0  0
   39.2770  -45.8470   -6.3680 O   0  0  0  0  0
   37.2500  -47.1040   -6.4100 C   0  0  0  0  0
   36.5970  -48.1610   -6.9320 C   0  0  0  0  0
   36.8340  -48.6240   -8.3180 C   0  0  0  0  0
   36.1630  -49.5450   -8.7960 O   0  0  0  0  0
   37.8960  -47.9430   -9.1760 C   0  0  0  0  0
   38.8720  -41.7100   -5.9710 O   0  0  0  0  0
   38.9450  -47.2510   -8.2950 C   0  0  0  0  0
   38.6710  -39.7160   -6.7850 O   0  0  0  0  0
   36.9880  -46.6390   -4.9980 C   0  0  0  0  0
   39.8280  -48.3000   -7.6390 C   0  0  0  0  0
   39.7920  -46.3940   -9.2480 C   0  0  0  0  0
   36.8350  -40.6781   -8.3565 H   0  0  0  0  0
   38.3407  -43.7269   -6.5097 H   0  0  0  0  0
   36.9525  -45.3148   -8.7593 H   0  0  0  0  0
   35.1689  -42.5049   -8.9193 H   0  0  0  0  0
   36.5002  -42.5256  -10.1017 H   0  0  0  0  0
   35.9799  -44.0387   -9.3201 H   0  0  0  0  0
   39.9316  -45.3612   -6.8750 H   0  0  0  0  0
   35.8720  -48.6914   -6.3146 H   0  0  0  0  0
   37.4139  -47.1936   -9.8038 H   0  0  0  0  0
   38.3918  -48.6974   -9.7869 H   0  0  0  0  0
   38.1725  -39.2636   -7.4695 H   0  0  0  0  0
   35.9390  -46.3606   -4.8973 H   0  0  0  0  0
   37.2196  -47.4456   -4.3024 H   0  0  0  0  0
   37.6169  -45.7762   -4.7784 H   0  0  0  0  0
   40.6064  -47.8058   -7.0576 H   0  0  0  0  0
   39.2221  -48.9234   -6.9815 H   0  0  0  0  0
   40.2864  -48.9203   -8.4091 H   0  0  0  0  0
   39.1500  -45.6725   -9.7534 H   0  0  0  0  0
   40.5559  -45.8656   -8.6776 H   0  0  0  0  0
   40.2690  -47.0380   -9.9868 H   0  0  0  0  0
  1  2  1  0  0  0
  1 14  2  0  0  0
  1 16  1  0  0  0
  2  3  2  0  0  0
  3  4  1  0  0  0
  3  6  1  0  0  0
  4  5  2  0  0  0
  5  7  1  0  0  0
  7  8  1  0  0  0
  7  9  1  0  0  0
  7 15  1  0  0  0
  9 10  2  0  0  0
  9 17  1  0  0  0
 10 11  1  0  0  0
 11 12  2  0  0  0
 11 13  1  0  0  0
 13 15  1  0  0  0
 15 18  1  0  0  0
 15 19  1  0  0  0
  2 20  1  0  0  0
  4 21  1  0  0  0
  5 22  1  0  0  0
  6 23  1  0  0  0
  6 24  1  0  0  0
  6 25  1  0  0  0
  8 26  1  0  0  0
 10 27  1  0  0  0
 13 28  1  0  0  0
 13 29  1  0  0  0
 16 30  1  0  0  0
 17 31  1  0  0  0
 17 32  1  0  0  0
 17 33  1  0  0  0
 18 34  1  0  0  0
 18 35  1  0  0  0
 18 36  1  0  0  0
 19 37  1  0  0  0
 19 38  1  0  0  0
 19 39  1  0  0  0
M  END
$$$$
