5akj_ligand
  -I-interpret- 

 22 23  0  0  0  0  0  0  0  0999 V2000
   19.6820   10.3050   12.3430 C   0  0  0  0  0
   19.5540    8.8900   12.6360 C   0  0  0  0  0
   18.5640    8.3970   13.5790 C   0  0  0  0  0
   17.7530    9.4050   14.2260 C   0  0  0  0  0
   17.8670   10.7910   13.9520 C   0  0  0  0  0
   18.8090   11.2930   12.9960 C   0  0  0  0  0
   16.8960   11.4190   14.7910 N   0  0  0  0  0
   16.2820   10.4410   15.5120 C   0  0  0  0  0
   16.7820    9.2380   15.1640 N   0  0  0  0  0
   15.0480   10.6480   16.6600 S   0  0  0  0  0
   15.7030   11.8740   17.9700 C   0  0  0  0  0
   14.6240   13.0010   18.4150 C   0  0  0  0  0
   13.7030   12.2540   19.3070 O   0  0  0  0  0
   20.4348   10.6406   11.6297 H   0  0  0  0  0
   20.2150    8.1808   12.1379 H   0  0  0  0  0
   18.4404    7.3340   13.7858 H   0  0  0  0  0
   18.8756   12.3559   12.7637 H   0  0  0  0  0
   16.5527   12.3954   17.5293 H   0  0  0  0  0
   15.9520   11.2951   18.8594 H   0  0  0  0  0
   14.1124   13.4526   17.5650 H   0  0  0  0  0
   15.0872   13.8553   18.9087 H   0  0  0  0  0
   13.0182   12.8462   19.6263 H   0  0  0  0  0
  1  2  4  0  0  0
  1  6  4  0  0  0
  2  3  4  0  0  0
  3  4  4  0  0  0
  4  5  4  0  0  0
  4  9  4  0  0  0
  5  6  4  0  0  0
  5  7  4  0  0  0
  7  8  4  0  0  0
  8  9  4  0  0  0
  8 10  1  0  0  0
 10 11  1  0  0  0
 11 12  1  0  0  0
 12 13  1  0  0  0
  1 14  1  0  0  0
  2 15  1  0  0  0
  3 16  1  0  0  0
  6 17  1  0  0  0
 11 18  1  0  0  0
 11 19  1  0  0  0
 12 20  1  0  0  0
 12 21  1  0  0  0
 13 22  1  0  0  0
M  END
$$$$
