6qw8_ligand
  -I-interpret- 

 47 48  0  0  0  0  0  0  0  0999 V2000
   -7.9090   -1.1160   10.4630 C   0  0  0  0  0
   -2.5530    4.0920   10.6620 C   0  0  0  0  0
   -4.9030    4.6440   11.4690 C   0  0  0  0  0
   -7.5420   -1.2440   12.9580 C   0  0  0  0  0
   -5.9290   -3.0810   13.1500 C   0  0  0  0  0
   -5.5990   -1.3110   11.5210 C   0  0  0  0  0
   -6.4170   -1.4810   10.2420 C   0  0  0  0  0
   -3.0720    2.7190   10.2070 C   0  0  0  0  0
   -5.3500    3.1990   11.1070 C   0  0  0  0  0
   -4.1510    2.2120   11.1690 C   0  0  0  0  0
   -5.2500    0.1420   11.7620 C   0  0  0  0  0
   -8.4730   -1.6670   11.8170 C   0  0  0  0  0
   -3.6550    5.1100   10.7340 N   0  3  0  0  0
   -4.5290    0.8320   10.8940 N   0  0  0  0  0
   -8.4190   -3.1750   11.7500 N   0  3  0  0  0
   -6.2900   -1.8920   12.6260 N   0  0  0  0  0
   -7.9120   -5.5930    9.5770 O   0  0  0  0  0
   -4.9720   -3.7350   12.6630 O   0  0  0  0  0
   -5.5810    0.7250   12.8220 O   0  0  0  0  0
   -8.1790   -5.2740   11.9450 O   0  0  0  0  0
  -10.1280   -5.6630   10.6570 O   0  0  0  0  0
   -8.9100   -3.6120   10.5450 O   0  0  0  0  0
   -8.7710   -5.2380   10.6530 S   0  0  0  0  0
   -8.4861   -1.5632    9.6537 H   0  0  0  0  0
   -7.9875   -0.0291   10.4856 H   0  0  0  0  0
   -1.8155    4.4366    9.9371 H   0  0  0  0  0
   -2.1226    3.9825   11.6574 H   0  0  0  0  0
   -4.6724    4.6531   12.5343 H   0  0  0  0  0
   -5.7144    5.3137   11.1840 H   0  0  0  0  0
   -7.9192   -1.5379   13.9375 H   0  0  0  0  0
   -7.4447   -0.1615   13.0401 H   0  0  0  0  0
   -6.4734   -3.4798   14.0060 H   0  0  0  0  0
   -4.6531   -1.8402   11.4054 H   0  0  0  0  0
   -6.0091   -0.8146    9.4820 H   0  0  0  0  0
   -6.3606   -2.5251    9.9342 H   0  0  0  0  0
   -2.2433    2.0110   10.1973 H   0  0  0  0  0
   -3.5011    2.8138    9.2095 H   0  0  0  0  0
   -5.7491    3.2006   10.0927 H   0  0  0  0  0
   -6.1051    2.8769   11.8241 H   0  0  0  0  0
   -3.7628    2.1896   12.1873 H   0  0  0  0  0
   -9.4837   -1.2937   11.9820 H   0  0  0  0  0
   -3.9341    5.3141    9.7744 H   0  0  0  0  0
   -3.2876    5.9096   11.2498 H   0  0  0  0  0
   -4.2341    0.3929   10.0219 H   0  0  0  0  0
   -8.9862   -3.5639   12.5033 H   0  0  0  0  0
   -7.4504   -3.4797   11.8469 H   0  0  0  0  0
  -10.5614   -5.3386   11.4498 H   0  0  0  0  0
  1  7  1  0  0  0
 12  1  1  0  0  0
  8  2  1  0  0  0
  2 13  1  0  0  0
  9  3  1  0  0  0
  3 13  1  0  0  0
 12  4  1  0  0  0
  4 16  1  0  0  0
 16  5  1  0  0  0
  5 18  2  0  0  0
  7  6  1  0  0  0
  6 11  1  0  0  0
 16  6  1  0  0  0
 10  8  1  0  0  0
 10  9  1  0  0  0
 14 10  1  0  0  0
 11 14  1  0  0  0
 11 19  2  0  0  0
 15 12  1  0  0  0
 22 15  1  0  0  0
 23 17  2  0  0  0
 23 20  2  0  0  0
 23 21  1  0  0  0
 22 23  1  0  0  0
  1 24  1  0  0  0
  1 25  1  0  0  0
  2 26  1  0  0  0
  2 27  1  0  0  0
  3 28  1  0  0  0
  3 29  1  0  0  0
  4 30  1  0  0  0
  4 31  1  0  0  0
  5 32  1  0  0  0
  6 33  1  0  0  0
  7 34  1  0  0  0
  7 35  1  0  0  0
  8 36  1  0  0  0
  8 37  1  0  0  0
  9 38  1  0  0  0
  9 39  1  0  0  0
 10 40  1  0  0  0
 12 41  1  0  0  0
 13 42  1  0  0  0
 13 43  1  0  0  0
 14 44  1  0  0  0
 15 45  1  0  0  0
 15 46  1  0  0  0
 21 47  1  0  0  0
M  END
$$$$
