5abw_ligand
  -I-interpret- 

 62 65  0  0  0  0  0  0  0  0999 V2000
   27.9720  -21.3410    6.5520 C   0  0  0  0  0
   28.1070  -20.1500    5.6080 C   0  0  0  0  0
   27.8050  -18.8510    5.9530 O   0  0  0  0  0
   28.0660  -18.0400    4.8380 N   0  0  0  0  0
   28.4600  -18.8410    3.8350 C   0  0  0  0  0
   28.7890  -18.2480    2.4850 C   0  0  0  0  0
   28.5210  -20.1820    4.2720 C   0  0  0  0  0
   28.8920  -21.3710    3.5680 C   0  0  0  0  0
   30.0260  -22.0920    3.9850 C   0  0  0  0  0
   28.1660  -21.8940    2.5000 C   0  0  0  0  0
   26.9190  -21.2010    1.9670 C   0  0  0  0  0
   28.5840  -23.0840    1.8560 N   0  0  0  0  0
   27.8620  -23.6280    0.7630 C   0  0  0  0  0
   26.7030  -24.3340    1.0090 C   0  0  0  0  0
   25.9980  -24.8680   -0.0570 C   0  0  0  0  0
   24.5580  -25.7750    0.2660 Cl  0  0  0  0  0
   26.4460  -24.7350   -1.3580 C   0  0  0  0  0
   27.6420  -24.0520   -1.6110 C   0  0  0  0  0
   28.3450  -23.4910   -0.5390 C   0  0  0  0  0
   29.7080  -23.7960    2.2780 C   0  0  0  0  0
   29.9870  -24.8400    1.6570 O   0  0  0  0  0
   30.4190  -23.3080    3.3880 C   0  0  0  0  0
   31.6960  -23.9460    3.8940 C   0  0  0  0  0
   32.3110  -23.4490    4.8570 O   0  0  0  0  0
   32.1520  -24.9860    3.2020 N   0  0  0  0  0
   33.4520  -25.5530    3.5880 C   0  0  0  0  0
   33.4900  -26.6700    4.6190 C   0  0  0  0  0
   32.3660  -27.1530    5.2540 C   0  0  0  0  0
   32.5110  -28.1990    6.1650 C   0  0  0  0  0
   33.7680  -28.7350    6.4380 C   0  0  0  0  0
   33.8850  -30.0630    7.5940 S   0  0  0  0  0
   32.8740  -29.5960    8.9660 C   0  0  0  0  0
   35.3030  -30.3050    7.9950 O   0  0  0  0  0
   33.3030  -31.2870    6.9670 O   0  0  0  0  0
   34.8960  -28.2300    5.8110 C   0  0  0  0  0
   34.7570  -27.2000    4.9000 C   0  0  0  0  0
   28.6112  -21.1880    7.4216 H   0  0  0  0  0
   26.9345  -21.4323    6.8736 H   0  0  0  0  0
   28.2742  -22.2505    6.0329 H   0  0  0  0  0
   27.9102  -17.7389    2.0893 H   0  0  0  0  0
   29.6061  -17.5346    2.5923 H   0  0  0  0  0
   29.0872  -19.0441    1.8028 H   0  0  0  0  0
   30.6259  -21.6942    4.8036 H   0  0  0  0  0
   28.2371  -21.6217    3.5530 H   0  0  0  0  0
   26.1760  -21.1312    2.7615 H   0  0  0  0  0
   27.1800  -20.2002    1.6230 H   0  0  0  0  0
   26.5116  -21.7773    1.1364 H   0  0  0  0  0
   26.3462  -24.4701    2.0299 H   0  0  0  0  0
   25.8719  -25.1591   -2.1818 H   0  0  0  0  0
   28.0202  -23.9586   -2.6290 H   0  0  0  0  0
   29.2713  -22.9462   -0.7213 H   0  0  0  0  0
   29.8634  -24.1944    3.6940 H   0  0  0  0  0
   31.6164  -25.3780    2.4275 H   0  0  0  0  0
   33.9940  -24.7268    4.0481 H   0  0  0  0  0
   33.8468  -25.9990    2.6751 H   0  0  0  0  0
   31.3843  -26.7263    5.0484 H   0  0  0  0  0
   31.6321  -28.6014    6.6686 H   0  0  0  0  0
   32.8848  -30.3915    9.7111 H   0  0  0  0  0
   33.2633  -28.6783    9.4068 H   0  0  0  0  0
   31.8524  -29.4312    8.6234 H   0  0  0  0  0
   35.8810  -28.6402    6.0337 H   0  0  0  0  0
   35.6368  -26.7978    4.3976 H   0  0  0  0  0
  1  2  1  0  0  0
  2  3  4  0  0  0
  2  7  4  0  0  0
  3  4  4  0  0  0
  4  5  4  0  0  0
  5  6  1  0  0  0
  5  7  4  0  0  0
  7  8  1  0  0  0
  8  9  2  0  0  0
  8 10  1  0  0  0
  9 22  1  0  0  0
 10 11  1  0  0  0
 10 12  1  0  0  0
 12 13  1  0  0  0
 12 20  1  0  0  0
 13 14  4  0  0  0
 13 19  4  0  0  0
 14 15  4  0  0  0
 15 16  1  0  0  0
 15 17  4  0  0  0
 17 18  4  0  0  0
 18 19  4  0  0  0
 20 21  2  0  0  0
 20 22  1  0  0  0
 22 23  1  0  0  0
 23 24  2  0  0  0
 23 25  1  0  0  0
 25 26  1  0  0  0
 26 27  1  0  0  0
 27 28  4  0  0  0
 27 36  4  0  0  0
 28 29  4  0  0  0
 29 30  4  0  0  0
 30 31  1  0  0  0
 30 35  4  0  0  0
 31 32  1  0  0  0
 31 33  2  0  0  0
 31 34  2  0  0  0
 35 36  4  0  0  0
  1 37  1  0  0  0
  1 38  1  0  0  0
  1 39  1  0  0  0
  6 40  1  0  0  0
  6 41  1  0  0  0
  6 42  1  0  0  0
  9 43  1  0  0  0
 10 44  1  0  0  0
 11 45  1  0  0  0
 11 46  1  0  0  0
 11 47  1  0  0  0
 14 48  1  0  0  0
 17 49  1  0  0  0
 18 50  1  0  0  0
 19 51  1  0  0  0
 22 52  1  0  0  0
 25 53  1  0  0  0
 26 54  1  0  0  0
 26 55  1  0  0  0
 28 56  1  0  0  0
 29 57  1  0  0  0
 32 58  1  0  0  0
 32 59  1  0  0  0
 32 60  1  0  0  0
 35 61  1  0  0  0
 36 62  1  0  0  0
M  END
$$$$
