4gfd_ligand
  -I-interpret- 

 73 76  0  0  0  0  0  0  0  0999 V2000
   16.0910   -1.8730    3.3050 C   0  0  0  0  0
   14.3000    1.6030    7.9400 C   0  0  0  0  0
   13.3380    2.2990    7.2500 C   0  0  0  0  0
   15.9730   -0.9470    4.3290 C   0  0  0  0  0
   17.0500   -1.7000    2.3290 C   0  0  0  0  0
   14.6380    2.1310    5.2580 C   0  0  0  0  0
   17.8000    0.3210    3.3910 C   0  0  0  0  0
   15.4420    1.1840    7.2990 C   0  0  0  0  0
   13.4780    2.5470    5.8950 C   0  0  0  0  0
   16.8230    0.1470    4.3470 C   0  0  0  0  0
   15.6180    1.4550    5.9490 C   0  0  0  0  0
   17.8980   -0.6110    2.3770 C   0  0  0  0  0
   11.6840   -1.1170    1.8630 C   0  0  0  0  0
   12.1180   -1.8400    0.8150 C   0  0  0  0  0
   12.0020   -1.2640   -0.5160 C   0  0  0  0  0
   11.0470    0.7650    0.4950 C   0  0  0  0  0
   16.4420    0.4890    8.1250 C   0  0  0  0  0
    9.3770    0.9130    5.0670 C   0  0  0  0  0
    9.7630    0.0800    3.8430 C   0  0  0  0  0
   10.5990    1.5900    5.6720 C   0  0  0  0  0
   11.7570    1.5710    3.5840 C   0  0  0  0  0
   10.6440    0.8730    2.8640 C   0  0  0  0  0
   12.7310   -3.1930    0.9480 C   0  0  0  0  0
   13.6540    6.5070    3.4120 C   0  0  0  0  0
   12.3300    6.4060    5.4450 C   0  0  0  0  0
   14.6600    5.6020    5.4140 C   0  0  0  0  0
   12.8870    4.2880    4.1510 C   0  0  0  0  0
   12.3620    3.2730    5.1850 C   0  0  0  0  0
   13.3700    5.6630    4.6360 C   0  0  0  0  0
   11.4390   -0.0010   -0.5720 N   0  0  0  0  0
   11.1220    0.1320    1.7160 N   0  0  0  0  0
   11.2630    2.4320    4.6600 N   0  3  0  0  0
   12.3530   -1.8310   -1.5490 O   0  0  0  0  0
   10.6530    1.9180    0.3480 O   0  0  0  0  0
   16.9000    0.9390    9.1620 O   0  0  0  0  0
   16.7120   -0.7330    7.6180 O   0  0  0  0  0
   16.8000    1.1040    5.3410 O   0  0  0  0  0
   19.2090   -0.3020    1.0560 Br  0  0  0  0  0
   15.4270   -2.7367    3.2709 H   0  0  0  0  0
   14.1580    1.3823    8.9979 H   0  0  0  0  0
   12.4539    2.6604    7.7752 H   0  0  0  0  0
   15.2226   -1.0773    5.1088 H   0  0  0  0  0
   17.1387   -2.4237    1.5187 H   0  0  0  0  0
   14.7751    2.3420    4.1974 H   0  0  0  0  0
   18.4785    1.1730    3.4342 H   0  0  0  0  0
   11.7806   -1.5347    2.8651 H   0  0  0  0  0
    8.9361    0.2535    5.8145 H   0  0  0  0  0
    8.6680    1.6812    4.7583 H   0  0  0  0  0
    8.8490   -0.2079    3.3237 H   0  0  0  0  0
   10.3274   -0.7877    4.1845 H   0  0  0  0  0
   11.2969    0.8273    6.0173 H   0  0  0  0  0
   10.2851    2.2150    6.5080 H   0  0  0  0  0
   12.2874    2.1957    2.8654 H   0  0  0  0  0
   12.4042    0.8131    4.0253 H   0  0  0  0  0
    9.9785    1.6206    2.4324 H   0  0  0  0  0
   13.6257   -3.1259    1.5670 H   0  0  0  0  0
   12.0154   -3.8705    1.4138 H   0  0  0  0  0
   12.9984   -3.5680   -0.0399 H   0  0  0  0  0
   12.7354    6.6350    2.8394 H   0  0  0  0  0
   14.0284    7.4821    3.7235 H   0  0  0  0  0
   14.4020    6.0095    2.7948 H   0  0  0  0  0
   12.7221    7.3825    5.7292 H   0  0  0  0  0
   11.4292    6.5354    4.8451 H   0  0  0  0  0
   12.0919    5.8336    6.3416 H   0  0  0  0  0
   15.4346    5.1485    4.7957 H   0  0  0  0  0
   14.9617    6.6112    5.6945 H   0  0  0  0  0
   14.5130    5.0024    6.3123 H   0  0  0  0  0
   12.0329    4.5011    3.5082 H   0  0  0  0  0
   13.7696    3.8170    3.7183 H   0  0  0  0  0
   11.8764    3.8347    5.9830 H   0  0  0  0  0
   11.3021    0.3999   -1.4999 H   0  0  0  0  0
   10.5620    3.0900    4.3193 H   0  0  0  0  0
   16.2308   -0.8505    6.7957 H   0  0  0  0  0
  4  1  4  0  0  0
  1  5  4  0  0  0
  3  2  4  0  0  0
  2  8  4  0  0  0
  9  3  4  0  0  0
 10  4  4  0  0  0
 12  5  4  0  0  0
  9  6  4  0  0  0
  6 11  4  0  0  0
 10  7  4  0  0  0
  7 12  4  0  0  0
 11  8  4  0  0  0
  8 17  1  0  0  0
 28  9  1  0  0  0
 37 10  1  0  0  0
 11 37  1  0  0  0
 12 38  1  0  0  0
 13 14  2  0  0  0
 31 13  1  0  0  0
 14 15  1  0  0  0
 14 23  1  0  0  0
 30 15  1  0  0  0
 15 33  2  0  0  0
 16 30  1  0  0  0
 31 16  1  0  0  0
 16 34  2  0  0  0
 17 35  2  0  0  0
 17 36  1  0  0  0
 18 19  1  0  0  0
 20 18  1  0  0  0
 22 19  1  0  0  0
 32 20  1  0  0  0
 21 22  1  0  0  0
 32 21  1  0  0  0
 22 31  1  0  0  0
 29 24  1  0  0  0
 29 25  1  0  0  0
 29 26  1  0  0  0
 28 27  1  0  0  0
 27 29  1  0  0  0
 28 32  1  0  0  0
  1 39  1  0  0  0
  2 40  1  0  0  0
  3 41  1  0  0  0
  4 42  1  0  0  0
  5 43  1  0  0  0
  6 44  1  0  0  0
  7 45  1  0  0  0
 13 46  1  0  0  0
 18 47  1  0  0  0
 18 48  1  0  0  0
 19 49  1  0  0  0
 19 50  1  0  0  0
 20 51  1  0  0  0
 20 52  1  0  0  0
 21 53  1  0  0  0
 21 54  1  0  0  0
 22 55  1  0  0  0
 23 56  1  0  0  0
 23 57  1  0  0  0
 23 58  1  0  0  0
 24 59  1  0  0  0
 24 60  1  0  0  0
 24 61  1  0  0  0
 25 62  1  0  0  0
 25 63  1  0  0  0
 25 64  1  0  0  0
 26 65  1  0  0  0
 26 66  1  0  0  0
 26 67  1  0  0  0
 27 68  1  0  0  0
 27 69  1  0  0  0
 28 70  1  0  0  0
 30 71  1  0  0  0
 32 72  1  0  0  0
 36 73  1  0  0  0
M  END
$$$$
