### 
### Created by X-TOOL on Mon Sep 10 21:13:09 2018
### 

@<TRIPOS>MOLECULE
4gfd_ligand
   71    74     1     0     0
SMALL
GAST_HUCK


@<TRIPOS>ATOM
      1 C31        16.0910   -1.8730    3.3050 C.ar      1 0YB        -0.0668
      2 C24        14.3000    1.6030    7.9400 C.ar      1 0YB        -0.0616
      3 C23        13.3380    2.2990    7.2500 C.ar      1 0YB        -0.0685
      4 C30        15.9730   -0.9470    4.3290 C.ar      1 0YB        -0.0254
      5 C32        17.0500   -1.7000    2.3290 C.ar      1 0YB        -0.0626
      6 C27        14.6380    2.1310    5.2580 C.ar      1 0YB        -0.0252
      7 C34        17.8000    0.3210    3.3910 C.ar      1 0YB        -0.0185
      8 C25        15.4420    1.1840    7.2990 C.ar      1 0YB         0.0364
      9 C22        13.4780    2.5470    5.8950 C.ar      1 0YB        -0.0651
     10 C29        16.8230    0.1470    4.3470 C.ar      1 0YB         0.1198
     11 C26        15.6180    1.4550    5.9490 C.ar      1 0YB         0.1246
     12 C33        17.8980   -0.6110    2.3770 C.ar      1 0YB         0.0054
     13 C3         11.6840   -1.1170    1.8630 C.2       1 0YB         0.0500
     14 C2         12.1180   -1.8400    0.8150 C.2       1 0YB         0.0224
     15 C8         12.0020   -1.2640   -0.5160 C.2       1 0YB         0.1930
     16 C5         11.0470    0.7650    0.4950 C.2       1 0YB         0.3246
     17 C36        16.4420    0.4890    8.1250 C.2       1 0YB         0.0546
     18 C12         9.3770    0.9130    5.0670 C.3       1 0YB        -0.0688
     19 C11         9.7630    0.0800    3.8430 C.3       1 0YB        -0.0268
     20 C13        10.5990    1.5900    5.6720 C.3       1 0YB        -0.1096
     21 C15        11.7570    1.5710    3.5840 C.3       1 0YB        -0.0793
     22 C10        10.6440    0.8730    2.8640 C.3       1 0YB         0.0543
     23 C1         12.7310   -3.1930    0.9480 C.3       1 0YB        -0.0437
     24 C19        13.6540    6.5070    3.4120 C.3       1 0YB        -0.0600
     25 C20        12.3300    6.4060    5.4450 C.3       1 0YB        -0.0600
     26 C21        14.6600    5.6020    5.4140 C.3       1 0YB        -0.0600
     27 C17        12.8870    4.2880    4.1510 C.3       1 0YB        -0.0538
     28 C16        12.3620    3.2730    5.1850 C.3       1 0YB        -0.0640
     29 C18        13.3700    5.6630    4.6360 C.3       1 0YB        -0.0375
     30 N7         11.4390   -0.0010   -0.5720 N.am      1 0YB        -0.1860
     31 N4         11.1220    0.1320    1.7160 N.am      1 0YB        -0.1998
     32 N14        11.2630    2.4320    4.6600 N.4       1 0YB         0.4122
     33 O9         12.3530   -1.8310   -1.5490 O.2       1 0YB        -0.4079
     34 O6         10.6530    1.9180    0.3480 O.2       1 0YB        -0.3843
     35 O37        16.9000    0.9390    9.1620 O.co2     1 0YB        -0.5658
     36 O38        16.7120   -0.7330    7.6180 O.co2     1 0YB        -0.5658
     37 O28        16.8000    1.1040    5.3410 O.3       1 0YB        -0.2556
     38 BR3        19.2090   -0.3020    1.0560 Br        1 0YB        -0.0526
     39 H          15.4270   -2.7367    3.2709 H         1 0YB         0.0597
     40 H          14.1580    1.3823    8.9979 H         1 0YB         0.0608
     41 H          12.4539    2.6604    7.7752 H         1 0YB         0.0478
     42 H          15.2226   -1.0773    5.1088 H         1 0YB         0.0577
     43 H          17.1387   -2.4237    1.5187 H         1 0YB         0.0555
     44 H          14.7751    2.3420    4.1974 H         1 0YB         0.0496
     45 H          18.4785    1.1730    3.4342 H         1 0YB         0.0580
     46 H          11.7806   -1.5347    2.8651 H         1 0YB         0.1010
     47 H           8.9361    0.2535    5.8145 H         1 0YB         0.0247
     48 H           8.6680    1.6812    4.7583 H         1 0YB         0.0247
     49 H           8.8490   -0.2079    3.3237 H         1 0YB         0.0292
     50 H          10.3274   -0.7877    4.1845 H         1 0YB         0.0292
     51 H          11.2969    0.8273    6.0173 H         1 0YB         0.0020
     52 H          10.2851    2.2150    6.5080 H         1 0YB         0.0020
     53 H          12.2874    2.1957    2.8654 H         1 0YB         0.0049
     54 H          12.4042    0.8131    4.0253 H         1 0YB         0.0049
     55 H           9.9785    1.6206    2.4324 H         1 0YB         0.0621
     56 H          13.6257   -3.1259    1.5670 H         1 0YB         0.0296
     57 H          12.0154   -3.8705    1.4138 H         1 0YB         0.0296
     58 H          12.9984   -3.5680   -0.0399 H         1 0YB         0.0296
     59 H          12.7354    6.6350    2.8394 H         1 0YB         0.0235
     60 H          14.0284    7.4821    3.7235 H         1 0YB         0.0235
     61 H          14.4020    6.0095    2.7948 H         1 0YB         0.0235
     62 H          12.7221    7.3825    5.7292 H         1 0YB         0.0235
     63 H          11.4292    6.5354    4.8451 H         1 0YB         0.0235
     64 H          12.0919    5.8336    6.3416 H         1 0YB         0.0235
     65 H          15.4346    5.1485    4.7957 H         1 0YB         0.0235
     66 H          14.9617    6.6112    5.6945 H         1 0YB         0.0235
     67 H          14.5130    5.0024    6.3123 H         1 0YB         0.0235
     68 H          12.0329    4.5011    3.5082 H         1 0YB         0.0276
     69 H          13.7696    3.8170    3.7183 H         1 0YB         0.0276
     70 H          11.8764    3.8347    5.9830 H         1 0YB         0.0222
     71 H          11.3021    0.3999   -1.4999 H         1 0YB         0.2259
@<TRIPOS>BOND
     1    4    1 ar 
     2    1    5 ar 
     3    3    2 ar 
     4    2    8 ar 
     5    9    3 ar 
     6   10    4 ar 
     7   12    5 ar 
     8    9    6 ar 
     9    6   11 ar 
    10   10    7 ar 
    11    7   12 ar 
    12   11    8 ar 
    13    8   17 1  
    14   28    9 1  
    15   37   10 1  
    16   11   37 1  
    17   12   38 1  
    18   13   14 2  
    19   31   13 1  
    20   14   15 1  
    21   14   23 1  
    22   30   15 am 
    23   15   33 2  
    24   16   30 am 
    25   31   16 am 
    26   16   34 2  
    27   17   35 ar 
    28   17   36 ar 
    29   18   19 1  
    30   20   18 1  
    31   22   19 1  
    32   32   20 1  
    33   21   22 1  
    34   32   21 1  
    35   22   31 1  
    36   29   24 1  
    37   29   25 1  
    38   29   26 1  
    39   28   27 1  
    40   27   29 1  
    41   28   32 1  
    42    1   39 1  
    43    2   40 1  
    44    3   41 1  
    45    4   42 1  
    46    5   43 1  
    47    6   44 1  
    48    7   45 1  
    49   13   46 1  
    50   18   47 1  
    51   18   48 1  
    52   19   49 1  
    53   19   50 1  
    54   20   51 1  
    55   20   52 1  
    56   21   53 1  
    57   21   54 1  
    58   22   55 1  
    59   23   56 1  
    60   23   57 1  
    61   23   58 1  
    62   24   59 1  
    63   24   60 1  
    64   24   61 1  
    65   25   62 1  
    66   25   63 1  
    67   25   64 1  
    68   26   65 1  
    69   26   66 1  
    70   26   67 1  
    71   27   68 1  
    72   27   69 1  
    73   28   70 1  
    74   30   71 1  
@<TRIPOS>SUBSTRUCTURE
     1 0YB         1

