4ljh_ligand
  -I-interpret- 

 41 43  0  0  0  0  0  0  0  0999 V2000
   17.1490   16.6180   35.2720 C   0  0  0  0  0
   16.4580   15.3420   35.4700 N   0  0  0  0  0
   16.9010   14.1450   35.0280 C   0  0  0  0  0
   15.2670   15.2030   36.1290 C   0  0  0  0  0
   14.3780   16.1850   36.7920 C   0  0  0  0  0
   13.1880   15.7440   37.4120 C   0  0  0  0  0
   12.8310   14.3650   37.4000 C   0  0  0  0  0
   13.7130   13.3920   36.7380 C   0  0  0  0  0
   14.9150   13.8400   36.1250 C   0  0  0  0  0
   15.9520   13.1770   35.4240 C   0  0  0  0  0
   15.9720   11.7520   35.1930 O   0  0  0  0  0
   17.1190   11.3650   34.5910 C   0  0  0  0  0
   17.1720    9.8860   34.5630 C   0  0  0  0  0
   18.3440    9.4480   33.8740 C   0  0  0  0  0
   18.4780   10.0110   32.5380 C   0  0  0  0  0
   18.3000   11.4900   32.5600 C   0  0  0  0  0
   18.2510   12.0620   31.1560 C   0  0  0  0  0
   17.1890    9.4040   35.9400 O   0  0  0  0  0
   18.3310    7.9820   33.8090 O   0  0  0  0  0
   17.5000    9.3780   31.6690 O   0  0  0  0  0
   17.1270   11.8850   33.2320 O   0  0  0  0  0
   18.2650   13.4560   31.1270 O   0  0  0  0  0
   18.1352   16.5712   35.7340 H   0  0  0  0  0
   17.2552   16.8104   34.2044 H   0  0  0  0  0
   16.5691   17.4188   35.7308 H   0  0  0  0  0
   17.8191   13.9607   34.4701 H   0  0  0  0  0
   14.6409   17.2428   36.8014 H   0  0  0  0  0
   12.5365   16.4659   37.9044 H   0  0  0  0  0
   11.9097   14.0330   37.8786 H   0  0  0  0  0
   13.4471   12.3351   36.7175 H   0  0  0  0  0
   17.9835   11.7459   35.1347 H   0  0  0  0  0
   16.3022    9.4905   34.0384 H   0  0  0  0  0
   19.2071    9.8058   34.4353 H   0  0  0  0  0
   19.4814    9.8176   32.1586 H   0  0  0  0  0
   19.1650   11.8788   33.0973 H   0  0  0  0  0
   17.3180   11.7325   30.6987 H   0  0  0  0  0
   19.1378   11.7128   30.6271 H   0  0  0  0  0
   17.2234    8.4446   35.9416 H   0  0  0  0  0
   19.1152    7.6763   33.3473 H   0  0  0  0  0
   17.5779    9.7409   30.7837 H   0  0  0  0  0
   18.2324   13.7563   30.2158 H   0  0  0  0  0
  1  2  1  0  0  0
  2  3  4  0  0  0
  2  4  4  0  0  0
  3 10  4  0  0  0
  4  5  4  0  0  0
  4  9  4  0  0  0
  5  6  4  0  0  0
  6  7  4  0  0  0
  7  8  4  0  0  0
  8  9  4  0  0  0
  9 10  4  0  0  0
 10 11  1  0  0  0
 11 12  1  0  0  0
 12 13  1  0  0  0
 12 21  1  0  0  0
 13 14  1  0  0  0
 13 18  1  0  0  0
 14 15  1  0  0  0
 14 19  1  0  0  0
 15 16  1  0  0  0
 15 20  1  0  0  0
 16 17  1  0  0  0
 16 21  1  0  0  0
 17 22  1  0  0  0
  1 23  1  0  0  0
  1 24  1  0  0  0
  1 25  1  0  0  0
  3 26  1  0  0  0
  5 27  1  0  0  0
  6 28  1  0  0  0
  7 29  1  0  0  0
  8 30  1  0  0  0
 12 31  1  0  0  0
 13 32  1  0  0  0
 14 33  1  0  0  0
 15 34  1  0  0  0
 16 35  1  0  0  0
 17 36  1  0  0  0
 17 37  1  0  0  0
 18 38  1  0  0  0
 19 39  1  0  0  0
 20 40  1  0  0  0
 22 41  1  0  0  0
M  END
$$$$
