1g36_ligand
  -I-interpret- 

 57 61  0  0  0  0  0  0  0  0999 V2000
   -4.9860   10.0710   19.7450 N   0  0  0  0  0
   -3.0700   10.7130   18.9520 N   0  0  0  0  0
   -3.7400    9.7130   19.4910 C   0  0  0  0  0
   -3.2070    8.4440   19.7760 C   0  0  0  0  0
   -3.9640    7.4750   20.5100 C   0  0  0  0  0
   -3.4470    6.2010   20.7980 C   0  0  0  0  0
   -2.1490    5.8380   20.3660 C   0  0  0  0  0
   -1.3710    6.7640   19.6430 C   0  0  0  0  0
   -1.8850    8.0480   19.3490 C   0  0  0  0  0
   -1.5970    4.5330   20.6480 N   0  0  0  0  0
   -2.1230    3.5250   21.6060 C   0  0  0  0  0
   -3.4270    4.3970   23.5810 N   0  0  0  0  0
   -2.1870    3.9840   23.0760 C   0  0  0  0  0
   -1.0320    3.9980   23.8960 N   0  0  0  0  0
   -1.6310    4.4960   25.0630 C   0  0  0  0  0
   -3.0500    4.7310   24.8590 C   0  0  0  0  0
   -1.0430    4.7800   26.3400 C   0  0  0  0  0
   -1.8560    5.2960   27.3730 C   0  0  0  0  0
   -3.2480    5.5260   27.1690 C   0  0  0  0  0
   -3.8570    5.2470   25.9170 C   0  0  0  0  0
    0.3830    3.6160   23.5990 C   0  0  0  0  0
   -4.0940    6.0890   28.3030 C   0  0  0  0  0
   -3.5880    5.7900   29.6780 N   0  0  0  0  0
   -3.7200    4.6490   30.5010 C   0  0  0  0  0
   -3.1510    4.5890   31.7810 N   0  0  0  0  0
   -2.5770    5.8610   31.7920 C   0  0  0  0  0
   -2.8350    6.5760   30.5580 C   0  0  0  0  0
   -1.8290    6.4820   32.8450 C   0  0  0  0  0
   -1.3370    7.7950   32.6450 C   0  0  0  0  0
   -1.5780    8.4960   31.4380 C   0  0  0  0  0
   -2.3250    7.9050   30.3870 C   0  0  0  0  0
   -4.4810    3.4100   30.0230 C   0  0  0  0  0
   -5.3011   11.0149   19.5212 H   0  0  0  0  0
   -5.6329    9.4035   20.1649 H   0  0  0  0  0
   -2.0864   10.5956   18.7089 H   0  0  0  0  0
   -4.9659    7.7323   20.8536 H   0  0  0  0  0
   -4.0500    5.4866   21.3584 H   0  0  0  0  0
   -0.3702    6.4897   19.3094 H   0  0  0  0  0
   -1.2712    8.7534   18.7888 H   0  0  0  0  0
   -0.7547    4.2751   20.1339 H   0  0  0  0  0
   -1.4392    2.6768   21.5734 H   0  0  0  0  0
   -3.1472    3.3096   21.3014 H   0  0  0  0  0
    0.0183    4.5998   26.5111 H   0  0  0  0  0
   -1.4118    5.5222   28.3424 H   0  0  0  0  0
   -4.9220    5.4238   25.7666 H   0  0  0  0  0
    0.4203    2.5680   23.3016 H   0  0  0  0  0
    0.7638    4.2385   22.7893 H   0  0  0  0  0
    0.9927    3.7640   24.4903 H   0  0  0  0  0
   -5.0772    5.6255   28.2220 H   0  0  0  0  0
   -4.0852    7.1735   28.1935 H   0  0  0  0  0
   -1.6426    5.9547   33.7806 H   0  0  0  0  0
   -0.7613    8.2757   33.4359 H   0  0  0  0  0
   -1.1835    9.5046   31.3150 H   0  0  0  0  0
   -2.5086    8.4532   29.4629 H   0  0  0  0  0
   -5.5131    3.6820   29.8018 H   0  0  0  0  0
   -4.0064    3.0183   29.1233 H   0  0  0  0  0
   -4.4636    2.6505   30.8046 H   0  0  0  0  0
  1  3  1  0  0  0
  3  4  1  0  0  0
  4  5  4  0  0  0
  4  9  4  0  0  0
  5  6  4  0  0  0
  6  7  4  0  0  0
  7  8  4  0  0  0
  7 10  1  0  0  0
  8  9  4  0  0  0
 10 11  1  0  0  0
 11 13  1  0  0  0
 13 14  4  0  0  0
 14 15  4  0  0  0
 14 21  1  0  0  0
 15 16  4  0  0  0
 15 17  4  0  0  0
 16 20  4  0  0  0
 17 18  4  0  0  0
 18 19  4  0  0  0
 19 20  4  0  0  0
 19 22  1  0  0  0
 22 23  1  0  0  0
 23 24  4  0  0  0
 23 27  4  0  0  0
 24 25  4  0  0  0
 24 32  1  0  0  0
 25 26  4  0  0  0
 26 27  4  0  0  0
 26 28  4  0  0  0
 27 31  4  0  0  0
 28 29  4  0  0  0
 29 30  4  0  0  0
 30 31  4  0  0  0
 16 12  4  0  0  0
 13 12  4  0  0  0
  3  2  2  0  0  0
  1 33  1  0  0  0
  1 34  1  0  0  0
  2 35  1  0  0  0
  5 36  1  0  0  0
  6 37  1  0  0  0
  8 38  1  0  0  0
  9 39  1  0  0  0
 10 40  1  0  0  0
 11 41  1  0  0  0
 11 42  1  0  0  0
 17 43  1  0  0  0
 18 44  1  0  0  0
 20 45  1  0  0  0
 21 46  1  0  0  0
 21 47  1  0  0  0
 21 48  1  0  0  0
 22 49  1  0  0  0
 22 50  1  0  0  0
 28 51  1  0  0  0
 29 52  1  0  0  0
 30 53  1  0  0  0
 31 54  1  0  0  0
 32 55  1  0  0  0
 32 56  1  0  0  0
 32 57  1  0  0  0
M  END
$$$$
