### 
### Created by X-TOOL on Mon Sep 10 21:13:34 2018
### 

@<TRIPOS>MOLECULE
5m63_ligand
  249   258     1     0     0
SMALL
GAST_HUCK


@<TRIPOS>ATOM
      1 O1         -0.6390   42.2020   21.5290 O.3       1 7GW        -0.3461
      2 C1         -1.9180   41.6970   21.8170 C.3       1 7GW         0.0795
      3 C2         -2.2980   40.7540   20.8660 C.3       1 7GW         0.1113
      4 O2         -3.8500   40.7760   20.7630 O.3       1 7GW        -0.3608
      5 C3         -4.2430   39.5560   20.6910 C.3       1 7GW         0.1377
      6 C4         -4.5180   39.1600   19.2580 C.3       1 7GW         0.1826
      7 O3         -5.0900   37.8780   19.2300 O.3       1 7GW        -0.3650
      8 O4         -5.3910   40.1100   18.7040 O.3       1 7GW        -0.3650
      9 C5         -3.0210   38.6480   21.3870 C.3       1 7GW         0.1147
     10 O5         -3.3120   38.5450   22.8100 O.3       1 7GW        -0.3864
     11 C6         -1.9060   39.2480   21.1840 C.3       1 7GW         0.1183
     12 O6         -0.9200   39.1040   22.3340 O.3       1 7GW        -0.3401
     13 C1          0.5300   38.8140   22.6250 C.3       1 GAL         0.1884
     14 C2          1.5580   39.2320   23.6950 C.3       1 GAL         0.1344
     15 C3          3.0040   38.8130   23.3910 C.3       1 GAL         0.1197
     16 C4          3.0320   37.3420   22.9660 C.3       1 GAL         0.1121
     17 C5          2.0530   37.1110   21.8150 C.3       1 GAL         0.1130
     18 C6          2.1270   35.6660   21.3060 C.3       1 GAL         0.0730
     19 O2          1.5210   40.6590   23.8810 O.3       1 GAL        -0.3841
     20 O3          3.8550   39.0350   24.5530 O.3       1 GAL        -0.3380
     21 O4          2.7020   36.4930   24.0700 O.3       1 GAL        -0.3865
     22 O5          0.7170   37.4420   22.2380 O.3       1 GAL        -0.3405
     23 O6          2.0220   35.6110   19.8760 O.3       1 GAL        -0.3924
     24 C1          6.1700   38.6350   23.7930 C.2       1 SIA         0.1041
     25 C2          5.1480   39.6650   24.3050 C.3       1 SIA         0.2208
     26 C3          5.4810   40.1760   25.7220 C.3       1 SIA         0.0353
     27 C4          6.7550   41.0430   25.7660 C.3       1 SIA         0.0850
     28 C5          6.7730   42.1430   24.7020 C.3       1 SIA         0.0964
     29 C6          6.3950   41.5290   23.3600 C.3       1 SIA         0.1143
     30 C7          6.3710   42.5010   22.1730 C.3       1 SIA         0.1114
     31 C8          5.8500   41.7850   20.9230 C.3       1 SIA         0.1065
     32 C9          6.2540   42.5340   19.6800 C.3       1 SIA         0.0727
     33 C10         8.4210   43.9680   24.9140 C.2       1 SIA         0.1733
     34 C11         9.8560   44.3120   24.7090 C.3       1 SIA         0.0257
     35 N5          8.1080   42.7130   24.6000 N.am      1 SIA        -0.2790
     36 O1A         6.2740   38.4380   22.5510 O.co2     1 SIA        -0.5426
     37 O1B         6.9080   38.0100   24.6020 O.co2     1 SIA        -0.5426
     38 O4          6.9280   41.6610   27.0450 O.3       1 SIA        -0.3893
     39 O6          5.1270   40.8560   23.4840 O.3       1 SIA        -0.3384
     40 O7          5.5820   43.6670   22.4530 O.3       1 SIA        -0.3865
     41 O8          6.3630   40.4570   20.7730 O.3       1 SIA        -0.3869
     42 O9          5.6720   41.8330   18.5800 O.3       1 SIA        -0.3924
     43 O10         7.6380   44.8000   25.3240 O.2       1 SIA        -0.3974
     44 C1          4.4870   57.1500   22.4260 C.3       1 GAL         0.1884
     45 C2          4.2580   58.5950   21.9770 C.3       1 GAL         0.1344
     46 C3          5.5130   59.3980   22.3460 C.3       1 GAL         0.1197
     47 C4          5.7010   59.3420   23.8750 C.3       1 GAL         0.1121
     48 C5          5.7490   57.8860   24.3940 C.3       1 GAL         0.1130
     49 C6          5.7150   57.7780   25.9380 C.3       1 GAL         0.0730
     50 O2          3.9750   58.6780   20.5720 O.3       1 GAL        -0.3841
     51 O3          5.4090   60.7470   21.8070 O.3       1 GAL        -0.3380
     52 O4          4.6410   60.0690   24.5100 O.3       1 GAL        -0.3865
     53 O5          4.6530   57.1130   23.8550 O.3       1 GAL        -0.3405
     54 O6          6.9880   57.4480   26.5200 O.3       1 GAL        -0.3924
     55 C1          3.4140   52.1700   20.9720 C.3       1 NAG         0.1854
     56 C2          3.8880   52.6100   22.3590 C.3       1 NAG         0.1210
     57 C3          3.3770   53.9990   22.6860 C.3       1 NAG         0.1114
     58 C4          3.8930   54.9600   21.6280 C.3       1 NAG         0.1182
     59 C5          3.4390   54.5150   20.2330 C.3       1 NAG         0.1137
     60 C6          3.9300   55.5140   19.1660 C.3       1 NAG         0.0796
     61 C7          4.3580   50.8220   23.9640 C.2       1 NAG         0.1733
     62 C8          3.7810   49.9430   25.0240 C.3       1 NAG         0.0257
     63 N2          3.4950   51.6830   23.4140 N.am      1 NAG        -0.2766
     64 O3          3.8650   54.3800   23.9750 O.3       1 NAG        -0.3867
     65 O4          3.4240   56.2910   21.9390 O.3       1 NAG        -0.3401
     66 O5          3.8400   53.1380   19.9810 O.3       1 NAG        -0.3407
     67 O6          5.3740   55.7300   19.1910 O.3       1 NAG        -0.3460
     68 O7          5.5410   50.7390   23.6570 O.2       1 NAG        -0.3974
     69 C2          5.5200   55.7320   16.5930 C.3       1 BGC         0.1341
     70 C3          6.6020   55.6390   15.5050 C.3       1 BGC         0.1144
     71 C4          7.5310   56.8530   15.5060 C.3       1 BGC         0.1184
     72 C5          8.0330   57.1460   16.9290 C.3       1 BGC         0.1134
     73 C6          8.6370   58.5570   16.9150 C.3       1 BGC         0.0730
     74 C1          6.2070   55.8510   17.9740 C.3       1 BGC         0.1880
     75 O2          4.6970   54.5690   16.4130 O.3       1 BGC        -0.3841
     76 O3          5.9930   55.5010   14.2170 O.3       1 BGC        -0.3864
     77 O4          8.6640   56.5960   14.6240 O.3       1 BGC        -0.3401
     78 O5          6.9720   57.0850   17.9220 O.3       1 BGC        -0.3405
     79 O6          9.6300   58.7130   17.9300 O.3       1 BGC        -0.3924
     80 C1          8.7440   57.4270   13.4110 C.3       1 GAL         0.1884
     81 C2         10.1380   57.3170   12.7750 C.3       1 GAL         0.1341
     82 C3         10.2990   58.3220   11.6250 C.3       1 GAL         0.1141
     83 C4          9.1370   58.3400   10.6030 C.3       1 GAL         0.1119
     84 C5          7.7560   58.0990   11.2540 C.3       1 GAL         0.1130
     85 C6          6.7340   57.6590   10.1950 C.3       1 GAL         0.0730
     86 O2         11.1770   57.5380   13.7460 O.3       1 GAL        -0.3841
     87 O3         11.5420   58.0570   10.9580 O.3       1 GAL        -0.3864
     88 O4          9.3780   57.4430    9.5010 O.3       1 GAL        -0.3865
     89 O5          7.7830   57.1560   12.3570 O.3       1 GAL        -0.3405
     90 O6          5.4050   57.8210   10.6900 O.3       1 GAL        -0.3924
     91 C1          2.4040   47.5360   19.5270 C.3       1 GAL         0.1884
     92 C2          2.7990   48.6330   20.5410 C.3       1 GAL         0.1345
     93 C3          3.1680   49.9830   19.9100 C.3       1 GAL         0.1206
     94 C4          4.0480   49.7450   18.6970 C.3       1 GAL         0.1123
     95 C5          3.2830   48.8700   17.7260 C.3       1 GAL         0.1130
     96 C6          3.9600   48.7580   16.3590 C.3       1 GAL         0.0730
     97 O2          1.7010   48.8560   21.4160 O.3       1 GAL        -0.3841
     98 O3          3.9110   50.8210   20.8040 O.3       1 GAL        -0.3403
     99 O4          5.2430   49.0630   19.1010 O.3       1 GAL        -0.3865
    100 O5          3.2180   47.5990   18.3670 O.3       1 GAL        -0.3405
    101 O6          3.6320   47.5060   15.7440 O.3       1 GAL        -0.3924
    102 C2         -0.7410   44.6300   21.0080 C.3       1 BGC         0.1341
    103 C3          0.1160   45.6980   20.3330 C.3       1 BGC         0.1144
    104 C4          1.5650   45.2510   20.4080 C.3       1 BGC         0.1184
    105 C5          1.6270   43.9020   19.6580 C.3       1 BGC         0.1134
    106 C6          3.0370   43.4030   19.4420 C.3       1 BGC         0.0730
    107 C1         -0.4730   43.2170   20.4800 C.3       1 BGC         0.1880
    108 O2         -2.1070   44.9660   20.7650 O.3       1 BGC        -0.3841
    109 O3         -0.0650   46.9530   20.9820 O.3       1 BGC        -0.3864
    110 O4          2.6040   46.1830   19.9960 O.3       1 BGC        -0.3401
    111 O5          0.9240   42.9400   20.4440 O.3       1 BGC        -0.3405
    112 O6          3.6560   44.2440   18.4680 O.3       1 BGC        -0.3924
    113 C1          6.7690   60.2660   19.7320 C.2       1 SIA         0.1041
    114 C2          6.4830   61.1800   20.9150 C.3       1 SIA         0.2208
    115 C3          7.7820   61.6730   21.5740 C.3       1 SIA         0.0353
    116 C4          8.5190   62.6620   20.6710 C.3       1 SIA         0.0850
    117 C5          7.5890   63.8450   20.3930 C.3       1 SIA         0.0964
    118 C6          6.3530   63.3070   19.6550 C.3       1 SIA         0.1143
    119 C7          5.3360   64.4000   19.2900 C.3       1 SIA         0.1114
    120 C8          4.2960   63.9250   18.2660 C.3       1 SIA         0.1065
    121 C9          3.1800   64.9520   18.0660 C.3       1 SIA         0.0727
    122 C10         8.8360   66.0010   20.1420 C.2       1 SIA         0.1733
    123 C11         8.7710   66.2990   21.6180 C.3       1 SIA         0.0257
    124 N5          8.2850   64.8810   19.6370 N.am      1 SIA        -0.2790
    125 O1A         5.9920   60.2890   18.7490 O.co2     1 SIA        -0.5426
    126 O1B         7.7770   59.5180   19.7670 O.co2     1 SIA        -0.5426
    127 O4          9.7530   63.0610   21.2820 O.3       1 SIA        -0.3893
    128 O6          5.6990   62.3120   20.4760 O.3       1 SIA        -0.3384
    129 O7          4.6720   64.8480   20.4810 O.3       1 SIA        -0.3865
    130 O8          4.9350   63.6810   17.0040 O.3       1 SIA        -0.3869
    131 O9          2.4540   64.6760   16.8620 O.3       1 SIA        -0.3924
    132 O10         9.3960   66.7920   19.3990 O.2       1 SIA        -0.3974
    133 H1         -2.6424   42.5247   21.8148 H         1 7GW         0.0587
    134 H2         -1.9047   41.2239   22.8100 H         1 7GW         0.0587
    135 H3         -1.8486   41.0373   19.9028 H         1 7GW         0.0646
    136 H4         -5.1693   39.4283   21.2703 H         1 7GW         0.0674
    137 H5         -3.5775   39.1494   18.6876 H         1 7GW         0.0933
    138 H6         -5.8968   37.8814   19.7315 H         1 7GW         0.2126
    139 H7         -4.9838   40.9678   18.7336 H         1 7GW         0.2126
    140 H8         -2.9870   37.6437   20.9395 H         1 7GW         0.0648
    141 H9         -2.6335   38.0332   23.2346 H         1 7GW         0.2100
    142 H10        -1.4285   38.8128   20.2937 H         1 7GW         0.0651
    143 H11         0.9712   39.3749   21.7879 H         1 7GW         0.0938
    144 H12         1.2636   38.7491   24.6385 H         1 7GW         0.0671
    145 H13         3.3823   39.4265   22.5601 H         1 7GW         0.0650
    146 H14         4.0471   37.0939   22.6225 H         1 7GW         0.0647
    147 H15         2.3295   37.7794   20.9863 H         1 7GW         0.0647
    148 H16         1.3025   35.0876   21.7483 H         1 7GW         0.0584
    149 H17         3.0882   35.2271   21.6118 H         1 7GW         0.0584
    150 H18         1.8224   41.0884   23.0890 H         1 7GW         0.2101
    151 H19         3.3159   36.6444   24.7790 H         1 7GW         0.2100
    152 H20         2.0709   34.7063   19.5906 H         1 7GW         0.2095
    153 H21         5.6246   39.3084   26.3827 H         1 7GW         0.0336
    154 H22         4.6349   40.7777   26.0854 H         1 7GW         0.0336
    155 H23         7.6116   40.3776   25.5834 H         1 7GW         0.0618
    156 H24         6.0535   42.9307   24.9701 H         1 7GW         0.0608
    157 H25         7.1580   40.7707   23.1304 H         1 7GW         0.0646
    158 H26         7.4030   42.8287   21.9791 H         1 7GW         0.0647
    159 H27         4.7528   41.7398   20.9861 H         1 7GW         0.0643
    160 H28         7.3497   42.5495   19.5844 H         1 7GW         0.0584
    161 H29         5.8745   43.5658   19.7172 H         1 7GW         0.0584
    162 H30        10.0254   45.3615   24.9915 H         1 7GW         0.0467
    163 H31        10.1195   44.1701   23.6505 H         1 7GW         0.0467
    164 H32        10.4826   43.6584   25.3337 H         1 7GW         0.0467
    165 H33         8.8425   42.1196   24.2706 H         1 7GW         0.1856
    166 H34         7.7586   42.1217   27.0631 H         1 7GW         0.2099
    167 H35         4.6793   43.4096   22.5989 H         1 7GW         0.2100
    168 H36         6.1327   39.9416   21.5370 H         1 7GW         0.2100
    169 H37         6.0018   40.9423   18.5634 H         1 7GW         0.2095
    170 H38         5.4257   56.7960   21.9748 H         1 7GW         0.0938
    171 H39         3.3969   59.0060   22.5243 H         1 7GW         0.0671
    172 H40         6.3878   58.9200   21.8811 H         1 7GW         0.0650
    173 H41         6.6568   59.8258   24.1247 H         1 7GW         0.0647
    174 H42         6.6929   57.4421   24.0448 H         1 7GW         0.0647
    175 H43         4.9924   56.9967   26.2162 H         1 7GW         0.0584
    176 H44         5.3857   58.7445   26.3471 H         1 7GW         0.0584
    177 H45         3.8332   59.5861   20.3318 H         1 7GW         0.2101
    178 H46         4.6269   60.9595   24.1794 H         1 7GW         0.2100
    179 H47         6.8995   57.3972   27.4645 H         1 7GW         0.2095
    180 H48         2.3147   52.1375   20.9505 H         1 7GW         0.0935
    181 H49         4.9872   52.6456   22.3370 H         1 7GW         0.0633
    182 H50         2.2770   54.0047   22.6897 H         1 7GW         0.0645
    183 H51         4.9927   54.9592   21.6514 H         1 7GW         0.0650
    184 H52         2.3394   54.5384   20.2152 H         1 7GW         0.0647
    185 H53         3.4306   56.4791   19.3366 H         1 7GW         0.0587
    186 H54         3.6529   55.1281   18.1739 H         1 7GW         0.0587
    187 H55         4.5637   49.2747   25.4123 H         1 7GW         0.0467
    188 H56         2.9642   49.3421   24.5976 H         1 7GW         0.0467
    189 H57         3.3901   50.5645   25.8431 H         1 7GW         0.0467
    190 H58         2.5486   51.6914   23.7370 H         1 7GW         0.1857
    191 H59         3.5663   55.2586   24.1785 H         1 7GW         0.2100
    192 H60         4.9036   56.6299   16.4386 H         1 7GW         0.0671
    193 H61         7.2088   54.7433   15.7035 H         1 7GW         0.0648
    194 H62         6.9772   57.7284   15.1359 H         1 7GW         0.0651
    195 H63         8.8077   56.4121   17.1958 H         1 7GW         0.0647
    196 H64         7.8350   59.2905   17.0843 H         1 7GW         0.0584
    197 H65         9.0985   58.7383   15.9331 H         1 7GW         0.0584
    198 H66         6.9244   55.0195   18.0371 H         1 7GW         0.0937
    199 H67         4.3194   54.5815   15.5414 H         1 7GW         0.2101
    200 H68         5.4165   54.7459   14.2198 H         1 7GW         0.2100
    201 H69         9.2370   58.5625   18.7817 H         1 7GW         0.2095
    202 H70         8.5876   58.4667   13.7342 H         1 7GW         0.0938
    203 H71        10.2501   56.3005   12.3698 H         1 7GW         0.0671
    204 H72        10.3523   59.3261   12.0709 H         1 7GW         0.0648
    205 H73         9.1088   59.3557   10.1817 H         1 7GW         0.0647
    206 H74         7.4199   59.0632   11.6630 H         1 7GW         0.0647
    207 H75         6.9019   56.6007    9.9466 H         1 7GW         0.0584
    208 H76         6.8615   58.2725    9.2910 H         1 7GW         0.0584
    209 H77        11.0799   56.9175   14.4588 H         1 7GW         0.2101
    210 H78        11.4944   57.2124   10.5257 H         1 7GW         0.2100
    211 H79        10.2337   57.6225    9.1294 H         1 7GW         0.2100
    212 H80         4.7849   57.5453   10.0252 H         1 7GW         0.2095
    213 H81         1.3467   47.6817   19.2608 H         1 7GW         0.0938
    214 H82         3.6632   48.2720   21.1179 H         1 7GW         0.0671
    215 H83         2.2445   50.4995   19.6094 H         1 7GW         0.0651
    216 H84         4.3057   50.7034   18.2226 H         1 7GW         0.0647
    217 H85         2.2701   49.2738   17.5812 H         1 7GW         0.0647
    218 H86         5.0504   48.8248   16.4873 H         1 7GW         0.0584
    219 H87         3.6155   49.5803   15.7147 H         1 7GW         0.0584
    220 H88         1.4496   48.0350   21.8225 H         1 7GW         0.2101
    221 H89         5.7267   49.6081   19.7105 H         1 7GW         0.2100
    222 H90         3.9305   46.7944   16.2982 H         1 7GW         0.2095
    223 H91        -0.5413   44.6437   22.0896 H         1 7GW         0.0671
    224 H92        -0.1812   45.7957   19.2784 H         1 7GW         0.0648
    225 H93         1.7713   45.0479   21.4692 H         1 7GW         0.0651
    226 H94         1.1381   44.0153   18.6792 H         1 7GW         0.0647
    227 H95         3.0146   42.3648   19.0791 H         1 7GW         0.0584
    228 H96         3.5986   43.4492   20.3867 H         1 7GW         0.0584
    229 H97        -1.0214   43.0274   19.5455 H         1 7GW         0.0937
    230 H98        -2.2793   45.8417   21.0905 H         1 7GW         0.2101
    231 H99         0.4787   47.6078   20.5600 H         1 7GW         0.2100
    232 H100        3.6686   45.1390   18.7862 H         1 7GW         0.2095
    233 H101        8.4353   60.8099   21.7692 H         1 7GW         0.0336
    234 H102        7.5363   62.1693   22.5244 H         1 7GW         0.0336
    235 H103        8.7529   62.1697   19.7155 H         1 7GW         0.0618
    236 H104        7.2657   64.2798   21.3503 H         1 7GW         0.0608
    237 H105        6.6933   62.8321   18.7230 H         1 7GW         0.0646
    238 H106        5.8851   65.2463   18.8515 H         1 7GW         0.0647
    239 H107        3.8503   62.9878   18.6307 H         1 7GW         0.0643
    240 H108        3.6209   65.9576   18.0003 H         1 7GW         0.0584
    241 H109        2.4908   64.9090   18.9222 H         1 7GW         0.0584
    242 H110        9.2768   67.2543   21.8218 H         1 7GW         0.0467
    243 H111        9.2697   65.4936   22.1770 H         1 7GW         0.0467
    244 H112        7.7191   66.3667   21.9325 H         1 7GW         0.0467
    245 H113        8.3600   64.7462   18.6490 H         1 7GW         0.1856
    246 H114       10.2927   62.2939   21.4334 H         1 7GW         0.2099
    247 H115        4.1695   64.1315   20.8506 H         1 7GW         0.2100
    248 H116        4.2959   63.3454   16.3864 H         1 7GW         0.2100
    249 H117        3.0465   64.7148   16.1203 H         1 7GW         0.2095
@<TRIPOS>BOND
     1    1    2 1  
     2  107    1 1  
     3    2    3 1  
     4    3    4 1  
     5    3   11 1  
     6    4    5 1  
     7    5    6 1  
     8    9    5 1  
     9    6    7 1  
    10    6    8 1  
    11    9   10 1  
    12   11    9 1  
    13   11   12 1  
    14   12   13 1  
    15   13   14 1  
    16   13   22 1  
    17   14   15 1  
    18   14   19 1  
    19   15   16 1  
    20   15   20 1  
    21   17   16 1  
    22   16   21 1  
    23   17   18 1  
    24   22   17 1  
    25   18   23 1  
    26   20   25 1  
    27   25   24 1  
    28   24   36 ar 
    29   24   37 ar 
    30   25   26 1  
    31   25   39 1  
    32   26   27 1  
    33   27   28 1  
    34   27   38 1  
    35   29   28 1  
    36   28   35 1  
    37   29   30 1  
    38   39   29 1  
    39   30   31 1  
    40   30   40 1  
    41   31   32 1  
    42   31   41 1  
    43   32   42 1  
    44   33   34 1  
    45   35   33 am 
    46   33   43 2  
    47   45   44 1  
    48   44   53 1  
    49   44   65 1  
    50   46   45 1  
    51   45   50 1  
    52   46   47 1  
    53   51   46 1  
    54   47   48 1  
    55   47   52 1  
    56   48   49 1  
    57   48   53 1  
    58   49   54 1  
    59  114   51 1  
    60   56   55 1  
    61   66   55 1  
    62   55   98 1  
    63   57   56 1  
    64   56   63 1  
    65   58   57 1  
    66   57   64 1  
    67   58   59 1  
    68   65   58 1  
    69   59   60 1  
    70   59   66 1  
    71   60   67 1  
    72   61   62 1  
    73   63   61 am 
    74   61   68 2  
    75   67   74 1  
    76   69   70 1  
    77   74   69 1  
    78   69   75 1  
    79   70   71 1  
    80   70   76 1  
    81   72   71 1  
    82   71   77 1  
    83   72   73 1  
    84   78   72 1  
    85   73   79 1  
    86   74   78 1  
    87   77   80 1  
    88   80   81 1  
    89   80   89 1  
    90   81   82 1  
    91   81   86 1  
    92   82   83 1  
    93   82   87 1  
    94   84   83 1  
    95   83   88 1  
    96   84   85 1  
    97   89   84 1  
    98   85   90 1  
    99   92   91 1  
   100   91  100 1  
   101   91  110 1  
   102   93   92 1  
   103   92   97 1  
   104   93   94 1  
   105   98   93 1  
   106   94   95 1  
   107   94   99 1  
   108   95   96 1  
   109   95  100 1  
   110   96  101 1  
   111  103  102 1  
   112  102  107 1  
   113  102  108 1  
   114  104  103 1  
   115  103  109 1  
   116  104  105 1  
   117  110  104 1  
   118  105  106 1  
   119  105  111 1  
   120  106  112 1  
   121  111  107 1  
   122  114  113 1  
   123  113  125 ar 
   124  113  126 ar 
   125  115  114 1  
   126  128  114 1  
   127  116  115 1  
   128  117  116 1  
   129  116  127 1  
   130  117  118 1  
   131  124  117 1  
   132  118  119 1  
   133  118  128 1  
   134  119  120 1  
   135  119  129 1  
   136  120  121 1  
   137  120  130 1  
   138  121  131 1  
   139  122  123 1  
   140  122  124 am 
   141  122  132 2  
   142    2  133 1  
   143    2  134 1  
   144    3  135 1  
   145    5  136 1  
   146    6  137 1  
   147    7  138 1  
   148    8  139 1  
   149    9  140 1  
   150   10  141 1  
   151   11  142 1  
   152   13  143 1  
   153   14  144 1  
   154   15  145 1  
   155   16  146 1  
   156   17  147 1  
   157   18  148 1  
   158   18  149 1  
   159   19  150 1  
   160   21  151 1  
   161   23  152 1  
   162   26  153 1  
   163   26  154 1  
   164   27  155 1  
   165   28  156 1  
   166   29  157 1  
   167   30  158 1  
   168   31  159 1  
   169   32  160 1  
   170   32  161 1  
   171   34  162 1  
   172   34  163 1  
   173   34  164 1  
   174   35  165 1  
   175   38  166 1  
   176   40  167 1  
   177   41  168 1  
   178   42  169 1  
   179   44  170 1  
   180   45  171 1  
   181   46  172 1  
   182   47  173 1  
   183   48  174 1  
   184   49  175 1  
   185   49  176 1  
   186   50  177 1  
   187   52  178 1  
   188   54  179 1  
   189   55  180 1  
   190   56  181 1  
   191   57  182 1  
   192   58  183 1  
   193   59  184 1  
   194   60  185 1  
   195   60  186 1  
   196   62  187 1  
   197   62  188 1  
   198   62  189 1  
   199   63  190 1  
   200   64  191 1  
   201   69  192 1  
   202   70  193 1  
   203   71  194 1  
   204   72  195 1  
   205   73  196 1  
   206   73  197 1  
   207   74  198 1  
   208   75  199 1  
   209   76  200 1  
   210   79  201 1  
   211   80  202 1  
   212   81  203 1  
   213   82  204 1  
   214   83  205 1  
   215   84  206 1  
   216   85  207 1  
   217   85  208 1  
   218   86  209 1  
   219   87  210 1  
   220   88  211 1  
   221   90  212 1  
   222   91  213 1  
   223   92  214 1  
   224   93  215 1  
   225   94  216 1  
   226   95  217 1  
   227   96  218 1  
   228   96  219 1  
   229   97  220 1  
   230   99  221 1  
   231  101  222 1  
   232  102  223 1  
   233  103  224 1  
   234  104  225 1  
   235  105  226 1  
   236  106  227 1  
   237  106  228 1  
   238  107  229 1  
   239  108  230 1  
   240  109  231 1  
   241  112  232 1  
   242  115  233 1  
   243  115  234 1  
   244  116  235 1  
   245  117  236 1  
   246  118  237 1  
   247  119  238 1  
   248  120  239 1  
   249  121  240 1  
   250  121  241 1  
   251  123  242 1  
   252  123  243 1  
   253  123  244 1  
   254  124  245 1  
   255  127  246 1  
   256  129  247 1  
   257  130  248 1  
   258  131  249 1  
@<TRIPOS>SUBSTRUCTURE
     1 7GW         1

