5m63_ligand
  -I-interpret- 

251260  0  0  0  0  0  0  0  0999 V2000
   -0.6390   42.2020   21.5290 O   0  0  0  0  0
   -1.9180   41.6970   21.8170 C   0  0  0  0  0
   -2.2980   40.7540   20.8660 C   0  0  0  0  0
   -3.8500   40.7760   20.7630 O   0  0  0  0  0
   -4.2430   39.5560   20.6910 C   0  0  0  0  0
   -4.5180   39.1600   19.2580 C   0  0  0  0  0
   -5.0900   37.8780   19.2300 O   0  0  0  0  0
   -5.3910   40.1100   18.7040 O   0  0  0  0  0
   -3.0210   38.6480   21.3870 C   0  0  0  0  0
   -3.3120   38.5450   22.8100 O   0  0  0  0  0
   -1.9060   39.2480   21.1840 C   0  0  0  0  0
   -0.9200   39.1040   22.3340 O   0  0  0  0  0
    0.5300   38.8140   22.6250 C   0  0  0  0  0
    1.5580   39.2320   23.6950 C   0  0  0  0  0
    3.0040   38.8130   23.3910 C   0  0  0  0  0
    3.0320   37.3420   22.9660 C   0  0  0  0  0
    2.0530   37.1110   21.8150 C   0  0  0  0  0
    2.1270   35.6660   21.3060 C   0  0  0  0  0
    1.5210   40.6590   23.8810 O   0  0  0  0  0
    3.8550   39.0350   24.5530 O   0  0  0  0  0
    2.7020   36.4930   24.0700 O   0  0  0  0  0
    0.7170   37.4420   22.2380 O   0  0  0  0  0
    2.0220   35.6110   19.8760 O   0  0  0  0  0
    6.1700   38.6350   23.7930 C   0  0  0  0  0
    5.1480   39.6650   24.3050 C   0  0  0  0  0
    5.4810   40.1760   25.7220 C   0  0  0  0  0
    6.7550   41.0430   25.7660 C   0  0  0  0  0
    6.7730   42.1430   24.7020 C   0  0  0  0  0
    6.3950   41.5290   23.3600 C   0  0  0  0  0
    6.3710   42.5010   22.1730 C   0  0  0  0  0
    5.8500   41.7850   20.9230 C   0  0  0  0  0
    6.2540   42.5340   19.6800 C   0  0  0  0  0
    8.4210   43.9680   24.9140 C   0  0  0  0  0
    9.8560   44.3120   24.7090 C   0  0  0  0  0
    8.1080   42.7130   24.6000 N   0  0  0  0  0
    6.2740   38.4380   22.5510 O   0  0  0  0  0
    6.9080   38.0100   24.6020 O   0  0  0  0  0
    6.9280   41.6610   27.0450 O   0  0  0  0  0
    5.1270   40.8560   23.4840 O   0  0  0  0  0
    5.5820   43.6670   22.4530 O   0  0  0  0  0
    6.3630   40.4570   20.7730 O   0  0  0  0  0
    5.6720   41.8330   18.5800 O   0  0  0  0  0
    7.6380   44.8000   25.3240 O   0  0  0  0  0
    4.4870   57.1500   22.4260 C   0  0  0  0  0
    4.2580   58.5950   21.9770 C   0  0  0  0  0
    5.5130   59.3980   22.3460 C   0  0  0  0  0
    5.7010   59.3420   23.8750 C   0  0  0  0  0
    5.7490   57.8860   24.3940 C   0  0  0  0  0
    5.7150   57.7780   25.9380 C   0  0  0  0  0
    3.9750   58.6780   20.5720 O   0  0  0  0  0
    5.4090   60.7470   21.8070 O   0  0  0  0  0
    4.6410   60.0690   24.5100 O   0  0  0  0  0
    4.6530   57.1130   23.8550 O   0  0  0  0  0
    6.9880   57.4480   26.5200 O   0  0  0  0  0
    3.4140   52.1700   20.9720 C   0  0  0  0  0
    3.8880   52.6100   22.3590 C   0  0  0  0  0
    3.3770   53.9990   22.6860 C   0  0  0  0  0
    3.8930   54.9600   21.6280 C   0  0  0  0  0
    3.4390   54.5150   20.2330 C   0  0  0  0  0
    3.9300   55.5140   19.1660 C   0  0  0  0  0
    4.3580   50.8220   23.9640 C   0  0  0  0  0
    3.7810   49.9430   25.0240 C   0  0  0  0  0
    3.4950   51.6830   23.4140 N   0  0  0  0  0
    3.8650   54.3800   23.9750 O   0  0  0  0  0
    3.4240   56.2910   21.9390 O   0  0  0  0  0
    3.8400   53.1380   19.9810 O   0  0  0  0  0
    5.3740   55.7300   19.1910 O   0  0  0  0  0
    5.5410   50.7390   23.6570 O   0  0  0  0  0
    5.5200   55.7320   16.5930 C   0  0  0  0  0
    6.6020   55.6390   15.5050 C   0  0  0  0  0
    7.5310   56.8530   15.5060 C   0  0  0  0  0
    8.0330   57.1460   16.9290 C   0  0  0  0  0
    8.6370   58.5570   16.9150 C   0  0  0  0  0
    6.2070   55.8510   17.9740 C   0  0  0  0  0
    4.6970   54.5690   16.4130 O   0  0  0  0  0
    5.9930   55.5010   14.2170 O   0  0  0  0  0
    8.6640   56.5960   14.6240 O   0  0  0  0  0
    6.9720   57.0850   17.9220 O   0  0  0  0  0
    9.6300   58.7130   17.9300 O   0  0  0  0  0
    8.7440   57.4270   13.4110 C   0  0  0  0  0
   10.1380   57.3170   12.7750 C   0  0  0  0  0
   10.2990   58.3220   11.6250 C   0  0  0  0  0
    9.1370   58.3400   10.6030 C   0  0  0  0  0
    7.7560   58.0990   11.2540 C   0  0  0  0  0
    6.7340   57.6590   10.1950 C   0  0  0  0  0
   11.1770   57.5380   13.7460 O   0  0  0  0  0
   11.5420   58.0570   10.9580 O   0  0  0  0  0
    9.3780   57.4430    9.5010 O   0  0  0  0  0
    7.7830   57.1560   12.3570 O   0  0  0  0  0
    5.4050   57.8210   10.6900 O   0  0  0  0  0
    2.4040   47.5360   19.5270 C   0  0  0  0  0
    2.7990   48.6330   20.5410 C   0  0  0  0  0
    3.1680   49.9830   19.9100 C   0  0  0  0  0
    4.0480   49.7450   18.6970 C   0  0  0  0  0
    3.2830   48.8700   17.7260 C   0  0  0  0  0
    3.9600   48.7580   16.3590 C   0  0  0  0  0
    1.7010   48.8560   21.4160 O   0  0  0  0  0
    3.9110   50.8210   20.8040 O   0  0  0  0  0
    5.2430   49.0630   19.1010 O   0  0  0  0  0
    3.2180   47.5990   18.3670 O   0  0  0  0  0
    3.6320   47.5060   15.7440 O   0  0  0  0  0
   -0.7410   44.6300   21.0080 C   0  0  0  0  0
    0.1160   45.6980   20.3330 C   0  0  0  0  0
    1.5650   45.2510   20.4080 C   0  0  0  0  0
    1.6270   43.9020   19.6580 C   0  0  0  0  0
    3.0370   43.4030   19.4420 C   0  0  0  0  0
   -0.4730   43.2170   20.4800 C   0  0  0  0  0
   -2.1070   44.9660   20.7650 O   0  0  0  0  0
   -0.0650   46.9530   20.9820 O   0  0  0  0  0
    2.6040   46.1830   19.9960 O   0  0  0  0  0
    0.9240   42.9400   20.4440 O   0  0  0  0  0
    3.6560   44.2440   18.4680 O   0  0  0  0  0
    6.7690   60.2660   19.7320 C   0  0  0  0  0
    6.4830   61.1800   20.9150 C   0  0  0  0  0
    7.7820   61.6730   21.5740 C   0  0  0  0  0
    8.5190   62.6620   20.6710 C   0  0  0  0  0
    7.5890   63.8450   20.3930 C   0  0  0  0  0
    6.3530   63.3070   19.6550 C   0  0  0  0  0
    5.3360   64.4000   19.2900 C   0  0  0  0  0
    4.2960   63.9250   18.2660 C   0  0  0  0  0
    3.1800   64.9520   18.0660 C   0  0  0  0  0
    8.8360   66.0010   20.1420 C   0  0  0  0  0
    8.7710   66.2990   21.6180 C   0  0  0  0  0
    8.2850   64.8810   19.6370 N   0  0  0  0  0
    5.9920   60.2890   18.7490 O   0  0  0  0  0
    7.7770   59.5180   19.7670 O   0  0  0  0  0
    9.7530   63.0610   21.2820 O   0  0  0  0  0
    5.6990   62.3120   20.4760 O   0  0  0  0  0
    4.6720   64.8480   20.4810 O   0  0  0  0  0
    4.9350   63.6810   17.0040 O   0  0  0  0  0
    2.4540   64.6760   16.8620 O   0  0  0  0  0
    9.3960   66.7920   19.3990 O   0  0  0  0  0
   -2.6334   42.5193   21.8046 H   0  0  0  0  0
   -1.8973   41.2213   22.7975 H   0  0  0  0  0
   -1.7668   41.0392   19.9579 H   0  0  0  0  0
   -5.1848   39.3951   21.2157 H   0  0  0  0  0
   -3.5958   39.1323   18.6775 H   0  0  0  0  0
   -4.4765   37.2467   19.6129 H   0  0  0  0  0
   -4.9795   40.9768   18.7339 H   0  0  0  0  0
   -2.9568   37.6481   20.9579 H   0  0  0  0  0
   -4.1500   38.0929   22.9322 H   0  0  0  0  0
   -1.3611   38.7993   20.3534 H   0  0  0  0  0
    0.8474   39.7568   22.1795 H   0  0  0  0  0
    1.2627   38.7013   24.6001 H   0  0  0  0  0
    3.3902   39.4224   22.5740 H   0  0  0  0  0
    4.0398   37.0969   22.6307 H   0  0  0  0  0
    2.3304   37.7618   20.9858 H   0  0  0  0  0
    1.2986   35.1035   21.7367 H   0  0  0  0  0
    3.0878   35.2433   21.5999 H   0  0  0  0  0
    2.1637   40.9104   24.5484 H   0  0  0  0  0
    2.7245   35.5765   23.7853 H   0  0  0  0  0
    2.0714   34.6967   19.5876 H   0  0  0  0  0
    5.6491   39.3065   26.3575 H   0  0  0  0  0
    4.6475   40.7935   26.0566 H   0  0  0  0  0
    7.5722   40.3501   25.5657 H   0  0  0  0  0
    6.0671   42.9268   24.9766 H   0  0  0  0  0
    7.1937   40.8266   23.1215 H   0  0  0  0  0
    7.3921   42.8381   21.9947 H   0  0  0  0  0
    4.7683   41.7437   21.0505 H   0  0  0  0  0
    7.3390   42.5787   19.5855 H   0  0  0  0  0
    5.9055   43.5662   19.7146 H   0  0  0  0  0
    9.9343   45.1202   23.9818 H   0  0  0  0  0
   10.2909   44.6306   25.6564 H   0  0  0  0  0
   10.3891   43.4360   24.3394 H   0  0  0  0  0
    8.8571   42.1078   24.2640 H   0  0  0  0  0
    5.6421   38.9915   22.0863 H   0  0  0  0  0
    7.7280   42.1915   27.0372 H   0  0  0  0  0
    5.5911   44.2490   21.6896 H   0  0  0  0  0
    6.0012   40.0636   19.9755 H   0  0  0  0  0
    5.9037   42.2765   17.7607 H   0  0  0  0  0
    5.4061   56.7588   21.9898 H   0  0  0  0  0
    3.3842   59.0071   22.4817 H   0  0  0  0  0
    6.4102   58.9690   21.8999 H   0  0  0  0  0
    6.6585   59.8011   24.1210 H   0  0  0  0  0
    6.7053   57.4888   24.0536 H   0  0  0  0  0
    5.0209   56.9776   26.1945 H   0  0  0  0  0
    5.4203   58.7525   26.3274 H   0  0  0  0  0
    3.8376   59.5963   20.3281 H   0  0  0  0  0
    4.7569   60.0349   25.4624 H   0  0  0  0  0
    6.8986   57.3966   27.4744 H   0  0  0  0  0
    2.3312   52.1432   20.8502 H   0  0  0  0  0
    4.9773   52.6180   22.3200 H   0  0  0  0  0
    2.2872   54.0178   22.6973 H   0  0  0  0  0
    4.9830   54.9618   21.6263 H   0  0  0  0  0
    2.3504   54.5241   20.1781 H   0  0  0  0  0
    3.4518   56.4721   19.3696 H   0  0  0  0  0
    3.6774   55.1008   18.1895 H   0  0  0  0  0
    3.8978   48.8993   24.7321 H   0  0  0  0  0
    4.3032   50.1193   25.9644 H   0  0  0  0  0
    2.7222   50.1710   25.1466 H   0  0  0  0  0
    2.5297   51.6916   23.7434 H   0  0  0  0  0
    3.5455   55.2594   24.1898 H   0  0  0  0  0
    4.8817   56.6131   16.5268 H   0  0  0  0  0
    7.2068   54.7598   15.7270 H   0  0  0  0  0
    6.9786   57.7221   15.1488 H   0  0  0  0  0
    8.7647   56.3876   17.2075 H   0  0  0  0  0
    7.8387   59.2756   17.1004 H   0  0  0  0  0
    9.1066   58.7214   15.9452 H   0  0  0  0  0
    6.8246   54.9632   18.1103 H   0  0  0  0  0
    3.9962   54.5697   17.0691 H   0  0  0  0  0
    6.6767   55.4438   13.5455 H   0  0  0  0  0
    9.9861   59.6038   17.8935 H   0  0  0  0  0
    8.5129   58.4213   13.7932 H   0  0  0  0  0
   10.2309   56.3040   12.3836 H   0  0  0  0  0
   10.2866   59.3142   12.0762 H   0  0  0  0  0
    9.1055   59.3512   10.1973 H   0  0  0  0  0
    7.4539   59.0543   11.6833 H   0  0  0  0  0
    6.8990   56.6082    9.9569 H   0  0  0  0  0
    6.8587   58.2739    9.3037 H   0  0  0  0  0
   12.0336   57.4628   13.3191 H   0  0  0  0  0
   11.6553   58.6792   10.2358 H   0  0  0  0  0
    8.6381   57.4818    8.8905 H   0  0  0  0  0
    4.7783   57.5424   10.0182 H   0  0  0  0  0
    1.3470   47.7341   19.3492 H   0  0  0  0  0
    3.6888   48.2644   21.0514 H   0  0  0  0  0
    2.2306   50.4762   19.6528 H   0  0  0  0  0
    4.3144   50.6938   18.2313 H   0  0  0  0  0
    2.3011   49.2917   17.5113 H   0  0  0  0  0
    5.0404   48.8182   16.4904 H   0  0  0  0  0
    3.6116   49.5704   15.7212 H   0  0  0  0  0
    1.9333   49.5364   22.0521 H   0  0  0  0  0
    5.7994   48.9127   18.3333 H   0  0  0  0  0
    4.0627   47.4487   14.8880 H   0  0  0  0  0
   -0.4962   44.6160   22.0701 H   0  0  0  0  0
   -0.1768   45.8223   19.2904 H   0  0  0  0  0
    1.8236   45.1716   21.4639 H   0  0  0  0  0
    1.1851   44.0464   18.6721 H   0  0  0  0  0
    3.0227   42.3700   19.0943 H   0  0  0  0  0
    3.5958   43.4341   20.3773 H   0  0  0  0  0
   -1.0796   43.1846   19.5750 H   0  0  0  0  0
   -2.6748   44.3113   21.1780 H   0  0  0  0  0
    0.4778   47.6166   20.5500 H   0  0  0  0  0
    4.5553   43.9453   18.3141 H   0  0  0  0  0
    8.4297   60.8145   21.7514 H   0  0  0  0  0
    7.5295   62.1758   22.5076 H   0  0  0  0  0
    8.7803   62.2008   19.7185 H   0  0  0  0  0
    7.2696   64.3155   21.3229 H   0  0  0  0  0
    6.7104   62.8762   18.7197 H   0  0  0  0  0
    5.8885   65.2181   18.8280 H   0  0  0  0  0
    3.8514   63.0083   18.6535 H   0  0  0  0  0
    3.6220   65.9457   17.9931 H   0  0  0  0  0
    2.4951   64.9001   18.9123 H   0  0  0  0  0
    9.7825   66.3775   22.0164 H   0  0  0  0  0
    8.2435   67.2399   21.7745 H   0  0  0  0  0
    8.2402   65.4944   22.1268 H   0  0  0  0  0
    8.3615   64.7435   18.6292 H   0  0  0  0  0
    8.2404   59.6460   20.5980 H   0  0  0  0  0
   10.2074   63.6814   20.7073 H   0  0  0  0  0
    4.0365   65.5308   20.2541 H   0  0  0  0  0
    4.2806   63.3843   16.3673 H   0  0  0  0  0
    1.7587   65.3288   16.7521 H   0  0  0  0  0
  1  2  1  0  0  0
107  1  1  0  0  0
  2  3  1  0  0  0
  3  4  1  0  0  0
  3 11  1  0  0  0
  4  5  1  0  0  0
  5  6  1  0  0  0
  9  5  1  0  0  0
  6  7  1  0  0  0
  6  8  1  0  0  0
  9 10  1  0  0  0
 11  9  1  0  0  0
 11 12  1  0  0  0
 12 13  1  0  0  0
 13 14  1  0  0  0
 13 22  1  0  0  0
 14 15  1  0  0  0
 14 19  1  0  0  0
 15 16  1  0  0  0
 15 20  1  0  0  0
 17 16  1  0  0  0
 16 21  1  0  0  0
 17 18  1  0  0  0
 22 17  1  0  0  0
 18 23  1  0  0  0
 20 25  1  0  0  0
 25 24  1  0  0  0
 24 36  1  0  0  0
 24 37  2  0  0  0
 25 26  1  0  0  0
 25 39  1  0  0  0
 26 27  1  0  0  0
 27 28  1  0  0  0
 27 38  1  0  0  0
 29 28  1  0  0  0
 28 35  1  0  0  0
 29 30  1  0  0  0
 39 29  1  0  0  0
 30 31  1  0  0  0
 30 40  1  0  0  0
 31 32  1  0  0  0
 31 41  1  0  0  0
 32 42  1  0  0  0
 33 34  1  0  0  0
 35 33  1  0  0  0
 33 43  2  0  0  0
 45 44  1  0  0  0
 44 53  1  0  0  0
 44 65  1  0  0  0
 46 45  1  0  0  0
 45 50  1  0  0  0
 46 47  1  0  0  0
 51 46  1  0  0  0
 47 48  1  0  0  0
 47 52  1  0  0  0
 48 49  1  0  0  0
 48 53  1  0  0  0
 49 54  1  0  0  0
114 51  1  0  0  0
 56 55  1  0  0  0
 66 55  1  0  0  0
 55 98  1  0  0  0
 57 56  1  0  0  0
 56 63  1  0  0  0
 58 57  1  0  0  0
 57 64  1  0  0  0
 58 59  1  0  0  0
 65 58  1  0  0  0
 59 60  1  0  0  0
 59 66  1  0  0  0
 60 67  1  0  0  0
 61 62  1  0  0  0
 63 61  1  0  0  0
 61 68  2  0  0  0
 67 74  1  0  0  0
 69 70  1  0  0  0
 74 69  1  0  0  0
 69 75  1  0  0  0
 70 71  1  0  0  0
 70 76  1  0  0  0
 72 71  1  0  0  0
 71 77  1  0  0  0
 72 73  1  0  0  0
 78 72  1  0  0  0
 73 79  1  0  0  0
 74 78  1  0  0  0
 77 80  1  0  0  0
 80 81  1  0  0  0
 80 89  1  0  0  0
 81 82  1  0  0  0
 81 86  1  0  0  0
 82 83  1  0  0  0
 82 87  1  0  0  0
 84 83  1  0  0  0
 83 88  1  0  0  0
 84 85  1  0  0  0
 89 84  1  0  0  0
 85 90  1  0  0  0
 92 91  1  0  0  0
 91100  1  0  0  0
 91110  1  0  0  0
 93 92  1  0  0  0
 92 97  1  0  0  0
 93 94  1  0  0  0
 98 93  1  0  0  0
 94 95  1  0  0  0
 94 99  1  0  0  0
 95 96  1  0  0  0
 95100  1  0  0  0
 96101  1  0  0  0
103102  1  0  0  0
102107  1  0  0  0
102108  1  0  0  0
104103  1  0  0  0
103109  1  0  0  0
104105  1  0  0  0
110104  1  0  0  0
105106  1  0  0  0
105111  1  0  0  0
106112  1  0  0  0
111107  1  0  0  0
114113  1  0  0  0
113125  2  0  0  0
113126  1  0  0  0
115114  1  0  0  0
128114  1  0  0  0
116115  1  0  0  0
117116  1  0  0  0
116127  1  0  0  0
117118  1  0  0  0
124117  1  0  0  0
118119  1  0  0  0
118128  1  0  0  0
119120  1  0  0  0
119129  1  0  0  0
120121  1  0  0  0
120130  1  0  0  0
121131  1  0  0  0
122123  1  0  0  0
122124  1  0  0  0
122132  2  0  0  0
  2133  1  0  0  0
  2134  1  0  0  0
  3135  1  0  0  0
  5136  1  0  0  0
  6137  1  0  0  0
  7138  1  0  0  0
  8139  1  0  0  0
  9140  1  0  0  0
 10141  1  0  0  0
 11142  1  0  0  0
 13143  1  0  0  0
 14144  1  0  0  0
 15145  1  0  0  0
 16146  1  0  0  0
 17147  1  0  0  0
 18148  1  0  0  0
 18149  1  0  0  0
 19150  1  0  0  0
 21151  1  0  0  0
 23152  1  0  0  0
 26153  1  0  0  0
 26154  1  0  0  0
 27155  1  0  0  0
 28156  1  0  0  0
 29157  1  0  0  0
 30158  1  0  0  0
 31159  1  0  0  0
 32160  1  0  0  0
 32161  1  0  0  0
 34162  1  0  0  0
 34163  1  0  0  0
 34164  1  0  0  0
 35165  1  0  0  0
 36166  1  0  0  0
 38167  1  0  0  0
 40168  1  0  0  0
 41169  1  0  0  0
 42170  1  0  0  0
 44171  1  0  0  0
 45172  1  0  0  0
 46173  1  0  0  0
 47174  1  0  0  0
 48175  1  0  0  0
 49176  1  0  0  0
 49177  1  0  0  0
 50178  1  0  0  0
 52179  1  0  0  0
 54180  1  0  0  0
 55181  1  0  0  0
 56182  1  0  0  0
 57183  1  0  0  0
 58184  1  0  0  0
 59185  1  0  0  0
 60186  1  0  0  0
 60187  1  0  0  0
 62188  1  0  0  0
 62189  1  0  0  0
 62190  1  0  0  0
 63191  1  0  0  0
 64192  1  0  0  0
 69193  1  0  0  0
 70194  1  0  0  0
 71195  1  0  0  0
 72196  1  0  0  0
 73197  1  0  0  0
 73198  1  0  0  0
 74199  1  0  0  0
 75200  1  0  0  0
 76201  1  0  0  0
 79202  1  0  0  0
 80203  1  0  0  0
 81204  1  0  0  0
 82205  1  0  0  0
 83206  1  0  0  0
 84207  1  0  0  0
 85208  1  0  0  0
 85209  1  0  0  0
 86210  1  0  0  0
 87211  1  0  0  0
 88212  1  0  0  0
 90213  1  0  0  0
 91214  1  0  0  0
 92215  1  0  0  0
 93216  1  0  0  0
 94217  1  0  0  0
 95218  1  0  0  0
 96219  1  0  0  0
 96220  1  0  0  0
 97221  1  0  0  0
 99222  1  0  0  0
101223  1  0  0  0
102224  1  0  0  0
103225  1  0  0  0
104226  1  0  0  0
105227  1  0  0  0
106228  1  0  0  0
106229  1  0  0  0
107230  1  0  0  0
108231  1  0  0  0
109232  1  0  0  0
112233  1  0  0  0
115234  1  0  0  0
115235  1  0  0  0
116236  1  0  0  0
117237  1  0  0  0
118238  1  0  0  0
119239  1  0  0  0
120240  1  0  0  0
121241  1  0  0  0
121242  1  0  0  0
123243  1  0  0  0
123244  1  0  0  0
123245  1  0  0  0
124246  1  0  0  0
126247  1  0  0  0
127248  1  0  0  0
129249  1  0  0  0
130250  1  0  0  0
131251  1  0  0  0
M  END
$$$$
