3g4f_ligand
  -I-interpret- 

 52 51  0  0  0  0  0  0  0  0999 V2000
   14.9950  -48.3920   12.4930 C   0  0  0  0  0
   15.4410  -49.5580   13.1240 O   0  0  0  0  0
   15.8310  -47.2510   13.0920 C   0  0  0  0  0
   17.1750  -47.3450   13.0750 F   0  0  0  0  0
   15.2320  -46.2070   13.6550 C   0  0  0  0  0
   13.7030  -46.1420   13.6560 C   0  0  0  0  0
   16.0820  -45.0780   14.3070 C   0  0  0  0  0
   16.2620  -43.7310   13.5270 C   0  0  0  0  0
   15.0900  -42.8020   13.9300 C   0  0  0  0  0
   15.0570  -41.4840   13.6560 C   0  0  0  0  0
   16.2270  -40.7530   12.9590 C   0  0  0  0  0
   13.8070  -40.7070   14.1080 C   0  0  0  0  0
   12.6010  -40.7000   13.1420 C   0  0  0  0  0
   11.2600  -41.1710   13.7580 C   0  0  0  0  0
   10.8170  -42.4300   13.6280 C   0  0  0  0  0
    9.4890  -42.8680   14.2580 C   0  0  0  0  0
   11.6320  -43.4630   12.8480 C   0  0  0  0  0
   14.4080  -50.6780   13.3590 P   0  0  0  0  0
   14.6850  -51.2580   14.6940 O   0  0  0  0  0
   13.1210  -49.9630   13.2970 O   0  0  0  0  0
   14.6060  -51.6650   12.2560 O   0  0  0  0  0
   16.0540  -52.5150   12.2150 P   0  0  0  0  0
   15.7960  -54.1590   12.2780 O   0  0  0  0  0
   16.8360  -52.2090   10.7900 O   0  0  0  0  0
   17.0340  -52.0650   13.4740 O   0  0  0  0  0
   13.9292  -48.2332   12.6574 H   0  0  0  0  0
   15.1200  -48.4518   11.4118 H   0  0  0  0  0
   13.3398  -46.1457   12.6283 H   0  0  0  0  0
   13.3042  -47.0065   14.1867 H   0  0  0  0  0
   13.3798  -45.2277   14.1537 H   0  0  0  0  0
   17.0863  -45.4925   14.3947 H   0  0  0  0  0
   15.5478  -44.8099   15.2185 H   0  0  0  0  0
   16.2562  -43.9086   12.4516 H   0  0  0  0  0
   17.2178  -43.2701   13.7762 H   0  0  0  0  0
   14.2463  -43.2387   14.4643 H   0  0  0  0  0
   17.1271  -40.8493   13.5661 H   0  0  0  0  0
   16.3991  -41.1975   11.9787 H   0  0  0  0  0
   15.9770  -39.6985   12.8423 H   0  0  0  0  0
   14.1199  -39.6671   14.2023 H   0  0  0  0  0
   13.4599  -41.2017   15.0151 H   0  0  0  0  0
   12.8389  -41.3979   12.3392 H   0  0  0  0  0
   12.4559  -39.6658   12.8299 H   0  0  0  0  0
   10.6563  -40.4551   14.3158 H   0  0  0  0  0
    9.5357  -42.7247   15.3375 H   0  0  0  0  0
    8.6774  -42.2686   13.8454 H   0  0  0  0  0
    9.3134  -43.9209   14.0372 H   0  0  0  0  0
   11.7562  -43.1244   11.8194 H   0  0  0  0  0
   12.6104  -43.5793   13.3143 H   0  0  0  0  0
   11.1081  -44.4188   12.8565 H   0  0  0  0  0
   15.5320  -51.7096   14.6760 H   0  0  0  0  0
   15.3417  -54.3794   13.0945 H   0  0  0  0  0
   16.5862  -52.2399   14.3049 H   0  0  0  0  0
  1  2  1  0  0  0
  1  3  1  0  0  0
  2 18  1  0  0  0
  3  4  1  0  0  0
  3  5  2  0  0  0
  5  6  1  0  0  0
  5  7  1  0  0  0
  7  8  1  0  0  0
  8  9  1  0  0  0
  9 10  2  0  0  0
 10 11  1  0  0  0
 10 12  1  0  0  0
 12 13  1  0  0  0
 13 14  1  0  0  0
 14 15  2  0  0  0
 15 16  1  0  0  0
 15 17  1  0  0  0
 18 19  1  0  0  0
 18 20  2  0  0  0
 18 21  1  0  0  0
 21 22  1  0  0  0
 22 23  1  0  0  0
 22 24  2  0  0  0
 22 25  1  0  0  0
  1 26  1  0  0  0
  1 27  1  0  0  0
  6 28  1  0  0  0
  6 29  1  0  0  0
  6 30  1  0  0  0
  7 31  1  0  0  0
  7 32  1  0  0  0
  8 33  1  0  0  0
  8 34  1  0  0  0
  9 35  1  0  0  0
 11 36  1  0  0  0
 11 37  1  0  0  0
 11 38  1  0  0  0
 12 39  1  0  0  0
 12 40  1  0  0  0
 13 41  1  0  0  0
 13 42  1  0  0  0
 14 43  1  0  0  0
 16 44  1  0  0  0
 16 45  1  0  0  0
 16 46  1  0  0  0
 17 47  1  0  0  0
 17 48  1  0  0  0
 17 49  1  0  0  0
 19 50  1  0  0  0
 23 51  1  0  0  0
 25 52  1  0  0  0
M  END
$$$$
