### 
### Created by X-TOOL on Mon Sep 10 21:13:01 2018
### 

@<TRIPOS>MOLECULE
3g4f_ligand
   49    48     1     0     0
SMALL
GAST_HUCK


@<TRIPOS>ATOM
      1 C1         14.9950  -48.3920   12.4930 C.3       1 FPF         0.1264
      2 O1         15.4410  -49.5580   13.1240 O.3       1 FPF        -0.2376
      3 C2         15.8310  -47.2510   13.0920 C.2       1 FPF         0.1124
      4 F          17.1750  -47.3450   13.0750 F         1 FPF        -0.2150
      5 C3         15.2320  -46.2070   13.6550 C.2       1 FPF        -0.0527
      6 C4         13.7030  -46.1420   13.6560 C.3       1 FPF        -0.0437
      7 C5         16.0820  -45.0780   14.3070 C.3       1 FPF        -0.0288
      8 C6         16.2620  -43.7310   13.5270 C.3       1 FPF        -0.0405
      9 C7         15.0900  -42.8020   13.9300 C.2       1 FPF        -0.1072
     10 C8         15.0570  -41.4840   13.6560 C.2       1 FPF        -0.0827
     11 C10        16.2270  -40.7530   12.9590 C.3       1 FPF        -0.0402
     12 C9         13.8070  -40.7070   14.1080 C.3       1 FPF        -0.0254
     13 C11        12.6010  -40.7000   13.1420 C.3       1 FPF        -0.0388
     14 C12        11.2600  -41.1710   13.7580 C.2       1 FPF        -0.1074
     15 C13        10.8170  -42.4300   13.6280 C.2       1 FPF        -0.0870
     16 C14         9.4890  -42.8680   14.2580 C.3       1 FPF        -0.0406
     17 C15        11.6320  -43.4630   12.8480 C.3       1 FPF        -0.0406
     18 P1         14.4080  -50.6780   13.3590 P.3       1 FPF         0.3289
     19 O1A        14.6850  -51.2580   14.6940 O.co2     1 FPF        -0.5555
     20 O2A        13.1210  -49.9630   13.2970 O.co2     1 FPF        -0.5555
     21 O3A        14.6060  -51.6650   12.2560 O.3       1 FPF        -0.1547
     22 P2         16.0540  -52.5150   12.2150 P.3       1 FPF         0.2070
     23 O1B        15.7960  -54.1590   12.2780 O.co2     1 FPF        -0.5891
     24 O2B        16.8360  -52.2090   10.7900 O.co2     1 FPF        -0.5891
     25 O3B        17.0340  -52.0650   13.4740 O.co2     1 FPF        -0.5891
     26 H1         13.9258  -48.2312   12.6951 H         1 FPF         0.0731
     27 H2         15.1572  -48.4573   11.4070 H         1 FPF         0.0731
     28 H3         13.3756  -45.2196   14.1580 H         1 FPF         0.0350
     29 H4         13.2993  -47.0140   14.1914 H         1 FPF         0.0350
     30 H5         13.3351  -46.1456   12.6194 H         1 FPF         0.0350
     31 H6         17.0874  -45.4885   14.4818 H         1 FPF         0.0400
     32 H7         15.6126  -44.8342   15.2715 H         1 FPF         0.0400
     33 H8         16.2379  -43.9180   12.4433 H         1 FPF         0.0358
     34 H9         17.2211  -43.2652   13.7975 H         1 FPF         0.0358
     35 H10        14.2470  -43.2383   14.4638 H         1 FPF         0.0244
     36 H11        15.9759  -39.6886   12.8407 H         1 FPF         0.0375
     37 H12        16.4017  -41.2007   11.9695 H         1 FPF         0.0375
     38 H13        17.1361  -40.8494   13.5707 H         1 FPF         0.0375
     39 H14        14.1070  -39.6616   14.2725 H         1 FPF         0.0425
     40 H15        13.4688  -41.1454   15.0585 H         1 FPF         0.0425
     41 H16        12.8383  -41.3624   12.2965 H         1 FPF         0.0361
     42 H17        12.4646  -39.6719   12.7754 H         1 FPF         0.0361
     43 H18        10.6568  -40.4558   14.3153 H         1 FPF         0.0244
     44 H19         9.3106  -43.9305   14.0359 H         1 FPF         0.0375
     45 H20         8.6691  -42.2639   13.8424 H         1 FPF         0.0375
     46 H21         9.5349  -42.7239   15.3475 H         1 FPF         0.0375
     47 H22        12.5490  -42.9923   12.4638 H         1 FPF         0.0375
     48 H23        11.0341  -43.8421   12.0061 H         1 FPF         0.0375
     49 H24        11.8991  -44.2974   13.5131 H         1 FPF         0.0375
@<TRIPOS>BOND
     1    1    2 1  
     2    1    3 1  
     3    2   18 1  
     4    3    4 1  
     5    3    5 2  
     6    5    6 1  
     7    5    7 1  
     8    7    8 1  
     9    8    9 1  
    10    9   10 2  
    11   10   11 1  
    12   10   12 1  
    13   12   13 1  
    14   13   14 1  
    15   14   15 2  
    16   15   16 1  
    17   15   17 1  
    18   18   19 ar 
    19   18   20 ar 
    20   18   21 1  
    21   21   22 1  
    22   22   23 ar 
    23   22   24 ar 
    24   22   25 ar 
    25    1   26 1  
    26    1   27 1  
    27    6   28 1  
    28    6   29 1  
    29    6   30 1  
    30    7   31 1  
    31    7   32 1  
    32    8   33 1  
    33    8   34 1  
    34    9   35 1  
    35   11   36 1  
    36   11   37 1  
    37   11   38 1  
    38   12   39 1  
    39   12   40 1  
    40   13   41 1  
    41   13   42 1  
    42   14   43 1  
    43   16   44 1  
    44   16   45 1  
    45   16   46 1  
    46   17   47 1  
    47   17   48 1  
    48   17   49 1  
@<TRIPOS>SUBSTRUCTURE
     1 FPF         1

