3q6k_ligand
  -I-interpret- 

 25 26  0  0  0  0  0  0  0  0999 V2000
   38.6400   12.6350  -27.9670 O   0  0  0  0  0
   38.1740   13.3240  -26.8940 C   0  0  0  0  0
   37.0700   14.1810  -27.0860 C   0  0  0  0  0
   36.5820   14.9050  -25.9910 C   0  0  0  0  0
   37.2280   14.7180  -24.7550 C   0  0  0  0  0
   37.0460   15.2160  -23.4990 N   0  0  0  0  0
   37.9730   14.6990  -22.6410 C   0  0  0  0  0
   38.7860   13.8310  -23.3540 C   0  0  0  0  0
   38.3160   13.8390  -24.6830 C   0  0  0  0  0
   38.7520   13.1750  -25.7280 C   0  0  0  0  0
   39.9250   13.0510  -22.7470 C   0  0  0  0  0
   41.2510   13.5550  -23.2970 C   0  0  0  0  0
   42.0970   12.4390  -23.6520 N   0  3  0  0  0
   39.3868   12.0945  -27.6991 H   0  0  0  0  0
   36.6058   14.2778  -28.0675 H   0  0  0  0  0
   35.7365   15.5854  -26.0921 H   0  0  0  0  0
   38.0593   14.9287  -21.5790 H   0  0  0  0  0
   39.5989   12.4965  -25.6250 H   0  0  0  0  0
   39.8107   11.9961  -22.9964 H   0  0  0  0  0
   39.9126   13.1811  -21.6649 H   0  0  0  0  0
   41.7499   14.1542  -22.5353 H   0  0  0  0  0
   41.0638   14.1589  -24.1849 H   0  0  0  0  0
   42.9822   12.7883  -24.0191 H   0  0  0  0  0
   42.2719   11.8696  -22.8240 H   0  0  0  0  0
   41.6321   11.8740  -24.3626 H   0  0  0  0  0
  1  2  1  0  0  0
  2  3  4  0  0  0
  2 10  4  0  0  0
  3  4  4  0  0  0
  4  5  4  0  0  0
  5  6  4  0  0  0
  5  9  4  0  0  0
  6  7  4  0  0  0
  7  8  4  0  0  0
  8  9  4  0  0  0
  8 11  1  0  0  0
  9 10  4  0  0  0
 11 12  1  0  0  0
 12 13  1  0  0  0
  1 14  1  0  0  0
  3 15  1  0  0  0
  4 16  1  0  0  0
  7 17  1  0  0  0
 10 18  1  0  0  0
 11 19  1  0  0  0
 11 20  1  0  0  0
 12 21  1  0  0  0
 12 22  1  0  0  0
 13 23  1  0  0  0
 13 24  1  0  0  0
 13 25  1  0  0  0
M  END
$$$$
