3n5e_ligand
  -I-interpret- 

142142  0  0  0  0  0  0  0  0999 V2000
  -39.2260    5.1120   21.7250 N   0  3  0  0  0
  -39.3890    6.2540   20.7790 C   0  0  0  0  0
  -38.4500    5.9840   19.5980 C   0  0  0  0  0
  -37.5220    6.7470   19.3520 O   0  0  0  0  0
  -39.0820    7.5830   21.5100 C   0  0  0  0  0
  -38.6170    8.9000   20.8690 C   0  0  0  0  0
  -39.7370    9.9080   20.7440 C   0  0  0  0  0
  -37.4980    9.5200   21.7000 C   0  0  0  0  0
  -38.7220    4.9010   18.8590 N   0  0  0  0  0
  -37.6820    4.1830   18.0890 C   0  0  0  0  0
  -38.1010    3.5430   16.7640 C   0  0  0  0  0
  -39.2850    3.5510   16.4280 O   0  0  0  0  0
  -37.1220    3.0590   18.9760 C   0  0  0  0  0
  -38.1520    2.2740   19.5320 O   0  0  0  0  0
  -37.1060    2.9910   16.0420 N   0  0  0  0  0
  -37.2830    1.8380   15.1190 C   0  0  0  0  0
  -36.4160    1.6150   13.8550 C   0  0  0  0  0
  -35.9400    2.5530   13.1970 O   0  0  0  0  0
  -38.7440    1.4950   14.8380 C   0  0  0  0  0
  -39.5470    0.8500   16.2890 S   0  0  0  0  0
  -36.2170    0.3210   13.5900 N   0  0  0  0  0
  -35.5340   -0.2650   12.4190 C   0  0  0  0  0
  -34.0020   -0.3730   12.3430 C   0  0  0  0  0
  -33.3010    0.6330   12.2580 O   0  0  0  0  0
  -36.0890    0.2420   11.0910 C   0  0  0  0  0
  -35.9460   -0.7900    9.9940 C   0  0  0  0  0
  -36.0890   -2.2320   10.4870 C   0  0  0  0  0
  -35.0930   -2.9380   10.6950 O   0  0  0  0  0
  -37.3290   -2.6690   10.6770 N   0  0  0  0  0
  -33.5370   -1.6240   12.3040 N   0  0  0  0  0
  -32.1480   -2.0620   12.5680 C   0  0  0  0  0
  -30.9520   -1.1000   12.6810 C   0  0  0  0  0
  -30.9180   -0.0260   12.0740 O   0  0  0  0  0
  -31.7880   -3.2840   11.7080 C   0  0  0  0  0
  -31.8580   -4.6910   12.3360 C   0  0  0  0  0
  -30.6310   -5.0200   13.1970 C   0  0  0  0  0
  -33.1540   -4.9650   13.1050 C   0  0  0  0  0
  -29.9560   -1.5760   13.4350 N   0  0  0  0  0
  -28.8500   -0.7960   14.0250 C   0  0  0  0  0
  -28.2520    0.3630   13.2220 C   0  0  0  0  0
  -28.0000    1.4310   13.7860 O   0  0  0  0  0
  -27.7500   -1.7370   14.5600 C   0  0  0  0  0
  -26.9470   -2.4800   13.5090 C   0  0  0  0  0
  -25.5920   -2.1930   13.3130 C   0  0  0  0  0
  -27.5280   -3.4800   12.7240 C   0  0  0  0  0
  -24.8390   -2.8730   12.3560 C   0  0  0  0  0
  -26.7840   -4.1650   11.7610 C   0  0  0  0  0
  -25.4430   -3.8540   11.5850 C   0  0  0  0  0
  -24.7020   -4.5220   10.6410 O   0  0  0  0  0
  -28.0150    0.1680   11.9280 N   0  0  0  0  0
  -27.6470    1.3010   11.0840 C   0  0  0  0  0
  -28.9170    2.0940   10.7750 C   0  0  0  0  0
  -29.6210    1.8100    9.8000 O   0  0  0  0  0
  -26.9090    0.8550    9.8090 C   0  0  0  0  0
  -26.4900    2.0040    8.8610 C   0  0  0  0  0
  -26.0180    3.2630    9.5900 C   0  0  0  0  0
  -26.7520    4.2490    9.6840 O   0  0  0  0  0
  -24.7970    3.2270   10.1160 N   0  0  0  0  0
  -29.2070    3.0710   11.6410 N   0  0  0  0  0
  -30.4330    3.8850   11.5720 C   0  0  0  0  0
  -31.6970    3.0160   11.6120 C   0  0  0  0  0
  -32.7954    3.4705   12.0298 O   0  0  0  0  0
  -30.4210    4.7710   10.3220 C   0  0  0  0  0
  -31.5490    5.7950   10.2480 C   0  0  0  0  0
  -31.8880    6.1400    8.8090 C   0  0  0  0  0
  -30.7000    6.3700    7.9910 N   0  0  0  0  0
  -30.7260    6.6950    6.7000 C   0  0  0  0  0
  -31.8830    6.8340    6.0590 N   0  0  0  0  0
  -29.5880    6.8860    6.0460 N   0  0  0  0  0
  -31.6352    1.8207   11.2182 O   0  0  0  0  0
  -39.4292    4.2382   21.2395 H   0  0  0  0  0
  -38.2672    5.0942   22.0726 H   0  0  0  0  0
  -39.8706    5.2255   22.5074 H   0  0  0  0  0
  -40.4093    6.3459   20.4065 H   0  0  0  0  0
  -38.2101    7.3093   22.1041 H   0  0  0  0  0
  -40.0675    7.8586   21.8854 H   0  0  0  0  0
  -38.2641    8.6538   19.8675 H   0  0  0  0  0
  -40.1076   10.1625   21.7370 H   0  0  0  0  0
  -39.3625   10.8064   20.2533 H   0  0  0  0  0
  -40.5455    9.4793   20.1519 H   0  0  0  0  0
  -37.1352   10.4204   21.2043 H   0  0  0  0  0
  -37.8803    9.7766   22.6880 H   0  0  0  0  0
  -36.6818    8.8045   21.7994 H   0  0  0  0  0
  -39.6820    4.5580   18.8255 H   0  0  0  0  0
  -36.9662    4.9594   17.8188 H   0  0  0  0  0
  -36.5571    3.5125   19.7905 H   0  0  0  0  0
  -36.4932    2.4158   18.3604 H   0  0  0  0  0
  -37.7678    1.5842   20.0781 H   0  0  0  0  0
  -36.1716    3.3894   16.1344 H   0  0  0  0  0
  -36.7954    1.1255   15.7844 H   0  0  0  0  0
  -38.7782    0.7363   14.0562 H   0  0  0  0  0
  -39.2609    2.4040   14.5304 H   0  0  0  0  0
  -40.8141    0.5646   16.0027 H   0  0  0  0  0
  -36.5793   -0.3400   14.2771 H   0  0  0  0  0
  -35.8020   -1.3025   12.6187 H   0  0  0  0  0
  -35.5284    1.1308   10.8015 H   0  0  0  0  0
  -37.1491    0.4589   11.2223 H   0  0  0  0  0
  -34.9451   -0.6854    9.5753 H   0  0  0  0  0
  -36.7421   -0.6112    9.2712 H   0  0  0  0  0
  -37.4894   -3.6207   11.0070 H   0  0  0  0  0
  -38.1207   -2.0528   10.4929 H   0  0  0  0  0
  -34.2090   -2.3540   12.0676 H   0  0  0  0  0
  -32.2648   -2.2638   13.6328 H   0  0  0  0  0
  -30.7382   -3.1448   11.4499 H   0  0  0  0  0
  -32.5330   -3.2954   10.9125 H   0  0  0  0  0
  -31.8564   -5.3673   11.4812 H   0  0  0  0  0
  -29.7333   -4.9743   12.5805 H   0  0  0  0  0
  -30.5534   -4.2962   14.0083 H   0  0  0  0  0
  -30.7379   -6.0224   13.6116 H   0  0  0  0  0
  -33.2528   -4.2440   13.9165 H   0  0  0  0  0
  -34.0033   -4.8709   12.4283 H   0  0  0  0  0
  -33.1249   -5.9743   13.5155 H   0  0  0  0  0
  -29.9606   -2.5788   13.6214 H   0  0  0  0  0
  -29.3466   -0.2612   14.8346 H   0  0  0  0  0
  -28.2577   -2.4973   15.1535 H   0  0  0  0  0
  -27.0424   -1.1074   15.0995 H   0  0  0  0  0
  -25.1155   -1.4231   13.9199 H   0  0  0  0  0
  -28.5796   -3.7294   12.8659 H   0  0  0  0  0
  -23.7846   -2.6351   12.2155 H   0  0  0  0  0
  -27.2529   -4.9380   11.1522 H   0  0  0  0  0
  -25.2586   -5.1644   10.1947 H   0  0  0  0  0
  -28.0899   -0.7672   11.5277 H   0  0  0  0  0
  -26.9411    1.9411   11.6133 H   0  0  0  0  0
  -27.5989    0.2220    9.2509 H   0  0  0  0  0
  -25.9916    0.3628   10.1320 H   0  0  0  0  0
  -27.3665    2.2773    8.2736 H   0  0  0  0  0
  -25.6547    1.6428    8.2611 H   0  0  0  0  0
  -24.4350    4.0361   10.6207 H   0  0  0  0  0
  -24.2225    2.3903   10.0148 H   0  0  0  0  0
  -28.5426    3.2632   12.3907 H   0  0  0  0  0
  -30.4523    4.5262   12.4532 H   0  0  0  0  0
  -30.5405    4.1082    9.4649 H   0  0  0  0  0
  -29.4869    5.3323   10.3427 H   0  0  0  0  0
  -31.2261    6.7039   10.7557 H   0  0  0  0  0
  -32.4346    5.3702   10.7206 H   0  0  0  0  0
  -32.4746    7.0587    8.8139 H   0  0  0  0  0
  -32.4314    5.2974    8.3814 H   0  0  0  0  0
  -29.7886    6.2752    8.4391 H   0  0  0  0  0
  -31.8914    7.0860    5.0707 H   0  0  0  0  0
  -32.7619    6.6886    6.5557 H   0  0  0  0  0
  -28.6971    6.7838    6.5321 H   0  0  0  0  0
  -30.7397    1.6249   10.9329 H   0  0  0  0  0
  1  2  1  0  0  0
  2  3  1  0  0  0
  2  5  1  0  0  0
  3  4  2  0  0  0
  3  9  1  0  0  0
  5  6  1  0  0  0
  6  7  1  0  0  0
  6  8  1  0  0  0
  9 10  1  0  0  0
 10 11  1  0  0  0
 10 13  1  0  0  0
 11 12  2  0  0  0
 11 15  1  0  0  0
 13 14  1  0  0  0
 15 16  1  0  0  0
 16 17  1  0  0  0
 16 19  1  0  0  0
 17 18  2  0  0  0
 17 21  1  0  0  0
 19 20  1  0  0  0
 21 22  1  0  0  0
 22 23  1  0  0  0
 22 25  1  0  0  0
 23 24  2  0  0  0
 23 30  1  0  0  0
 25 26  1  0  0  0
 26 27  1  0  0  0
 27 28  2  0  0  0
 27 29  1  0  0  0
 30 31  1  0  0  0
 31 32  1  0  0  0
 31 34  1  0  0  0
 32 33  2  0  0  0
 32 38  1  0  0  0
 34 35  1  0  0  0
 35 36  1  0  0  0
 35 37  1  0  0  0
 38 39  1  0  0  0
 39 40  1  0  0  0
 39 42  1  0  0  0
 40 41  2  0  0  0
 40 50  1  0  0  0
 42 43  1  0  0  0
 43 44  4  0  0  0
 43 45  4  0  0  0
 44 46  4  0  0  0
 45 47  4  0  0  0
 46 48  4  0  0  0
 47 48  4  0  0  0
 48 49  1  0  0  0
 50 51  1  0  0  0
 51 52  1  0  0  0
 51 54  1  0  0  0
 52 53  2  0  0  0
 52 59  1  0  0  0
 54 55  1  0  0  0
 55 56  1  0  0  0
 56 57  2  0  0  0
 56 58  1  0  0  0
 59 60  1  0  0  0
 60 61  1  0  0  0
 60 63  1  0  0  0
 61 62  2  0  0  0
 63 64  1  0  0  0
 64 65  1  0  0  0
 65 66  1  0  0  0
 66 67  1  0  0  0
 67 68  1  0  0  0
 67 69  2  0  0  0
 61 70  1  0  0  0
  1 71  1  0  0  0
  1 72  1  0  0  0
  1 73  1  0  0  0
  2 74  1  0  0  0
  5 75  1  0  0  0
  5 76  1  0  0  0
  6 77  1  0  0  0
  7 78  1  0  0  0
  7 79  1  0  0  0
  7 80  1  0  0  0
  8 81  1  0  0  0
  8 82  1  0  0  0
  8 83  1  0  0  0
  9 84  1  0  0  0
 10 85  1  0  0  0
 13 86  1  0  0  0
 13 87  1  0  0  0
 14 88  1  0  0  0
 15 89  1  0  0  0
 16 90  1  0  0  0
 19 91  1  0  0  0
 19 92  1  0  0  0
 20 93  1  0  0  0
 21 94  1  0  0  0
 22 95  1  0  0  0
 25 96  1  0  0  0
 25 97  1  0  0  0
 26 98  1  0  0  0
 26 99  1  0  0  0
 29100  1  0  0  0
 29101  1  0  0  0
 30102  1  0  0  0
 31103  1  0  0  0
 34104  1  0  0  0
 34105  1  0  0  0
 35106  1  0  0  0
 36107  1  0  0  0
 36108  1  0  0  0
 36109  1  0  0  0
 37110  1  0  0  0
 37111  1  0  0  0
 37112  1  0  0  0
 38113  1  0  0  0
 39114  1  0  0  0
 42115  1  0  0  0
 42116  1  0  0  0
 44117  1  0  0  0
 45118  1  0  0  0
 46119  1  0  0  0
 47120  1  0  0  0
 49121  1  0  0  0
 50122  1  0  0  0
 51123  1  0  0  0
 54124  1  0  0  0
 54125  1  0  0  0
 55126  1  0  0  0
 55127  1  0  0  0
 58128  1  0  0  0
 58129  1  0  0  0
 59130  1  0  0  0
 60131  1  0  0  0
 63132  1  0  0  0
 63133  1  0  0  0
 64134  1  0  0  0
 64135  1  0  0  0
 65136  1  0  0  0
 65137  1  0  0  0
 66138  1  0  0  0
 68139  1  0  0  0
 68140  1  0  0  0
 69141  1  0  0  0
 70142  1  0  0  0
M  END
$$$$
