### 
### Created by X-TOOL on Mon Sep 10 21:13:06 2018
### 

@<TRIPOS>MOLECULE
3n5e_ligand
  142   142     1     0     0
SMALL
GAST_HUCK


@<TRIPOS>ATOM
      1 N         -39.2260    5.1120   21.7250 N.4       1 LEU         0.2379
      2 CA        -39.3890    6.2540   20.7790 C.3       1 LEU         0.0652
      3 C         -38.4500    5.9840   19.5980 C.2       1 LEU         0.2268
      4 O         -37.5220    6.7470   19.3520 O.2       1 LEU        -0.3907
      5 CB        -39.0820    7.5830   21.5100 C.3       1 LEU         0.0102
      6 CG        -38.6170    8.9000   20.8690 C.3       1 LEU        -0.0394
      7 CD1       -39.7370    9.9080   20.7440 C.3       1 LEU        -0.0623
      8 CD2       -37.4980    9.5200   21.7000 C.3       1 LEU        -0.0623
      9 N         -38.7220    4.9010   18.8590 N.am      1 SER        -0.2589
     10 CA        -37.6820    4.1830   18.0890 C.3       1 SER         0.1540
     11 C         -38.1010    3.5430   16.7640 C.2       1 SER         0.2062
     12 O         -39.2850    3.5510   16.4280 O.2       1 SER        -0.3943
     13 CB        -37.1220    3.0590   18.9760 C.3       1 SER         0.0843
     14 OG        -38.1520    2.2740   19.5320 O.3       1 SER        -0.3903
     15 N         -37.1060    2.9910   16.0420 N.am      1 CYS        -0.2629
     16 CA        -37.2830    1.8380   15.1190 C.3       1 CYS         0.1396
     17 C         -36.4160    1.6150   13.8550 C.2       1 CYS         0.2047
     18 O         -35.9400    2.5530   13.1970 O.2       1 CYS        -0.3944
     19 CB        -38.7440    1.4950   14.8380 C.3       1 CYS         0.0311
     20 SG        -39.5470    0.8500   16.2890 S.3       1 CYS        -0.1735
     21 N         -36.2170    0.3210   13.5900 N.am      1 GLN        -0.2636
     22 CA        -35.5340   -0.2650   12.4190 C.3       1 GLN         0.1330
     23 C         -34.0020   -0.3730   12.3430 C.2       1 GLN         0.2040
     24 O         -33.3010    0.6330   12.2580 O.2       1 GLN        -0.3944
     25 CB        -36.0890    0.2420   11.0910 C.3       1 GLN         0.0045
     26 CG        -35.9460   -0.7900    9.9940 C.3       1 GLN         0.0412
     27 CD        -36.0890   -2.2320   10.4870 C.2       1 GLN         0.1737
     28 OE1       -35.0930   -2.9380   10.6950 O.2       1 GLN        -0.3973
     29 NE2       -37.3290   -2.6690   10.6770 N.am      1 GLN        -0.3009
     30 N         -33.5370   -1.6240   12.3040 N.am      1 LEU        -0.2637
     31 CA        -32.1480   -2.0620   12.5680 C.3       1 LEU         0.1312
     32 C         -30.9520   -1.1000   12.6810 C.2       1 LEU         0.2040
     33 O         -30.9180   -0.0260   12.0740 O.2       1 LEU        -0.3944
     34 CB        -31.7880   -3.2840   11.7080 C.3       1 LEU        -0.0101
     35 CG        -31.8580   -4.6910   12.3360 C.3       1 LEU        -0.0425
     36 CD1       -30.6310   -5.0200   13.1970 C.3       1 LEU        -0.0625
     37 CD2       -33.1540   -4.9650   13.1050 C.3       1 LEU        -0.0625
     38 N         -29.9560   -1.5760   13.4350 N.am      1 TYR        -0.2621
     39 CA        -28.8500   -0.7960   14.0250 C.3       1 TYR         0.1390
     40 C         -28.2520    0.3630   13.2220 C.2       1 TYR         0.2057
     41 O         -28.0000    1.4310   13.7860 O.2       1 TYR        -0.3942
     42 CB        -27.7500   -1.7370   14.5600 C.3       1 TYR         0.0163
     43 CG        -26.9470   -2.4800   13.5090 C.ar      1 TYR        -0.0493
     44 CD1       -25.5920   -2.1930   13.3130 C.ar      1 TYR        -0.0685
     45 CD2       -27.5280   -3.4800   12.7240 C.ar      1 TYR        -0.0685
     46 CE1       -24.8390   -2.8730   12.3560 C.ar      1 TYR        -0.0398
     47 CE2       -26.7840   -4.1650   11.7610 C.ar      1 TYR        -0.0398
     48 CZ        -25.4430   -3.8540   11.5850 C.ar      1 TYR         0.0805
     49 OH        -24.7020   -4.5220   10.6410 O.3       1 TYR        -0.3376
     50 N         -28.0150    0.1680   11.9280 N.am      1 GLN        -0.2634
     51 CA        -27.6470    1.3010   11.0840 C.3       1 GLN         0.1330
     52 C         -28.9170    2.0940   10.7750 C.2       1 GLN         0.2035
     53 O         -29.6210    1.8100    9.8000 O.2       1 GLN        -0.3944
     54 CB        -26.9090    0.8550    9.8090 C.3       1 GLN         0.0045
     55 CG        -26.4900    2.0040    8.8610 C.3       1 GLN         0.0412
     56 CD        -26.0180    3.2630    9.5900 C.2       1 GLN         0.1737
     57 OE1       -26.7520    4.2490    9.6840 O.2       1 GLN        -0.3973
     58 NE2       -24.7970    3.2270   10.1160 N.am      1 GLN        -0.3009
     59 N         -29.2070    3.0710   11.6410 N.am      1 ARG        -0.2695
     60 CA        -30.4330    3.8850   11.5720 C.3       1 ARG         0.0945
     61 C         -31.6970    3.0160   11.6120 C.2       1 ARG         0.0601
     62 O         -32.7954    3.4705   12.0298 O.co2     1 ARG        -0.5666
     63 CB        -30.4210    4.7710   10.3220 C.3       1 ARG        -0.0148
     64 CG        -31.5490    5.7950   10.2480 C.3       1 ARG        -0.0162
     65 CD        -31.8880    6.1400    8.8090 C.3       1 ARG         0.0627
     66 NE        -30.7000    6.3700    7.9910 N.pl3     1 ARG        -0.2723
     67 CZ        -30.7260    6.6950    6.7000 C.cat     1 ARG         0.2882
     68 NH1       -31.8830    6.8340    6.0590 N.pl3     1 ARG        -0.2849
     69 NH2       -29.5880    6.8860    6.0460 N.pl3     1 ARG        -0.2849
     70 O         -31.6352    1.8207   11.2182 O.co2     1 ARG        -0.5666
     71 H1        -39.8281    5.2474   22.5220 H         1 LEU         0.2015
     72 H2        -38.2672    5.0646   22.0325 H         1 LEU         0.2015
     73 H3        -39.4726    4.2525   21.2598 H         1 LEU         0.2015
     74 H4        -40.4257    6.2890   20.4129 H         1 LEU         0.1098
     75 H5        -38.3001    7.3312   22.2415 H         1 LEU         0.0348
     76 H6        -40.0117    7.8374   22.0400 H         1 LEU         0.0348
     77 H7        -38.2340    8.6764   19.8624 H         1 LEU         0.0299
     78 H8        -39.3518   10.8285   20.2811 H         1 LEU         0.0232
     79 H9        -40.1356   10.1390   21.7429 H         1 LEU         0.0232
     80 H10       -40.5383    9.4899   20.1171 H         1 LEU         0.0232
     81 H11       -36.6736    8.7988   21.8010 H         1 LEU         0.0232
     82 H12       -37.8825    9.7793   22.6974 H         1 LEU         0.0232
     83 H13       -37.1309   10.4288   21.2008 H         1 LEU         0.0232
     84 H14       -39.6632    4.5648   18.8262 H         1 SER         0.1885
     85 H15       -36.8825    4.9055   17.8680 H         1 SER         0.0823
     86 H16       -36.5350    3.5068   19.7914 H         1 SER         0.0606
     87 H17       -36.4713    2.4144   18.3669 H         1 SER         0.0606
     88 H18       -38.7155    2.8236   20.0639 H         1 SER         0.2097
     89 H19       -36.1899    3.3816   16.1325 H         1 CYS         0.1884
     90 H20       -36.9481    1.0089   15.7596 H         1 CYS         0.0808
     91 H21       -38.7877    0.7403   14.0389 H         1 CYS         0.0422
     92 H22       -39.2695    2.4048   14.5122 H         1 CYS         0.0422
     93 H23       -40.5074    0.6337   16.0720 H         1 CYS         0.1019
     94 H24       -36.5722   -0.3271   14.2637 H         1 GLN         0.1883
     95 H25       -35.8502   -1.3175   12.4670 H         1 GLN         0.0801
     96 H26       -35.5415    1.1504   10.7993 H         1 GLN         0.0337
     97 H27       -37.1550    0.4814   11.2183 H         1 GLN         0.0337
     98 H28       -34.9522   -0.6759    9.5365 H         1 GLN         0.0504
     99 H29       -36.7218   -0.6028    9.2370 H         1 GLN         0.0504
    100 H30       -37.4863   -3.6028   10.9984 H         1 GLN         0.1814
    101 H31       -38.1051   -2.0642   10.4986 H         1 GLN         0.1814
    102 H32       -34.1959   -2.3397   12.0723 H         1 LEU         0.1883
    103 H33       -32.2226   -2.4560   13.5923 H         1 LEU         0.0800
    104 H34       -30.7551   -3.1386   11.3588 H         1 LEU         0.0315
    105 H35       -32.4704   -3.2825   10.8453 H         1 LEU         0.0315
    106 H36       -31.8456   -5.3974   11.4929 H         1 LEU         0.0298
    107 H37       -30.7377   -6.0314   13.6161 H         1 LEU         0.0232
    108 H38       -30.5515   -4.2902   14.0162 H         1 LEU         0.0232
    109 H39       -29.7243   -4.9743   12.5759 H         1 LEU         0.0232
    110 H40       -34.0169   -4.7218   12.4676 H         1 LEU         0.0232
    111 H41       -33.1810   -4.3427   14.0117 H         1 LEU         0.0232
    112 H42       -33.1949   -6.0272   13.3879 H         1 LEU         0.0232
    113 H43       -29.9605   -2.5592   13.6178 H         1 TYR         0.1885
    114 H44       -29.2933   -0.3147   14.9092 H         1 TYR         0.0821
    115 H45       -28.2312   -2.4846   15.2077 H         1 TYR         0.0453
    116 H46       -27.0494   -1.1329   15.1551 H         1 TYR         0.0453
    117 H47       -25.1181   -1.4273   13.9165 H         1 TYR         0.0530
    118 H48       -28.5738   -3.7280   12.8651 H         1 TYR         0.0530
    119 H49       -23.7904   -2.6364   12.2163 H         1 TYR         0.0525
    120 H50       -27.2504   -4.9338   11.1556 H         1 TYR         0.0525
    121 H51       -23.8111   -4.1924   10.6480 H         1 TYR         0.2458
    122 H52       -28.0884   -0.7489   11.5356 H         1 GLN         0.1883
    123 H53       -26.9642    1.9497   11.6523 H         1 GLN         0.0801
    124 H54       -27.5710    0.1764    9.2511 H         1 GLN         0.0337
    125 H55       -26.0004    0.3140   10.1120 H         1 GLN         0.0337
    126 H56       -27.3541    2.2694    8.2342 H         1 GLN         0.0504
    127 H57       -25.6698    1.6450    8.2219 H         1 GLN         0.0504
    128 H58       -24.4389    4.0233   10.6035 H         1 GLN         0.1814
    129 H59       -24.2370    2.4036   10.0240 H         1 GLN         0.1814
    130 H60       -28.5556    3.2594   12.3760 H         1 ARG         0.1875
    131 H61       -30.4501    4.5422   12.4539 H         1 ARG         0.0726
    132 H62       -30.4944    4.1179    9.4399 H         1 ARG         0.0307
    133 H63       -29.4648    5.3141   10.2976 H         1 ARG         0.0307
    134 H64       -31.2367    6.7105   10.7718 H         1 ARG         0.0301
    135 H65       -32.4426    5.3796   10.7368 H         1 ARG         0.0301
    136 H66       -32.5030    7.0520    8.8010 H         1 ARG         0.0689
    137 H67       -32.4602    5.3080    8.3728 H         1 ARG         0.0689
    138 H68       -29.7797    6.2743    8.4435 H         1 ARG         0.2642
    139 H69       -31.8914    7.0857    5.0603 H         1 ARG         0.2615
    140 H70       -32.7706    6.6900    6.5613 H         1 ARG         0.2615
    141 H71       -28.6883    6.7800    6.5361 H         1 ARG         0.2615
    142 H72       -29.6040    7.1403    5.0480 H         1 ARG         0.2615
@<TRIPOS>BOND
     1    1    2 1  
     2    2    3 1  
     3    2    5 1  
     4    3    4 2  
     5    3    9 am 
     6    5    6 1  
     7    6    7 1  
     8    6    8 1  
     9    9   10 1  
    10   10   11 1  
    11   10   13 1  
    12   11   12 2  
    13   11   15 am 
    14   13   14 1  
    15   15   16 1  
    16   16   17 1  
    17   16   19 1  
    18   17   18 2  
    19   17   21 am 
    20   19   20 1  
    21   21   22 1  
    22   22   23 1  
    23   22   25 1  
    24   23   24 2  
    25   23   30 am 
    26   25   26 1  
    27   26   27 1  
    28   27   28 2  
    29   27   29 am 
    30   30   31 1  
    31   31   32 1  
    32   31   34 1  
    33   32   33 2  
    34   32   38 am 
    35   34   35 1  
    36   35   36 1  
    37   35   37 1  
    38   38   39 1  
    39   39   40 1  
    40   39   42 1  
    41   40   41 2  
    42   40   50 am 
    43   42   43 1  
    44   43   44 ar 
    45   43   45 ar 
    46   44   46 ar 
    47   45   47 ar 
    48   46   48 ar 
    49   47   48 ar 
    50   48   49 1  
    51   50   51 1  
    52   51   52 1  
    53   51   54 1  
    54   52   53 2  
    55   52   59 am 
    56   54   55 1  
    57   55   56 1  
    58   56   57 2  
    59   56   58 am 
    60   59   60 1  
    61   60   61 1  
    62   60   63 1  
    63   61   62 ar 
    64   63   64 1  
    65   64   65 1  
    66   65   66 1  
    67   66   67 ar 
    68   67   68 ar 
    69   67   69 ar 
    70   61   70 ar 
    71    1   71 1  
    72    1   72 1  
    73    1   73 1  
    74    2   74 1  
    75    5   75 1  
    76    5   76 1  
    77    6   77 1  
    78    7   78 1  
    79    7   79 1  
    80    7   80 1  
    81    8   81 1  
    82    8   82 1  
    83    8   83 1  
    84    9   84 1  
    85   10   85 1  
    86   13   86 1  
    87   13   87 1  
    88   14   88 1  
    89   15   89 1  
    90   16   90 1  
    91   19   91 1  
    92   19   92 1  
    93   20   93 1  
    94   21   94 1  
    95   22   95 1  
    96   25   96 1  
    97   25   97 1  
    98   26   98 1  
    99   26   99 1  
   100   29  100 1  
   101   29  101 1  
   102   30  102 1  
   103   31  103 1  
   104   34  104 1  
   105   34  105 1  
   106   35  106 1  
   107   36  107 1  
   108   36  108 1  
   109   36  109 1  
   110   37  110 1  
   111   37  111 1  
   112   37  112 1  
   113   38  113 1  
   114   39  114 1  
   115   42  115 1  
   116   42  116 1  
   117   44  117 1  
   118   45  118 1  
   119   46  119 1  
   120   47  120 1  
   121   49  121 1  
   122   50  122 1  
   123   51  123 1  
   124   54  124 1  
   125   54  125 1  
   126   55  126 1  
   127   55  127 1  
   128   58  128 1  
   129   58  129 1  
   130   59  130 1  
   131   60  131 1  
   132   63  132 1  
   133   63  133 1  
   134   64  134 1  
   135   64  135 1  
   136   65  136 1  
   137   65  137 1  
   138   66  138 1  
   139   68  139 1  
   140   68  140 1  
   141   69  141 1  
   142   69  142 1  
@<TRIPOS>SUBSTRUCTURE
     1 LEU         1

