6fne_ligand
  -I-interpret- 

 27 28  0  0  0  0  0  0  0  0999 V2000
   32.2720   10.2170   -1.2620 C   0  0  0  0  0
   33.8810   10.9860    0.4210 C   0  0  0  0  0
   29.8690   15.8670   -2.8040 C   0  0  0  0  0
   30.3720   14.7420   -1.9890 C   0  0  0  0  0
   30.7520   13.5380   -2.5570 C   0  0  0  0  0
   31.2500   12.4390   -1.7770 C   0  0  0  0  0
   31.3290   12.6510   -0.3960 C   0  0  0  0  0
   30.9380   13.8860    0.2000 C   0  0  0  0  0
   30.4690   14.9120   -0.5910 C   0  0  0  0  0
   32.4840   10.6970   -0.0490 C   0  0  0  0  0
   31.6720   11.0900   -2.3030 C   0  0  0  0  0
   34.3270   10.0300    1.2570 F   0  0  0  0  0
   34.7690   11.1560   -0.5900 F   0  0  0  0  0
   33.8960   12.1570    1.1210 F   0  0  0  0  0
   30.6310   13.4140   -4.1200 N   0  0  0  0  0
   31.7540   11.6700    0.4890 O   0  0  0  0  0
   31.5270   10.7220   -3.4640 O   0  0  0  0  0
   31.5340   13.9210   -4.7560 O   0  0  0  0  0
   29.6730   12.8510   -4.6140 O   0  0  0  0  0
   31.5439    9.4186   -1.1189 H   0  0  0  0  0
   33.2657    9.9788   -1.6415 H   0  0  0  0  0
   30.6342   16.1655   -3.5206 H   0  0  0  0  0
   28.9715   15.5545   -3.3378 H   0  0  0  0  0
   29.6315   16.7081   -2.1527 H   0  0  0  0  0
   31.0100   14.0181    1.2796 H   0  0  0  0  0
   30.1722   15.8571   -0.1363 H   0  0  0  0  0
   32.1050    9.7346    0.2949 H   0  0  0  0  0
  1 10  1  0  0  0
 11  1  1  0  0  0
 10  2  1  0  0  0
  2 12  1  0  0  0
  2 13  1  0  0  0
  2 14  1  0  0  0
  4  3  1  0  0  0
  5  4  4  0  0  0
  4  9  4  0  0  0
  6  5  4  0  0  0
  5 15  1  0  0  0
  6  7  4  0  0  0
  6 11  1  0  0  0
  7  8  4  0  0  0
  7 16  1  0  0  0
  8  9  4  0  0  0
 10 16  1  0  0  0
 11 17  2  0  0  0
 15 18  2  0  0  0
 15 19  2  0  0  0
  1 20  1  0  0  0
  1 21  1  0  0  0
  3 22  1  0  0  0
  3 23  1  0  0  0
  3 24  1  0  0  0
  8 25  1  0  0  0
  9 26  1  0  0  0
 10 27  1  0  0  0
M  END
$$$$
