3eql_ligand
  -I-interpret- 

 63 63  0  0  0  0  0  0  0  0999 V2000
  -11.7150   57.2370    2.8410 O   0  0  0  0  0
   -9.3460   57.7160    2.5350 C   0  0  0  0  0
   -7.3060   53.7010    7.9880 N   0  0  0  0  0
   -9.6250   59.0970    2.5600 C   0  0  0  0  0
  -10.9860   59.5820    2.6870 C   0  0  0  0  0
   -8.5780   59.9970    2.4230 O   0  0  0  0  0
  -12.0130   58.6080    2.8140 C   0  0  0  0  0
  -10.3740   56.7680    2.6860 C   0  0  0  0  0
  -11.1580   61.1640    2.6710 C   0  0  0  0  0
  -11.8490   61.5950    3.9670 C   0  0  0  0  0
  -13.1700   58.9770    2.8840 O   0  0  0  0  0
  -11.0480   61.2920    5.0980 C   0  0  0  0  0
  -11.6660   61.6930    6.4710 C   0  0  0  0  0
  -11.0670   61.1540    7.6190 C   0  0  0  0  0
  -11.5500   61.4720    9.0060 C   0  0  0  0  0
  -11.3110   62.8610    9.5820 C   0  0  0  0  0
  -12.4710   63.8290    9.3920 C   0  0  0  0  0
  -12.3960   65.2650    9.8880 C   0  0  0  0  0
  -13.1920   62.2830    4.0150 C   0  0  0  0  0
   -9.8870   60.1750    7.5260 C   0  0  0  0  0
  -10.1100   55.2510    2.6670 C   0  0  0  0  0
   -8.9150   54.9100    3.5740 C   0  0  0  0  0
   -9.3000   54.6100    5.0250 C   0  0  0  0  0
   -8.0460   54.2970    5.8130 C   0  0  0  0  0
   -8.3010   54.0080    7.1340 C   0  0  0  0  0
   -7.4860   53.4010    9.2840 C   0  0  0  0  0
   -6.4000   52.7840   11.2550 C   0  0  0  0  0
  -10.7510   61.6980    1.6530 O   0  0  0  0  0
   -6.4110   53.1310    9.9220 O   0  0  0  0  0
   -8.6720   53.4040    9.7940 O   0  0  0  0  0
   -8.3191   57.3777    2.3967 H   0  0  0  0  0
  -12.0433   59.8343    2.7681 H   0  0  0  0  0
   -8.9208   60.8930    2.4594 H   0  0  0  0  0
   -9.4258   56.3189    2.9815 H   0  0  0  0  0
  -10.0722   60.8139    5.0128 H   0  0  0  0  0
  -12.5243   62.3616    6.5363 H   0  0  0  0  0
  -10.9869   60.8020    9.6558 H   0  0  0  0  0
  -12.6345   61.3782    8.9499 H   0  0  0  0  0
  -10.4538   63.2820    9.0566 H   0  0  0  0  0
  -11.1668   62.7415   10.6558 H   0  0  0  0  0
  -13.2754   63.3909    9.9829 H   0  0  0  0  0
  -12.5507   63.9310    8.3097 H   0  0  0  0  0
  -12.2429   65.2678   10.9672 H   0  0  0  0  0
  -11.5642   65.7735    9.4004 H   0  0  0  0  0
  -13.3273   65.7792    9.6506 H   0  0  0  0  0
  -13.8828   61.6874    4.6118 H   0  0  0  0  0
  -13.0778   63.2690    4.4654 H   0  0  0  0  0
  -13.5816   62.3876    3.0024 H   0  0  0  0  0
  -10.1934   59.2908    6.9671 H   0  0  0  0  0
   -9.0545   60.6589    7.0152 H   0  0  0  0  0
   -9.5788   59.8831    8.5299 H   0  0  0  0  0
   -9.8845   54.9402    1.6469 H   0  0  0  0  0
  -10.9953   54.7296    3.0311 H   0  0  0  0  0
   -8.2600   55.7812    3.5869 H   0  0  0  0  0
   -8.4492   54.0109    3.1706 H   0  0  0  0  0
   -9.9767   53.7561    5.0567 H   0  0  0  0  0
   -9.8004   55.4757    5.4590 H   0  0  0  0  0
   -7.4056   55.1785    5.7830 H   0  0  0  0  0
   -7.5815   53.4190    5.3641 H   0  0  0  0  0
   -9.3288   54.0280    7.4964 H   0  0  0  0  0
   -6.8255   53.5964   11.8441 H   0  0  0  0  0
   -6.9922   51.8803   11.3988 H   0  0  0  0  0
   -5.3735   52.6017   11.5732 H   0  0  0  0  0
  1  7  1  0  0  0
  8  1  1  0  0  0
  2  4  2  0  0  0
  8  2  1  0  0  0
 25  3  2  0  0  0
  3 26  1  0  0  0
  4  5  1  0  0  0
  4  6  1  0  0  0
  7  5  1  0  0  0
  5  9  1  0  0  0
  7 11  2  0  0  0
 21  8  1  0  0  0
  9 10  1  0  0  0
  9 28  2  0  0  0
 10 12  2  0  0  0
 10 19  1  0  0  0
 12 13  1  0  0  0
 13 14  2  0  0  0
 14 15  1  0  0  0
 14 20  1  0  0  0
 15 16  1  0  0  0
 16 17  1  0  0  0
 17 18  1  0  0  0
 22 21  1  0  0  0
 23 22  1  0  0  0
 24 23  1  0  0  0
 24 25  1  0  0  0
 26 29  1  0  0  0
 26 30  2  0  0  0
 29 27  1  0  0  0
  2 31  1  0  0  0
  5 32  1  0  0  0
  6 33  1  0  0  0
  8 34  1  0  0  0
 12 35  1  0  0  0
 13 36  1  0  0  0
 15 37  1  0  0  0
 15 38  1  0  0  0
 16 39  1  0  0  0
 16 40  1  0  0  0
 17 41  1  0  0  0
 17 42  1  0  0  0
 18 43  1  0  0  0
 18 44  1  0  0  0
 18 45  1  0  0  0
 19 46  1  0  0  0
 19 47  1  0  0  0
 19 48  1  0  0  0
 20 49  1  0  0  0
 20 50  1  0  0  0
 20 51  1  0  0  0
 21 52  1  0  0  0
 21 53  1  0  0  0
 22 54  1  0  0  0
 22 55  1  0  0  0
 23 56  1  0  0  0
 23 57  1  0  0  0
 24 58  1  0  0  0
 24 59  1  0  0  0
 25 60  1  0  0  0
 27 61  1  0  0  0
 27 62  1  0  0  0
 27 63  1  0  0  0
M  END
$$$$
