3t01_ligand
  -I-interpret- 

 10  9  0  0  0  0  0  0  0  0999 V2000
   -1.1550   32.9560   21.3010 C   0  0  0  0  0
    0.8280   32.2500   19.8230 O   0  0  0  0  0
   -0.9680   30.5410   20.3340 O   0  0  0  0  0
    0.6150   31.3080   22.1430 O   0  0  0  0  0
   -0.8010   34.1260   21.0380 O   0  0  0  0  0
   -2.2420   32.7390   21.8840 O   0  0  0  0  0
   -0.0980   31.6660   20.8620 P   0  0  0  0  0
    0.3272   32.4595   19.0312 H   0  0  0  0  0
   -1.3953   30.8227   19.5218 H   0  0  0  0  0
   -2.3552   31.7935   22.0061 H   0  0  0  0  0
  1  5  2  0  0  0
  1  6  1  0  0  0
  1  7  1  0  0  0
  7  2  1  0  0  0
  7  3  1  0  0  0
  7  4  2  0  0  0
  2  8  1  0  0  0
  3  9  1  0  0  0
  6 10  1  0  0  0
M  END
$$$$
