3eht_ligand
  -I-interpret- 

191191  0  0  0  0  0  0  0  0999 V2000
   27.4590  -42.7410   32.4190 N   0  3  0  0  0
   27.0550  -43.6530   33.5270 C   0  0  0  0  0
   28.0130  -43.5240   34.7100 C   0  0  0  0  0
   27.6520  -42.9660   35.7470 O   0  0  0  0  0
   26.9820  -45.1110   33.0360 C   0  0  0  0  0
   29.2300  -44.0430   34.5440 N   0  0  0  0  0
   30.2700  -43.9710   35.5730 C   0  0  0  0  0
   30.8190  -42.5520   35.7270 C   0  0  0  0  0
   30.9300  -42.0470   36.8440 O   0  0  0  0  0
   31.3950  -44.9760   35.2790 C   0  0  0  0  0
   32.7390  -44.5500   35.7870 C   0  0  0  0  0
   33.0240  -44.4180   37.1310 N   0  0  0  0  0
   33.8780  -44.2240   35.1290 C   0  0  0  0  0
   34.2780  -44.0270   37.2770 C   0  0  0  0  0
   34.8190  -43.9060   36.0780 N   0  0  0  0  0
   31.1560  -41.9120   34.6100 N   0  0  0  0  0
   31.5580  -40.5050   34.6310 C   0  0  0  0  0
   30.3420  -39.6050   34.8840 C   0  0  0  0  0
   30.4630  -38.3750   34.9370 O   0  0  0  0  0
   32.2790  -40.1100   33.3340 C   0  0  0  0  0
   31.3950  -40.0850   32.2230 O   0  0  0  0  0
   29.1780  -40.2410   35.0440 N   0  0  0  0  0
   27.9240  -39.5480   35.3250 C   0  0  0  0  0
   27.3980  -39.7740   36.7420 C   0  0  0  0  0
   26.5840  -38.9940   37.2320 O   0  0  0  0  0
   26.8620  -39.9090   34.2860 C   0  0  0  0  0
   27.0400  -39.1490   32.9850 C   0  0  0  0  0
   27.1560  -37.9250   32.9780 O   0  0  0  0  0
   27.0610  -39.8750   31.8760 N   0  0  0  0  0
   27.8520  -40.8410   37.3930 N   0  0  0  0  0
   27.6240  -41.0040   38.8230 C   0  0  0  0  0
   28.5640  -40.0530   39.5430 C   0  0  0  0  0
   28.1640  -39.3670   40.4810 O   0  0  0  0  0
   27.9050  -42.4330   39.2700 C   0  0  0  0  0
   26.7890  -43.4150   39.0140 C   0  0  0  0  0
   27.3980  -44.7720   38.7440 C   0  0  0  0  0
   26.4480  -45.8600   38.9630 N   0  0  0  0  0
   26.7380  -47.1480   38.7930 C   0  0  0  0  0
   27.9560  -47.5180   38.3940 N   0  0  0  0  0
   25.8070  -48.0700   39.0230 N   0  0  0  0  0
   29.8160  -40.0270   39.0900 N   0  0  0  0  0
   30.8260  -39.1010   39.5910 C   0  0  0  0  0
   30.3420  -37.6510   39.4850 C   0  0  0  0  0
   30.5000  -36.8680   40.4250 O   0  0  0  0  0
   32.1510  -39.3290   38.8470 C   0  0  0  0  0
   32.9700  -38.0830   38.4910 C   0  0  0  0  0
   34.0060  -38.4290   37.4100 C   0  0  0  0  0
   34.5890  -37.1340   36.7700 C   0  0  0  0  0
   35.5550  -37.4700   35.6750 N   0  3  0  0  0
   29.7290  -37.3070   38.3540 N   0  0  0  0  0
   29.1800  -35.9780   38.1780 C   0  0  0  0  0
   28.1040  -35.7440   39.2180 C   0  0  0  0  0
   28.2390  -34.8620   40.0490 O   0  0  0  0  0
   28.6220  -35.7900   36.7730 C   0  0  0  0  0
   28.8800  -34.3970   36.2000 C   0  0  0  0  0
   30.3140  -34.2800   35.6940 C   0  0  0  0  0
   27.9210  -34.0970   35.0840 C   0  0  0  0  0
   27.0690  -36.5770   39.1970 N   0  0  0  0  0
   25.9270  -36.4610   40.1060 C   0  0  0  0  0
   26.2330  -36.4270   41.6080 C   0  0  0  0  0
   25.4200  -35.9450   42.3970 O   0  0  0  0  0
   24.9310  -37.5720   39.8130 C   0  0  0  0  0
   23.8790  -37.1660   38.8180 C   0  0  0  0  0
   23.1570  -38.5270   37.8870 S   0  0  0  0  0
   22.6460  -39.6550   39.1980 C   0  0  0  0  0
   27.3860  -36.9460   42.0090 N   0  0  0  0  0
   27.7800  -36.8680   43.4040 C   0  0  0  0  0
   28.2640  -35.4670   43.7060 C   0  0  0  0  0
   27.9870  -34.9270   44.7660 O   0  0  0  0  0
   28.8680  -37.8800   43.7230 C   0  0  0  0  0
   28.3720  -39.3130   43.8330 C   0  0  0  0  0
   29.4920  -40.3430   43.6680 C   0  0  0  0  0
   30.6860  -39.9500   43.6710 O   0  0  0  0  0
   29.1780  -41.5520   43.5320 O   0  0  0  0  0
   28.9800  -34.8770   42.7580 N   0  0  0  0  0
   29.4610  -33.5080   42.8950 C   0  0  0  0  0
   28.3390  -32.4900   42.6600 C   0  0  0  0  0
   28.1860  -31.5510   43.4340 O   0  0  0  0  0
   30.6330  -33.2390   41.9350 C   0  0  0  0  0
   31.7270  -34.2820   42.1540 C   0  0  0  0  0
   31.1750  -31.8150   42.1150 C   0  0  0  0  0
   32.6590  -34.4380   40.9880 C   0  0  0  0  0
   27.5610  -32.7000   41.6000 N   0  0  0  0  0
   26.4980  -31.7860   41.1700 C   0  0  0  0  0
   25.3950  -31.6420   42.2170 C   0  0  0  0  0
   24.9410  -30.5330   42.4960 O   0  0  0  0  0
   25.8940  -32.2400   39.8040 C   0  0  0  0  0
   26.9770  -32.3020   38.7290 C   0  0  0  0  0
   24.7760  -31.3220   39.3290 C   0  0  0  0  0
   27.9900  -31.1670   38.7820 C   0  0  0  0  0
   24.9520  -32.7440   42.8070 N   0  0  0  0  0
   27.5006  -41.7830   32.7668 H   0  0  0  0  0
   28.3768  -43.0175   32.0702 H   0  0  0  0  0
   26.7751  -42.8007   31.6646 H   0  0  0  0  0
   26.0604  -43.3602   33.8633 H   0  0  0  0  0
   27.9735  -45.4374   32.7222 H   0  0  0  0  0
   26.6276  -45.7485   33.8460 H   0  0  0  0  0
   26.2934  -45.1753   32.1935 H   0  0  0  0  0
   29.4459  -44.5099   33.6632 H   0  0  0  0  0
   29.8127  -44.2409   36.5249 H   0  0  0  0  0
   31.4724  -45.0677   34.1956 H   0  0  0  0  0
   31.1379  -45.9069   35.7844 H   0  0  0  0  0
   34.0208  -44.2157   34.0484 H   0  0  0  0  0
   34.7804  -43.8367   38.2254 H   0  0  0  0  0
   31.1337  -42.4122   33.7213 H   0  0  0  0  0
   32.2637  -40.3664   35.4501 H   0  0  0  0  0
   33.0556  -40.8488   33.1362 H   0  0  0  0  0
   32.6927  -39.1100   33.4640 H   0  0  0  0  0
   31.8814  -39.8348   31.4341 H   0  0  0  0  0
   29.1648  -41.2579   34.9662 H   0  0  0  0  0
   28.1471  -38.4833   35.2566 H   0  0  0  0  0
   25.8868  -39.6480   34.6972 H   0  0  0  0  0
   26.9522  -40.9733   34.0688 H   0  0  0  0  0
   27.1770  -39.4198   30.9706 H   0  0  0  0  0
   26.9612  -40.8888   31.9281 H   0  0  0  0  0
   28.3685  -41.5574   36.8828 H   0  0  0  0  0
   26.5814  -40.7868   39.0552 H   0  0  0  0  0
   28.0530  -42.4007   40.3494 H   0  0  0  0  0
   28.7645  -42.7782   38.6954 H   0  0  0  0  0
   26.1999  -43.0936   38.1551 H   0  0  0  0  0
   26.1326  -43.4675   39.8826 H   0  0  0  0  0
   28.2338  -44.9099   39.4299 H   0  0  0  0  0
   27.7101  -44.8008   37.7000 H   0  0  0  0  0
   25.5043  -45.6178   39.2648 H   0  0  0  0  0
   28.1723  -48.5065   38.2657 H   0  0  0  0  0
   28.6710  -46.8124   38.2172 H   0  0  0  0  0
   24.8753  -47.7889   39.3284 H   0  0  0  0  0
   30.0815  -40.6858   38.3579 H   0  0  0  0  0
   30.9982  -39.2937   40.6499 H   0  0  0  0  0
   31.8839  -39.7920   37.8970 H   0  0  0  0  0
   32.7756  -39.9137   39.5223 H   0  0  0  0  0
   33.4860  -37.7254   39.3820 H   0  0  0  0  0
   32.3015  -37.3092   38.1136 H   0  0  0  0  0
   33.5199  -39.0179   36.6322 H   0  0  0  0  0
   34.8190  -38.9916   37.8689 H   0  0  0  0  0
   35.1131  -36.5670   37.5393 H   0  0  0  0  0
   33.7701  -36.5504   36.3494 H   0  0  0  0  0
   35.9230  -36.6084   35.2717 H   0  0  0  0  0
   36.3223  -38.0224   36.0578 H   0  0  0  0  0
   35.0750  -38.0071   34.9528 H   0  0  0  0  0
   29.6448  -37.9893   37.6005 H   0  0  0  0  0
   29.9778  -35.2468   38.3085 H   0  0  0  0  0
   27.5422  -35.9288   36.8266 H   0  0  0  0  0
   29.1185  -36.5103   36.1228 H   0  0  0  0  0
   28.7283  -33.6717   36.9994 H   0  0  0  0  0
   31.0045  -34.4560   36.5188 H   0  0  0  0  0
   30.4836  -35.0204   34.9122 H   0  0  0  0  0
   30.4752  -33.2803   35.2906 H   0  0  0  0  0
   28.0466  -34.8340   34.2908 H   0  0  0  0  0
   26.8999  -34.1395   35.4629 H   0  0  0  0  0
   28.1230  -33.1005   34.6911 H   0  0  0  0  0
   27.0701  -37.3346   38.5140 H   0  0  0  0  0
   25.5195  -35.4718   39.8974 H   0  0  0  0  0
   24.4276  -37.8231   40.7466 H   0  0  0  0  0
   25.4830  -38.4116   39.3906 H   0  0  0  0  0
   24.3632  -36.5093   38.0952 H   0  0  0  0  0
   23.0695  -36.7043   39.3834 H   0  0  0  0  0
   23.5182  -39.9522   39.7803 H   0  0  0  0  0
   21.9277  -39.1541   39.8470 H   0  0  0  0  0
   22.1843  -40.5381   38.7563 H   0  0  0  0  0
   27.9991  -37.4024   41.3335 H   0  0  0  0  0
   26.9165  -37.1013   44.0269 H   0  0  0  0  0
   29.2859  -37.6086   44.6924 H   0  0  0  0  0
   29.5860  -37.8499   42.9035 H   0  0  0  0  0
   27.6473  -39.4774   43.0355 H   0  0  0  0  0
   27.9434  -39.4424   44.8268 H   0  0  0  0  0
   30.7078  -38.9972   43.7867 H   0  0  0  0  0
   29.2004  -35.3965   41.9083 H   0  0  0  0  0
   29.8140  -33.3899   43.9195 H   0  0  0  0  0
   30.2757  -33.3207   40.9085 H   0  0  0  0  0
   31.2342  -35.2422   42.3064 H   0  0  0  0  0
   32.3237  -33.9528   43.0047 H   0  0  0  0  0
   30.3814  -31.0968   41.9088 H   0  0  0  0  0
   31.5250  -31.6876   43.1394 H   0  0  0  0  0
   32.0023  -31.6525   41.4242 H   0  0  0  0  0
   32.0914  -34.7439   40.1092 H   0  0  0  0  0
   33.1534  -33.4870   40.7899 H   0  0  0  0  0
   33.4067  -35.1961   41.2211 H   0  0  0  0  0
   27.7137  -33.5480   41.0541 H   0  0  0  0  0
   26.9574  -30.8053   41.0461 H   0  0  0  0  0
   25.4733  -33.2321   39.9678 H   0  0  0  0  0
   26.4724  -32.2327   37.7653 H   0  0  0  0  0
   27.5292  -33.2283   38.8875 H   0  0  0  0  0
   23.9738  -31.3166   40.0669 H   0  0  0  0  0
   25.1651  -30.3113   39.2061 H   0  0  0  0  0
   24.3916  -31.6832   38.3752 H   0  0  0  0  0
   27.4741  -30.2151   38.6565 H   0  0  0  0  0
   28.4996  -31.1813   39.7454 H   0  0  0  0  0
   28.7191  -31.2948   37.9819 H   0  0  0  0  0
   24.2168  -32.6850   43.5115 H   0  0  0  0  0
   25.3465  -33.6506   42.5563 H   0  0  0  0  0
  1  2  1  0  0  0
  2  3  1  0  0  0
  2  5  1  0  0  0
  3  4  2  0  0  0
  3  6  1  0  0  0
  6  7  1  0  0  0
  7  8  1  0  0  0
  7 10  1  0  0  0
  8  9  2  0  0  0
  8 16  1  0  0  0
 10 11  1  0  0  0
 11 12  4  0  0  0
 11 13  4  0  0  0
 12 14  4  0  0  0
 13 15  4  0  0  0
 14 15  4  0  0  0
 16 17  1  0  0  0
 17 18  1  0  0  0
 17 20  1  0  0  0
 18 19  2  0  0  0
 18 22  1  0  0  0
 20 21  1  0  0  0
 22 23  1  0  0  0
 23 24  1  0  0  0
 23 26  1  0  0  0
 24 25  2  0  0  0
 24 30  1  0  0  0
 26 27  1  0  0  0
 27 28  2  0  0  0
 27 29  1  0  0  0
 30 31  1  0  0  0
 31 32  1  0  0  0
 31 34  1  0  0  0
 32 33  2  0  0  0
 32 41  1  0  0  0
 34 35  1  0  0  0
 35 36  1  0  0  0
 36 37  1  0  0  0
 37 38  1  0  0  0
 38 39  1  0  0  0
 38 40  2  0  0  0
 41 42  1  0  0  0
 42 43  1  0  0  0
 42 45  1  0  0  0
 43 44  2  0  0  0
 43 50  1  0  0  0
 45 46  1  0  0  0
 46 47  1  0  0  0
 47 48  1  0  0  0
 48 49  1  0  0  0
 50 51  1  0  0  0
 51 52  1  0  0  0
 51 54  1  0  0  0
 52 53  2  0  0  0
 52 58  1  0  0  0
 54 55  1  0  0  0
 55 56  1  0  0  0
 55 57  1  0  0  0
 58 59  1  0  0  0
 59 60  1  0  0  0
 59 62  1  0  0  0
 60 61  2  0  0  0
 60 66  1  0  0  0
 62 63  1  0  0  0
 63 64  1  0  0  0
 64 65  1  0  0  0
 66 67  1  0  0  0
 67 68  1  0  0  0
 67 70  1  0  0  0
 68 69  2  0  0  0
 68 75  1  0  0  0
 70 71  1  0  0  0
 71 72  1  0  0  0
 72 73  1  0  0  0
 72 74  2  0  0  0
 75 76  1  0  0  0
 76 77  1  0  0  0
 76 79  1  0  0  0
 77 78  2  0  0  0
 77 83  1  0  0  0
 79 80  1  0  0  0
 79 81  1  0  0  0
 80 82  1  0  0  0
 83 84  1  0  0  0
 84 85  1  0  0  0
 84 87  1  0  0  0
 85 86  2  0  0  0
 85 91  1  0  0  0
 87 88  1  0  0  0
 87 89  1  0  0  0
 88 90  1  0  0  0
  1 92  1  0  0  0
  1 93  1  0  0  0
  1 94  1  0  0  0
  2 95  1  0  0  0
  5 96  1  0  0  0
  5 97  1  0  0  0
  5 98  1  0  0  0
  6 99  1  0  0  0
  7100  1  0  0  0
 10101  1  0  0  0
 10102  1  0  0  0
 13103  1  0  0  0
 14104  1  0  0  0
 16105  1  0  0  0
 17106  1  0  0  0
 20107  1  0  0  0
 20108  1  0  0  0
 21109  1  0  0  0
 22110  1  0  0  0
 23111  1  0  0  0
 26112  1  0  0  0
 26113  1  0  0  0
 29114  1  0  0  0
 29115  1  0  0  0
 30116  1  0  0  0
 31117  1  0  0  0
 34118  1  0  0  0
 34119  1  0  0  0
 35120  1  0  0  0
 35121  1  0  0  0
 36122  1  0  0  0
 36123  1  0  0  0
 37124  1  0  0  0
 39125  1  0  0  0
 39126  1  0  0  0
 40127  1  0  0  0
 41128  1  0  0  0
 42129  1  0  0  0
 45130  1  0  0  0
 45131  1  0  0  0
 46132  1  0  0  0
 46133  1  0  0  0
 47134  1  0  0  0
 47135  1  0  0  0
 48136  1  0  0  0
 48137  1  0  0  0
 49138  1  0  0  0
 49139  1  0  0  0
 49140  1  0  0  0
 50141  1  0  0  0
 51142  1  0  0  0
 54143  1  0  0  0
 54144  1  0  0  0
 55145  1  0  0  0
 56146  1  0  0  0
 56147  1  0  0  0
 56148  1  0  0  0
 57149  1  0  0  0
 57150  1  0  0  0
 57151  1  0  0  0
 58152  1  0  0  0
 59153  1  0  0  0
 62154  1  0  0  0
 62155  1  0  0  0
 63156  1  0  0  0
 63157  1  0  0  0
 65158  1  0  0  0
 65159  1  0  0  0
 65160  1  0  0  0
 66161  1  0  0  0
 67162  1  0  0  0
 70163  1  0  0  0
 70164  1  0  0  0
 71165  1  0  0  0
 71166  1  0  0  0
 73167  1  0  0  0
 75168  1  0  0  0
 76169  1  0  0  0
 79170  1  0  0  0
 80171  1  0  0  0
 80172  1  0  0  0
 81173  1  0  0  0
 81174  1  0  0  0
 81175  1  0  0  0
 82176  1  0  0  0
 82177  1  0  0  0
 82178  1  0  0  0
 83179  1  0  0  0
 84180  1  0  0  0
 87181  1  0  0  0
 88182  1  0  0  0
 88183  1  0  0  0
 89184  1  0  0  0
 89185  1  0  0  0
 89186  1  0  0  0
 90187  1  0  0  0
 90188  1  0  0  0
 90189  1  0  0  0
 91190  1  0  0  0
 91191  1  0  0  0
M  END
$$$$
