### 
### Created by X-TOOL on Mon Sep 10 21:12:58 2018
### 

@<TRIPOS>MOLECULE
3eht_ligand
  192   192     1     0     0
SMALL
GAST_HUCK


@<TRIPOS>ATOM
      1 N          27.4590  -42.7410   32.4190 N.4       1 ALA         0.2377
      2 CA         27.0550  -43.6530   33.5270 C.3       1 ALA         0.0621
      3 C          28.0130  -43.5240   34.7100 C.2       1 ALA         0.2265
      4 O          27.6520  -42.9660   35.7470 O.2       1 ALA        -0.3907
      5 CB         26.9820  -45.1110   33.0360 C.3       1 ALA        -0.0040
      6 N          29.2300  -44.0430   34.5440 N.am      1 HIS        -0.2598
      7 CA         30.2700  -43.9710   35.5730 C.3       1 HIS         0.1370
      8 C          30.8190  -42.5520   35.7270 C.2       1 HIS         0.2054
      9 O          30.9300  -42.0470   36.8440 O.2       1 HIS        -0.3942
     10 CB         31.3950  -44.9760   35.2790 C.3       1 HIS         0.0145
     11 CG         32.7390  -44.5500   35.7870 C.2       1 HIS        -0.0027
     12 ND1        33.0240  -44.4180   37.1310 N.2       1 HIS        -0.3252
     13 CD2        33.8780  -44.2240   35.1290 C.2       1 HIS         0.0291
     14 CE1        34.2780  -44.0270   37.2770 C.2       1 HIS         0.0907
     15 NE2        34.8190  -43.9060   36.0780 N.pl3     1 HIS        -0.2752
     16 N          31.1560  -41.9120   34.6100 N.am      1 SER        -0.2615
     17 CA         31.5580  -40.5050   34.6310 C.3       1 SER         0.1539
     18 C          30.3420  -39.6050   34.8840 C.2       1 SER         0.2063
     19 O          30.4630  -38.3750   34.9370 O.2       1 SER        -0.3943
     20 CB         32.2790  -40.1100   33.3340 C.3       1 SER         0.0843
     21 OG         31.3950  -40.0850   32.2230 O.3       1 SER        -0.3903
     22 N          29.1780  -40.2410   35.0440 N.am      1 ASN        -0.2615
     23 CA         27.9240  -39.5480   35.3250 C.3       1 ASN         0.1476
     24 C          27.3980  -39.7740   36.7420 C.2       1 ASN         0.2063
     25 O          26.5840  -38.9940   37.2320 O.2       1 ASN        -0.3942
     26 CB         26.8620  -39.9090   34.2860 C.3       1 ASN         0.0773
     27 CG         27.0400  -39.1490   32.9850 C.2       1 ASN         0.1780
     28 OD1        27.1560  -37.9250   32.9780 O.2       1 ASN        -0.3970
     29 ND2        27.0610  -39.8750   31.8760 N.am      1 ASN        -0.3007
     30 N          27.8520  -40.8410   37.3930 N.am      1 ARG        -0.2636
     31 CA         27.6240  -41.0040   38.8230 C.3       1 ARG         0.1311
     32 C          28.5640  -40.0530   39.5430 C.2       1 ARG         0.2039
     33 O          28.1640  -39.3670   40.4810 O.2       1 ARG        -0.3944
     34 CB         27.9050  -42.4330   39.2700 C.3       1 ARG        -0.0092
     35 CG         26.7890  -43.4150   39.0140 C.3       1 ARG        -0.0156
     36 CD         27.3980  -44.7720   38.7440 C.3       1 ARG         0.0627
     37 NE         26.4480  -45.8600   38.9630 N.pl3     1 ARG        -0.2723
     38 CZ         26.7380  -47.1480   38.7930 C.cat     1 ARG         0.2882
     39 NH1        27.9560  -47.5180   38.3940 N.pl3     1 ARG        -0.2849
     40 NH2        25.8070  -48.0700   39.0230 N.pl3     1 ARG        -0.2849
     41 N          29.8160  -40.0270   39.0900 N.am      1 LYS        -0.2637
     42 CA         30.8260  -39.1010   39.5910 C.3       1 LYS         0.1310
     43 C          30.3420  -37.6510   39.4850 C.2       1 LYS         0.2039
     44 O          30.5000  -36.8680   40.4250 O.2       1 LYS        -0.3944
     45 CB         32.1510  -39.3290   38.8470 C.3       1 LYS        -0.0122
     46 CG         32.9700  -38.0830   38.4910 C.3       1 LYS        -0.0440
     47 CD         34.0060  -38.4290   37.4100 C.3       1 LYS        -0.0124
     48 CE         34.5890  -37.1340   36.7700 C.3       1 LYS        -0.0354
     49 NZ         35.5550  -37.4700   35.6750 N.4       1 LYS         0.2185
     50 N          29.7290  -37.3070   38.3540 N.am      1 LEU        -0.2637
     51 CA         29.1800  -35.9780   38.1780 C.3       1 LEU         0.1312
     52 C          28.1040  -35.7440   39.2180 C.2       1 LEU         0.2039
     53 O          28.2390  -34.8620   40.0490 O.2       1 LEU        -0.3944
     54 CB         28.6220  -35.7900   36.7730 C.3       1 LEU        -0.0101
     55 CG         28.8800  -34.3970   36.2000 C.3       1 LEU        -0.0425
     56 CD1        30.3140  -34.2800   35.6940 C.3       1 LEU        -0.0625
     57 CD2        27.9210  -34.0970   35.0840 C.3       1 LEU        -0.0625
     58 N          27.0690  -36.5770   39.1970 N.am      1 MET        -0.2637
     59 CA         25.9270  -36.4610   40.1060 C.3       1 MET         0.1317
     60 C          26.2330  -36.4270   41.6080 C.2       1 MET         0.2039
     61 O          25.4200  -35.9450   42.3970 O.2       1 MET        -0.3944
     62 CB         24.9310  -37.5720   39.8130 C.3       1 MET        -0.0034
     63 CG         23.8790  -37.1660   38.8180 C.3       1 MET        -0.0024
     64 SD         23.1570  -38.5270   37.8870 S.3       1 MET        -0.1639
     65 CE         22.6460  -39.6550   39.1980 C.3       1 MET        -0.0181
     66 N          27.3860  -36.9460   42.0090 N.am      1 GLU        -0.2636
     67 CA         27.7800  -36.8680   43.4040 C.3       1 GLU         0.1325
     68 C          28.2640  -35.4670   43.7060 C.2       1 GLU         0.2040
     69 O          27.9870  -34.9270   44.7660 O.2       1 GLU        -0.3944
     70 CB         28.8680  -37.8800   43.7230 C.3       1 GLU        -0.0008
     71 CG         28.3720  -39.3130   43.8330 C.3       1 GLU         0.0044
     72 CD         29.4920  -40.3430   43.6680 C.2       1 GLU         0.0350
     73 OE1        30.6860  -39.9500   43.6710 O.co2     1 GLU        -0.5690
     74 OE2        29.1780  -41.5520   43.5320 O.co2     1 GLU        -0.5690
     75 N          28.9800  -34.8770   42.7580 N.am      1 ILE        -0.2635
     76 CA         29.4610  -33.5080   42.8950 C.3       1 ILE         0.1335
     77 C          28.3390  -32.4900   42.6600 C.2       1 ILE         0.2042
     78 O          28.1860  -31.5510   43.4340 O.2       1 ILE        -0.3944
     79 CB         30.6330  -33.2390   41.9350 C.3       1 ILE        -0.0037
     80 CG1        31.7270  -34.2820   42.1540 C.3       1 ILE        -0.0491
     81 CG2        31.1750  -31.8150   42.1150 C.3       1 ILE        -0.0582
     82 CD1        32.6590  -34.4380   40.9880 C.3       1 ILE        -0.0648
     83 N          27.5610  -32.7000   41.6000 N.am      1 ILE        -0.2635
     84 CA         26.4980  -31.7860   41.1700 C.3       1 ILE         0.1332
     85 C          25.3950  -31.6420   42.2170 C.2       1 ILE         0.1994
     86 O          24.9410  -30.5330   42.4960 O.2       1 ILE        -0.3947
     87 CB         25.8940  -32.2400   39.8040 C.3       1 ILE        -0.0037
     88 CG1        26.9770  -32.3020   38.7290 C.3       1 ILE        -0.0491
     89 CG2        24.7760  -31.3220   39.3290 C.3       1 ILE        -0.0582
     90 CD1        27.9900  -31.1670   38.7820 C.3       1 ILE        -0.0648
     91 N          24.9520  -32.7440   42.8070 N.am      1 NH2        -0.2990
     92 H1         26.8154  -42.8413   31.6497 H         1 ALA         0.2015
     93 H2         28.3894  -42.9773   32.1116 H         1 ALA         0.2015
     94 H3         27.4453  -41.7878   32.7465 H         1 ALA         0.2015
     95 H4         26.0515  -43.3561   33.8659 H         1 ALA         0.1095
     96 H5         26.6827  -45.7639   33.8691 H         1 ALA         0.0310
     97 H6         27.9689  -45.4221   32.6627 H         1 ALA         0.0310
     98 H7         26.2423  -45.1884   32.2255 H         1 ALA         0.0310
     99 H8         29.4417  -44.5008   33.6805 H         1 HIS         0.1886
    100 H9         29.8104  -44.2538   36.5315 H         1 HIS         0.0817
    101 H10        31.4634  -45.1101   34.1894 H         1 HIS         0.0420
    102 H11        31.1346  -45.9349   35.7509 H         1 HIS         0.0420
    103 H12        34.0207  -44.2157   34.0494 H         1 HIS         0.0729
    104 H13        34.7799  -43.8369   38.2246 H         1 HIS         0.1199
    105 H14        35.7895  -43.6195   35.8857 H         1 HIS         0.2361
    106 H15        31.1341  -42.4023   33.7387 H         1 SER         0.1884
    107 H16        32.2631  -40.3660   35.4638 H         1 SER         0.0823
    108 H17        33.0788  -40.8387   33.1356 H         1 SER         0.0606
    109 H18        32.7179  -39.1095   33.4617 H         1 SER         0.0606
    110 H19        31.8763  -39.8374   31.4423 H         1 SER         0.2097
    111 H20        29.1650  -41.2380   34.9678 H         1 ASN         0.1885
    112 H21        28.1264  -38.4711   35.2287 H         1 ASN         0.0826
    113 H22        25.8700  -39.6737   34.6990 H         1 ASN         0.0551
    114 H23        26.9257  -40.9869   34.0763 H         1 ASN         0.0551
    115 H24        27.1756  -39.4288   30.9884 H         1 ASN         0.1814
    116 H25        26.9623  -40.8688   31.9270 H         1 ASN         0.1814
    117 H26        28.3584  -41.5434   36.8928 H         1 ARG         0.1883
    118 H27        26.5803  -40.7508   39.0606 H         1 ARG         0.0800
    119 H28        28.1047  -42.4186   40.3516 H         1 ARG         0.0313
    120 H29        28.7995  -42.7872   38.7366 H         1 ARG         0.0313
    121 H30        26.2024  -43.0912   38.1416 H         1 ARG         0.0301
    122 H31        26.1341  -43.4709   39.8960 H         1 ARG         0.0301
    123 H32        28.2583  -44.9134   39.4147 H         1 ARG         0.0689
    124 H33        27.7387  -44.8051   37.6986 H         1 ARG         0.0689
    125 H34        25.4950  -45.6154   39.2678 H         1 ARG         0.2642
    126 H35        28.1743  -48.5162   38.2642 H         1 ARG         0.2615
    127 H36        28.6781  -46.8055   38.2157 H         1 ARG         0.2615
    128 H37        24.8661  -47.7861   39.3311 H         1 ARG         0.2615
    129 H38        26.0271  -49.0678   38.8930 H         1 ARG         0.2615
    130 H39        30.0763  -40.6729   38.3723 H         1 LYS         0.1883
    131 H40        30.9940  -39.3197   40.6559 H         1 LYS         0.0800
    132 H41        31.9190  -39.8535   37.9083 H         1 LYS         0.0312
    133 H42        32.7812  -39.9712   39.4798 H         1 LYS         0.0312
    134 H43        33.4888  -37.7185   39.3899 H         1 LYS         0.0269
    135 H44        32.2966  -37.2996   38.1132 H         1 LYS         0.0269
    136 H45        33.5231  -39.0325   36.6273 H         1 LYS         0.0317
    137 H46        34.8241  -39.0062   37.8657 H         1 LYS         0.0317
    138 H47        35.1100  -36.5520   37.5445 H         1 LYS         0.0813
    139 H48        33.7656  -36.5354   36.3533 H         1 LYS         0.0813
    140 H49        35.9193  -36.6192   35.2756 H         1 LYS         0.1994
    141 H50        35.0818  -38.0008   34.9606 H         1 LYS         0.1994
    142 H51        36.3138  -38.0160   36.0521 H         1 LYS         0.1994
    143 H52        29.6464  -37.9759   37.6153 H         1 LEU         0.1883
    144 H53        29.9842  -35.2433   38.3308 H         1 LEU         0.0800
    145 H54        27.5355  -35.9588   36.8036 H         1 LEU         0.0315
    146 H55        29.0899  -36.5322   36.1096 H         1 LEU         0.0315
    147 H56        28.7289  -33.6581   37.0007 H         1 LEU         0.0298
    148 H57        30.4779  -33.2715   35.2866 H         1 LEU         0.0232
    149 H58        30.4865  -35.0267   34.9049 H         1 LEU         0.0232
    150 H59        31.0119  -34.4574   36.5255 H         1 LEU         0.0232
    151 H60        26.8888  -34.1829   35.4545 H         1 LEU         0.0232
    152 H61        28.0769  -34.8134   34.2640 H         1 LEU         0.0232
    153 H62        28.0946  -33.0750   34.7161 H         1 LEU         0.0232
    154 H63        27.0701  -37.3197   38.5274 H         1 MET         0.1883
    155 H64        25.4405  -35.5033   39.8692 H         1 MET         0.0800
    156 H65        24.4346  -37.8556   40.7528 H         1 MET         0.0320
    157 H66        25.4784  -38.4376   39.4117 H         1 MET         0.0320
    158 H67        24.3360  -36.4664   38.1027 H         1 MET         0.0378
    159 H68        23.0704  -36.6571   39.3631 H         1 MET         0.0378
    160 H69        22.1799  -40.5467   38.7534 H         1 MET         0.0340
    161 H70        21.9210  -39.1507   39.8537 H         1 MET         0.0340
    162 H71        23.5254  -39.9557   39.7864 H         1 MET         0.0340
    163 H72        27.9871  -37.3934   41.3468 H         1 GLU         0.1883
    164 H73        26.9037  -37.0863   44.0321 H         1 GLU         0.0801
    165 H74        29.3296  -37.6000   44.6814 H         1 GLU         0.0330
    166 H75        29.6242  -37.8368   42.9253 H         1 GLU         0.0330
    167 H76        27.6184  -39.4851   43.0504 H         1 GLU         0.0433
    168 H77        27.9113  -39.4504   44.8224 H         1 GLU         0.0433
    169 H78        29.1961  -35.3863   41.9250 H         1 ILE         0.1883
    170 H79        29.8258  -33.3800   43.9248 H         1 ILE         0.0803
    171 H80        30.2651  -33.3356   40.9029 H         1 ILE         0.0345
    172 H81        31.2468  -35.2528   42.3461 H         1 ILE         0.0267
    173 H82        32.3181  -33.9850   43.0328 H         1 ILE         0.0267
    174 H83        30.3638  -31.0905   41.9508 H         1 ILE         0.0235
    175 H84        31.9804  -31.6346   41.3879 H         1 ILE         0.0235
    176 H85        31.5693  -31.6990   43.1353 H         1 ILE         0.0235
    177 H86        33.4142  -35.2028   41.2220 H         1 ILE         0.0230
    178 H87        33.1586  -33.4789   40.7871 H         1 ILE         0.0230
    179 H88        32.0873  -34.7467   40.1004 H         1 ILE         0.0230
    180 H89        27.7107  -33.5313   41.0648 H         1 ILE         0.1883
    181 H90        26.9520  -30.7944   41.0264 H         1 ILE         0.0802
    182 H91        25.4763  -33.2487   39.9384 H         1 ILE         0.0345
    183 H92        26.4855  -32.2771   37.7453 H         1 ILE         0.0267
    184 H93        27.5200  -33.2517   38.8437 H         1 ILE         0.0267
    185 H94        23.9912  -31.2717   40.0981 H         1 ILE         0.0235
    186 H95        24.3493  -31.7166   38.3951 H         1 ILE         0.0235
    187 H96        25.1797  -30.3144   39.1507 H         1 ILE         0.0235
    188 H97        28.7264  -31.2949   37.9750 H         1 ILE         0.0230
    189 H98        28.5051  -31.1803   39.7538 H         1 ILE         0.0230
    190 H99        27.4706  -30.2057   38.6554 H         1 ILE         0.0230
    191 H100       24.2306  -32.6862   43.4971 H         1 NH2         0.1815
    192 H101       25.3394  -33.6327   42.5618 H         1 NH2         0.1815
@<TRIPOS>BOND
     1    1    2 1  
     2    2    3 1  
     3    2    5 1  
     4    3    4 2  
     5    3    6 am 
     6    6    7 1  
     7    7    8 1  
     8    7   10 1  
     9    8    9 2  
    10    8   16 am 
    11   10   11 1  
    12   11   12 1  
    13   11   13 2  
    14   12   14 2  
    15   13   15 1  
    16   14   15 1  
    17   16   17 1  
    18   17   18 1  
    19   17   20 1  
    20   18   19 2  
    21   18   22 am 
    22   20   21 1  
    23   22   23 1  
    24   23   24 1  
    25   23   26 1  
    26   24   25 2  
    27   24   30 am 
    28   26   27 1  
    29   27   28 2  
    30   27   29 am 
    31   30   31 1  
    32   31   32 1  
    33   31   34 1  
    34   32   33 2  
    35   32   41 am 
    36   34   35 1  
    37   35   36 1  
    38   36   37 1  
    39   37   38 ar 
    40   38   39 ar 
    41   38   40 ar 
    42   41   42 1  
    43   42   43 1  
    44   42   45 1  
    45   43   44 2  
    46   43   50 am 
    47   45   46 1  
    48   46   47 1  
    49   47   48 1  
    50   48   49 1  
    51   50   51 1  
    52   51   52 1  
    53   51   54 1  
    54   52   53 2  
    55   52   58 am 
    56   54   55 1  
    57   55   56 1  
    58   55   57 1  
    59   58   59 1  
    60   59   60 1  
    61   59   62 1  
    62   60   61 2  
    63   60   66 am 
    64   62   63 1  
    65   63   64 1  
    66   64   65 1  
    67   66   67 1  
    68   67   68 1  
    69   67   70 1  
    70   68   69 2  
    71   68   75 am 
    72   70   71 1  
    73   71   72 1  
    74   72   73 ar 
    75   72   74 ar 
    76   75   76 1  
    77   76   77 1  
    78   76   79 1  
    79   77   78 2  
    80   77   83 am 
    81   79   80 1  
    82   79   81 1  
    83   80   82 1  
    84   83   84 1  
    85   84   85 1  
    86   84   87 1  
    87   85   86 2  
    88   85   91 am 
    89   87   88 1  
    90   87   89 1  
    91   88   90 1  
    92    1   92 1  
    93    1   93 1  
    94    1   94 1  
    95    2   95 1  
    96    5   96 1  
    97    5   97 1  
    98    5   98 1  
    99    6   99 1  
   100    7  100 1  
   101   10  101 1  
   102   10  102 1  
   103   13  103 1  
   104   14  104 1  
   105   15  105 1  
   106   16  106 1  
   107   17  107 1  
   108   20  108 1  
   109   20  109 1  
   110   21  110 1  
   111   22  111 1  
   112   23  112 1  
   113   26  113 1  
   114   26  114 1  
   115   29  115 1  
   116   29  116 1  
   117   30  117 1  
   118   31  118 1  
   119   34  119 1  
   120   34  120 1  
   121   35  121 1  
   122   35  122 1  
   123   36  123 1  
   124   36  124 1  
   125   37  125 1  
   126   39  126 1  
   127   39  127 1  
   128   40  128 1  
   129   40  129 1  
   130   41  130 1  
   131   42  131 1  
   132   45  132 1  
   133   45  133 1  
   134   46  134 1  
   135   46  135 1  
   136   47  136 1  
   137   47  137 1  
   138   48  138 1  
   139   48  139 1  
   140   49  140 1  
   141   49  141 1  
   142   49  142 1  
   143   50  143 1  
   144   51  144 1  
   145   54  145 1  
   146   54  146 1  
   147   55  147 1  
   148   56  148 1  
   149   56  149 1  
   150   56  150 1  
   151   57  151 1  
   152   57  152 1  
   153   57  153 1  
   154   58  154 1  
   155   59  155 1  
   156   62  156 1  
   157   62  157 1  
   158   63  158 1  
   159   63  159 1  
   160   65  160 1  
   161   65  161 1  
   162   65  162 1  
   163   66  163 1  
   164   67  164 1  
   165   70  165 1  
   166   70  166 1  
   167   71  167 1  
   168   71  168 1  
   169   75  169 1  
   170   76  170 1  
   171   79  171 1  
   172   80  172 1  
   173   80  173 1  
   174   81  174 1  
   175   81  175 1  
   176   81  176 1  
   177   82  177 1  
   178   82  178 1  
   179   82  179 1  
   180   83  180 1  
   181   84  181 1  
   182   87  182 1  
   183   88  183 1  
   184   88  184 1  
   185   89  185 1  
   186   89  186 1  
   187   89  187 1  
   188   90  188 1  
   189   90  189 1  
   190   90  190 1  
   191   91  191 1  
   192   91  192 1  
@<TRIPOS>SUBSTRUCTURE
     1 ALA         1

