6dgy_ligand
  -I-interpret- 

 78 81  0  0  0  0  0  0  0  0999 V2000
   65.4870   51.7600   12.6510 N   0  0  0  0  0
   66.4210   52.4200   13.5250 C   0  0  0  0  0
   66.1970   53.8760   13.8910 C   0  0  0  0  0
   67.1720   54.5840   14.8100 C   0  0  0  0  0
   68.3610   53.8170   15.3660 C   0  0  0  0  0
   68.5970   52.3630   15.0010 C   0  0  0  0  0
   67.6190   51.6590   14.0780 C   0  0  0  0  0
   69.5140   54.6850   16.4430 S   0  0  0  0  0
   68.8400   55.7780   17.1500 O   0  0  0  0  0
   70.0380   53.8380   17.5120 O   0  0  0  0  0
   70.7510   55.2670   15.4280 N   0  0  0  0  0
   71.4800   54.2180   14.7360 C   0  0  0  0  0
   72.9620   54.5500   14.6080 C   0  0  0  0  0
   73.6220   54.5820   15.9870 C   0  0  0  0  0
   73.6150   53.4860   13.7250 C   0  0  0  0  0
   70.4660   56.5040   14.7250 C   0  0  0  0  0
   71.3700   57.6160   15.2540 C   0  0  0  0  0
   73.6770   52.1290   14.4290 C   0  0  0  0  0
   71.2420   58.7470   14.4400 O   0  0  0  0  0
   71.0080   57.9830   16.6890 C   0  0  0  0  0
   71.9840   58.9510   17.1390 N   0  0  0  0  0
   72.9750   58.6460   18.1400 C   0  0  0  0  0
   72.9860   57.6040   18.7200 O   0  0  0  0  0
   73.9100   59.6550   18.3650 O   0  0  0  0  0
   74.7840   59.5730   19.5800 C   0  0  0  0  0
   75.9320   60.0070   19.2550 C   0  0  0  0  0
   75.7360   61.6330   19.2210 O   0  0  0  0  0
   74.9260   61.9210   20.1850 C   0  0  0  0  0
   73.7060   62.7720   19.6770 O   0  0  0  0  0
   72.6740   61.9560   19.6370 C   0  0  0  0  0
   72.9950   60.7620   20.6900 C   0  0  0  0  0
   74.3260   60.5870   20.6630 C   0  0  0  0  0
   69.6480   58.6730   16.7810 C   0  0  0  0  0
   69.5390   60.6200   18.5680 C   0  0  0  0  0
   69.3310   61.0820   20.0070 C   0  0  0  0  0
   69.0170   60.0660   21.0990 C   0  0  0  0  0
   68.9130   58.5850   20.7520 C   0  0  0  0  0
   69.1210   58.1230   19.3110 C   0  0  0  0  0
   69.4350   59.1400   18.2180 C   0  0  0  0  0
   64.6839   52.2705   12.2839 H   0  0  0  0  0
   65.6283   50.7818   12.3988 H   0  0  0  0  0
   65.3353   54.4120   13.4930 H   0  0  0  0  0
   67.0224   55.6320   15.0696 H   0  0  0  0  0
   69.4606   51.8293   15.3979 H   0  0  0  0  0
   67.7733   50.6133   13.8120 H   0  0  0  0  0
   71.0638   54.1148   13.7339 H   0  0  0  0  0
   71.3832   53.2967   15.3105 H   0  0  0  0  0
   73.0874   55.5346   14.1576 H   0  0  0  0  0
   73.1392   55.3415   16.6019 H   0  0  0  0  0
   73.5158   53.6067   16.4620 H   0  0  0  0  0
   74.6798   54.8205   15.8766 H   0  0  0  0  0
   74.6331   53.8035   13.4996 H   0  0  0  0  0
   73.0182   53.3768   12.8194 H   0  0  0  0  0
   69.4234   56.7788   14.8849 H   0  0  0  0  0
   70.6495   56.3649   13.6596 H   0  0  0  0  0
   72.3991   57.2572   15.2393 H   0  0  0  0  0
   74.2610   52.2225   15.3446 H   0  0  0  0  0
   72.6665   51.8012   14.6730 H   0  0  0  0  0
   74.1475   51.4000   13.7692 H   0  0  0  0  0
   71.8103   59.4454   14.7729 H   0  0  0  0  0
   70.9851   57.0682   17.2812 H   0  0  0  0  0
   71.9704   59.8862   16.7319 H   0  0  0  0  0
   74.7584   58.5450   19.9415 H   0  0  0  0  0
   76.2721   59.6088   18.2991 H   0  0  0  0  0
   76.7079   59.6959   19.9545 H   0  0  0  0  0
   75.4698   62.4743   20.9507 H   0  0  0  0  0
   72.5247   61.5621   18.6317 H   0  0  0  0  0
   71.7533   62.4755   19.9025 H   0  0  0  0  0
   72.4724   59.8455   20.4163 H   0  0  0  0  0
   72.6526   61.0192   21.6923 H   0  0  0  0  0
   74.6323   60.2429   21.6509 H   0  0  0  0  0
   68.8589   57.9771   16.4962 H   0  0  0  0  0
   69.6190   59.5276   16.1050 H   0  0  0  0  0
   69.7623   61.3491   17.7891 H   0  0  0  0  0
   69.4071   62.1407   20.2547 H   0  0  0  0  0
   68.8670   60.3977   22.1264 H   0  0  0  0  0
   68.6904   57.8565   21.5316 H   0  0  0  0  0
   69.0449   57.0643   19.0631 H   0  0  0  0  0
  2  1  1  0  0  0
  3  2  4  0  0  0
  7  2  4  0  0  0
  4  3  4  0  0  0
  5  4  4  0  0  0
  5  6  4  0  0  0
  8  5  1  0  0  0
  6  7  4  0  0  0
  8  9  2  0  0  0
  8 10  2  0  0  0
 11  8  1  0  0  0
 11 12  1  0  0  0
 16 11  1  0  0  0
 12 13  1  0  0  0
 13 14  1  0  0  0
 13 15  1  0  0  0
 15 18  1  0  0  0
 17 16  1  0  0  0
 17 19  1  0  0  0
 20 17  1  0  0  0
 20 21  1  0  0  0
 33 20  1  0  0  0
 21 22  1  0  0  0
 22 23  2  0  0  0
 22 24  1  0  0  0
 24 25  1  0  0  0
 25 26  1  0  0  0
 25 32  1  0  0  0
 26 27  1  0  0  0
 28 27  1  0  0  0
 28 29  1  0  0  0
 32 28  1  0  0  0
 30 29  1  0  0  0
 31 30  1  0  0  0
 32 31  1  0  0  0
 39 33  1  0  0  0
 34 35  4  0  0  0
 34 39  4  0  0  0
 35 36  4  0  0  0
 36 37  4  0  0  0
 37 38  4  0  0  0
 38 39  4  0  0  0
  1 40  1  0  0  0
  1 41  1  0  0  0
  3 42  1  0  0  0
  4 43  1  0  0  0
  6 44  1  0  0  0
  7 45  1  0  0  0
 12 46  1  0  0  0
 12 47  1  0  0  0
 13 48  1  0  0  0
 14 49  1  0  0  0
 14 50  1  0  0  0
 14 51  1  0  0  0
 15 52  1  0  0  0
 15 53  1  0  0  0
 16 54  1  0  0  0
 16 55  1  0  0  0
 17 56  1  0  0  0
 18 57  1  0  0  0
 18 58  1  0  0  0
 18 59  1  0  0  0
 19 60  1  0  0  0
 20 61  1  0  0  0
 21 62  1  0  0  0
 25 63  1  0  0  0
 26 64  1  0  0  0
 26 65  1  0  0  0
 28 66  1  0  0  0
 30 67  1  0  0  0
 30 68  1  0  0  0
 31 69  1  0  0  0
 31 70  1  0  0  0
 32 71  1  0  0  0
 33 72  1  0  0  0
 33 73  1  0  0  0
 34 74  1  0  0  0
 35 75  1  0  0  0
 36 76  1  0  0  0
 37 77  1  0  0  0
 38 78  1  0  0  0
M  END
$$$$
