3p4r_ligand
  -I-interpret- 

 17 16  0  0  0  0  0  0  0  0999 V2000
   15.4350   34.9710  -13.4320 C   0  0  0  0  0
   15.8310   36.4410  -13.3820 C   0  0  0  0  0
   15.5340   37.1830  -14.6770 C   0  0  0  0  0
   16.2550   36.5290  -15.8530 C   0  0  0  0  0
   16.4400   37.5170  -16.9830 C   0  0  0  0  0
   14.3030   34.6430  -13.8810 O   0  0  0  0  0
   16.2580   34.1310  -12.9850 O   0  0  0  0  0
   16.1770   38.7230  -16.8140 O   0  0  0  0  0
   16.8570   37.0960  -18.0780 O   0  0  0  0  0
   16.9066   36.4889  -13.2118 H   0  0  0  0  0
   15.2515   36.9135  -12.5889 H   0  0  0  0  0
   15.8803   38.2120  -14.5802 H   0  0  0  0  0
   14.4602   37.1524  -14.8617 H   0  0  0  0  0
   15.6565   35.6916  -16.2116 H   0  0  0  0  0
   17.2349   36.1874  -15.5196 H   0  0  0  0  0
   13.8345   35.4295  -14.1699 H   0  0  0  0  0
   15.8709   38.8596  -15.9144 H   0  0  0  0  0
  1  2  1  0  0  0
  1  6  1  0  0  0
  1  7  2  0  0  0
  2  3  1  0  0  0
  3  4  1  0  0  0
  4  5  1  0  0  0
  5  8  1  0  0  0
  5  9  2  0  0  0
  2 10  1  0  0  0
  2 11  1  0  0  0
  3 12  1  0  0  0
  3 13  1  0  0  0
  4 14  1  0  0  0
  4 15  1  0  0  0
  6 16  1  0  0  0
  8 17  1  0  0  0
M  END
$$$$
