6h4o_ligand
  -I-interpret- 

 38 40  0  0  0  0  0  0  0  0999 V2000
    4.6320  -14.3430  -52.3520 N   0  0  0  0  0
    5.6680  -13.3750  -54.1580 N   0  0  0  0  0
    5.8750  -16.8840  -53.0750 N   0  0  0  0  0
    8.9800  -16.8030  -55.6820 O   0  0  0  0  0
    8.0110  -16.8030  -54.9390 C   0  0  0  0  0
    7.2380  -15.6070  -54.6310 C   0  0  0  0  0
    7.4860  -14.4210  -55.3100 C   0  0  0  0  0
    6.6610  -13.3510  -55.0500 C   0  0  0  0  0
    7.6120  -17.9180  -54.2990 N   0  0  0  0  0
    6.5890  -17.9300  -53.4200 C   0  0  0  0  0
    6.2040  -15.6970  -53.6890 C   0  0  0  0  0
    5.4850  -14.5010  -53.4670 C   0  0  0  0  0
    4.2800  -15.2790  -51.4490 C   0  0  0  0  0
    4.1140  -13.1210  -52.0470 N   0  0  0  0  0
    3.4450  -13.3240  -50.9300 C   0  0  0  0  0
    3.5070  -14.6590  -50.5040 C   0  0  0  0  0
    2.8590  -15.2860  -49.2970 C   0  0  0  0  0
    3.4650  -14.8160  -47.9860 C   0  0  0  0  0
    2.6320  -15.1710  -46.8350 N   0  3  0  0  0
    2.9120  -16.5300  -46.3750 C   0  0  0  0  0
    2.8430  -14.2430  -45.7250 C   0  0  0  0  0
    8.3057  -14.3407  -56.0240 H   0  0  0  0  0
    6.8282  -12.4283  -55.6057 H   0  0  0  0  0
    8.1044  -18.7913  -54.4868 H   0  0  0  0  0
    6.3349  -18.8846  -52.9593 H   0  0  0  0  0
    4.5585  -16.3327  -51.4673 H   0  0  0  0  0
    2.9041  -12.5422  -50.3969 H   0  0  0  0  0
    3.0068  -16.3639  -49.3634 H   0  0  0  0  0
    1.8075  -14.9990  -49.2983 H   0  0  0  0  0
    3.5508  -13.7300  -48.0213 H   0  0  0  0  0
    4.4341  -15.3005  -47.8665 H   0  0  0  0  0
    1.6615  -15.1146  -47.1439 H   0  0  0  0  0
    2.7082  -17.2344  -47.1815 H   0  0  0  0  0
    3.9592  -16.6044  -46.0818 H   0  0  0  0  0
    2.2767  -16.7609  -45.5199 H   0  0  0  0  0
    3.8893  -14.2739  -45.4211 H   0  0  0  0  0
    2.5856  -13.2329  -46.0436 H   0  0  0  0  0
    2.2109  -14.5328  -44.8856 H   0  0  0  0  0
 12  1  1  0  0  0
  1 13  4  0  0  0
  1 14  4  0  0  0
  8  2  4  0  0  0
  2 12  4  0  0  0
  3 10  2  0  0  0
 11  3  1  0  0  0
  5  4  2  0  0  0
  6  5  1  0  0  0
  5  9  1  0  0  0
  7  6  4  0  0  0
  6 11  4  0  0  0
  7  8  4  0  0  0
  9 10  1  0  0  0
 11 12  4  0  0  0
 13 16  4  0  0  0
 14 15  4  0  0  0
 15 16  4  0  0  0
 16 17  1  0  0  0
 17 18  1  0  0  0
 18 19  1  0  0  0
 19 20  1  0  0  0
 19 21  1  0  0  0
  7 22  1  0  0  0
  8 23  1  0  0  0
  9 24  1  0  0  0
 10 25  1  0  0  0
 13 26  1  0  0  0
 15 27  1  0  0  0
 17 28  1  0  0  0
 17 29  1  0  0  0
 18 30  1  0  0  0
 18 31  1  0  0  0
 19 32  1  0  0  0
 20 33  1  0  0  0
 20 34  1  0  0  0
 20 35  1  0  0  0
 21 36  1  0  0  0
 21 37  1  0  0  0
 21 38  1  0  0  0
M  END
$$$$
