1utn_ligand
  -I-interpret- 

 18 18  0  0  0  0  0  0  0  0999 V2000
   30.2440   16.3720   14.3550 N   0  3  0  0  0
   28.9530   16.4890   14.9520 C   0  0  0  0  0
   28.8580   15.6770   16.1470 C   0  0  0  0  0
   28.9900   14.3000   16.2130 C   0  0  0  0  0
   28.8110   13.5170   17.3890 C   0  0  0  0  0
   28.6490   14.1390   18.6670 C   0  0  0  0  0
   28.5200   15.4850   18.6020 C   0  0  0  0  0
   28.6700   16.2560   17.4410 C   0  0  0  0  0
   30.2838   16.9525   13.5173 H   0  0  0  0  0
   30.9536   16.6820   15.0189 H   0  0  0  0  0
   30.4141   15.3982   14.1037 H   0  0  0  0  0
   28.2049   16.1472   14.2368 H   0  0  0  0  0
   28.7866   17.5314   15.2236 H   0  0  0  0  0
   29.2510   13.7751   15.2941 H   0  0  0  0  0
   28.7973   12.4296   17.3143 H   0  0  0  0  0
   28.6311   13.5822   19.6039 H   0  0  0  0  0
   28.2804   16.0111   19.5261 H   0  0  0  0  0
   28.6422   17.3422   17.5281 H   0  0  0  0  0
  1  2  1  0  0  0
  2  3  1  0  0  0
  3  4  4  0  0  0
  3  8  4  0  0  0
  4  5  4  0  0  0
  5  6  4  0  0  0
  6  7  4  0  0  0
  7  8  4  0  0  0
  1  9  1  0  0  0
  1 10  1  0  0  0
  1 11  1  0  0  0
  2 12  1  0  0  0
  2 13  1  0  0  0
  4 14  1  0  0  0
  5 15  1  0  0  0
  6 16  1  0  0  0
  7 17  1  0  0  0
  8 18  1  0  0  0
M  END
$$$$
