1c4v_ligand
  -I-interpret- 

 75 79  0  0  0  0  0  0  0  0999 V2000
   15.6250  -11.6940   20.2060 N   0  0  0  0  0
   14.1860  -11.5310   19.5180 C   0  0  0  0  0
   10.2180  -12.9830   24.1760 N   0  0  0  0  0
   10.6020  -10.7300   24.4190 N   0  0  0  0  0
   10.8990  -11.9170   23.8410 C   0  0  0  0  0
   13.1850  -11.6740   20.4640 C   0  0  0  0  0
   13.7120  -12.7260   21.4900 C   0  0  0  0  0
   12.5460  -13.0470   22.2850 C   0  0  0  0  0
   11.8540  -11.8170   22.8470 C   0  0  0  0  0
   12.1720  -10.5150   22.2700 C   0  0  0  0  0
   12.9000  -10.2960   21.0900 C   0  0  0  0  0
   19.7730  -14.6910   20.1140 C   0  0  0  0  0
   19.0050  -14.8790   21.2240 N   0  0  0  0  0
   18.7480  -16.0820   21.7820 C   0  0  0  0  0
   19.1860  -17.2120   21.6330 O   0  0  0  0  0
   17.8360  -15.8460   22.6800 N   0  0  0  0  0
   17.4990  -14.5170   22.6330 C   0  0  0  0  0
   16.7080  -14.0560   23.3090 O   0  0  0  0  0
   18.2500  -13.9370   21.7670 N   0  0  0  0  0
   17.8250  -12.8060   20.9100 C   0  0  0  0  0
   18.8360  -12.4240   20.0590 C   0  0  0  0  0
   19.5620  -13.2920   19.4610 C   0  0  0  0  0
   16.3400  -12.8150   20.3230 C   0  0  0  0  0
   20.5540  -12.7780   18.6040 C   0  0  0  0  0
   15.7340  -14.0720   20.0910 O   0  0  0  0  0
   17.3950  -16.8760   23.5280 C   0  0  0  0  0
   18.0830  -16.5670   24.9160 C   0  0  0  0  0
   22.1980  -14.6010   25.6620 C   0  0  0  0  0
   21.1550  -13.9530   26.0430 C   0  0  0  0  0
   19.8110  -14.5350   25.7810 C   0  0  0  0  0
   19.4720  -15.8040   25.1090 C   0  0  0  0  0
   20.5370  -16.4480   24.7200 C   0  0  0  0  0
   21.8850  -15.8620   24.9490 C   0  0  0  0  0
   17.7030  -19.2430   28.1470 C   0  0  0  0  0
   18.5600  -19.6230   26.9910 C   0  0  0  0  0
   18.5770  -18.7990   25.9180 C   0  0  0  0  0
   17.7950  -17.5990   25.9330 C   0  0  0  0  0
   16.9110  -17.2940   27.0850 C   0  0  0  0  0
   16.8870  -18.1090   28.2000 C   0  0  0  0  0
   16.0396  -10.8482   20.5972 H   0  0  0  0  0
   14.0669  -12.2988   18.7535 H   0  0  0  0  0
   14.1148  -10.5398   19.0701 H   0  0  0  0  0
   10.3703  -13.8618   23.6812 H   0  0  0  0  0
    9.8531  -10.6720   25.1091 H   0  0  0  0  0
   11.1270   -9.8933   24.1646 H   0  0  0  0  0
   12.2384  -12.0245   20.0526 H   0  0  0  0  0
   14.5333  -12.3409   22.0945 H   0  0  0  0  0
   14.1369  -13.6038   21.0032 H   0  0  0  0  0
   12.8754  -13.6564   23.1266 H   0  0  0  0  0
   11.8350  -13.5619   21.6389 H   0  0  0  0  0
   12.2331  -12.0378   23.8448 H   0  0  0  0  0
   12.8314  -10.0876   23.0254 H   0  0  0  0  0
   11.1849  -10.1399   21.9999 H   0  0  0  0  0
   12.3315   -9.6725   20.3999 H   0  0  0  0  0
   13.8321   -9.7742   21.3068 H   0  0  0  0  0
   19.4900  -15.4467   19.3812 H   0  0  0  0  0
   20.8179  -14.7636   20.4157 H   0  0  0  0  0
   17.6697  -11.9756   21.5988 H   0  0  0  0  0
   19.0221  -11.3632   19.8910 H   0  0  0  0  0
   20.0834  -12.1832   17.8211 H   0  0  0  0  0
   21.2379  -12.1514   19.1765 H   0  0  0  0  0
   21.1059  -13.6028   18.1533 H   0  0  0  0  0
   17.6649  -17.8615   23.1485 H   0  0  0  0  0
   16.3082  -16.9027   23.6075 H   0  0  0  0  0
   17.5449  -15.6319   25.0717 H   0  0  0  0  0
   23.2154  -14.2559   25.8458 H   0  0  0  0  0
   21.2537  -12.9930   26.5497 H   0  0  0  0  0
   18.9642  -13.9454   26.1322 H   0  0  0  0  0
   20.4396  -17.4154   24.2272 H   0  0  0  0  0
   22.7326  -16.4193   24.5500 H   0  0  0  0  0
   17.7123  -19.8983   29.0180 H   0  0  0  0  0
   19.1550  -20.5361   27.0083 H   0  0  0  0  0
   19.1828  -19.0471   25.0465 H   0  0  0  0  0
   16.2703  -16.4128   27.0509 H   0  0  0  0  0
   16.2692  -17.8817   29.0687 H   0  0  0  0  0
  1 23  1  0  0  0
  2  1  1  0  0  0
  6  2  1  0  0  0
  6 11  1  0  0  0
  7  6  1  0  0  0
  8  7  1  0  0  0
  9  8  1  0  0  0
  9 10  1  0  0  0
  5  9  1  0  0  0
  5  4  1  0  0  0
  5  3  2  0  0  0
 11 10  1  0  0  0
 23 25  2  0  0  0
 23 20  1  0  0  0
 20 21  1  0  0  0
 20 19  1  0  0  0
 19 17  1  0  0  0
 19 13  1  0  0  0
 13 14  1  0  0  0
 13 12  1  0  0  0
 12 22  1  0  0  0
 22 24  1  0  0  0
 22 21  2  0  0  0
 14 16  1  0  0  0
 14 15  2  0  0  0
 16 26  1  0  0  0
 16 17  1  0  0  0
 17 18  2  0  0  0
 26 27  1  0  0  0
 27 37  1  0  0  0
 27 31  1  0  0  0
 31 32  4  0  0  0
 31 30  4  0  0  0
 30 29  4  0  0  0
 29 28  4  0  0  0
 28 33  4  0  0  0
 33 32  4  0  0  0
 37 38  4  0  0  0
 37 36  4  0  0  0
 36 35  4  0  0  0
 35 34  4  0  0  0
 34 39  4  0  0  0
 39 38  4  0  0  0
  1 40  1  0  0  0
  2 41  1  0  0  0
  2 42  1  0  0  0
  3 43  1  0  0  0
  4 44  1  0  0  0
  4 45  1  0  0  0
  6 46  1  0  0  0
  7 47  1  0  0  0
  7 48  1  0  0  0
  8 49  1  0  0  0
  8 50  1  0  0  0
  9 51  1  0  0  0
 10 52  1  0  0  0
 10 53  1  0  0  0
 11 54  1  0  0  0
 11 55  1  0  0  0
 12 56  1  0  0  0
 12 57  1  0  0  0
 20 58  1  0  0  0
 21 59  1  0  0  0
 24 60  1  0  0  0
 24 61  1  0  0  0
 24 62  1  0  0  0
 26 63  1  0  0  0
 26 64  1  0  0  0
 27 65  1  0  0  0
 28 66  1  0  0  0
 29 67  1  0  0  0
 30 68  1  0  0  0
 32 69  1  0  0  0
 33 70  1  0  0  0
 34 71  1  0  0  0
 35 72  1  0  0  0
 36 73  1  0  0  0
 38 74  1  0  0  0
 39 75  1  0  0  0
M  END
$$$$
