### 
### Created by X-TOOL on Mon Sep 10 21:13:17 2018
### 

@<TRIPOS>MOLECULE
4od7_ligand
  105   107     1     0     0
SMALL
GAST_HUCK


@<TRIPOS>ATOM
      1 C         -32.9330   34.6110    6.4390 C.2       1 ACE         0.1776
      2 O         -34.1400   34.6950    6.3080 O.2       1 ACE        -0.3970
      3 CH3       -32.1240   35.8470    6.3550 C.3       1 ACE         0.0260
      4 N         -32.1900   33.3200    6.7140 N.am      1 PRO        -0.2520
      5 CA        -32.9940   32.0930    6.7430 C.3       1 PRO         0.1337
      6 C         -33.9920   32.0320    7.9020 C.2       1 PRO         0.2042
      7 O         -34.7970   31.1370    7.9580 O.2       1 PRO        -0.3944
      8 CB        -31.9300   30.9970    6.7990 C.3       1 PRO        -0.0104
      9 CG        -30.7040   31.6520    7.2820 C.3       1 PRO        -0.0281
     10 CD        -30.7570   33.0410    6.8600 C.3       1 PRO         0.0369
     11 N         -33.9550   33.0320    8.7800 N.am      1 TRP        -0.2627
     12 CA        -34.9100   33.1910    9.9010 C.3       1 TRP         0.1352
     13 C         -36.3370   33.4320    9.4700 C.2       1 TRP         0.2052
     14 O         -37.2600   33.3550   10.3000 O.2       1 TRP        -0.3942
     15 CB        -34.3900   34.3100   10.8320 C.3       1 TRP         0.0042
     16 CG        -33.9200   35.5870   10.1700 C.2       1 TRP        -0.0418
     17 CD1       -34.7130   36.6040    9.7800 C.2       1 TRP         0.0167
     18 CD2       -32.5680   36.0080    9.8990 C.ar      1 TRP        -0.0214
     19 NE1       -33.9660   37.6220    9.2700 N.pl3     1 TRP        -0.2890
     20 CE2       -32.6440   37.2890    9.3230 C.ar      1 TRP         0.0603
     21 CE3       -31.3080   35.4300   10.0770 C.ar      1 TRP        -0.0747
     22 CZ2       -31.5130   38.0160    8.9250 C.ar      1 TRP        -0.0443
     23 CZ3       -30.1710   36.1610    9.6660 C.ar      1 TRP        -0.0792
     24 CH2       -30.2940   37.4350    9.1030 C.ar      1 TRP        -0.0768
     25 N         -36.4950   33.6650    8.1660 N.am      1 ALA        -0.2639
     26 CA        -37.7840   33.9060    7.5200 C.3       1 ALA         0.1282
     27 C         -38.7740   32.7500    7.7400 C.2       1 ALA         0.2037
     28 O         -39.9750   32.9620    7.8270 O.2       1 ALA        -0.3944
     29 CB        -37.5720   34.1560    6.0170 C.3       1 ALA        -0.0244
     30 N         -38.2690   31.5270    7.7860 N.am      1 THR        -0.2613
     31 CA        -39.1070   30.3280    7.8200 C.3       1 THR         0.1565
     32 C         -38.6030   29.4030    8.9380 C.2       1 THR         0.2065
     33 O         -37.5410   29.5980    9.4940 O.2       1 THR        -0.3943
     34 CB        -39.0780   29.5560    6.5170 C.3       1 THR         0.0924
     35 OG1       -37.7390   29.1610    6.2920 O.3       1 THR        -0.3874
     36 CG2       -39.5460   30.4010    5.3370 C.3       1 THR        -0.0346
     37 N         -39.4220   28.4260    9.2620 N.am      1 CYS        -0.2628
     38 CA        -39.1720   27.4980   10.3390 C.3       1 CYS         0.1396
     39 C         -39.4740   26.0980    9.7960 C.2       1 CYS         0.2048
     40 O         -39.8190   25.9320    8.6300 O.2       1 CYS        -0.3944
     41 CB        -39.9980   27.8510   11.5720 C.3       1 CYS         0.0311
     42 SG        -41.7040   27.6660   11.3460 S.3       1 CYS        -0.1735
     43 N         -39.2310   25.0980   10.6250 N.am      1 ASP        -0.2621
     44 CA        -39.5240   23.7170   10.2900 C.3       1 ASP         0.1423
     45 C         -40.7640   23.3000   11.0160 C.2       1 ASP         0.2057
     46 O         -40.8470   23.4530   12.2170 O.2       1 ASP        -0.3943
     47 CB        -38.3630   22.7700   10.6230 C.3       1 ASP         0.0406
     48 CG        -37.1370   23.0400    9.8150 C.2       1 ASP         0.0393
     49 OD1       -37.2300   23.0290    8.5850 O.co2     1 ASP        -0.5688
     50 OD2       -36.0830   23.2840   10.3910 O.co2     1 ASP        -0.5688
     51 N         -41.7660   22.8810   10.2630 N.am      1 SER        -0.2615
     52 CA        -43.0480   22.4960   10.8320 C.3       1 SER         0.1536
     53 C         -43.2730   21.0300   10.5960 C.2       1 SER         0.2015
     54 O         -42.5800   20.4140    9.8110 O.2       1 SER        -0.3947
     55 CB        -44.2030   23.2920   10.2320 C.3       1 SER         0.0843
     56 OG        -44.0500   24.6700   10.4530 O.3       1 SER        -0.3903
     57 N         -44.1560   20.4090   11.5320 N.am      1 NH2        -0.2989
     58 H         -31.0611   35.5996    6.4934 H         1 ACE         0.0467
     59 H         -32.4426   36.5479    7.1406 H         1 ACE         0.0467
     60 H         -32.2667   36.3123    5.3685 H         1 ACE         0.0467
     61 H         -33.5671   32.0056    5.8082 H         1 PRO         0.0802
     62 H         -31.7672   30.5698    5.7985 H         1 PRO         0.0313
     63 H         -32.2371   30.2002    7.4924 H         1 PRO         0.0313
     64 H         -29.8201   31.1612    6.8488 H         1 PRO         0.0287
     65 H         -30.6545   31.5944    8.3794 H         1 PRO         0.0287
     66 H         -30.3076   33.6968    7.6202 H         1 PRO         0.0524
     67 H         -30.2336   33.1776    5.9022 H         1 PRO         0.0524
     68 H         -33.2365   33.7198    8.6761 H         1 TRP         0.1884
     69 H         -34.9068   32.2503   10.4711 H         1 TRP         0.0815
     70 H         -33.5437   33.9008   11.4032 H         1 TRP         0.0397
     71 H         -35.2049   34.5738   11.5221 H         1 TRP         0.0397
     72 H         -35.7989   36.6110    9.8612 H         1 TRP         0.0795
     73 H         -34.3414   38.5073    8.9010 H         1 TRP         0.2216
     74 H         -31.2057   34.4456   10.5193 H         1 TRP         0.0540
     75 H         -31.6055   39.0051    8.4912 H         1 TRP         0.0541
     76 H         -29.1856   35.7264    9.7893 H         1 TRP         0.0510
     77 H         -29.4012   37.9711    8.8021 H         1 TRP         0.0530
     78 H         -35.6764   33.6755    7.5917 H         1 ALA         0.1883
     79 H         -38.2216   34.8127    7.9633 H         1 ALA         0.0797
     80 H         -38.5440   34.3369    5.5347 H         1 ALA         0.0277
     81 H         -37.0954   33.2750    5.5624 H         1 ALA         0.0277
     82 H         -36.9251   35.0349    5.8791 H         1 ALA         0.0277
     83 H         -37.2750   31.4183    7.7980 H         1 THR         0.1884
     84 H         -40.1439   30.6290    8.0302 H         1 THR         0.0826
     85 H         -39.7237   28.6696    6.6033 H         1 THR         0.0639
     86 H         -37.4464   28.6135    7.0111 H         1 THR         0.2101
     87 H         -39.5074   29.7993    4.4170 H         1 THR         0.0257
     88 H         -38.8894   31.2770    5.2300 H         1 THR         0.0257
     89 H         -40.5788   30.7362    5.5128 H         1 THR         0.0257
     90 H         -40.2641   28.3203    8.7331 H         1 CYS         0.1884
     91 H         -38.1092   27.5474   10.6184 H         1 CYS         0.0808
     92 H         -39.7949   28.8991   11.8372 H         1 CYS         0.0422
     93 H         -39.6846   27.1963   12.3985 H         1 CYS         0.0422
     94 H         -42.1834   27.9154   12.1968 H         1 CYS         0.1019
     95 H         -38.8295   25.3010   11.5181 H         1 ASP         0.1884
     96 H         -39.7111   23.6564    9.2077 H         1 ASP         0.0819
     97 H         -38.6880   21.7367   10.4314 H         1 ASP         0.0478
     98 H         -38.1125   22.8841   11.6880 H         1 ASP         0.0478
     99 H         -41.6390   22.8271    9.2726 H         1 SER         0.1884
    100 H         -43.0205   22.6849   11.9153 H         1 SER         0.0823
    101 H         -45.1442   22.9587   10.6936 H         1 SER         0.0606
    102 H         -44.2400   23.1061    9.1485 H         1 SER         0.0606
    103 H         -43.2410   24.9659   10.0526 H         1 SER         0.2097
    104 H         -44.3642   19.4342   11.4521 H         1 NH2         0.1815
    105 H         -44.5658   20.9492   12.2670 H         1 NH2         0.1815
@<TRIPOS>BOND
     1    1    2 2  
     2    1    3 1  
     3    1    4 am 
     4    4    5 1  
     5    4   10 1  
     6    5    6 1  
     7    5    8 1  
     8    6    7 2  
     9    6   11 am 
    10    8    9 1  
    11    9   10 1  
    12   11   12 1  
    13   12   13 1  
    14   12   15 1  
    15   13   14 2  
    16   13   25 am 
    17   15   16 1  
    18   16   17 2  
    19   16   18 1  
    20   17   19 1  
    21   18   20 ar 
    22   18   21 ar 
    23   19   20 1  
    24   20   22 ar 
    25   21   23 ar 
    26   22   24 ar 
    27   23   24 ar 
    28   25   26 1  
    29   26   27 1  
    30   26   29 1  
    31   27   28 2  
    32   27   30 am 
    33   30   31 1  
    34   31   32 1  
    35   31   34 1  
    36   32   33 2  
    37   32   37 am 
    38   34   35 1  
    39   34   36 1  
    40   37   38 1  
    41   38   39 1  
    42   38   41 1  
    43   39   40 2  
    44   39   43 am 
    45   41   42 1  
    46   43   44 1  
    47   44   45 1  
    48   44   47 1  
    49   45   46 2  
    50   45   51 am 
    51   47   48 1  
    52   48   49 ar 
    53   48   50 ar 
    54   51   52 1  
    55   52   53 1  
    56   52   55 1  
    57   53   54 2  
    58   53   57 am 
    59   55   56 1  
    60    3   58 1  
    61    3   59 1  
    62    3   60 1  
    63    5   61 1  
    64    8   62 1  
    65    8   63 1  
    66    9   64 1  
    67    9   65 1  
    68   10   66 1  
    69   10   67 1  
    70   11   68 1  
    71   12   69 1  
    72   15   70 1  
    73   15   71 1  
    74   17   72 1  
    75   19   73 1  
    76   21   74 1  
    77   22   75 1  
    78   23   76 1  
    79   24   77 1  
    80   25   78 1  
    81   26   79 1  
    82   29   80 1  
    83   29   81 1  
    84   29   82 1  
    85   30   83 1  
    86   31   84 1  
    87   34   85 1  
    88   35   86 1  
    89   36   87 1  
    90   36   88 1  
    91   36   89 1  
    92   37   90 1  
    93   38   91 1  
    94   41   92 1  
    95   41   93 1  
    96   42   94 1  
    97   43   95 1  
    98   44   96 1  
    99   47   97 1  
   100   47   98 1  
   101   51   99 1  
   102   52  100 1  
   103   55  101 1  
   104   55  102 1  
   105   56  103 1  
   106   57  104 1  
   107   57  105 1  
@<TRIPOS>SUBSTRUCTURE
     1 ACE         1

