4od7_ligand
  -I-interpret- 

105107  0  0  0  0  0  0  0  0999 V2000
  -32.9330   34.6110    6.4390 C   0  0  0  0  0
  -34.1400   34.6950    6.3080 O   0  0  0  0  0
  -32.1240   35.8470    6.3550 C   0  0  0  0  0
  -32.1900   33.3200    6.7140 N   0  0  0  0  0
  -32.9940   32.0930    6.7430 C   0  0  0  0  0
  -33.9920   32.0320    7.9020 C   0  0  0  0  0
  -34.7970   31.1370    7.9580 O   0  0  0  0  0
  -31.9300   30.9970    6.7990 C   0  0  0  0  0
  -30.7040   31.6520    7.2820 C   0  0  0  0  0
  -30.7570   33.0410    6.8600 C   0  0  0  0  0
  -33.9550   33.0320    8.7800 N   0  0  0  0  0
  -34.9100   33.1910    9.9010 C   0  0  0  0  0
  -36.3370   33.4320    9.4700 C   0  0  0  0  0
  -37.2600   33.3550   10.3000 O   0  0  0  0  0
  -34.3900   34.3100   10.8320 C   0  0  0  0  0
  -33.9200   35.5870   10.1700 C   0  0  0  0  0
  -34.7130   36.6040    9.7800 C   0  0  0  0  0
  -32.5680   36.0080    9.8990 C   0  0  0  0  0
  -33.9660   37.6220    9.2700 N   0  0  0  0  0
  -32.6440   37.2890    9.3230 C   0  0  0  0  0
  -31.3080   35.4300   10.0770 C   0  0  0  0  0
  -31.5130   38.0160    8.9250 C   0  0  0  0  0
  -30.1710   36.1610    9.6660 C   0  0  0  0  0
  -30.2940   37.4350    9.1030 C   0  0  0  0  0
  -36.4950   33.6650    8.1660 N   0  0  0  0  0
  -37.7840   33.9060    7.5200 C   0  0  0  0  0
  -38.7740   32.7500    7.7400 C   0  0  0  0  0
  -39.9750   32.9620    7.8270 O   0  0  0  0  0
  -37.5720   34.1560    6.0170 C   0  0  0  0  0
  -38.2690   31.5270    7.7860 N   0  0  0  0  0
  -39.1070   30.3280    7.8200 C   0  0  0  0  0
  -38.6030   29.4030    8.9380 C   0  0  0  0  0
  -37.5410   29.5980    9.4940 O   0  0  0  0  0
  -39.0780   29.5560    6.5170 C   0  0  0  0  0
  -37.7390   29.1610    6.2920 O   0  0  0  0  0
  -39.5460   30.4010    5.3370 C   0  0  0  0  0
  -39.4220   28.4260    9.2620 N   0  0  0  0  0
  -39.1720   27.4980   10.3390 C   0  0  0  0  0
  -39.4740   26.0980    9.7960 C   0  0  0  0  0
  -39.8190   25.9320    8.6300 O   0  0  0  0  0
  -39.9980   27.8510   11.5720 C   0  0  0  0  0
  -41.7040   27.6660   11.3460 S   0  0  0  0  0
  -39.2310   25.0980   10.6250 N   0  0  0  0  0
  -39.5240   23.7170   10.2900 C   0  0  0  0  0
  -40.7640   23.3000   11.0160 C   0  0  0  0  0
  -40.8470   23.4530   12.2170 O   0  0  0  0  0
  -38.3630   22.7700   10.6230 C   0  0  0  0  0
  -37.1370   23.0400    9.8150 C   0  0  0  0  0
  -37.2300   23.0290    8.5850 O   0  0  0  0  0
  -36.0830   23.2840   10.3910 O   0  0  0  0  0
  -41.7660   22.8810   10.2630 N   0  0  0  0  0
  -43.0480   22.4960   10.8320 C   0  0  0  0  0
  -43.2730   21.0300   10.5960 C   0  0  0  0  0
  -42.5800   20.4140    9.8110 O   0  0  0  0  0
  -44.2030   23.2920   10.2320 C   0  0  0  0  0
  -44.0500   24.6700   10.4530 O   0  0  0  0  0
  -44.1560   20.4090   11.5320 N   0  0  0  0  0
  -32.2663   36.3071    5.3772 H   0  0  0  0  0
  -32.4407   36.5406    7.1339 H   0  0  0  0  0
  -31.0711   35.6006    6.4923 H   0  0  0  0  0
  -33.6540   32.0045    5.8801 H   0  0  0  0  0
  -31.7772   30.5426    5.8201 H   0  0  0  0  0
  -32.2322   30.1847    7.4601 H   0  0  0  0  0
  -29.8218   31.1616    6.8704 H   0  0  0  0  0
  -30.6383   31.5854    8.3680 H   0  0  0  0  0
  -30.2800   33.7072    7.5789 H   0  0  0  0  0
  -30.2092   33.2098    5.9329 H   0  0  0  0  0
  -33.2222   33.7335    8.6740 H   0  0  0  0  0
  -34.9541   32.2435   10.4380 H   0  0  0  0  0
  -33.5171   33.8966   11.3372 H   0  0  0  0  0
  -35.2348   34.5926   11.4601 H   0  0  0  0  0
  -35.7999   36.6110    9.8613 H   0  0  0  0  0
  -31.2051   34.4402   10.5217 H   0  0  0  0  0
  -31.6060   39.0106    8.4888 H   0  0  0  0  0
  -29.1802   35.7240    9.7900 H   0  0  0  0  0
  -29.3962   37.9741    8.8005 H   0  0  0  0  0
  -35.6601   33.6757    7.5802 H   0  0  0  0  0
  -38.2248   34.7905    7.9799 H   0  0  0  0  0
  -36.9309   35.0271    5.8818 H   0  0  0  0  0
  -37.0997   33.2824    5.5677 H   0  0  0  0  0
  -38.5357   34.3351    5.5403 H   0  0  0  0  0
  -37.2551   31.4162    7.7982 H   0  0  0  0  0
  -40.1326   30.6539    7.9934 H   0  0  0  0  0
  -39.7527   28.7036    6.5960 H   0  0  0  0  0
  -37.6859   28.6674    5.4703 H   0  0  0  0  0
  -40.5694   30.7325    5.5124 H   0  0  0  0  0
  -38.8946   31.2686    5.2321 H   0  0  0  0  0
  -39.5073   29.8037    4.4260 H   0  0  0  0  0
  -40.2809   28.3182    8.7226 H   0  0  0  0  0
  -38.1349   27.5432   10.6715 H   0  0  0  0  0
  -39.8120   28.9009   11.7983 H   0  0  0  0  0
  -39.6999   27.1698   12.3690 H   0  0  0  0  0
  -42.3366   27.9951   12.4687 H   0  0  0  0  0
  -38.8215   25.3050   11.5359 H   0  0  0  0  0
  -39.6737   23.6522    9.2123 H   0  0  0  0  0
  -38.6896   21.7543   10.4000 H   0  0  0  0  0
  -38.1069   22.9160   11.6724 H   0  0  0  0  0
  -38.1326   22.8179    8.3353 H   0  0  0  0  0
  -41.6365   22.8260    9.2528 H   0  0  0  0  0
  -43.0191   22.7112   11.9002 H   0  0  0  0  0
  -45.1287   22.9675   10.7072 H   0  0  0  0  0
  -44.2212   23.1154    9.1566 H   0  0  0  0  0
  -44.7914   25.1396   10.0639 H   0  0  0  0  0
  -44.2299   19.3923   11.5662 H   0  0  0  0  0
  -44.7125   20.9824   12.1660 H   0  0  0  0  0
  1  2  2  0  0  0
  1  3  1  0  0  0
  1  4  1  0  0  0
  4  5  1  0  0  0
  4 10  1  0  0  0
  5  6  1  0  0  0
  5  8  1  0  0  0
  6  7  2  0  0  0
  6 11  1  0  0  0
  8  9  1  0  0  0
  9 10  1  0  0  0
 11 12  1  0  0  0
 12 13  1  0  0  0
 12 15  1  0  0  0
 13 14  2  0  0  0
 13 25  1  0  0  0
 15 16  1  0  0  0
 16 17  4  0  0  0
 16 18  4  0  0  0
 17 19  4  0  0  0
 18 20  4  0  0  0
 18 21  4  0  0  0
 19 20  4  0  0  0
 20 22  4  0  0  0
 21 23  4  0  0  0
 22 24  4  0  0  0
 23 24  4  0  0  0
 25 26  1  0  0  0
 26 27  1  0  0  0
 26 29  1  0  0  0
 27 28  2  0  0  0
 27 30  1  0  0  0
 30 31  1  0  0  0
 31 32  1  0  0  0
 31 34  1  0  0  0
 32 33  2  0  0  0
 32 37  1  0  0  0
 34 35  1  0  0  0
 34 36  1  0  0  0
 37 38  1  0  0  0
 38 39  1  0  0  0
 38 41  1  0  0  0
 39 40  2  0  0  0
 39 43  1  0  0  0
 41 42  1  0  0  0
 43 44  1  0  0  0
 44 45  1  0  0  0
 44 47  1  0  0  0
 45 46  2  0  0  0
 45 51  1  0  0  0
 47 48  1  0  0  0
 48 49  1  0  0  0
 48 50  2  0  0  0
 51 52  1  0  0  0
 52 53  1  0  0  0
 52 55  1  0  0  0
 53 54  2  0  0  0
 53 57  1  0  0  0
 55 56  1  0  0  0
  3 58  1  0  0  0
  3 59  1  0  0  0
  3 60  1  0  0  0
  5 61  1  0  0  0
  8 62  1  0  0  0
  8 63  1  0  0  0
  9 64  1  0  0  0
  9 65  1  0  0  0
 10 66  1  0  0  0
 10 67  1  0  0  0
 11 68  1  0  0  0
 12 69  1  0  0  0
 15 70  1  0  0  0
 15 71  1  0  0  0
 17 72  1  0  0  0
 21 73  1  0  0  0
 22 74  1  0  0  0
 23 75  1  0  0  0
 24 76  1  0  0  0
 25 77  1  0  0  0
 26 78  1  0  0  0
 29 79  1  0  0  0
 29 80  1  0  0  0
 29 81  1  0  0  0
 30 82  1  0  0  0
 31 83  1  0  0  0
 34 84  1  0  0  0
 35 85  1  0  0  0
 36 86  1  0  0  0
 36 87  1  0  0  0
 36 88  1  0  0  0
 37 89  1  0  0  0
 38 90  1  0  0  0
 41 91  1  0  0  0
 41 92  1  0  0  0
 42 93  1  0  0  0
 43 94  1  0  0  0
 44 95  1  0  0  0
 47 96  1  0  0  0
 47 97  1  0  0  0
 49 98  1  0  0  0
 51 99  1  0  0  0
 52100  1  0  0  0
 55101  1  0  0  0
 55102  1  0  0  0
 56103  1  0  0  0
 57104  1  0  0  0
 57105  1  0  0  0
M  END
$$$$
