### 
### Created by X-TOOL on Mon Sep 10 21:13:29 2018
### 

@<TRIPOS>MOLECULE
5a3q_ligand
   61    65     1     0     0
SMALL
GAST_HUCK


@<TRIPOS>ATOM
      1 N1         20.3900   16.6980   -7.8020 N.ar      1 DL5        -0.2698
      2 C2         21.4610   16.4360   -7.0520 C.ar      1 DL5         0.0533
      3 N3         22.0070   15.2650   -6.7260 N.ar      1 DL5        -0.2714
      4 C4         21.3260   14.2460   -7.2680 C.ar      1 DL5         0.1613
      5 C5         20.1930   14.3370   -8.0710 C.ar      1 DL5         0.1045
      6 C6         19.7130   15.6640   -8.3400 C.ar      1 DL5         0.1298
      7 N6         18.6270   15.9030   -9.1020 N.pl3     1 DL5        -0.3152
      8 N7         19.7590   13.0720   -8.4460 N.2       1 DL5        -0.2958
      9 C8         20.6220   12.2880   -7.8780 C.2       1 DL5         0.1123
     10 N9         21.5910   12.9130   -7.1520 N.pl3     1 DL5        -0.1920
     11 PA         19.8950    7.7310   -7.6120 P.3       1 DL5         0.2952
     12 PB         17.6840    9.3890   -6.5210 P.3       1 DL5         0.1787
     13 PG         15.1460    8.6240   -8.0680 P.3       1 DL5         0.0781
     14 C01        16.1620    8.4180   -6.6120 C.3       1 DL5         0.1130
     15 C1'        22.7190   12.2940   -6.3810 C.3       1 DL5         0.1996
     16 O1A        19.6440    6.1670   -7.5360 O.co2     1 DL5        -0.6125
     17 O1B        17.7340   10.1610   -5.1710 O.co2     1 DL5        -0.6143
     18 C1F        23.8390   10.8870   -3.4270 C.3       1 DL5         0.2110
     19 O1G        15.5130    9.9600   -8.7340 O.co2     1 DL5        -0.5611
     20 C2'        22.2960   11.6170   -5.0560 C.3       1 DL5         0.1251
     21 O2'        23.1700   12.0220   -3.9610 O.3       1 DL5        -0.4054
     22 O2A        19.6170    8.4320   -8.9230 O.co2     1 DL5        -0.6125
     23 O2B        17.6880   10.3750   -7.6700 O.co2     1 DL5        -0.6143
     24 C2F        23.3390   10.7190   -1.9850 C.2       1 DL5         0.2069
     25 N2F        21.9190   10.6230   -1.6630 N.2       1 DL5         0.3015
     26 O2F        21.6220   10.4790   -0.5140 O.2       1 DL5         0.1726
     27 O2G        15.6120    7.4800   -9.0640 O.co2     1 DL5        -0.5611
     28 C3'        22.4830   10.1120   -5.2090 C.3       1 DL5         0.1010
     29 O3'        23.4590    9.7370   -4.1930 O.3       1 DL5        -0.4077
     30 O3A        18.9180    8.4110   -6.4990 O.3       1 DL5        -0.1584
     31 C3F        24.1760   10.6290   -0.9150 C.2       1 DL5         0.0587
     32 O3F        21.0780   10.6890   -2.5480 O.2       1 DL5         0.1726
     33 O3G        13.6890    8.4670   -7.7630 O.co2     1 DL5        -0.5611
     34 C4'        23.0330    9.9220   -6.6170 C.3       1 DL5         0.1175
     35 O4'        23.1450   11.2670   -7.2130 O.3       1 DL5        -0.3365
     36 C4F        25.5610   10.6880   -0.9590 C.2       1 DL5         0.2783
     37 N4F        26.3620   10.5770    0.2380 N.2       1 DL5         0.3272
     38 O4F        27.5810   10.6360    0.1270 O.2       1 DL5         0.1744
     39 C5'        22.1850    9.1620   -7.6070 C.3       1 DL5         0.1127
     40 O5'        21.3840    8.1290   -6.9860 O.3       1 DL5        -0.2475
     41 C5F        26.1480   10.8450   -2.1320 C.2       1 DL5         0.0740
     42 O5F        25.8040   10.4310    1.3060 O.2       1 DL5         0.1744
     43 C6F        25.3910   10.9700   -3.4330 C.3       1 DL5         0.2630
     44 N6F        26.1600   11.1450   -4.7420 N.2       1 DL5         0.3140
     45 O6F        27.4070   11.1930   -4.7220 O.2       1 DL5         0.1908
     46 O7F        25.5250   11.2390   -5.7700 O.2       1 DL5         0.1908
     47 H1         21.9631   17.3069   -6.6464 H         1 DL5         0.0996
     48 H2         18.1053   15.1173   -9.5160 H         1 DL5         0.1820
     49 H3         18.3189   16.8713   -9.2702 H         1 DL5         0.1820
     50 H4         20.5754   11.2043   -7.9747 H         1 DL5         0.1349
     51 H5         15.5473    8.6841   -5.7395 H         1 DL5         0.0680
     52 H6         16.4431    7.3562   -6.5525 H         1 DL5         0.0680
     53 H7         23.5097   13.0347   -6.1908 H         1 DL5         0.0995
     54 H8         21.2493   11.8633   -4.8242 H         1 DL5         0.0661
     55 H9         21.5423    9.5580   -5.0746 H         1 DL5         0.0633
     56 H10        23.7166   10.4989    0.0637 H         1 DL5         0.1304
     57 H11        24.0168    9.4357   -6.5424 H         1 DL5         0.0650
     58 H12        22.8474    8.6935   -8.3498 H         1 DL5         0.0648
     59 H13        21.5128    9.8719   -8.1112 H         1 DL5         0.0648
     60 H14        27.2358   10.8865   -2.1626 H         1 DL5         0.1572
     61 H15        25.3395   12.0619   -3.3106 H         1 DL5         0.0988
@<TRIPOS>BOND
     1    2    1 ar 
     2    6    1 ar 
     3    3    2 ar 
     4    4    3 ar 
     5    4    5 ar 
     6   10    4 1  
     7    5    6 ar 
     8    8    5 1  
     9    6    7 1  
    10    9    8 2  
    11   10    9 1  
    12   15   10 1  
    13   11   16 ar 
    14   11   22 ar 
    15   11   30 1  
    16   40   11 1  
    17   12   14 1  
    18   12   17 ar 
    19   12   23 ar 
    20   30   12 1  
    21   14   13 1  
    22   13   19 ar 
    23   13   27 ar 
    24   13   33 ar 
    25   15   20 1  
    26   35   15 1  
    27   18   21 1  
    28   18   24 1  
    29   29   18 1  
    30   18   43 1  
    31   20   21 1  
    32   28   20 1  
    33   24   25 1  
    34   24   31 2  
    35   25   26 2  
    36   25   32 2  
    37   28   29 1  
    38   34   28 1  
    39   31   36 1  
    40   34   35 1  
    41   39   34 1  
    42   36   37 1  
    43   36   41 2  
    44   37   38 2  
    45   37   42 2  
    46   39   40 1  
    47   41   43 1  
    48   43   44 1  
    49   44   45 2  
    50   44   46 2  
    51    2   47 1  
    52    7   48 1  
    53    7   49 1  
    54    9   50 1  
    55   14   51 1  
    56   14   52 1  
    57   15   53 1  
    58   20   54 1  
    59   28   55 1  
    60   31   56 1  
    61   34   57 1  
    62   39   58 1  
    63   39   59 1  
    64   41   60 1  
    65   43   61 1  
@<TRIPOS>SUBSTRUCTURE
     1 DL5         1

