5a3q_ligand
  -I-interpret- 

 65 69  0  0  0  0  0  0  0  0999 V2000
   20.3900   16.6980   -7.8020 N   0  0  0  0  0
   21.4610   16.4360   -7.0520 C   0  0  0  0  0
   22.0070   15.2650   -6.7260 N   0  0  0  0  0
   21.3260   14.2460   -7.2680 C   0  0  0  0  0
   20.1930   14.3370   -8.0710 C   0  0  0  0  0
   19.7130   15.6640   -8.3400 C   0  0  0  0  0
   18.6270   15.9030   -9.1020 N   0  0  0  0  0
   19.7590   13.0720   -8.4460 N   0  0  0  0  0
   20.6220   12.2880   -7.8780 C   0  0  0  0  0
   21.5910   12.9130   -7.1520 N   0  0  0  0  0
   19.8950    7.7310   -7.6120 P   0  0  0  0  0
   17.6840    9.3890   -6.5210 P   0  0  0  0  0
   15.1460    8.6240   -8.0680 P   0  0  0  0  0
   16.1620    8.4180   -6.6120 C   0  0  0  0  0
   22.7190   12.2940   -6.3810 C   0  0  0  0  0
   19.6440    6.1670   -7.5360 O   0  0  0  0  0
   17.7340   10.1610   -5.1710 O   0  0  0  0  0
   23.8390   10.8870   -3.4270 C   0  0  0  0  0
   15.5130    9.9600   -8.7340 O   0  0  0  0  0
   22.2960   11.6170   -5.0560 C   0  0  0  0  0
   23.1700   12.0220   -3.9610 O   0  0  0  0  0
   19.6170    8.4320   -8.9230 O   0  0  0  0  0
   17.6880   10.3750   -7.6700 O   0  0  0  0  0
   23.3390   10.7190   -1.9850 C   0  0  0  0  0
   21.9190   10.6230   -1.6630 N   0  0  0  0  0
   21.6220   10.4790   -0.5140 O   0  0  0  0  0
   15.6120    7.4800   -9.0640 O   0  0  0  0  0
   22.4830   10.1120   -5.2090 C   0  0  0  0  0
   23.4590    9.7370   -4.1930 O   0  0  0  0  0
   18.9180    8.4110   -6.4990 O   0  0  0  0  0
   24.1760   10.6290   -0.9150 C   0  0  0  0  0
   21.0780   10.6890   -2.5480 O   0  0  0  0  0
   13.6890    8.4670   -7.7630 O   0  0  0  0  0
   23.0330    9.9220   -6.6170 C   0  0  0  0  0
   23.1450   11.2670   -7.2130 O   0  0  0  0  0
   25.5610   10.6880   -0.9590 C   0  0  0  0  0
   26.3620   10.5770    0.2380 N   0  0  0  0  0
   27.5810   10.6360    0.1270 O   0  0  0  0  0
   22.1850    9.1620   -7.6070 C   0  0  0  0  0
   21.3840    8.1290   -6.9860 O   0  0  0  0  0
   26.1480   10.8450   -2.1320 C   0  0  0  0  0
   25.8040   10.4310    1.3060 O   0  0  0  0  0
   25.3910   10.9700   -3.4330 C   0  0  0  0  0
   26.1600   11.1450   -4.7420 N   0  0  0  0  0
   27.4070   11.1930   -4.7220 O   0  0  0  0  0
   25.5250   11.2390   -5.7700 O   0  0  0  0  0
   21.9659   17.3117   -6.6441 H   0  0  0  0  0
   18.3219   16.8619   -9.2686 H   0  0  0  0  0
   18.1104   15.1249   -9.5120 H   0  0  0  0  0
   20.5753   11.2033   -7.9748 H   0  0  0  0  0
   15.5489    8.7504   -5.7743 H   0  0  0  0  0
   16.4770    7.3745   -6.6166 H   0  0  0  0  0
   23.4442   13.0655   -6.1221 H   0  0  0  0  0
   19.8583    5.8521   -6.6548 H   0  0  0  0  0
   17.7314    9.5335   -4.4445 H   0  0  0  0  0
   16.4587    9.9857   -8.8973 H   0  0  0  0  0
   21.2649   11.8988   -4.8425 H   0  0  0  0  0
   16.5467    7.5856   -9.2560 H   0  0  0  0  0
   21.5822    9.5113   -5.0831 H   0  0  0  0  0
   23.7161   10.4988    0.0646 H   0  0  0  0  0
   23.9473    9.3471   -6.4703 H   0  0  0  0  0
   22.8553    8.6806   -8.3191 H   0  0  0  0  0
   21.5054    9.8724   -8.0778 H   0  0  0  0  0
   27.2368   10.8866   -2.1626 H   0  0  0  0  0
   25.1268   11.9516   -3.8264 H   0  0  0  0  0
  2  1  4  0  0  0
  6  1  4  0  0  0
  3  2  4  0  0  0
  4  3  4  0  0  0
  4  5  4  0  0  0
 10  4  4  0  0  0
  5  6  4  0  0  0
  8  5  4  0  0  0
  6  7  1  0  0  0
  9  8  4  0  0  0
 10  9  4  0  0  0
 15 10  1  0  0  0
 11 16  1  0  0  0
 11 22  2  0  0  0
 11 30  1  0  0  0
 40 11  1  0  0  0
 12 14  1  0  0  0
 12 17  1  0  0  0
 12 23  2  0  0  0
 30 12  1  0  0  0
 14 13  1  0  0  0
 13 19  1  0  0  0
 13 27  1  0  0  0
 13 33  2  0  0  0
 15 20  1  0  0  0
 35 15  1  0  0  0
 18 21  1  0  0  0
 18 24  1  0  0  0
 29 18  1  0  0  0
 18 43  1  0  0  0
 20 21  1  0  0  0
 28 20  1  0  0  0
 24 25  1  0  0  0
 24 31  2  0  0  0
 25 26  2  0  0  0
 25 32  2  0  0  0
 28 29  1  0  0  0
 34 28  1  0  0  0
 31 36  1  0  0  0
 34 35  1  0  0  0
 39 34  1  0  0  0
 36 37  1  0  0  0
 36 41  2  0  0  0
 37 38  2  0  0  0
 37 42  2  0  0  0
 39 40  1  0  0  0
 41 43  1  0  0  0
 43 44  1  0  0  0
 44 45  2  0  0  0
 44 46  2  0  0  0
  2 47  1  0  0  0
  7 48  1  0  0  0
  7 49  1  0  0  0
  9 50  1  0  0  0
 14 51  1  0  0  0
 14 52  1  0  0  0
 15 53  1  0  0  0
 16 54  1  0  0  0
 17 55  1  0  0  0
 19 56  1  0  0  0
 20 57  1  0  0  0
 27 58  1  0  0  0
 28 59  1  0  0  0
 31 60  1  0  0  0
 34 61  1  0  0  0
 39 62  1  0  0  0
 39 63  1  0  0  0
 41 64  1  0  0  0
 43 65  1  0  0  0
M  END
$$$$
