1mf4_ligand
  -I-interpret- 

 84 84  0  0  0  0  0  0  0  0999 V2000
   19.5260   13.8380    7.0960 N   0  3  0  0  0
   18.7340   12.9280    6.2230 C   0  0  0  0  0
   17.5550   12.2860    7.0130 C   0  0  0  0  0
   17.7640   11.3790    7.8250 O   0  0  0  0  0
   19.6780   11.9110    5.4580 C   0  0  0  0  0
   21.0390   12.5300    5.1810 C   0  0  0  0  0
   19.8720   10.6280    6.2070 C   0  0  0  0  0
   16.3350   12.8180    6.8190 N   0  0  0  0  0
   15.0890   12.2200    7.3800 C   0  0  0  0  0
   13.8640   11.9120    6.4290 C   0  0  0  0  0
   13.7680   10.7480    6.1670 O   0  0  0  0  0
   14.6370   12.9380    8.6630 C   0  0  0  0  0
   13.2070   12.9060    5.8000 N   0  0  0  0  0
   12.0300   12.6530    4.8990 C   0  0  0  0  0
   11.5620   13.8280    4.0170 C   0  0  0  0  0
   12.1470   14.9180    3.9790 O   0  0  0  0  0
   10.6930   12.5520    5.6410 C   0  0  0  0  0
   10.4280   11.3260    6.4650 C   0  0  0  0  0
   11.4060   10.5690    7.0850 C   0  0  0  0  0
    9.0960   11.0220    6.7130 C   0  0  0  0  0
   11.0310    9.4850    7.8980 C   0  0  0  0  0
    8.7240    9.9710    7.5070 C   0  0  0  0  0
    9.6840    9.1950    8.1020 C   0  0  0  0  0
   10.3680   13.5790    3.4520 N   0  0  0  0  0
    9.5520   14.5050    2.6580 C   0  0  0  0  0
    8.0630   14.1990    2.7340 C   0  0  0  0  0
    7.6110   13.2870    3.4200 O   0  0  0  0  0
    9.8150   14.3110    1.1810 C   0  0  0  0  0
   10.0480   15.5610    0.4500 C   0  0  0  0  0
   11.4690   15.8300    0.5690 C   0  0  0  0  0
   11.9380   17.0500   -0.0290 N   0  0  0  0  0
   13.2030   17.3810    0.0500 C   0  0  0  0  0
   14.0240   16.5580    0.6930 N   0  0  0  0  0
   13.6510   18.4990   -0.4880 N   0  0  0  0  0
    7.3470   14.9500    1.9030 N   0  0  0  0  0
    5.9080   14.8640    1.6190 C   0  0  0  0  0
    4.9250   14.1660    2.5520 C   0  0  0  0  0
    4.8160   14.7010    3.6540 O   0  0  0  0  0
    5.6950   14.3050    0.2140 C   0  0  0  0  0
    4.3210   14.3640   -0.1330 O   0  0  0  0  0
    4.2818   13.1335    2.2236 O   0  0  0  0  0
   18.8958   14.4808    7.5756 H   0  0  0  0  0
   20.0389   13.2863    7.7837 H   0  0  0  0  0
   20.1839   14.3681    6.5245 H   0  0  0  0  0
   18.2532   13.5024    5.4311 H   0  0  0  0  0
   19.1746   11.6849    4.5180 H   0  0  0  0  0
   21.5461   12.7270    6.1255 H   0  0  0  0  0
   21.6356   11.8405    4.5837 H   0  0  0  0  0
   20.9075   13.4647    4.6359 H   0  0  0  0  0
   20.4727    9.9452    5.6061 H   0  0  0  0  0
   20.3832   10.8318    7.1479 H   0  0  0  0  0
   18.9007   10.1769    6.4101 H   0  0  0  0  0
   16.2583   13.6695    6.2627 H   0  0  0  0  0
   15.4390   11.2104    7.5953 H   0  0  0  0  0
   15.4219   12.8629    9.4156 H   0  0  0  0  0
   14.4435   13.9876    8.4415 H   0  0  0  0  0
   13.7264   12.4706    9.0379 H   0  0  0  0  0
   13.5199   13.8666    5.9403 H   0  0  0  0  0
   12.4274   11.7795    4.3822 H   0  0  0  0  0
    9.9319   12.5432    4.8608 H   0  0  0  0  0
   10.6956   13.3794    6.3506 H   0  0  0  0  0
   12.4594   10.8112    6.9442 H   0  0  0  0  0
    8.3211   11.6407    6.2604 H   0  0  0  0  0
   11.7968    8.8696    8.3702 H   0  0  0  0  0
    7.6680    9.7521    7.6654 H   0  0  0  0  0
    9.3947    8.3542    8.7324 H   0  0  0  0  0
    9.9870   12.6430    3.5904 H   0  0  0  0  0
    9.8065   15.4886    3.0528 H   0  0  0  0  0
    8.9279   13.8450    0.7521 H   0  0  0  0  0
   10.7185   13.7082    1.0889 H   0  0  0  0  0
    9.4542   16.3773    0.8613 H   0  0  0  0  0
    9.7476   15.4716   -0.5940 H   0  0  0  0  0
   11.9764   15.0202    0.0447 H   0  0  0  0  0
   11.6734   15.9167    1.6362 H   0  0  0  0  0
   11.2829   17.6608   -0.5171 H   0  0  0  0  0
   15.0145   16.7873    0.7755 H   0  0  0  0  0
   13.6639   15.6968    1.1042 H   0  0  0  0  0
   13.0088   19.1232   -0.9762 H   0  0  0  0  0
    7.8596   15.6750    1.4009 H   0  0  0  0  0
    5.6416   15.9093    1.7757 H   0  0  0  0  0
    6.0252   13.2665    0.1891 H   0  0  0  0  0
    6.2687   14.8991   -0.4973 H   0  0  0  0  0
    4.1999   14.0103   -1.0172 H   0  0  0  0  0
    4.5150   12.8845    1.3263 H   0  0  0  0  0
  1  2  1  0  0  0
  2  3  1  0  0  0
  2  5  1  0  0  0
  3  4  2  0  0  0
  3  8  1  0  0  0
  5  6  1  0  0  0
  5  7  1  0  0  0
  8  9  1  0  0  0
  9 10  1  0  0  0
  9 12  1  0  0  0
 10 11  2  0  0  0
 10 13  1  0  0  0
 13 14  1  0  0  0
 14 15  1  0  0  0
 14 17  1  0  0  0
 15 16  2  0  0  0
 15 24  1  0  0  0
 17 18  1  0  0  0
 18 19  4  0  0  0
 18 20  4  0  0  0
 19 21  4  0  0  0
 20 22  4  0  0  0
 21 23  4  0  0  0
 22 23  4  0  0  0
 24 25  1  0  0  0
 25 26  1  0  0  0
 25 28  1  0  0  0
 26 27  2  0  0  0
 26 35  1  0  0  0
 28 29  1  0  0  0
 29 30  1  0  0  0
 30 31  1  0  0  0
 31 32  1  0  0  0
 32 33  1  0  0  0
 32 34  2  0  0  0
 35 36  1  0  0  0
 36 37  1  0  0  0
 36 39  1  0  0  0
 37 38  2  0  0  0
 37 41  1  0  0  0
 39 40  1  0  0  0
  1 42  1  0  0  0
  1 43  1  0  0  0
  1 44  1  0  0  0
  2 45  1  0  0  0
  5 46  1  0  0  0
  6 47  1  0  0  0
  6 48  1  0  0  0
  6 49  1  0  0  0
  7 50  1  0  0  0
  7 51  1  0  0  0
  7 52  1  0  0  0
  8 53  1  0  0  0
  9 54  1  0  0  0
 12 55  1  0  0  0
 12 56  1  0  0  0
 12 57  1  0  0  0
 13 58  1  0  0  0
 14 59  1  0  0  0
 17 60  1  0  0  0
 17 61  1  0  0  0
 19 62  1  0  0  0
 20 63  1  0  0  0
 21 64  1  0  0  0
 22 65  1  0  0  0
 23 66  1  0  0  0
 24 67  1  0  0  0
 25 68  1  0  0  0
 28 69  1  0  0  0
 28 70  1  0  0  0
 29 71  1  0  0  0
 29 72  1  0  0  0
 30 73  1  0  0  0
 30 74  1  0  0  0
 31 75  1  0  0  0
 33 76  1  0  0  0
 33 77  1  0  0  0
 34 78  1  0  0  0
 35 79  1  0  0  0
 36 80  1  0  0  0
 39 81  1  0  0  0
 39 82  1  0  0  0
 40 83  1  0  0  0
 41 84  1  0  0  0
M  END
$$$$
