4rll_ligand
  -I-interpret- 

 39 42  0  0  0  0  0  0  0  0999 V2000
  -16.6750   10.9860   44.1910 O   0  0  0  0  0
  -16.5340   11.2080   45.4210 C   0  0  0  0  0
  -16.1620   10.3790   46.2670 O   0  0  0  0  0
  -16.8210   12.6420   45.9220 C   0  0  0  0  0
  -16.9180   12.9520   47.2800 C   0  0  0  0  0
  -17.1690   14.2600   47.7270 C   0  0  0  0  0
  -17.3330   15.2920   46.8010 C   0  0  0  0  0
  -17.5940   16.6510   47.2020 C   0  0  0  0  0
  -17.2830   17.7630   46.5320 N   0  0  0  0  0
  -17.4510   18.9760   46.7450 N   0  0  0  0  0
  -17.3570   20.1220   46.1670 C   0  0  0  0  0
  -17.3660   21.5350   46.6460 C   0  0  0  0  0
  -17.5820   22.0230   47.9340 C   0  0  0  0  0
  -17.5430   23.4180   48.1520 C   0  0  0  0  0
  -17.2960   24.2740   47.0950 C   0  0  0  0  0
  -17.0790   23.7770   45.7900 C   0  0  0  0  0
  -17.1120   22.4000   45.5570 C   0  0  0  0  0
  -16.9270   21.5750   44.3350 C   0  0  0  0  0
  -16.6570   21.8920   43.0010 C   0  0  0  0  0
  -16.5330   20.8650   42.0380 C   0  0  0  0  0
  -16.6780   19.5420   42.3980 C   0  0  0  0  0
  -16.9510   19.2050   43.7400 C   0  0  0  0  0
  -17.0720   20.2210   44.6890 C   0  0  0  0  0
  -17.2330   14.9880   45.4440 C   0  0  0  0  0
  -16.9820   13.6810   45.0180 C   0  0  0  0  0
  -16.9718   11.7877   43.7542 H   0  0  0  0  0
  -16.7954   12.1561   48.0146 H   0  0  0  0  0
  -17.2356   14.4688   48.7947 H   0  0  0  0  0
  -18.1011   16.7860   48.1574 H   0  0  0  0  0
  -17.7779   21.3389   48.7597 H   0  0  0  0  0
  -17.7074   23.8190   49.1521 H   0  0  0  0  0
  -17.2682   25.3494   47.2709 H   0  0  0  0  0
  -16.8864   24.4661   44.9677 H   0  0  0  0  0
  -16.5417   22.9340   42.7024 H   0  0  0  0  0
  -16.3206   21.1215   41.0001 H   0  0  0  0  0
  -16.5818   18.7580   41.6469 H   0  0  0  0  0
  -17.0663   18.1615   44.0330 H   0  0  0  0  0
  -17.3522   15.7806   44.7053 H   0  0  0  0  0
  -16.9111   13.4734   43.9503 H   0  0  0  0  0
  1  2  1  0  0  0
  2  3  2  0  0  0
  2  4  1  0  0  0
  4  5  4  0  0  0
  4 25  4  0  0  0
  5  6  4  0  0  0
  6  7  4  0  0  0
  7  8  1  0  0  0
  7 24  4  0  0  0
  8  9  2  0  0  0
  9 10  1  0  0  0
 10 11  2  0  0  0
 11 12  1  0  0  0
 11 23  1  0  0  0
 12 13  4  0  0  0
 12 17  4  0  0  0
 13 14  4  0  0  0
 14 15  4  0  0  0
 15 16  4  0  0  0
 16 17  4  0  0  0
 17 18  1  0  0  0
 18 19  4  0  0  0
 18 23  4  0  0  0
 19 20  4  0  0  0
 20 21  4  0  0  0
 21 22  4  0  0  0
 22 23  4  0  0  0
 24 25  4  0  0  0
  1 26  1  0  0  0
  5 27  1  0  0  0
  6 28  1  0  0  0
  8 29  1  0  0  0
 13 30  1  0  0  0
 14 31  1  0  0  0
 15 32  1  0  0  0
 16 33  1  0  0  0
 19 34  1  0  0  0
 20 35  1  0  0  0
 21 36  1  0  0  0
 22 37  1  0  0  0
 24 38  1  0  0  0
 25 39  1  0  0  0
M  END
$$$$
