4rn0_ligand
  -I-interpret- 

 61 63  0  0  0  0  0  0  0  0999 V2000
   -2.7810   10.6540  -18.3900 C   0  0  0  0  0
   -2.2410    9.8280  -19.5860 C   0  0  0  0  0
   -2.4860    8.3490  -19.3460 C   0  0  0  0  0
   -1.4460    7.5010  -19.4060 C   0  0  0  0  0
   -1.6050    6.0120  -19.1790 C   0  0  0  0  0
   -0.5900    5.0220  -21.1570 C   0  0  0  0  0
    0.5470    4.2560  -21.7830 C   0  0  0  0  0
   -0.0370    3.1130  -22.6390 C   0  0  0  0  0
   -0.9520    2.1750  -21.8490 C   0  0  0  0  0
    1.0330    2.2470  -23.3250 C   0  0  0  0  0
    2.7250    3.5820  -20.8950 C   0  0  0  0  0
    3.5020    2.8690  -19.8110 C   0  0  0  0  0
    4.6530    3.7850  -19.3930 C   0  0  0  0  0
    3.9750    1.5450  -20.4320 C   0  0  0  0  0
    2.1890    1.3540  -18.6800 C   0  0  0  0  0
    1.1000    0.9960  -17.7620 C   0  0  0  0  0
    0.8470   -0.2780  -17.2530 C   0  0  0  0  0
   -0.7120    1.5720  -16.5150 C   0  0  0  0  0
   -1.7910    2.3860  -15.8650 C   0  0  0  0  0
   -1.9630    4.2810  -17.3700 C   0  0  0  0  0
   -1.5620    5.7100  -17.6940 C   0  0  0  0  0
   -0.5150    5.2680  -19.8520 N   0  0  0  0  0
    1.4040    3.6470  -20.7710 N   0  0  0  0  0
    2.6360    2.5410  -18.6770 N   0  0  0  0  0
    0.2500    1.9730  -17.3430 N   0  0  0  0  0
   -1.4530    3.7550  -16.2750 N   0  0  0  0  0
   -1.5230    5.3580  -21.8670 O   0  0  0  0  0
    3.3060    4.0550  -21.8710 O   0  0  0  0  0
   -2.7330    3.6450  -18.0770 O   0  0  0  0  0
   -2.8010   12.4400  -18.8280 S   0  0  0  0  0
    2.9080    0.2970  -19.7680 S   0  0  0  0  0
   -0.5340   -0.1330  -16.2320 S   0  0  0  0  0
   -2.1354   10.5015  -17.5251 H   0  0  0  0  0
   -3.7943   10.3286  -18.1546 H   0  0  0  0  0
   -1.1700   10.0027  -19.6889 H   0  0  0  0  0
   -2.7565   10.1345  -20.4962 H   0  0  0  0  0
   -3.4889    7.9815  -19.1287 H   0  0  0  0  0
   -0.4547    7.8976  -19.6253 H   0  0  0  0  0
   -2.5641    5.7012  -19.5932 H   0  0  0  0  0
    1.1339    4.9550  -22.3789 H   0  0  0  0  0
   -0.6148    3.6411  -23.3975 H   0  0  0  0  0
   -0.3885    1.7215  -21.0335 H   0  0  0  0  0
   -1.7887    2.7431  -21.4423 H   0  0  0  0  0
   -1.3283    1.3945  -22.5103 H   0  0  0  0  0
    1.6365    2.8715  -23.9838 H   0  0  0  0  0
    1.6715    1.7928  -22.5673 H   0  0  0  0  0
    0.5466    1.4652  -23.9084 H   0  0  0  0  0
    5.2914    3.9804  -20.2546 H   0  0  0  0  0
    4.2494    4.7253  -19.0176 H   0  0  0  0  0
    5.2357    3.2999  -18.6099 H   0  0  0  0  0
    5.0192    1.3440  -20.1927 H   0  0  0  0  0
    3.9229    1.5751  -21.5203 H   0  0  0  0  0
    1.4119   -1.1869  -17.4603 H   0  0  0  0  0
   -1.8239    2.2619  -14.7826 H   0  0  0  0  0
   -2.7932    2.0855  -16.1707 H   0  0  0  0  0
   -2.2692    6.3750  -17.1982 H   0  0  0  0  0
   -0.5362    5.8532  -17.3545 H   0  0  0  0  0
    0.2907    4.9453  -19.3162 H   0  0  0  0  0
    0.9712    3.2554  -19.9345 H   0  0  0  0  0
   -0.8136    4.3071  -15.7033 H   0  0  0  0  0
   -3.2650   13.1422  -17.7982 H   0  0  0  0  0
  2  1  1  0  0  0
  1 30  1  0  0  0
  3  2  1  0  0  0
  4  3  2  0  0  0
  5  4  1  0  0  0
  5 21  1  0  0  0
 22  5  1  0  0  0
  7  6  1  0  0  0
  6 22  1  0  0  0
  6 27  2  0  0  0
  7  8  1  0  0  0
 23  7  1  0  0  0
  8  9  1  0  0  0
  8 10  1  0  0  0
 12 11  1  0  0  0
 11 23  1  0  0  0
 11 28  2  0  0  0
 12 13  1  0  0  0
 14 12  1  0  0  0
 24 12  1  0  0  0
 31 14  1  0  0  0
 16 15  1  0  0  0
 15 24  2  0  0  0
 15 31  1  0  0  0
 16 17  4  0  0  0
 25 16  4  0  0  0
 17 32  4  0  0  0
 18 19  1  0  0  0
 18 25  4  0  0  0
 18 32  4  0  0  0
 19 26  1  0  0  0
 21 20  1  0  0  0
 20 26  1  0  0  0
 20 29  2  0  0  0
  1 33  1  0  0  0
  1 34  1  0  0  0
  2 35  1  0  0  0
  2 36  1  0  0  0
  3 37  1  0  0  0
  4 38  1  0  0  0
  5 39  1  0  0  0
  7 40  1  0  0  0
  8 41  1  0  0  0
  9 42  1  0  0  0
  9 43  1  0  0  0
  9 44  1  0  0  0
 10 45  1  0  0  0
 10 46  1  0  0  0
 10 47  1  0  0  0
 13 48  1  0  0  0
 13 49  1  0  0  0
 13 50  1  0  0  0
 14 51  1  0  0  0
 14 52  1  0  0  0
 17 53  1  0  0  0
 19 54  1  0  0  0
 19 55  1  0  0  0
 21 56  1  0  0  0
 21 57  1  0  0  0
 22 58  1  0  0  0
 23 59  1  0  0  0
 26 60  1  0  0  0
 30 61  1  0  0  0
M  END
$$$$
