2y80_ligand
  -I-interpret- 

 60 64  0  0  0  0  0  0  0  0999 V2000
    8.0060    6.6450   21.5840 O   0  0  0  0  0
    6.9190    6.1390   21.7650 C   0  0  0  0  0
    6.4680    5.0310   21.1370 N   0  0  0  0  0
    7.2060    4.2390   20.2470 C   0  0  0  0  0
    7.2350    2.8650   20.4600 C   0  0  0  0  0
    7.9060    4.7840   19.1670 C   0  0  0  0  0
    8.6240    3.9490   18.3230 C   0  0  0  0  0
    8.6450    2.5630   18.5370 C   0  0  0  0  0
    7.9500    2.0360   19.6140 C   0  0  0  0  0
    8.1230    0.5340   19.6590 C   0  0  0  0  0
    9.3560    0.2710   18.7710 C   0  0  0  0  0
    9.3430    1.4440   17.7680 C   0  0  0  0  0
    8.7850    1.1270   16.4310 N   0  3  0  0  0
    9.1430    2.2280   15.5200 C   0  0  0  0  0
    7.3060    1.0410   16.4520 C   0  0  0  0  0
    5.8750    6.6120   22.7520 C   0  0  0  0  0
    4.5870    5.9320   22.2380 C   0  0  0  0  0
    5.0960    4.6700   21.5230 C   0  0  0  0  0
    5.7720    8.0700   22.7800 N   0  0  0  0  0
    6.1980    8.9760   24.0460 S   0  0  0  0  0
    6.0360   10.2770   23.5070 O   0  0  0  0  0
    5.4830    8.5680   25.2050 O   0  0  0  0  0
    7.9180    8.7010   24.3740 C   0  0  0  0  0
    8.2940    8.0600   25.5270 C   0  0  0  0  0
    9.6710    7.8260   25.7840 C   0  0  0  0  0
   10.6250    8.2650   24.8180 C   0  0  0  0  0
   10.1950    8.9060   23.6370 C   0  0  0  0  0
    8.8610    9.1260   23.4320 C   0  0  0  0  0
   10.1150    7.1770   26.9590 C   0  0  0  0  0
   11.4560    6.9710   27.1530 C   0  0  0  0  0
   12.3770    7.4020   26.2030 C   0  0  0  0  0
   14.0840    7.1400   26.4370 Cl  0  0  0  0  0
   11.9920    8.0280   25.0570 C   0  0  0  0  0
    6.6894    2.4373   21.3011 H   0  0  0  0  0
    7.8880    5.8592   18.9887 H   0  0  0  0  0
    9.1771    4.3743   17.4855 H   0  0  0  0  0
    7.2383    0.0063   19.3027 H   0  0  0  0  0
    8.2608    0.1652   20.6754 H   0  0  0  0  0
    9.3121   -0.6992   18.2761 H   0  0  0  0  0
   10.2806    0.2269   19.3466 H   0  0  0  0  0
   10.3471    1.7370   17.4613 H   0  0  0  0  0
    9.1627    0.2270   16.1347 H   0  0  0  0  0
    8.7205    3.1602   15.8951 H   0  0  0  0  0
   10.2282    2.3151   15.4662 H   0  0  0  0  0
    8.7442    2.0205   14.5270 H   0  0  0  0  0
    6.9987    0.2569   17.1440 H   0  0  0  0  0
    6.8924    1.9960   16.7761 H   0  0  0  0  0
    6.9427    0.8071   15.4513 H   0  0  0  0  0
    6.1040    6.3507   23.7851 H   0  0  0  0  0
    4.0126    6.5799   21.5759 H   0  0  0  0  0
    3.8915    5.6991   23.0444 H   0  0  0  0  0
    5.0574    3.7840   22.1567 H   0  0  0  0  0
    4.4784    4.3935   20.6685 H   0  0  0  0  0
    5.4099    8.5421   21.9515 H   0  0  0  0  0
    7.5398    7.7319   26.2423 H   0  0  0  0  0
   10.9231    9.2246   22.8910 H   0  0  0  0  0
    8.5298    9.6364   22.5276 H   0  0  0  0  0
    9.3952    6.8425   27.7060 H   0  0  0  0  0
   11.8026    6.4674   28.0554 H   0  0  0  0  0
   12.7384    8.3441   24.3282 H   0  0  0  0  0
  1  2  2  0  0  0
  2  3  1  0  0  0
  2 16  1  0  0  0
  3  4  1  0  0  0
  3 18  1  0  0  0
  4  5  4  0  0  0
  4  6  4  0  0  0
  5  9  4  0  0  0
  6  7  4  0  0  0
  7  8  4  0  0  0
  8  9  4  0  0  0
  8 12  1  0  0  0
  9 10  1  0  0  0
 10 11  1  0  0  0
 11 12  1  0  0  0
 12 13  1  0  0  0
 13 14  1  0  0  0
 13 15  1  0  0  0
 16 17  1  0  0  0
 16 19  1  0  0  0
 17 18  1  0  0  0
 19 20  1  0  0  0
 20 21  2  0  0  0
 20 22  2  0  0  0
 20 23  1  0  0  0
 23 24  4  0  0  0
 23 28  4  0  0  0
 24 25  4  0  0  0
 25 26  4  0  0  0
 25 29  4  0  0  0
 26 27  4  0  0  0
 26 33  4  0  0  0
 27 28  4  0  0  0
 29 30  4  0  0  0
 30 31  4  0  0  0
 31 32  1  0  0  0
 31 33  4  0  0  0
  5 34  1  0  0  0
  6 35  1  0  0  0
  7 36  1  0  0  0
 10 37  1  0  0  0
 10 38  1  0  0  0
 11 39  1  0  0  0
 11 40  1  0  0  0
 12 41  1  0  0  0
 13 42  1  0  0  0
 14 43  1  0  0  0
 14 44  1  0  0  0
 14 45  1  0  0  0
 15 46  1  0  0  0
 15 47  1  0  0  0
 15 48  1  0  0  0
 16 49  1  0  0  0
 17 50  1  0  0  0
 17 51  1  0  0  0
 18 52  1  0  0  0
 18 53  1  0  0  0
 19 54  1  0  0  0
 24 55  1  0  0  0
 27 56  1  0  0  0
 28 57  1  0  0  0
 29 58  1  0  0  0
 30 59  1  0  0  0
 33 60  1  0  0  0
M  END
$$$$
