3cyz_ligand
  -I-interpret- 

 29 28  0  0  0  0  0  0  0  0999 V2000
   14.0790   -8.5530   -1.8040 O   0  0  0  0  0
   13.9560   -7.4080   -2.2300 C   0  0  0  0  0
   12.6030   -6.8020   -2.4240 C   0  0  0  0  0
   15.2100   -6.6170   -2.5500 C   0  0  0  0  0
   15.0100   -5.1790   -3.0520 C   0  0  0  0  0
   15.7570   -4.1870   -2.1480 C   0  0  0  0  0
   16.4950   -3.0640   -2.8760 C   0  0  0  0  0
   17.9700   -3.4310   -2.8550 C   0  0  0  0  0
   18.8870   -2.6040   -3.7210 C   0  0  0  0  0
   20.1200   -3.1170   -3.8150 C   0  0  0  0  0
   21.1940   -2.4580   -4.5610 C   0  0  0  0  0
   22.3600   -2.8980   -4.4030 O   0  0  0  0  0
   20.9420   -1.4680   -5.2810 O   0  0  0  0  0
   12.0366   -7.4015   -3.1366 H   0  0  0  0  0
   12.0773   -6.7769   -1.4695 H   0  0  0  0  0
   12.7123   -5.7873   -2.8068 H   0  0  0  0  0
   15.7034   -7.1521   -3.3613 H   0  0  0  0  0
   15.7597   -6.5338   -1.6124 H   0  0  0  0  0
   13.9462   -4.9422   -3.0357 H   0  0  0  0  0
   15.4018   -5.0994   -4.0660 H   0  0  0  0  0
   16.5138   -4.7617   -1.6140 H   0  0  0  0  0
   15.0040   -3.7093   -1.5212 H   0  0  0  0  0
   16.3249   -2.1047   -2.3872 H   0  0  0  0  0
   16.1338   -2.9592   -3.8991 H   0  0  0  0  0
   18.0313   -4.4490   -3.2398 H   0  0  0  0  0
   18.3036   -3.2739   -1.8293 H   0  0  0  0  0
   18.5781   -1.6846   -4.2184 H   0  0  0  0  0
   20.3329   -4.0627   -3.3165 H   0  0  0  0  0
   22.3373   -3.6581   -3.8170 H   0  0  0  0  0
  1  2  2  0  0  0
  2  3  1  0  0  0
  2  4  1  0  0  0
  4  5  1  0  0  0
  5  6  1  0  0  0
  6  7  1  0  0  0
  7  8  1  0  0  0
  8  9  1  0  0  0
  9 10  2  0  0  0
 10 11  1  0  0  0
 11 12  1  0  0  0
 11 13  2  0  0  0
  3 14  1  0  0  0
  3 15  1  0  0  0
  3 16  1  0  0  0
  4 17  1  0  0  0
  4 18  1  0  0  0
  5 19  1  0  0  0
  5 20  1  0  0  0
  6 21  1  0  0  0
  6 22  1  0  0  0
  7 23  1  0  0  0
  7 24  1  0  0  0
  8 25  1  0  0  0
  8 26  1  0  0  0
  9 27  1  0  0  0
 10 28  1  0  0  0
 12 29  1  0  0  0
M  END
$$$$
