6d8v_ligand
  -I-interpret- 

 24 24  0  0  0  0  0  0  0  0999 V2000
   47.6370   56.3180  136.6060 N   0  3  0  0  0
   46.6280   57.1210  136.3930 C   0  0  0  0  0
   48.8060   57.1810  136.1610 C   0  0  0  0  0
   48.4350   58.5760  136.8070 C   0  0  0  0  0
   47.1730   58.6120  136.8000 C   0  0  0  0  0
   47.7070   55.9700  138.0410 C   0  0  0  0  0
   47.5240   55.1090  135.7670 C   0  0  0  0  0
   50.1240   56.7420  136.5590 C   0  0  0  0  0
   51.0830   57.5610  136.5210 O   0  0  0  0  0
   50.3370   55.5530  136.9150 O   0  0  0  0  0
   45.7561   56.8366  136.9822 H   0  0  0  0  0
   46.2959   57.0834  135.3555 H   0  0  0  0  0
   48.9080   57.1694  135.0758 H   0  0  0  0  0
   48.8667   59.4076  136.2500 H   0  0  0  0  0
   48.8371   58.6748  137.8153 H   0  0  0  0  0
   46.7982   58.8951  137.7836 H   0  0  0  0  0
   46.8207   59.3517  136.0810 H   0  0  0  0  0
   46.8038   55.4311  138.3273 H   0  0  0  0  0
   48.5789   55.3406  138.2188 H   0  0  0  0  0
   47.7897   56.8826  138.6313 H   0  0  0  0  0
   48.3946   54.4734  135.9287 H   0  0  0  0  0
   46.6195   54.5640  136.0372 H   0  0  0  0  0
   47.4747   55.3998  134.7177 H   0  0  0  0  0
   50.7595   58.4176  136.2327 H   0  0  0  0  0
  1  2  1  0  0  0
  1  3  1  0  0  0
  1  6  1  0  0  0
  1  7  1  0  0  0
  2  5  1  0  0  0
  3  4  1  0  0  0
  3  8  1  0  0  0
  4  5  1  0  0  0
  8  9  1  0  0  0
  8 10  2  0  0  0
  2 11  1  0  0  0
  2 12  1  0  0  0
  3 13  1  0  0  0
  4 14  1  0  0  0
  4 15  1  0  0  0
  5 16  1  0  0  0
  5 17  1  0  0  0
  6 18  1  0  0  0
  6 19  1  0  0  0
  6 20  1  0  0  0
  7 21  1  0  0  0
  7 22  1  0  0  0
  7 23  1  0  0  0
  9 24  1  0  0  0
M  END
$$$$
