6hmy_ligand
  -I-interpret- 

150155  0  0  0  0  0  0  0  0999 V2000
  -39.3830   -5.0070   63.3510 C   0  0  0  0  0
  -38.9840   -5.7010   64.6680 C   0  0  0  0  0
  -40.1590   -6.1500   65.5370 C   0  0  0  0  0
  -40.8620   -7.3840   64.9840 C   0  0  0  0  0
  -39.8660   -8.4510   64.5650 C   0  0  0  0  0
  -38.7390   -7.8610   63.7110 C   0  0  0  0  0
  -37.6310   -8.8170   63.3030 C   0  0  0  0  0
  -36.3910   -8.1130   62.7080 C   0  0  0  0  0
  -35.4040   -9.0750   62.0930 C   0  0  0  0  0
  -40.2940  -10.7450   63.8100 C   0  0  0  0  0
  -41.1720  -11.6100   62.9520 C   0  0  0  0  0
  -40.6390   -9.4690   63.8650 N   0  0  0  0  0
  -38.5510   -4.8710   62.4210 O   0  0  0  0  0
  -40.5640   -4.6290   63.2160 O   0  0  0  0  0
  -41.7360   -7.9340   65.9840 O   0  0  0  0  0
  -38.1060   -6.8200   64.4900 O   0  0  0  0  0
  -37.1700   -9.6040   64.4150 O   0  0  0  0  0
  -36.7340   -7.1520   61.7080 O   0  0  0  0  0
  -34.1480   -8.4310   61.8850 O   0  0  0  0  0
  -39.3440  -11.2010   64.4440 O   0  0  0  0  0
  -36.8290   -3.8800   68.6060 C   0  0  0  0  0
  -37.7020   -3.7270   67.3840 C   0  0  0  0  0
  -37.4500   -4.9340   66.4600 C   0  0  0  0  0
  -35.9710   -5.0790   66.1290 C   0  0  0  0  0
  -35.1890   -5.1460   67.4190 C   0  0  0  0  0
  -33.7180   -5.2390   67.2010 C   0  0  0  0  0
  -39.0730   -3.6800   67.7590 O   0  0  0  0  0
  -38.2060   -4.6690   65.3040 O   0  0  0  0  0
  -35.5280   -3.9670   65.3250 O   0  0  0  0  0
  -35.4650   -3.9370   68.2010 O   0  0  0  0  0
  -33.0510   -5.0720   68.4590 O   0  0  0  0  0
  -35.1410   -4.2610   64.0170 C   0  0  0  0  0
  -35.2610   -3.0390   63.1370 C   0  0  0  0  0
  -34.7680   -3.3460   61.7210 C   0  0  0  0  0
  -33.3490   -3.9030   61.7560 C   0  0  0  0  0
  -33.3590   -5.0980   62.7000 C   0  0  0  0  0
  -32.0130   -5.7180   62.9240 C   0  0  0  0  0
  -37.1440   -1.6380   63.8780 C   0  0  0  0  0
  -38.6340   -1.5270   63.8700 C   0  0  0  0  0
  -36.6300   -2.6070   63.1220 N   0  0  0  0  0
  -34.8730   -2.1350   60.9500 O   0  0  0  0  0
  -32.4200   -2.9520   62.2570 O   0  0  0  0  0
  -33.8290   -4.7070   64.0050 O   0  0  0  0  0
  -32.2090   -6.9330   63.6980 O   0  0  0  0  0
  -36.4520   -0.8980   64.5580 O   0  0  0  0  0
  -35.5510   -2.2280   59.7260 C   0  0  0  0  0
  -35.5990   -0.8820   59.0340 C   0  0  0  0  0
  -36.4540   -1.0350   57.7730 C   0  0  0  0  0
  -35.8710   -2.1180   56.8510 C   0  0  0  0  0
  -35.7070   -3.4240   57.6610 C   0  0  0  0  0
  -35.0100   -4.5230   56.9030 C   0  0  0  0  0
  -36.1910    0.0610   59.9440 O   0  0  0  0  0
  -36.5510    0.2390   57.1440 O   0  0  0  0  0
  -34.6090   -1.6720   56.3500 O   0  0  0  0  0
  -34.9020   -3.1540   58.8490 O   0  0  0  0  0
  -35.0640   -5.7420   57.5890 O   0  0  0  0  0
  -35.5800    1.3520   60.0350 C   0  0  0  0  0
  -36.4460    2.2150   60.9430 C   0  0  0  0  0
  -36.3630    1.7590   62.3790 C   0  0  0  0  0
  -34.9430    1.5920   62.8810 C   0  0  0  0  0
  -34.0990    0.8130   61.8860 C   0  0  0  0  0
  -32.6180    0.8440   62.2000 C   0  0  0  0  0
  -37.8120    2.1870   60.5180 O   0  0  0  0  0
  -36.9790    2.7940   63.1390 O   0  0  0  0  0
  -34.3860    2.8970   63.0950 O   0  0  0  0  0
  -34.2300    1.3550   60.5490 O   0  0  0  0  0
  -35.7750   -1.2370   72.4350 C   0  0  0  0  0
  -36.0570   -1.5330   70.9910 C   0  0  0  0  0
  -36.8480   -2.8340   70.8710 C   0  0  0  0  0
  -38.0960   -2.7920   71.7710 C   0  0  0  0  0
  -38.9100   -4.0630   71.8930 C   0  0  0  0  0
  -37.1000   -1.1820   73.2000 C   0  0  0  0  0
  -37.0330   -0.8650   74.5350 O   0  0  0  0  0
  -35.1130    0.0120   72.5350 O   0  0  0  0  0
  -34.8730   -1.5570   70.1570 O   0  0  0  0  0
  -37.1380   -2.7890   69.4610 O   0  0  0  0  0
  -37.6920   -2.4720   73.1220 O   0  0  0  0  0
  -38.1640   -5.2310   71.5820 O   0  0  0  0  0
  -40.8840   -5.3366   65.5657 H   0  0  0  0  0
  -39.7689   -6.4010   66.5234 H   0  0  0  0  0
  -41.4321   -7.0754   64.1077 H   0  0  0  0  0
  -39.3579   -8.8897   65.4238 H   0  0  0  0  0
  -39.2196   -7.5330   62.7893 H   0  0  0  0  0
  -38.0898   -9.4434   62.5380 H   0  0  0  0  0
  -35.9314   -7.6158   63.5622 H   0  0  0  0  0
  -35.7915   -9.4171   61.1334 H   0  0  0  0  0
  -35.2632   -9.9197   62.7674 H   0  0  0  0  0
  -40.5684  -12.0829   62.1773 H   0  0  0  0  0
  -41.6389  -12.3773   63.5696 H   0  0  0  0  0
  -41.9438  -10.9955   62.4885 H   0  0  0  0  0
  -41.4948   -9.1813   63.3904 H   0  0  0  0  0
  -37.7000   -5.2153   62.7016 H   0  0  0  0  0
  -42.3700   -7.2662   66.2556 H   0  0  0  0  0
  -37.9150  -10.0595   64.8139 H   0  0  0  0  0
  -35.9335   -6.7436   61.3703 H   0  0  0  0  0
  -33.5311   -9.0540   61.4939 H   0  0  0  0  0
  -37.0095   -4.8046   69.1542 H   0  0  0  0  0
  -37.4597   -2.7982   66.8676 H   0  0  0  0  0
  -37.7397   -5.8733   66.9311 H   0  0  0  0  0
  -35.8083   -5.9928   65.5575 H   0  0  0  0  0
  -35.5037   -6.0490   67.9421 H   0  0  0  0  0
  -33.3981   -4.4608   66.5080 H   0  0  0  0  0
  -33.4689   -6.2122   66.7780 H   0  0  0  0  0
  -39.6154   -3.5827   66.9729 H   0  0  0  0  0
  -32.1019   -5.1307   68.3270 H   0  0  0  0  0
  -35.7991   -5.0394   63.6308 H   0  0  0  0  0
  -34.6376   -2.2388   63.5358 H   0  0  0  0  0
  -35.3783   -4.1171   61.2509 H   0  0  0  0  0
  -33.0469   -4.1696   60.7432 H   0  0  0  0  0
  -34.0106   -5.8214   62.2099 H   0  0  0  0  0
  -31.3620   -5.0276   63.4603 H   0  0  0  0  0
  -31.5382   -5.9484   61.9703 H   0  0  0  0  0
  -39.0145   -1.6883   64.8786 H   0  0  0  0  0
  -38.9212   -0.5332   63.5266 H   0  0  0  0  0
  -39.0495   -2.2788   63.1990 H   0  0  0  0  0
  -37.2625   -3.0821   62.4781 H   0  0  0  0  0
  -31.5410   -3.3379   62.2638 H   0  0  0  0  0
  -31.3593   -7.3510   63.8559 H   0  0  0  0  0
  -36.5616   -2.5720   59.9459 H   0  0  0  0  0
  -34.6067   -0.5298   58.7524 H   0  0  0  0  0
  -37.4600   -1.3705   58.0251 H   0  0  0  0  0
  -36.5359   -2.3051   56.0078 H   0  0  0  0  0
  -36.7170   -3.7579   57.8988 H   0  0  0  0  0
  -33.9633   -4.2446   56.7806 H   0  0  0  0  0
  -35.5102   -4.6476   55.9426 H   0  0  0  0  0
  -37.0847    0.1626   56.3497 H   0  0  0  0  0
  -34.2393   -2.3444   55.7731 H   0  0  0  0  0
  -34.6111   -6.4162   57.0773 H   0  0  0  0  0
  -35.5100    1.7340   59.0165 H   0  0  0  0  0
  -36.0662    3.2345   60.8760 H   0  0  0  0  0
  -36.8404    0.7834   62.4711 H   0  0  0  0  0
  -34.9502    1.0272   63.8132 H   0  0  0  0  0
  -34.4731   -0.2085   61.9545 H   0  0  0  0  0
  -32.2674    1.8760   62.1905 H   0  0  0  0  0
  -32.4476    0.4101   63.1853 H   0  0  0  0  0
  -32.0766    0.2681   61.4494 H   0  0  0  0  0
  -38.3392    2.7363   61.1027 H   0  0  0  0  0
  -36.9579    2.5616   64.0702 H   0  0  0  0  0
  -33.4846    2.8106   63.4139 H   0  0  0  0  0
  -35.1410   -2.0157   72.8589 H   0  0  0  0  0
  -36.6575   -0.7061   70.6118 H   0  0  0  0  0
  -36.3505   -3.7503   71.1888 H   0  0  0  0  0
  -38.7285   -2.0534   71.2786 H   0  0  0  0  0
  -39.7360   -3.9979   71.1848 H   0  0  0  0  0
  -39.2424   -4.1467   72.9277 H   0  0  0  0  0
  -37.6627   -0.3764   72.7283 H   0  0  0  0  0
  -37.9182   -0.8607   74.9065 H   0  0  0  0  0
  -34.9315    0.2037   73.4580 H   0  0  0  0  0
  -35.1249   -1.7509   69.2512 H   0  0  0  0  0
  -38.7268   -6.0031   71.6755 H   0  0  0  0  0
  2  1  1  0  0  0
  1 13  1  0  0  0
  1 14  2  0  0  0
  2  3  1  0  0  0
  2 16  1  0  0  0
 28  2  1  0  0  0
  3  4  1  0  0  0
  4  5  1  0  0  0
  4 15  1  0  0  0
  6  5  1  0  0  0
  5 12  1  0  0  0
  6  7  1  0  0  0
 16  6  1  0  0  0
  7  8  1  0  0  0
  7 17  1  0  0  0
  8  9  1  0  0  0
  8 18  1  0  0  0
  9 19  1  0  0  0
 10 11  1  0  0  0
 12 10  1  0  0  0
 10 20  2  0  0  0
 21 22  1  0  0  0
 21 30  1  0  0  0
 76 21  1  0  0  0
 22 23  1  0  0  0
 22 27  1  0  0  0
 23 24  1  0  0  0
 23 28  1  0  0  0
 25 24  1  0  0  0
 24 29  1  0  0  0
 25 26  1  0  0  0
 30 25  1  0  0  0
 26 31  1  0  0  0
 29 32  1  0  0  0
 32 33  1  0  0  0
 32 43  1  0  0  0
 33 34  1  0  0  0
 33 40  1  0  0  0
 34 35  1  0  0  0
 34 41  1  0  0  0
 36 35  1  0  0  0
 35 42  1  0  0  0
 36 37  1  0  0  0
 43 36  1  0  0  0
 37 44  1  0  0  0
 38 39  1  0  0  0
 40 38  1  0  0  0
 38 45  2  0  0  0
 41 46  1  0  0  0
 46 47  1  0  0  0
 46 55  1  0  0  0
 47 48  1  0  0  0
 47 52  1  0  0  0
 48 49  1  0  0  0
 48 53  1  0  0  0
 50 49  1  0  0  0
 49 54  1  0  0  0
 50 51  1  0  0  0
 55 50  1  0  0  0
 51 56  1  0  0  0
 52 57  1  0  0  0
 57 58  1  0  0  0
 57 66  1  0  0  0
 58 59  1  0  0  0
 58 63  1  0  0  0
 59 60  1  0  0  0
 59 64  1  0  0  0
 61 60  1  0  0  0
 60 65  1  0  0  0
 61 62  1  0  0  0
 66 61  1  0  0  0
 68 67  1  0  0  0
 67 72  1  0  0  0
 67 74  1  0  0  0
 69 68  1  0  0  0
 68 75  1  0  0  0
 69 70  1  0  0  0
 69 76  1  0  0  0
 70 71  1  0  0  0
 70 77  1  0  0  0
 71 78  1  0  0  0
 72 73  1  0  0  0
 72 77  1  0  0  0
  3 79  1  0  0  0
  3 80  1  0  0  0
  4 81  1  0  0  0
  5 82  1  0  0  0
  6 83  1  0  0  0
  7 84  1  0  0  0
  8 85  1  0  0  0
  9 86  1  0  0  0
  9 87  1  0  0  0
 11 88  1  0  0  0
 11 89  1  0  0  0
 11 90  1  0  0  0
 12 91  1  0  0  0
 13 92  1  0  0  0
 15 93  1  0  0  0
 17 94  1  0  0  0
 18 95  1  0  0  0
 19 96  1  0  0  0
 21 97  1  0  0  0
 22 98  1  0  0  0
 23 99  1  0  0  0
 24100  1  0  0  0
 25101  1  0  0  0
 26102  1  0  0  0
 26103  1  0  0  0
 27104  1  0  0  0
 31105  1  0  0  0
 32106  1  0  0  0
 33107  1  0  0  0
 34108  1  0  0  0
 35109  1  0  0  0
 36110  1  0  0  0
 37111  1  0  0  0
 37112  1  0  0  0
 39113  1  0  0  0
 39114  1  0  0  0
 39115  1  0  0  0
 40116  1  0  0  0
 42117  1  0  0  0
 44118  1  0  0  0
 46119  1  0  0  0
 47120  1  0  0  0
 48121  1  0  0  0
 49122  1  0  0  0
 50123  1  0  0  0
 51124  1  0  0  0
 51125  1  0  0  0
 53126  1  0  0  0
 54127  1  0  0  0
 56128  1  0  0  0
 57129  1  0  0  0
 58130  1  0  0  0
 59131  1  0  0  0
 60132  1  0  0  0
 61133  1  0  0  0
 62134  1  0  0  0
 62135  1  0  0  0
 62136  1  0  0  0
 63137  1  0  0  0
 64138  1  0  0  0
 65139  1  0  0  0
 67140  1  0  0  0
 68141  1  0  0  0
 69142  1  0  0  0
 70143  1  0  0  0
 71144  1  0  0  0
 71145  1  0  0  0
 72146  1  0  0  0
 73147  1  0  0  0
 74148  1  0  0  0
 75149  1  0  0  0
 78150  1  0  0  0
M  END
$$$$
