### 
### Created by X-TOOL on Mon Aug  2 16:13:54 2021
### 

@<TRIPOS>MOLECULE
6hmy_ligand
  149   154     1     0     0
SMALL
GAST_HUCK


@<TRIPOS>ATOM
      1 C1        -39.3830   -5.0070   63.3510 C.2       1 SIA         0.1041
      2 C2        -38.9840   -5.7010   64.6680 C.3       1 SIA         0.2208
      3 C3        -40.1590   -6.1500   65.5370 C.3       1 SIA         0.0353
      4 C4        -40.8620   -7.3840   64.9840 C.3       1 SIA         0.0850
      5 C5        -39.8660   -8.4510   64.5650 C.3       1 SIA         0.0964
      6 C6        -38.7390   -7.8610   63.7110 C.3       1 SIA         0.1143
      7 C7        -37.6310   -8.8170   63.3030 C.3       1 SIA         0.1114
      8 C8        -36.3910   -8.1130   62.7080 C.3       1 SIA         0.1065
      9 C9        -35.4040   -9.0750   62.0930 C.3       1 SIA         0.0727
     10 C10       -40.2940  -10.7450   63.8100 C.2       1 SIA         0.1733
     11 C11       -41.1720  -11.6100   62.9520 C.3       1 SIA         0.0257
     12 N5        -40.6390   -9.4690   63.8650 N.am      1 SIA        -0.2790
     13 O1A       -38.5510   -4.8710   62.4210 O.co2     1 SIA        -0.5426
     14 O1B       -40.5640   -4.6290   63.2160 O.co2     1 SIA        -0.5426
     15 O4        -41.7360   -7.9340   65.9840 O.3       1 SIA        -0.3893
     16 O6        -38.1060   -6.8200   64.4900 O.3       1 SIA        -0.3384
     17 O7        -37.1700   -9.6040   64.4150 O.3       1 SIA        -0.3865
     18 O8        -36.7340   -7.1520   61.7080 O.3       1 SIA        -0.3869
     19 O9        -34.1480   -8.4310   61.8850 O.3       1 SIA        -0.3924
     20 O10       -39.3440  -11.2010   64.4440 O.2       1 SIA        -0.3974
     21 C1        -36.8290   -3.8800   68.6060 C.3       1 SIA         0.1884
     22 C2        -37.7020   -3.7270   67.3840 C.3       1 SIA         0.1344
     23 C3        -37.4500   -4.9340   66.4600 C.3       1 SIA         0.1200
     24 C4        -35.9710   -5.0790   66.1290 C.3       1 SIA         0.1186
     25 C5        -35.1890   -5.1460   67.4190 C.3       1 SIA         0.1134
     26 C6        -33.7180   -5.2390   67.2010 C.3       1 SIA         0.0730
     27 O2        -39.0730   -3.6800   67.7590 O.3       1 SIA        -0.3841
     28 O3        -38.2060   -4.6690   65.3040 O.3       1 SIA        -0.3380
     29 O4        -35.5280   -3.9670   65.3250 O.3       1 SIA        -0.3404
     30 O5        -35.4650   -3.9370   68.2010 O.3       1 SIA        -0.3405
     31 O6        -33.0510   -5.0720   68.4590 O.3       1 SIA        -0.3924
     32 C1        -35.1410   -4.2610   64.0170 C.3       1 SIA         0.1854
     33 C2        -35.2610   -3.0390   63.1370 C.3       1 SIA         0.1213
     34 C3        -34.7680   -3.3460   61.7210 C.3       1 SIA         0.1176
     35 C4        -33.3490   -3.9030   61.7560 C.3       1 SIA         0.1120
     36 C5        -33.3590   -5.0980   62.7000 C.3       1 SIA         0.1130
     37 C6        -32.0130   -5.7180   62.9240 C.3       1 SIA         0.0730
     38 C7        -37.1440   -1.6380   63.8780 C.2       1 SIA         0.1733
     39 C8        -38.6340   -1.5270   63.8700 C.3       1 SIA         0.0257
     40 N2        -36.6300   -2.6070   63.1220 N.am      1 SIA        -0.2766
     41 O3        -34.8730   -2.1350   60.9500 O.3       1 SIA        -0.3403
     42 O4        -32.4200   -2.9520   62.2570 O.3       1 SIA        -0.3865
     43 O5        -33.8290   -4.7070   64.0050 O.3       1 SIA        -0.3408
     44 O6        -32.2090   -6.9330   63.6980 O.3       1 SIA        -0.3924
     45 O7        -36.4520   -0.8980   64.5580 O.2       1 SIA        -0.3974
     46 C1        -35.5510   -2.2280   59.7260 C.3       1 SIA         0.1888
     47 C2        -35.5990   -0.8820   59.0340 C.3       1 SIA         0.1406
     48 C3        -36.4540   -1.0350   57.7730 C.3       1 SIA         0.1144
     49 C4        -35.8710   -2.1180   56.8510 C.3       1 SIA         0.1119
     50 C5        -35.7070   -3.4240   57.6610 C.3       1 SIA         0.1130
     51 C6        -35.0100   -4.5230   56.9030 C.3       1 SIA         0.0730
     52 O2        -36.1910    0.0610   59.9440 O.3       1 SIA        -0.3378
     53 O3        -36.5510    0.2390   57.1440 O.3       1 SIA        -0.3864
     54 O4        -34.6090   -1.6720   56.3500 O.3       1 SIA        -0.3865
     55 O5        -34.9020   -3.1540   58.8490 O.3       1 SIA        -0.3405
     56 O6        -35.0640   -5.7420   57.5890 O.3       1 SIA        -0.3924
     57 C1        -35.5800    1.3520   60.0350 C.3       1 SIA         0.1884
     58 C2        -36.4460    2.2150   60.9430 C.3       1 SIA         0.1341
     59 C3        -36.3630    1.7590   62.3790 C.3       1 SIA         0.1140
     60 C4        -34.9430    1.5920   62.8810 C.3       1 SIA         0.1095
     61 C5        -34.0990    0.8130   61.8860 C.3       1 SIA         0.0873
     62 C6        -32.6180    0.8440   62.2000 C.3       1 SIA        -0.0361
     63 O2        -37.8120    2.1870   60.5180 O.3       1 SIA        -0.3841
     64 O3        -36.9790    2.7940   63.1390 O.3       1 SIA        -0.3864
     65 O4        -34.3860    2.8970   63.0950 O.3       1 SIA        -0.3866
     66 O5        -34.2300    1.3550   60.5490 O.3       1 SIA        -0.3431
     67 C2        -35.7750   -1.2370   72.4350 C.3       1 SIA         0.1339
     68 C3        -36.0570   -1.5330   70.9910 C.3       1 SIA         0.1144
     69 C4        -36.8480   -2.8340   70.8710 C.3       1 SIA         0.1184
     70 C5        -38.0960   -2.7920   71.7710 C.3       1 SIA         0.1134
     71 C6        -38.9100   -4.0630   71.8930 C.3       1 SIA         0.0730
     72 C1        -37.1000   -1.1820   73.2000 C.3       1 SIA         0.1854
     73 O1        -37.0330   -0.8650   74.5350 O.3       1 SIA        -0.3649
     74 O2        -35.1130    0.0120   72.5350 O.3       1 SIA        -0.3841
     75 O3        -34.8730   -1.5570   70.1570 O.3       1 SIA        -0.3864
     76 O4        -37.1380   -2.7890   69.4610 O.3       1 SIA        -0.3401
     77 O5        -37.6920   -2.4720   73.1220 O.3       1 SIA        -0.3407
     78 O6        -38.1640   -5.2310   71.5820 O.3       1 SIA        -0.3924
     79 H1        -40.8870   -5.3275   65.5967 H         1 SIA         0.0336
     80 H2        -39.7833   -6.3811   66.5447 H         1 SIA         0.0336
     81 H3        -41.4562   -7.0878   64.1070 H         1 SIA         0.0618
     82 H4        -39.4129   -8.8987   65.4618 H         1 SIA         0.0608
     83 H5        -39.1851   -7.4366   62.7995 H         1 SIA         0.0646
     84 H6        -38.0446   -9.4926   62.5398 H         1 SIA         0.0647
     85 H7        -35.8886   -7.5873   63.5333 H         1 SIA         0.0643
     86 H8        -35.7950   -9.4280   61.1273 H         1 SIA         0.0584
     87 H9        -35.2646   -9.9325   62.7677 H         1 SIA         0.0584
     88 H10       -40.8011  -12.6453   62.9745 H         1 SIA         0.0467
     89 H11       -41.1555  -11.2371   61.9173 H         1 SIA         0.0467
     90 H12       -42.2025  -11.5813   63.3357 H         1 SIA         0.0467
     91 H13       -41.4780   -9.1869   63.3997 H         1 SIA         0.1856
     92 H14       -42.3634   -7.2731   66.2527 H         1 SIA         0.2099
     93 H15       -37.9072  -10.0548   64.8097 H         1 SIA         0.2100
     94 H16       -37.1224   -7.5962   60.9635 H         1 SIA         0.2100
     95 H17       -34.2657   -7.6911   61.3008 H         1 SIA         0.2095
     96 H18       -37.0745   -4.8181   69.1254 H         1 SIA         0.0938
     97 H19       -37.4391   -2.7976   66.8577 H         1 SIA         0.0671
     98 H20       -37.8011   -5.8594   66.9400 H         1 SIA         0.0650
     99 H21       -35.8159   -6.0101   65.5642 H         1 SIA         0.0651
    100 H22       -35.5180   -6.0312   67.9831 H         1 SIA         0.0647
    101 H23       -33.3971   -4.4497   66.5053 H         1 SIA         0.0584
    102 H24       -33.4687   -6.2236   66.7787 H         1 SIA         0.0584
    103 H25       -39.2191   -2.9335   68.3281 H         1 SIA         0.2101
    104 H26       -33.2694   -4.2215   68.8215 H         1 SIA         0.2095
    105 H27       -35.7949   -5.0522   63.6216 H         1 SIA         0.0935
    106 H28       -34.6393   -2.2345   63.5569 H         1 SIA         0.0633
    107 H29       -35.4217   -4.1071   61.2701 H         1 SIA         0.0649
    108 H30       -33.0474   -4.2140   60.7449 H         1 SIA         0.0647
    109 H31       -34.0335   -5.8570   62.2771 H         1 SIA         0.0647
    110 H32       -31.3671   -5.0211   63.4781 H         1 SIA         0.0584
    111 H33       -31.5468   -5.9606   61.9577 H         1 SIA         0.0584
    112 H34       -38.9435   -0.6989   64.5246 H         1 SIA         0.0467
    113 H35       -39.0737   -2.4669   64.2350 H         1 SIA         0.0467
    114 H36       -38.9818   -1.3334   62.8446 H         1 SIA         0.0467
    115 H37       -37.2501   -3.0728   62.4908 H         1 SIA         0.1857
    116 H38       -32.6856   -2.6797   63.1275 H         1 SIA         0.2100
    117 H39       -32.7709   -7.5276   63.2151 H         1 SIA         0.2095
    118 H40       -36.5777   -2.5724   59.9188 H         1 SIA         0.0938
    119 H41       -34.5855   -0.5526   58.7613 H         1 SIA         0.0675
    120 H42       -37.4652   -1.3524   58.0674 H         1 SIA         0.0648
    121 H43       -36.5550   -2.2952   56.0080 H         1 SIA         0.0647
    122 H44       -36.7056   -3.7755   57.9596 H         1 SIA         0.0647
    123 H45       -33.9563   -4.2426   56.7576 H         1 SIA         0.0584
    124 H46       -35.4959   -4.6437   55.9236 H         1 SIA         0.0584
    125 H47       -36.9159    0.8666   57.7569 H         1 SIA         0.2100
    126 H48       -34.2400   -2.3402   55.7845 H         1 SIA         0.2100
    127 H49       -34.6413   -5.6473   58.4345 H         1 SIA         0.2095
    128 H50       -35.5588    1.7908   59.0265 H         1 SIA         0.0938
    129 H51       -36.0805    3.2508   60.8837 H         1 SIA         0.0671
    130 H52       -36.9040    0.8088   62.4991 H         1 SIA         0.0648
    131 H53       -34.9599    1.0438   63.8345 H         1 SIA         0.0646
    132 H54       -34.4447   -0.2312   61.8930 H         1 SIA         0.0621
    133 H55       -32.0705    0.2631   61.4432 H         1 SIA         0.0255
    134 H56       -32.4447    0.4063   63.1942 H         1 SIA         0.0255
    135 H57       -32.2629    1.8850   62.1907 H         1 SIA         0.0255
    136 H58       -38.1472    1.3011   60.5914 H         1 SIA         0.2101
    137 H59       -36.4926    3.6020   63.0243 H         1 SIA         0.2100
    138 H60       -34.9236    3.3712   63.7183 H         1 SIA         0.2100
    139 H61       -35.1369   -2.0269   72.8579 H         1 SIA         0.0671
    140 H62       -36.6952   -0.7205   70.6135 H         1 SIA         0.0648
    141 H63       -36.2430   -3.7153   71.1303 H         1 SIA         0.0651
    142 H64       -38.7543   -2.0013   71.3819 H         1 SIA         0.0647
    143 H65       -39.7651   -3.9993   71.2040 H         1 SIA         0.0584
    144 H66       -39.2773   -4.1464   72.9265 H         1 SIA         0.0584
    145 H67       -37.7454   -0.4414   72.7051 H         1 SIA         0.0935
    146 H68       -36.5024   -1.5109   74.9865 H         1 SIA         0.2126
    147 H69       -34.2918   -0.0271   72.0590 H         1 SIA         0.2101
    148 H70       -35.1286   -1.6729   69.2494 H         1 SIA         0.2100
    149 H71       -38.7209   -5.9950   71.6745 H         1 SIA         0.2095
@<TRIPOS>BOND
     1    2    1 1  
     2    1   13 ar 
     3    1   14 ar 
     4    2    3 1  
     5    2   16 1  
     6   28    2 1  
     7    3    4 1  
     8    4    5 1  
     9    4   15 1  
    10    6    5 1  
    11    5   12 1  
    12    6    7 1  
    13   16    6 1  
    14    7    8 1  
    15    7   17 1  
    16    8    9 1  
    17    8   18 1  
    18    9   19 1  
    19   10   11 1  
    20   12   10 am 
    21   10   20 2  
    22   21   22 1  
    23   21   30 1  
    24   76   21 1  
    25   22   23 1  
    26   22   27 1  
    27   23   24 1  
    28   23   28 1  
    29   25   24 1  
    30   24   29 1  
    31   25   26 1  
    32   30   25 1  
    33   26   31 1  
    34   29   32 1  
    35   32   33 1  
    36   32   43 1  
    37   33   34 1  
    38   33   40 1  
    39   34   35 1  
    40   34   41 1  
    41   36   35 1  
    42   35   42 1  
    43   36   37 1  
    44   43   36 1  
    45   37   44 1  
    46   38   39 1  
    47   40   38 am 
    48   38   45 2  
    49   41   46 1  
    50   46   47 1  
    51   46   55 1  
    52   47   48 1  
    53   47   52 1  
    54   48   49 1  
    55   48   53 1  
    56   50   49 1  
    57   49   54 1  
    58   50   51 1  
    59   55   50 1  
    60   51   56 1  
    61   52   57 1  
    62   57   58 1  
    63   57   66 1  
    64   58   59 1  
    65   58   63 1  
    66   59   60 1  
    67   59   64 1  
    68   61   60 1  
    69   60   65 1  
    70   61   62 1  
    71   66   61 1  
    72   68   67 1  
    73   67   72 1  
    74   67   74 1  
    75   69   68 1  
    76   68   75 1  
    77   69   70 1  
    78   69   76 1  
    79   70   71 1  
    80   70   77 1  
    81   71   78 1  
    82   72   73 1  
    83   72   77 1  
    84    3   79 1  
    85    3   80 1  
    86    4   81 1  
    87    5   82 1  
    88    6   83 1  
    89    7   84 1  
    90    8   85 1  
    91    9   86 1  
    92    9   87 1  
    93   11   88 1  
    94   11   89 1  
    95   11   90 1  
    96   12   91 1  
    97   15   92 1  
    98   17   93 1  
    99   18   94 1  
   100   19   95 1  
   101   21   96 1  
   102   22   97 1  
   103   23   98 1  
   104   24   99 1  
   105   25  100 1  
   106   26  101 1  
   107   26  102 1  
   108   27  103 1  
   109   31  104 1  
   110   32  105 1  
   111   33  106 1  
   112   34  107 1  
   113   35  108 1  
   114   36  109 1  
   115   37  110 1  
   116   37  111 1  
   117   39  112 1  
   118   39  113 1  
   119   39  114 1  
   120   40  115 1  
   121   42  116 1  
   122   44  117 1  
   123   46  118 1  
   124   47  119 1  
   125   48  120 1  
   126   49  121 1  
   127   50  122 1  
   128   51  123 1  
   129   51  124 1  
   130   53  125 1  
   131   54  126 1  
   132   56  127 1  
   133   57  128 1  
   134   58  129 1  
   135   59  130 1  
   136   60  131 1  
   137   61  132 1  
   138   62  133 1  
   139   62  134 1  
   140   62  135 1  
   141   63  136 1  
   142   64  137 1  
   143   65  138 1  
   144   67  139 1  
   145   68  140 1  
   146   69  141 1  
   147   70  142 1  
   148   71  143 1  
   149   71  144 1  
   150   72  145 1  
   151   73  146 1  
   152   74  147 1  
   153   75  148 1  
   154   78  149 1  
@<TRIPOS>SUBSTRUCTURE
     1 SIA         1

