2w5g_ligand
  -I-interpret- 

 47 49  0  0  0  0  0  0  0  0999 V2000
   37.4210   -2.8850   22.9320 P   0  0  0  0  0
   38.0700   -1.5240   23.0400 O   0  0  0  0  0
   37.7740   -3.6740   21.6910 O   0  0  0  0  0
   35.9250   -2.8360   23.0740 O   0  0  0  0  0
   39.7030   -4.1740   24.0130 P   0  0  0  0  0
   40.1130   -4.7190   25.3530 O   0  0  0  0  0
   39.9120   -5.0210   22.7740 O   0  0  0  0  0
   38.1300   -3.7590   24.0800 O   0  0  0  0  0
   41.7360   -2.5750   22.7930 P   0  0  0  0  0
   42.6040   -1.4480   23.2890 O   0  0  0  0  0
   42.3900   -3.9030   22.4850 O   0  0  0  0  0
   40.5120   -2.7850   23.8390 O   0  0  0  0  0
   40.9420   -2.0460   21.4860 O   0  0  0  0  0
   41.3420   -2.3830   20.1620 C   0  0  0  0  0
   40.6350   -3.6700   19.7670 C   0  0  0  0  0
   39.4770   -3.4110   18.9720 O   0  0  0  0  0
   41.5420   -4.5600   18.9440 C   0  0  0  0  0
   41.4770   -5.8580   19.5380 O   0  0  0  0  0
   40.9150   -4.5720   17.5620 C   0  0  0  0  0
   41.1310   -5.8150   16.8730 O   0  0  0  0  0
   39.4370   -4.2910   17.8490 C   0  0  0  0  0
   38.7580   -3.6360   16.6930 N   0  0  0  0  0
   38.9490   -2.3520   16.3140 C   0  0  0  0  0
   38.1950   -2.0240   15.2510 N   0  0  0  0  0
   37.4930   -3.1370   14.9440 C   0  0  0  0  0
   36.5190   -3.4920   13.9330 C   0  0  0  0  0
   36.1830   -2.5580   13.0190 N   0  0  0  0  0
   36.0040   -4.7730   13.9580 N   0  0  0  0  0
   36.3760   -5.6940   14.8650 C   0  0  0  0  0
   37.2780   -5.4330   15.8320 N   0  0  0  0  0
   37.8620   -4.1950   15.8970 C   0  0  0  0  0
   39.0206   -1.6154   22.9424 H   0  0  0  0  0
   38.7286   -3.7083   21.5957 H   0  0  0  0  0
   39.6031   -4.5398   22.0029 H   0  0  0  0  0
   41.7237   -4.5236   22.1808 H   0  0  0  0  0
   42.4225   -2.5202   20.1198 H   0  0  0  0  0
   41.0746   -1.5813   19.4736 H   0  0  0  0  0
   40.3538   -4.1583   20.7000 H   0  0  0  0  0
   42.5820   -4.2371   18.8961 H   0  0  0  0  0
   42.0398   -6.4617   19.0476 H   0  0  0  0  0
   41.3533   -3.8371   16.8867 H   0  0  0  0  0
   40.7181   -5.7756   16.0072 H   0  0  0  0  0
   38.8729   -5.2054   18.0328 H   0  0  0  0  0
   39.6332   -1.6647   16.8116 H   0  0  0  0  0
   36.6121   -1.6333   13.0533 H   0  0  0  0  0
   35.4999   -2.7767   12.2938 H   0  0  0  0  0
   35.9316   -6.6881   14.8162 H   0  0  0  0  0
  1  2  1  0  0  0
  1  3  1  0  0  0
  1  4  2  0  0  0
  8  1  1  0  0  0
  5  6  2  0  0  0
  5  7  1  0  0  0
  5  8  1  0  0  0
 12  5  1  0  0  0
  9 10  2  0  0  0
  9 11  1  0  0  0
  9 12  1  0  0  0
  9 13  1  0  0  0
 13 14  1  0  0  0
 14 15  1  0  0  0
 15 16  1  0  0  0
 15 17  1  0  0  0
 16 21  1  0  0  0
 17 18  1  0  0  0
 17 19  1  0  0  0
 19 20  1  0  0  0
 19 21  1  0  0  0
 21 22  1  0  0  0
 22 23  4  0  0  0
 22 31  4  0  0  0
 23 24  4  0  0  0
 24 25  4  0  0  0
 25 26  4  0  0  0
 25 31  4  0  0  0
 26 27  1  0  0  0
 26 28  4  0  0  0
 28 29  4  0  0  0
 29 30  4  0  0  0
 30 31  4  0  0  0
  2 32  1  0  0  0
  3 33  1  0  0  0
  7 34  1  0  0  0
 11 35  1  0  0  0
 14 36  1  0  0  0
 14 37  1  0  0  0
 15 38  1  0  0  0
 17 39  1  0  0  0
 18 40  1  0  0  0
 19 41  1  0  0  0
 20 42  1  0  0  0
 21 43  1  0  0  0
 23 44  1  0  0  0
 27 45  1  0  0  0
 27 46  1  0  0  0
 29 47  1  0  0  0
M  END
$$$$
