2ceo_ligand
  -I-interpret- 

 36 37  0  0  0  0  0  0  0  0999 V2000
   20.3330    1.9610  -20.5440 C   0  0  0  0  0
   20.9890    1.3890  -21.6470 C   0  0  0  0  0
   20.7500    1.8190  -22.9490 C   0  0  0  0  0
   19.7690    2.9010  -23.1510 C   0  0  0  0  0
   19.1010    3.4670  -21.9690 C   0  0  0  0  0
   19.3940    2.9850  -20.6950 C   0  0  0  0  0
   20.6310    1.4450  -19.1540 C   0  0  0  0  0
   21.8870    2.0740  -18.5500 C   0  0  0  0  0
   23.0810    1.9650  -19.4750 C   0  0  0  0  0
   20.2890    4.3070  -25.0200 C   0  0  0  0  0
   21.1700    5.1000  -24.2770 C   0  0  0  0  0
   22.0030    6.0320  -24.8920 C   0  0  0  0  0
   21.9570    6.1870  -26.3600 C   0  0  0  0  0
   21.0140    5.3290  -27.0940 C   0  0  0  0  0
   20.2150    4.4180  -26.4110 C   0  0  0  0  0
   21.6080    3.4510  -18.1730 N   0  3  0  0  0
   19.4740    3.3900  -24.3960 O   0  0  0  0  0
   22.7470    7.0750  -27.0270 O   0  0  0  0  0
   23.6410    3.0070  -19.8850 O   0  0  0  0  0
   23.4890    0.8260  -19.8030 O   0  0  0  0  0
   21.7160    0.9900  -24.6080 I   0  0  0  0  0
   23.3190    7.2120  -23.7890 I   0  0  0  0  0
   17.7410    4.9890  -22.3520 I   0  0  0  0  0
   20.9320    5.5350  -29.1550 I   0  0  0  0  0
   21.7057    0.5853  -21.4782 H   0  0  0  0  0
   18.8941    3.4039  -19.8217 H   0  0  0  0  0
   20.7946    0.3696  -19.2234 H   0  0  0  0  0
   19.7868    1.7001  -18.5134 H   0  0  0  0  0
   22.1571    1.5173  -17.6527 H   0  0  0  0  0
   21.2054    4.9862  -23.1935 H   0  0  0  0  0
   19.5239    3.7841  -26.9666 H   0  0  0  0  0
   22.4470    3.8687  -17.7704 H   0  0  0  0  0
   21.3274    3.9784  -18.9997 H   0  0  0  0  0
   20.8547    3.4681  -17.4855 H   0  0  0  0  0
   22.5645    7.0201  -27.9679 H   0  0  0  0  0
   22.9351    0.1583  -19.3919 H   0  0  0  0  0
  2  1  4  0  0  0
  6  1  4  0  0  0
  1  7  1  0  0  0
  3  2  4  0  0  0
  4  3  4  0  0  0
  3 21  1  0  0  0
  4  5  4  0  0  0
 17  4  1  0  0  0
  5  6  4  0  0  0
  5 23  1  0  0  0
  7  8  1  0  0  0
  8  9  1  0  0  0
  8 16  1  0  0  0
  9 19  2  0  0  0
  9 20  1  0  0  0
 10 11  4  0  0  0
 10 15  4  0  0  0
 10 17  1  0  0  0
 11 12  4  0  0  0
 12 13  4  0  0  0
 12 22  1  0  0  0
 13 14  4  0  0  0
 13 18  1  0  0  0
 14 15  4  0  0  0
 14 24  1  0  0  0
  2 25  1  0  0  0
  6 26  1  0  0  0
  7 27  1  0  0  0
  7 28  1  0  0  0
  8 29  1  0  0  0
 11 30  1  0  0  0
 15 31  1  0  0  0
 16 32  1  0  0  0
 16 33  1  0  0  0
 16 34  1  0  0  0
 18 35  1  0  0  0
 20 36  1  0  0  0
M  END
$$$$
