2b2v_ligand
  -I-interpret- 

107106  0  0  0  0  0  0  0  0999 V2000
  -36.0120   -1.8120   -8.4380 N   0  3  0  0  0
  -36.0570   -3.0380   -7.6010 C   0  0  0  0  0
  -34.7090   -3.6760   -7.7110 C   0  0  0  0  0
  -33.8850   -3.2020   -8.4600 O   0  0  0  0  0
  -37.1500   -3.9930   -8.0890 C   0  0  0  0  0
  -34.4820   -4.7480   -6.9700 N   0  0  0  0  0
  -33.2020   -5.4780   -7.0020 C   0  0  0  0  0
  -31.9850   -4.6000   -6.7000 C   0  0  0  0  0
  -31.5070   -3.8640   -7.5760 O   0  0  0  0  0
  -33.0130   -6.1860   -8.3490 C   0  0  0  0  0
  -34.0420   -5.8010   -9.3920 C   0  0  0  0  0
  -33.4540   -5.7490  -10.7710 C   0  0  0  0  0
  -32.6960   -6.9590  -11.1100 N   0  0  0  0  0
  -31.4480   -6.9750  -11.5900 C   0  0  0  0  0
  -30.8680   -8.1310  -11.8700 N   0  0  0  0  0
  -30.7930   -5.8420  -11.7650 N   0  0  0  0  0
  -31.5180   -4.6400   -5.4410 N   0  0  0  0  0
  -30.2160   -4.0650   -5.1220 C   0  0  0  0  0
  -29.3710   -5.1960   -4.5650 C   0  0  0  0  0
  -29.8050   -6.3440   -4.5280 O   0  0  0  0  0
  -30.2940   -2.9690   -4.0610 C   0  0  0  0  0
  -30.6260   -3.5570   -2.8050 O   0  0  0  0  0
  -31.3310   -1.9570   -4.4000 C   0  0  0  0  0
  -28.1670   -4.8790   -4.1190 N   0  0  0  0  0
  -27.3550   -5.8600   -3.4310 C   0  0  0  0  0
  -25.9200   -5.8180   -3.9510 C   0  0  0  0  0
  -25.8870   -6.3590   -5.3770 C   0  0  0  0  0
  -24.6020   -6.0470   -6.1520 C   0  0  0  0  0
  -24.3610   -7.1280   -7.2120 C   0  0  0  0  0
  -24.5850   -8.4790   -6.6960 N   0  3  0  0  0
  -24.4510   -9.6480   -7.5440 C   0  0  0  0  0
  -27.4680   -5.6160   -1.9530 C   0  0  0  0  0
  -26.7340   -6.1870   -1.1600 O   0  0  0  0  0
  -28.4200   -4.7700   -1.5710 N   0  0  0  0  0
  -28.5580   -4.3360   -0.1800 C   0  0  0  0  0
  -28.8180   -5.5400    0.7380 C   0  0  0  0  0
  -29.8950   -5.7110    1.3160 O   0  0  0  0  0
  -29.6360   -3.2410   -0.0450 C   0  0  0  0  0
  -29.6230   -2.4750    1.2870 C   0  0  0  0  0
  -28.3810   -1.5950    1.4900 C   0  0  0  0  0
  -28.1650   -0.6130    0.7630 O   0  0  0  0  0
  -27.5780   -1.9350    2.5060 N   0  0  0  0  0
  -27.7990   -6.3870    0.8180 N   0  0  0  0  0
  -27.6450   -7.3870    1.8710 C   0  0  0  0  0
  -28.0270   -6.7900    3.2510 C   0  0  0  0  0
  -28.4400   -7.4890    4.1890 O   0  0  0  0  0
  -26.1510   -7.8600    1.8860 C   0  0  0  0  0
  -26.0480   -9.2270    2.2850 O   0  0  0  0  0
  -25.3050   -6.9900    2.8170 C   0  0  0  0  0
  -27.9071   -5.4783    3.4356 O   0  0  0  0  0
  -36.9147   -1.3390   -8.3949 H   0  0  0  0  0
  -35.2836   -1.1895   -8.0882 H   0  0  0  0  0
  -35.8069   -2.0684   -9.4037 H   0  0  0  0  0
  -36.2932   -2.7944   -6.5652 H   0  0  0  0  0
  -36.9661   -4.2511   -9.1319 H   0  0  0  0  0
  -37.1376   -4.8981   -7.4817 H   0  0  0  0  0
  -38.1216   -3.5072   -7.9995 H   0  0  0  0  0
  -35.2216   -5.0825   -6.3524 H   0  0  0  0  0
  -33.2625   -6.2152   -6.2014 H   0  0  0  0  0
  -33.1158   -7.2564   -8.1707 H   0  0  0  0  0
  -32.0355   -5.8959   -8.7343 H   0  0  0  0  0
  -34.4212   -4.8091   -9.1461 H   0  0  0  0  0
  -34.8304   -6.5536   -9.3863 H   0  0  0  0  0
  -32.7683   -4.9027  -10.8105 H   0  0  0  0  0
  -34.2755   -5.6588  -11.4817 H   0  0  0  0  0
  -33.1570   -7.8578  -10.9685 H   0  0  0  0  0
  -29.9111   -8.1493  -12.2226 H   0  0  0  0  0
  -31.3779   -9.0038  -11.7332 H   0  0  0  0  0
  -31.2389   -4.9542  -11.5340 H   0  0  0  0  0
  -32.0759   -5.0740   -4.7056 H   0  0  0  0  0
  -29.8021   -3.6137   -6.0237 H   0  0  0  0  0
  -29.3246   -2.4727   -4.0150 H   0  0  0  0  0
  -30.6760   -2.8712   -2.1351 H   0  0  0  0  0
  -31.0875   -1.4957   -5.3571 H   0  0  0  0  0
  -32.3039   -2.4440   -4.4670 H   0  0  0  0  0
  -31.3585   -1.1927   -3.6234 H   0  0  0  0  0
  -27.8075   -3.9351   -4.2611 H   0  0  0  0  0
  -27.7091   -6.8721   -3.6269 H   0  0  0  0  0
  -25.2818   -6.4293   -3.3130 H   0  0  0  0  0
  -25.5574   -4.7901   -3.9413 H   0  0  0  0  0
  -26.7057   -5.8821   -5.9159 H   0  0  0  0  0
  -25.9585   -7.4443   -5.3059 H   0  0  0  0  0
  -23.7597   -6.0256   -5.4605 H   0  0  0  0  0
  -24.7018   -5.0780   -6.6410 H   0  0  0  0  0
  -23.3215   -7.0586   -7.5327 H   0  0  0  0  0
  -25.0623   -6.9597   -8.0293 H   0  0  0  0  0
  -25.5713   -8.4793   -6.4361 H   0  0  0  0  0
  -23.8490   -8.5982   -5.9999 H   0  0  0  0  0
  -25.1572   -9.5780   -8.3714 H   0  0  0  0  0
  -23.4348   -9.6970   -7.9352 H   0  0  0  0  0
  -24.6607  -10.5445   -6.9605 H   0  0  0  0  0
  -29.0735   -4.4129   -2.2680 H   0  0  0  0  0
  -27.6187   -3.8864    0.1420 H   0  0  0  0  0
  -30.6020   -3.7417   -0.1099 H   0  0  0  0  0
  -29.4410   -2.5099   -0.8296 H   0  0  0  0  0
  -29.6279   -3.2163    2.0861 H   0  0  0  0  0
  -30.4904   -1.8150    1.2887 H   0  0  0  0  0
  -26.7483   -1.3775    2.7089 H   0  0  0  0  0
  -27.7960   -2.7515    3.0771 H   0  0  0  0  0
  -27.0779   -6.3361    0.0984 H   0  0  0  0  0
  -28.3064   -8.2310    1.6753 H   0  0  0  0  0
  -25.7713   -7.7595    0.8692 H   0  0  0  0  0
  -25.1248   -9.4903    2.2856 H   0  0  0  0  0
  -25.3395   -5.9552    2.4762 H   0  0  0  0  0
  -25.7007   -7.0534    3.8306 H   0  0  0  0  0
  -24.2740   -7.3436    2.8053 H   0  0  0  0  0
  -27.5793   -5.0716    2.6302 H   0  0  0  0  0
  2  1  1  0  0  0
  2  5  1  0  0  0
  3  2  1  0  0  0
  3  4  2  0  0  0
  7  6  1  0  0  0
  7 10  1  0  0  0
  8  7  1  0  0  0
  8  9  2  0  0  0
 10 11  1  0  0  0
 11 12  1  0  0  0
 12 13  1  0  0  0
 13 14  1  0  0  0
 14 16  2  0  0  0
 14 15  1  0  0  0
  6  3  1  0  0  0
 18 17  1  0  0  0
 18 21  1  0  0  0
 19 18  1  0  0  0
 19 20  2  0  0  0
 21 23  1  0  0  0
 21 22  1  0  0  0
 17  8  1  0  0  0
 34 35  1  0  0  0
 35 38  1  0  0  0
 35 36  1  0  0  0
 36 37  2  0  0  0
 38 39  1  0  0  0
 39 40  1  0  0  0
 40 42  1  0  0  0
 40 41  2  0  0  0
 43 44  1  0  0  0
 44 47  1  0  0  0
 44 45  1  0  0  0
 45 46  2  0  0  0
 47 49  1  0  0  0
 47 48  1  0  0  0
 36 43  1  0  0  0
 25 24  1  0  0  0
 25 26  1  0  0  0
 32 25  1  0  0  0
 26 27  1  0  0  0
 27 28  1  0  0  0
 28 29  1  0  0  0
 29 30  1  0  0  0
 30 31  1  0  0  0
 32 33  2  0  0  0
 24 19  1  0  0  0
 32 34  1  0  0  0
 45 50  1  0  0  0
  1 51  1  0  0  0
  1 52  1  0  0  0
  1 53  1  0  0  0
  2 54  1  0  0  0
  5 55  1  0  0  0
  5 56  1  0  0  0
  5 57  1  0  0  0
  6 58  1  0  0  0
  7 59  1  0  0  0
 10 60  1  0  0  0
 10 61  1  0  0  0
 11 62  1  0  0  0
 11 63  1  0  0  0
 12 64  1  0  0  0
 12 65  1  0  0  0
 13 66  1  0  0  0
 15 67  1  0  0  0
 15 68  1  0  0  0
 16 69  1  0  0  0
 17 70  1  0  0  0
 18 71  1  0  0  0
 21 72  1  0  0  0
 22 73  1  0  0  0
 23 74  1  0  0  0
 23 75  1  0  0  0
 23 76  1  0  0  0
 24 77  1  0  0  0
 25 78  1  0  0  0
 26 79  1  0  0  0
 26 80  1  0  0  0
 27 81  1  0  0  0
 27 82  1  0  0  0
 28 83  1  0  0  0
 28 84  1  0  0  0
 29 85  1  0  0  0
 29 86  1  0  0  0
 30 87  1  0  0  0
 30 88  1  0  0  0
 31 89  1  0  0  0
 31 90  1  0  0  0
 31 91  1  0  0  0
 34 92  1  0  0  0
 35 93  1  0  0  0
 38 94  1  0  0  0
 38 95  1  0  0  0
 39 96  1  0  0  0
 39 97  1  0  0  0
 42 98  1  0  0  0
 42 99  1  0  0  0
 43100  1  0  0  0
 44101  1  0  0  0
 47102  1  0  0  0
 48103  1  0  0  0
 49104  1  0  0  0
 49105  1  0  0  0
 49106  1  0  0  0
 50107  1  0  0  0
M  END
$$$$
