### 
### Created by X-TOOL on Mon Sep 10 21:12:53 2018
### 

@<TRIPOS>MOLECULE
2b2v_ligand
  108   107     1     0     0
SMALL
GAST_HUCK


@<TRIPOS>ATOM
      1 N         -36.0120   -1.8120   -8.4380 N.4       1 ALA         0.2377
      2 CA        -36.0570   -3.0380   -7.6010 C.3       1 ALA         0.0621
      3 C         -34.7090   -3.6760   -7.7110 C.2       1 ALA         0.2264
      4 O         -33.8850   -3.2020   -8.4600 O.2       1 ALA        -0.3907
      5 CB        -37.1500   -3.9930   -8.0890 C.3       1 ALA        -0.0040
      6 N         -34.4820   -4.7480   -6.9700 N.am      1 ARG        -0.2610
      7 CA        -33.2020   -5.4780   -7.0020 C.3       1 ARG         0.1312
      8 C         -31.9850   -4.6000   -6.7000 C.2       1 ARG         0.2040
      9 O         -31.5070   -3.8640   -7.5760 O.2       1 ARG        -0.3944
     10 CB        -33.0130   -6.1860   -8.3490 C.3       1 ARG        -0.0092
     11 CG        -34.0420   -5.8010   -9.3920 C.3       1 ARG        -0.0156
     12 CD        -33.4540   -5.7490  -10.7710 C.3       1 ARG         0.0627
     13 NE        -32.6960   -6.9590  -11.1100 N.pl3     1 ARG        -0.2723
     14 CZ        -31.4480   -6.9750  -11.5900 C.cat     1 ARG         0.2882
     15 NH1       -30.8680   -8.1310  -11.8700 N.pl3     1 ARG        -0.2849
     16 NH2       -30.7930   -5.8420  -11.7650 N.pl3     1 ARG        -0.2849
     17 N         -31.5180   -4.6400   -5.4410 N.am      1 THR        -0.2613
     18 CA        -30.2160   -4.0650   -5.1220 C.3       1 THR         0.1565
     19 C         -29.3710   -5.1960   -4.5650 C.2       1 THR         0.2065
     20 O         -29.8050   -6.3440   -4.5280 O.2       1 THR        -0.3943
     21 CB        -30.2940   -2.9690   -4.0610 C.3       1 THR         0.0924
     22 OG1       -30.6260   -3.5570   -2.8050 O.3       1 THR        -0.3874
     23 CG2       -31.3310   -1.9570   -4.4000 C.3       1 THR        -0.0346
     24 N         -28.1670   -4.8790   -4.1190 N.am      1 MLZ        -0.2637
     25 CA        -27.3550   -5.8600   -3.4310 C.3       1 MLZ         0.1310
     26 CB        -25.9200   -5.8180   -3.9510 C.3       1 MLZ        -0.0122
     27 CG        -25.8870   -6.3590   -5.3770 C.3       1 MLZ        -0.0440
     28 CD        -24.6020   -6.0470   -6.1520 C.3       1 MLZ        -0.0124
     29 CE        -24.3610   -7.1280   -7.2120 C.3       1 MLZ        -0.0339
     30 NZ        -24.5850   -8.4790   -6.6960 N.4       1 MLZ         0.2248
     31 CM        -24.4510   -9.6480   -7.5440 C.3       1 MLZ        -0.0449
     32 C         -27.4680   -5.6160   -1.9530 C.2       1 MLZ         0.2039
     33 O         -26.7340   -6.1870   -1.1600 O.2       1 MLZ        -0.3944
     34 N         -28.4200   -4.7700   -1.5710 N.am      1 GLN        -0.2636
     35 CA        -28.5580   -4.3360   -0.1800 C.3       1 GLN         0.1330
     36 C         -28.8180   -5.5400    0.7380 C.2       1 GLN         0.2042
     37 O         -29.8950   -5.7110    1.3160 O.2       1 GLN        -0.3944
     38 CB        -29.6360   -3.2410   -0.0450 C.3       1 GLN         0.0045
     39 CG        -29.6230   -2.4750    1.2870 C.3       1 GLN         0.0412
     40 CD        -28.3810   -1.5950    1.4900 C.2       1 GLN         0.1737
     41 OE1       -28.1650   -0.6130    0.7630 O.2       1 GLN        -0.3973
     42 NE2       -27.5780   -1.9350    2.5060 N.am      1 GLN        -0.3009
     43 N         -27.7990   -6.3870    0.8180 N.am      1 THR        -0.2602
     44 CA        -27.6450   -7.3870    1.8710 C.3       1 THR         0.1677
     45 C         -28.0270   -6.7900    3.2510 C.2       1 THR         0.2597
     46 O         -28.4400   -7.4890    4.1890 O.2       1 THR        -0.3679
     47 CB        -26.1510   -7.8600    1.8860 C.3       1 THR         0.0937
     48 OG1       -26.0480   -9.2270    2.2850 O.3       1 THR        -0.3873
     49 CG2       -25.3050   -6.9900    2.8170 C.3       1 THR        -0.0344
     50 O1        -27.9071   -5.4783    3.4356 O.3       1 THR        -0.2909
     51 H1        -36.9036   -1.3437   -8.3962 H         1 ALA         0.2015
     52 H2        -35.8094   -2.0642   -9.3927 H         1 ALA         0.2015
     53 H3        -35.2925   -1.1960   -8.0932 H         1 ALA         0.2015
     54 H4        -36.2587   -2.7680   -6.5539 H         1 ALA         0.1095
     55 H5        -37.1625   -4.8910   -7.4539 H         1 ALA         0.0310
     56 H6        -36.9454   -4.2831   -9.1301 H         1 ALA         0.0310
     57 H7        -38.1272   -3.4910   -8.0334 H         1 ALA         0.0310
     58 H8        -35.2071   -5.0759   -6.3645 H         1 ARG         0.1884
     59 H9        -33.2502   -6.2495   -6.2194 H         1 ARG         0.0800
     60 H10       -33.0776   -7.2714   -8.1824 H         1 ARG         0.0313
     61 H11       -32.0151   -5.9332   -8.7366 H         1 ARG         0.0313
     62 H12       -34.4475   -4.8096   -9.1415 H         1 ARG         0.0301
     63 H13       -34.8540   -6.5429   -9.3802 H         1 ARG         0.0301
     64 H14       -32.7795   -4.8823  -10.8334 H         1 ARG         0.0689
     65 H15       -34.2712   -5.6307  -11.4977 H         1 ARG         0.0689
     66 H16       -33.1615   -7.8666  -10.9671 H         1 ARG         0.2642
     67 H17       -29.9069   -8.1487  -12.2399 H         1 ARG         0.2615
     68 H18       -31.3777   -9.0131  -11.7180 H         1 ARG         0.2615
     69 H19       -31.2485   -4.9446  -11.5457 H         1 ARG         0.2615
     70 H20       -29.8265   -5.8555  -12.1208 H         1 ARG         0.2615
     71 H21       -32.0649   -5.0655   -4.7200 H         1 THR         0.1884
     72 H22       -29.7602   -3.6550   -6.0353 H         1 THR         0.0826
     73 H23       -29.3158   -2.4714   -3.9876 H         1 THR         0.0639
     74 H24       -29.9705   -4.2058   -2.5772 H         1 THR         0.2101
     75 H25       -31.3598   -1.1850   -3.6169 H         1 THR         0.0257
     76 H26       -32.3134   -2.4472   -4.4679 H         1 THR         0.0257
     77 H27       -31.0864   -1.4906   -5.3657 H         1 THR         0.0257
     78 H28       -27.8146   -3.9536   -4.2583 H         1 MLZ         0.1883
     79 H29       -27.7573   -6.8617   -3.6423 H         1 MLZ         0.0800
     80 H30       -25.2773   -6.4370   -3.3078 H         1 MLZ         0.0312
     81 H31       -25.5560   -4.7800   -3.9429 H         1 MLZ         0.0312
     82 H32       -26.7335   -5.9235   -5.9281 H         1 MLZ         0.0269
     83 H33       -26.0025   -7.4520   -5.3314 H         1 MLZ         0.0269
     84 H34       -23.7515   -6.0229   -5.4548 H         1 MLZ         0.0317
     85 H35       -24.7006   -5.0682   -6.6442 H         1 MLZ         0.0317
     86 H36       -23.3212   -7.0524   -7.5629 H         1 MLZ         0.0814
     87 H37       -25.0460   -6.9544   -8.0550 H         1 MLZ         0.0814
     88 H38       -25.5274   -8.4939   -6.3387 H         1 MLZ         0.2011
     89 H39       -23.9353   -8.6039   -5.9355 H         1 MLZ         0.2011
     90 H40       -24.6624  -10.5535   -6.9563 H         1 MLZ         0.0777
     91 H41       -23.4258   -9.6986   -7.9394 H         1 MLZ         0.0777
     92 H42       -25.1632   -9.5786   -8.3794 H         1 MLZ         0.0777
     93 H43       -29.0607   -4.4199   -2.2543 H         1 GLN         0.1883
     94 H44       -27.6004   -3.8904    0.1271 H         1 GLN         0.0801
     95 H45       -30.6214   -3.7174   -0.1546 H         1 GLN         0.0337
     96 H46       -29.4875   -2.5145   -0.8574 H         1 GLN         0.0337
     97 H47       -29.6661   -3.2068    2.1072 H         1 GLN         0.0504
     98 H48       -30.5134   -1.8301    1.3238 H         1 GLN         0.0504
     99 H49       -26.7526   -1.4017    2.6910 H         1 GLN         0.1814
    100 H50       -27.8037   -2.7223    3.0798 H         1 GLN         0.1814
    101 H51       -27.0920   -6.3371    0.1125 H         1 THR         0.1885
    102 H52       -28.2995   -8.2450    1.6579 H         1 THR         0.0843
    103 H53       -25.7526   -7.7652    0.8651 H         1 THR         0.0641
    104 H54       -26.5741   -9.7654    1.7055 H         1 THR         0.2101
    105 H55       -24.2642   -7.3459    2.8061 H         1 THR         0.0257
    106 H56       -25.7033   -7.0531    3.8404 H         1 THR         0.0257
    107 H57       -25.3389   -5.9454    2.4741 H         1 THR         0.0257
    108 H58       -27.5827   -5.0758    2.6386 H         1 THR         0.2540
@<TRIPOS>BOND
     1    2    1 1  
     2    2    5 1  
     3    3    2 1  
     4    3    4 2  
     5    7    6 1  
     6    7   10 1  
     7    8    7 1  
     8    8    9 2  
     9   10   11 1  
    10   11   12 1  
    11   12   13 1  
    12   13   14 ar 
    13   14   16 ar 
    14   14   15 ar 
    15    6    3 am 
    16   18   17 1  
    17   18   21 1  
    18   19   18 1  
    19   19   20 2  
    20   21   23 1  
    21   21   22 1  
    22   17    8 am 
    23   34   35 1  
    24   35   38 1  
    25   35   36 1  
    26   36   37 2  
    27   38   39 1  
    28   39   40 1  
    29   40   42 am 
    30   40   41 2  
    31   43   44 1  
    32   44   47 1  
    33   44   45 1  
    34   45   46 2  
    35   47   49 1  
    36   47   48 1  
    37   36   43 am 
    38   25   24 1  
    39   25   26 1  
    40   32   25 1  
    41   26   27 1  
    42   27   28 1  
    43   28   29 1  
    44   29   30 1  
    45   30   31 1  
    46   32   33 2  
    47   24   19 am 
    48   32   34 am 
    49   45   50 1  
    50    1   51 1  
    51    1   52 1  
    52    1   53 1  
    53    2   54 1  
    54    5   55 1  
    55    5   56 1  
    56    5   57 1  
    57    6   58 1  
    58    7   59 1  
    59   10   60 1  
    60   10   61 1  
    61   11   62 1  
    62   11   63 1  
    63   12   64 1  
    64   12   65 1  
    65   13   66 1  
    66   15   67 1  
    67   15   68 1  
    68   16   69 1  
    69   16   70 1  
    70   17   71 1  
    71   18   72 1  
    72   21   73 1  
    73   22   74 1  
    74   23   75 1  
    75   23   76 1  
    76   23   77 1  
    77   24   78 1  
    78   25   79 1  
    79   26   80 1  
    80   26   81 1  
    81   27   82 1  
    82   27   83 1  
    83   28   84 1  
    84   28   85 1  
    85   29   86 1  
    86   29   87 1  
    87   30   88 1  
    88   30   89 1  
    89   31   90 1  
    90   31   91 1  
    91   31   92 1  
    92   34   93 1  
    93   35   94 1  
    94   38   95 1  
    95   38   96 1  
    96   39   97 1  
    97   39   98 1  
    98   42   99 1  
    99   42  100 1  
   100   43  101 1  
   101   44  102 1  
   102   47  103 1  
   103   48  104 1  
   104   49  105 1  
   105   49  106 1  
   106   49  107 1  
   107   50  108 1  
@<TRIPOS>SUBSTRUCTURE
     1 ALA         1

