### 
### Created by X-TOOL on Mon Sep 10 21:13:09 2018
### 

@<TRIPOS>MOLECULE
3umw_ligand
   52    56     1     0     0
SMALL
GAST_HUCK


@<TRIPOS>ATOM
      1 C1         16.8620  -37.1290   -3.8790 C.3       1 596        -0.0525
      2 C2         17.4120  -35.9520   -3.0510 C.3       1 596        -0.0690
      3 N3         18.2650  -36.4210   -1.9460 N.4       1 596         0.4132
      4 C4         17.5190  -37.3420   -1.0760 C.3       1 596        -0.0690
      5 C5         17.0800  -38.5710   -1.8670 C.3       1 596        -0.0525
      6 N6         16.2990  -38.1780   -3.0220 N.4       1 596         0.2241
      7 C7         18.8530  -35.2840   -1.1810 C.3       1 596        -0.0785
      8 C8         17.8050  -34.4550   -0.4260 C.ar      1 596         0.0061
      9 C9         17.5310  -34.6960    0.9240 C.ar      1 596         0.1314
     10 C10        16.5620  -33.9710    1.6140 C.ar      1 596         0.0511
     11 C11        15.8390  -32.9650    1.0150 C.ar      1 596        -0.0666
     12 C12        16.0990  -32.7190   -0.3260 C.ar      1 596        -0.0433
     13 C13        17.0650  -33.4340   -1.0440 C.ar      1 596         0.0889
     14 O14        17.2790  -33.1320   -2.3700 O.3       1 596        -0.3246
     15 C15        16.4540  -32.2140   -3.1250 C.3       1 596         0.0585
     16 O16        18.1650  -35.6830    1.7200 O.3       1 596        -0.2439
     17 C17        17.6410  -35.6160    2.9770 C.2       1 596         0.1836
     18 C18        16.6240  -34.5600    2.9750 C.2       1 596         0.1830
     19 O19        15.9320  -34.2480    4.0220 O.2       1 596        -0.3759
     20 C20        18.0430  -36.4710    4.1090 C.2       1 596         0.0341
     21 C21        19.0460  -37.5590    4.1840 C.2       1 596         0.1236
     22 N22        19.3090  -38.1030    5.3850 N.pl3     1 596        -0.2443
     23 N23        20.2620  -39.0990    5.1430 N.2       1 596        -0.3141
     24 C24        20.5900  -39.1470    3.8310 C.ar      1 596        -0.0027
     25 C25        19.8620  -38.1920    3.1390 C.ar      1 596         0.0299
     26 C26        19.9610  -38.0200    1.7660 C.ar      1 596        -0.0484
     27 C27        20.8440  -38.8330    1.0720 C.ar      1 596        -0.0609
     28 C28        21.5940  -39.8000    1.7520 C.ar      1 596        -0.0615
     29 C29        21.4730  -39.9620    3.1330 C.ar      1 596        -0.0562
     30 H          17.6828  -37.5583   -4.4535 H         1 596         0.0793
     31 H          16.0704  -36.7530   -4.5271 H         1 596         0.0793
     32 H          16.5698  -35.4041   -2.6283 H         1 596         0.0071
     33 H          18.0119  -35.3200   -3.7058 H         1 596         0.0071
     34 H          16.6369  -36.8323   -0.6883 H         1 596         0.0071
     35 H          18.1616  -37.6567   -0.2537 H         1 596         0.0071
     36 H          16.4688  -39.2056   -1.2253 H         1 596         0.0793
     37 H          17.9653  -39.1099   -2.2046 H         1 596         0.0793
     38 H          16.2297  -39.0099   -3.6082 H         1 596         0.2012
     39 H          15.4269  -37.7988   -2.6532 H         1 596         0.2012
     40 H          19.3430  -34.6235   -1.8964 H         1 596         0.0141
     41 H          19.5371  -35.7021   -0.4426 H         1 596         0.0141
     42 H          15.0971  -32.3885    1.5676 H         1 596         0.0561
     43 H          15.5313  -31.9420   -0.8380 H         1 596         0.0459
     44 H          15.4262  -32.5768   -3.1368 H         1 596         0.0576
     45 H          16.4878  -31.2294   -2.6586 H         1 596         0.0576
     46 H          16.8286  -32.1467   -4.1464 H         1 596         0.0576
     47 H          17.5169  -36.2700    5.0422 H         1 596         0.0600
     48 H          18.9003  -37.8444    6.2830 H         1 596         0.2766
     49 H          19.3633  -37.2692    1.2490 H         1 596         0.0627
     50 H          20.9546  -38.7189   -0.0064 H         1 596         0.0618
     51 H          22.2824  -40.4355    1.1949 H         1 596         0.0618
     52 H          22.0618  -40.7158    3.6557 H         1 596         0.0620
@<TRIPOS>BOND
     1    1    2 1  
     2    1    6 1  
     3    2    3 1  
     4    3    4 1  
     5    3    7 1  
     6    4    5 1  
     7    5    6 1  
     8    7    8 1  
     9    8    9 ar 
    10    8   13 ar 
    11    9   10 ar 
    12    9   16 1  
    13   10   11 ar 
    14   10   18 1  
    15   11   12 ar 
    16   12   13 ar 
    17   13   14 1  
    18   14   15 1  
    19   16   17 1  
    20   17   18 1  
    21   17   20 2  
    22   18   19 2  
    23   20   21 1  
    24   21   22 1  
    25   21   25 2  
    26   22   23 1  
    27   23   24 2  
    28   24   25 ar 
    29   24   29 ar 
    30   25   26 ar 
    31   26   27 ar 
    32   27   28 ar 
    33   28   29 ar 
    34    1   30 1  
    35    1   31 1  
    36    2   32 1  
    37    2   33 1  
    38    4   34 1  
    39    4   35 1  
    40    5   36 1  
    41    5   37 1  
    42    6   38 1  
    43    6   39 1  
    44    7   40 1  
    45    7   41 1  
    46   11   42 1  
    47   12   43 1  
    48   15   44 1  
    49   15   45 1  
    50   15   46 1  
    51   20   47 1  
    52   22   48 1  
    53   26   49 1  
    54   27   50 1  
    55   28   51 1  
    56   29   52 1  
@<TRIPOS>SUBSTRUCTURE
     1 596         1

