3umw_ligand
  -I-interpret- 

 52 56  0  0  0  0  0  0  0  0999 V2000
   16.8620  -37.1290   -3.8790 C   0  0  0  0  0
   17.4120  -35.9520   -3.0510 C   0  0  0  0  0
   18.2650  -36.4210   -1.9460 N   0  3  0  0  0
   17.5190  -37.3420   -1.0760 C   0  0  0  0  0
   17.0800  -38.5710   -1.8670 C   0  0  0  0  0
   16.2990  -38.1780   -3.0220 N   0  3  0  0  0
   18.8530  -35.2840   -1.1810 C   0  0  0  0  0
   17.8050  -34.4550   -0.4260 C   0  0  0  0  0
   17.5310  -34.6960    0.9240 C   0  0  0  0  0
   16.5620  -33.9710    1.6140 C   0  0  0  0  0
   15.8390  -32.9650    1.0150 C   0  0  0  0  0
   16.0990  -32.7190   -0.3260 C   0  0  0  0  0
   17.0650  -33.4340   -1.0440 C   0  0  0  0  0
   17.2790  -33.1320   -2.3700 O   0  0  0  0  0
   16.4540  -32.2140   -3.1250 C   0  0  0  0  0
   18.1650  -35.6830    1.7200 O   0  0  0  0  0
   17.6410  -35.6160    2.9770 C   0  0  0  0  0
   16.6240  -34.5600    2.9750 C   0  0  0  0  0
   15.9320  -34.2480    4.0220 O   0  0  0  0  0
   18.0430  -36.4710    4.1090 C   0  0  0  0  0
   19.0460  -37.5590    4.1840 C   0  0  0  0  0
   19.3090  -38.1030    5.3850 N   0  0  0  0  0
   20.2620  -39.0990    5.1430 N   0  0  0  0  0
   20.5900  -39.1470    3.8310 C   0  0  0  0  0
   19.8620  -38.1920    3.1390 C   0  0  0  0  0
   19.9610  -38.0200    1.7660 C   0  0  0  0  0
   20.8440  -38.8330    1.0720 C   0  0  0  0  0
   21.5940  -39.8000    1.7520 C   0  0  0  0  0
   21.4730  -39.9620    3.1330 C   0  0  0  0  0
   17.6828  -37.5583   -4.4535 H   0  0  0  0  0
   16.0704  -36.7530   -4.5271 H   0  0  0  0  0
   16.5698  -35.4041   -2.6283 H   0  0  0  0  0
   18.0119  -35.3200   -3.7058 H   0  0  0  0  0
   19.0489  -36.9357   -2.3473 H   0  0  0  0  0
   16.6369  -36.8323   -0.6883 H   0  0  0  0  0
   18.1616  -37.6567   -0.2537 H   0  0  0  0  0
   16.4688  -39.2056   -1.2253 H   0  0  0  0  0
   17.9653  -39.1099   -2.2046 H   0  0  0  0  0
   16.2297  -39.0099   -3.6082 H   0  0  0  0  0
   15.4269  -37.7988   -2.6532 H   0  0  0  0  0
   19.3430  -34.6235   -1.8964 H   0  0  0  0  0
   19.5371  -35.7021   -0.4426 H   0  0  0  0  0
   15.0971  -32.3885    1.5676 H   0  0  0  0  0
   15.5313  -31.9420   -0.8380 H   0  0  0  0  0
   15.4262  -32.5768   -3.1368 H   0  0  0  0  0
   16.4878  -31.2294   -2.6586 H   0  0  0  0  0
   16.8286  -32.1467   -4.1464 H   0  0  0  0  0
   17.5169  -36.2700    5.0422 H   0  0  0  0  0
   19.3633  -37.2692    1.2490 H   0  0  0  0  0
   20.9546  -38.7189   -0.0064 H   0  0  0  0  0
   22.2824  -40.4355    1.1949 H   0  0  0  0  0
   22.0618  -40.7158    3.6557 H   0  0  0  0  0
  1  2  1  0  0  0
  1  6  1  0  0  0
  2  3  1  0  0  0
  3  4  1  0  0  0
  3  7  1  0  0  0
  4  5  1  0  0  0
  5  6  1  0  0  0
  7  8  1  0  0  0
  8  9  4  0  0  0
  8 13  4  0  0  0
  9 10  4  0  0  0
  9 16  1  0  0  0
 10 11  4  0  0  0
 10 18  1  0  0  0
 11 12  4  0  0  0
 12 13  4  0  0  0
 13 14  1  0  0  0
 14 15  1  0  0  0
 16 17  1  0  0  0
 17 18  1  0  0  0
 17 20  2  0  0  0
 18 19  2  0  0  0
 20 21  1  0  0  0
 21 22  4  0  0  0
 21 25  4  0  0  0
 22 23  4  0  0  0
 23 24  4  0  0  0
 24 25  4  0  0  0
 24 29  4  0  0  0
 25 26  4  0  0  0
 26 27  4  0  0  0
 27 28  4  0  0  0
 28 29  4  0  0  0
  1 30  1  0  0  0
  1 31  1  0  0  0
  2 32  1  0  0  0
  2 33  1  0  0  0
  3 34  1  0  0  0
  4 35  1  0  0  0
  4 36  1  0  0  0
  5 37  1  0  0  0
  5 38  1  0  0  0
  6 39  1  0  0  0
  6 40  1  0  0  0
  7 41  1  0  0  0
  7 42  1  0  0  0
 11 43  1  0  0  0
 12 44  1  0  0  0
 15 45  1  0  0  0
 15 46  1  0  0  0
 15 47  1  0  0  0
 20 48  1  0  0  0
 26 49  1  0  0  0
 27 50  1  0  0  0
 28 51  1  0  0  0
 29 52  1  0  0  0
M  END
$$$$
