3gw5_ligand
  -I-interpret- 

 82 84  0  0  0  0  0  0  0  0999 V2000
   29.0520   -7.7360  -14.5800 C   0  0  0  0  0
   28.3380   -7.4420  -15.8020 O   0  0  0  0  0
   30.5570   -8.0720  -14.9200 C   0  0  0  0  0
   31.2010   -8.0810  -16.2280 C   0  0  0  0  0
   31.3830   -8.4210  -13.6600 C   0  0  0  0  0
   32.6220   -8.4200  -16.3310 C   0  0  0  0  0
   32.7770   -8.7520  -13.8130 C   0  0  0  0  0
   33.4000   -8.7530  -15.1410 C   0  0  0  0  0
   28.9810   -6.4490  -13.6720 C   0  0  0  0  0
   29.6150   -5.1110  -14.1530 C   0  0  0  0  0
   29.5150   -3.9070  -13.1820 C   0  0  0  0  0
   28.0770   -3.4730  -12.8320 C   0  0  0  0  0
   27.3650   -3.1910  -14.0050 O   0  0  0  0  0
   26.0340   -2.8060  -13.7510 C   0  0  0  0  0
   26.5300   -8.8260   -9.1820 C   0  0  0  0  0
   25.1140   -8.3550   -8.7230 C   0  0  0  0  0
   27.6640   -7.8160   -8.8540 C   0  0  0  0  0
   25.0300   -8.1250   -7.2700 N   0  3  0  0  0
   29.1080   -8.2160   -9.2440 C   0  0  0  0  0
   30.1190   -7.1050   -8.8610 C   0  0  0  0  0
   31.5950   -7.4570   -9.2340 C   0  0  0  0  0
   32.0760   -8.8390   -8.6880 C   0  0  0  0  0
   29.5560   -9.5880   -8.5120 C   0  0  0  0  0
   31.0280  -10.0350   -8.8720 C   0  0  0  0  0
   26.5350   -9.0280  -10.6220 N   0  0  0  0  0
   26.2580  -10.1770  -11.3420 C   0  0  0  0  0
   25.9530  -11.2340  -10.7900 O   0  0  0  0  0
   26.3650  -10.0150  -12.7320 N   0  0  0  0  0
   27.6060  -11.5600  -14.0030 C   0  0  0  0  0
   28.3230  -10.3470  -14.6870 C   0  0  0  0  0
   28.3170   -8.9620  -13.8230 C   0  0  0  0  0
   26.7540   -8.7170  -13.4460 C   0  0  0  0  0
   26.1260  -11.1000  -13.6550 C   0  0  0  0  0
   25.1760   -9.3290   -6.4430 C   0  0  0  0  0
   33.6920   -9.1440  -12.4460 Cl  0  0  0  0  0
   28.3631   -8.2092  -16.3785 H   0  0  0  0  0
   30.6288   -7.8371  -17.1231 H   0  0  0  0  0
   30.9189   -8.4167  -12.6737 H   0  0  0  0  0
   33.1049   -8.4238  -17.3082 H   0  0  0  0  0
   34.4557   -9.0052  -15.2407 H   0  0  0  0  0
   29.5533   -6.7143  -12.7831 H   0  0  0  0  0
   27.9157   -6.2308  -13.5964 H   0  0  0  0  0
   29.0647   -4.8220  -15.0484 H   0  0  0  0  0
   30.6795   -5.3099  -14.2772 H   0  0  0  0  0
   29.9880   -3.0603  -13.6794 H   0  0  0  0  0
   29.9880   -4.2138  -12.2491 H   0  0  0  0  0
   28.1128   -2.5789  -12.2096 H   0  0  0  0  0
   27.5789   -4.2798  -12.2944 H   0  0  0  0  0
   25.5170   -3.6121  -13.2304 H   0  0  0  0  0
   26.0285   -1.9092  -13.1314 H   0  0  0  0  0
   25.5302   -2.5998  -14.6954 H   0  0  0  0  0
   26.7266   -9.7466   -8.6325 H   0  0  0  0  0
   24.4028   -9.1408   -8.9776 H   0  0  0  0  0
   24.8988   -7.4105   -9.2228 H   0  0  0  0  0
   27.6680   -7.7201   -7.7682 H   0  0  0  0  0
   27.4390   -6.9217   -9.4351 H   0  0  0  0  0
   24.0996   -7.7506   -7.0840 H   0  0  0  0  0
   25.8008   -7.5036   -7.0248 H   0  0  0  0  0
   29.1121   -8.3605  -10.3244 H   0  0  0  0  0
   30.0741   -6.9774   -7.7794 H   0  0  0  0  0
   29.8452   -6.2059   -9.4131 H   0  0  0  0  0
   32.2321   -6.6935   -8.7876 H   0  0  0  0  0
   31.6518   -7.5015  -10.3216 H   0  0  0  0  0
   32.2336   -8.7184   -7.6162 H   0  0  0  0  0
   32.9677   -9.1097   -9.2534 H   0  0  0  0  0
   28.8809  -10.3758   -8.8462 H   0  0  0  0  0
   29.5173   -9.4159   -7.4364 H   0  0  0  0  0
   31.3130  -10.8457   -8.2014 H   0  0  0  0  0
   31.0450  -10.3471   -9.9162 H   0  0  0  0  0
   26.7764   -8.2085  -11.1792 H   0  0  0  0  0
   28.1367  -11.8579  -13.0987 H   0  0  0  0  0
   27.5919  -12.4219  -14.6701 H   0  0  0  0  0
   27.7818  -10.1429  -15.6109 H   0  0  0  0  0
   29.3672  -10.6318  -14.8161 H   0  0  0  0  0
   28.9143   -9.0334  -12.9140 H   0  0  0  0  0
   26.6020   -7.8325  -12.8274 H   0  0  0  0  0
   26.1353   -8.5136  -14.3200 H   0  0  0  0  0
   25.5457  -10.8061  -14.5296 H   0  0  0  0  0
   25.5103  -11.8970  -13.2381 H   0  0  0  0  0
   24.3875  -10.0385   -6.6940 H   0  0  0  0  0
   26.1487   -9.7828   -6.6327 H   0  0  0  0  0
   25.0998   -9.0566   -5.3903 H   0  0  0  0  0
  1  2  1  0  0  0
  1  3  1  0  0  0
  1  9  1  0  0  0
 31  1  1  0  0  0
  3  4  4  0  0  0
  3  5  4  0  0  0
  4  6  4  0  0  0
  5  7  4  0  0  0
  6  8  4  0  0  0
  7  8  4  0  0  0
  7 35  1  0  0  0
  9 10  1  0  0  0
 10 11  1  0  0  0
 11 12  1  0  0  0
 12 13  1  0  0  0
 13 14  1  0  0  0
 15 16  1  0  0  0
 15 17  1  0  0  0
 25 15  1  0  0  0
 16 18  1  0  0  0
 17 19  1  0  0  0
 18 34  1  0  0  0
 19 20  1  0  0  0
 19 23  1  0  0  0
 20 21  1  0  0  0
 21 22  1  0  0  0
 24 22  1  0  0  0
 23 24  1  0  0  0
 26 25  1  0  0  0
 26 27  2  0  0  0
 28 26  1  0  0  0
 28 32  1  0  0  0
 33 28  1  0  0  0
 30 29  1  0  0  0
 29 33  1  0  0  0
 30 31  1  0  0  0
 31 32  1  0  0  0
  2 36  1  0  0  0
  4 37  1  0  0  0
  5 38  1  0  0  0
  6 39  1  0  0  0
  8 40  1  0  0  0
  9 41  1  0  0  0
  9 42  1  0  0  0
 10 43  1  0  0  0
 10 44  1  0  0  0
 11 45  1  0  0  0
 11 46  1  0  0  0
 12 47  1  0  0  0
 12 48  1  0  0  0
 14 49  1  0  0  0
 14 50  1  0  0  0
 14 51  1  0  0  0
 15 52  1  0  0  0
 16 53  1  0  0  0
 16 54  1  0  0  0
 17 55  1  0  0  0
 17 56  1  0  0  0
 18 57  1  0  0  0
 18 58  1  0  0  0
 19 59  1  0  0  0
 20 60  1  0  0  0
 20 61  1  0  0  0
 21 62  1  0  0  0
 21 63  1  0  0  0
 22 64  1  0  0  0
 22 65  1  0  0  0
 23 66  1  0  0  0
 23 67  1  0  0  0
 24 68  1  0  0  0
 24 69  1  0  0  0
 25 70  1  0  0  0
 29 71  1  0  0  0
 29 72  1  0  0  0
 30 73  1  0  0  0
 30 74  1  0  0  0
 31 75  1  0  0  0
 32 76  1  0  0  0
 32 77  1  0  0  0
 33 78  1  0  0  0
 33 79  1  0  0  0
 34 80  1  0  0  0
 34 81  1  0  0  0
 34 82  1  0  0  0
M  END
$$$$
