6c6o_ligand
  -I-interpret- 

 25 25  0  0  0  0  0  0  0  0999 V2000
   35.0310   77.4020   64.2350 C   0  0  0  0  0
   33.2880   77.9710   62.7410 C   0  0  0  0  0
   37.5750   81.0970   64.9680 C   0  0  0  0  0
   36.3710   81.4030   64.0260 C   0  0  0  0  0
   35.3160   80.5780   64.0010 C   0  0  0  0  0
   35.2280   79.5770   63.0170 C   0  0  0  0  0
   34.4910   78.3160   63.3320 C   0  0  0  0  0
   34.3870   76.2060   64.5260 C   0  0  0  0  0
   33.1670   75.9170   63.9110 C   0  0  0  0  0
   32.5980   76.7990   63.0020 C   0  0  0  0  0
   37.3160   81.2440   66.1680 O   0  0  0  0  0
   38.6460   80.7100   64.4600 O   0  0  0  0  0
   36.5670   82.1730   62.9200 O   0  0  0  0  0
   35.7790   79.6780   61.9290 O   0  0  0  0  0
   32.5240   74.7600   64.1900 O   0  0  0  0  0
   32.4620   79.1880   61.4770 Br  0  0  0  0  0
   35.9785   77.6304   64.7231 H   0  0  0  0  0
   35.9804   82.1525   64.7143 H   0  0  0  0  0
   34.4653   81.2300   63.8027 H   0  0  0  0  0
   35.3764   80.0304   64.9416 H   0  0  0  0  0
   34.8299   75.4995   65.2280 H   0  0  0  0  0
   31.6484   76.5783   62.5145 H   0  0  0  0  0
   38.5576   80.6925   63.5042 H   0  0  0  0  0
   37.3449   82.7211   63.0468 H   0  0  0  0  0
   31.7076   74.7195   63.6866 H   0  0  0  0  0
  7  1  4  0  0  0
  1  8  4  0  0  0
  7  2  4  0  0  0
  2 10  4  0  0  0
  2 16  1  0  0  0
  4  3  1  0  0  0
  3 11  2  0  0  0
  3 12  1  0  0  0
  5  4  1  0  0  0
  4 13  1  0  0  0
  6  5  1  0  0  0
  6  7  1  0  0  0
  6 14  2  0  0  0
  8  9  4  0  0  0
  9 10  4  0  0  0
  9 15  1  0  0  0
  1 17  1  0  0  0
  4 18  1  0  0  0
  5 19  1  0  0  0
  5 20  1  0  0  0
  8 21  1  0  0  0
 10 22  1  0  0  0
 12 23  1  0  0  0
 13 24  1  0  0  0
 15 25  1  0  0  0
M  END
$$$$
