3unk_ligand
  -I-interpret- 

 37 39  0  0  0  0  0  0  0  0999 V2000
   -9.9360   10.7710   13.6520 N   0  0  0  0  0
  -11.7600    9.2680   13.2060 N   0  0  0  0  0
  -11.3720   10.0300   15.3750 N   0  0  0  0  0
  -13.5760    7.7590   12.6680 N   0  0  0  0  0
   -8.9770    9.7750   10.1460 C   0  0  0  0  0
   -8.1560   10.8680    9.8270 C   0  0  0  0  0
   -7.9440   11.8650   10.7600 C   0  0  0  0  0
   -8.5470   11.7980   11.9990 C   0  0  0  0  0
   -9.3760   10.7370   12.3310 C   0  0  0  0  0
   -9.6010    9.7140   11.3980 C   0  0  0  0  0
   -7.4600   11.0160    8.5090 C   0  0  0  0  0
  -11.0590    9.9940   14.0800 C   0  0  0  0  0
  -12.8240    8.5360   13.6050 C   0  0  0  0  0
  -13.1590    8.5650   14.9540 C   0  0  0  0  0
  -12.4120    9.3290   15.8500 C   0  0  0  0  0
  -14.7720    7.0460   13.0430 C   0  0  0  0  0
  -15.8360    7.7110   13.6490 C   0  0  0  0  0
  -16.9740    6.9980   13.9890 C   0  0  0  0  0
  -17.0820    5.6380   13.7130 C   0  0  0  0  0
  -16.0340    4.9750   13.0980 C   0  0  0  0  0
  -14.8860    5.6850   12.7670 C   0  0  0  0  0
   -7.7940   10.2950    7.5320 O   0  0  0  0  0
   -6.5210   11.8580    8.3850 O   0  0  0  0  0
  -13.5800    4.8660   12.0000 Cl  0  0  0  0  0
   -9.5028   11.3932   14.3343 H   0  0  0  0  0
  -13.2550    7.7076   11.7012 H   0  0  0  0  0
   -9.1284    8.9756    9.4207 H   0  0  0  0  0
   -7.2976   12.7080   10.5160 H   0  0  0  0  0
   -8.3694   12.5897   12.7268 H   0  0  0  0  0
  -10.2560    8.8787   11.6455 H   0  0  0  0  0
  -14.0105    7.9872   15.3134 H   0  0  0  0  0
  -12.6669    9.3558   16.9094 H   0  0  0  0  0
  -15.7736    8.7799   13.8532 H   0  0  0  0  0
  -17.7998    7.5113   14.4816 H   0  0  0  0  0
  -17.9894    5.0965   13.9804 H   0  0  0  0  0
  -16.1081    3.9104   12.8763 H   0  0  0  0  0
   -6.3956   12.3206    9.2168 H   0  0  0  0  0
  9  1  1  0  0  0
  1 12  1  0  0  0
 12  2  4  0  0  0
  2 13  4  0  0  0
 12  3  4  0  0  0
  3 15  4  0  0  0
 13  4  1  0  0  0
  4 16  1  0  0  0
  6  5  4  0  0  0
  5 10  4  0  0  0
  7  6  4  0  0  0
  6 11  1  0  0  0
  8  7  4  0  0  0
  8  9  4  0  0  0
  9 10  4  0  0  0
 11 22  2  0  0  0
 11 23  1  0  0  0
 13 14  4  0  0  0
 14 15  4  0  0  0
 16 17  4  0  0  0
 16 21  4  0  0  0
 17 18  4  0  0  0
 18 19  4  0  0  0
 19 20  4  0  0  0
 20 21  4  0  0  0
 21 24  1  0  0  0
  1 25  1  0  0  0
  4 26  1  0  0  0
  5 27  1  0  0  0
  7 28  1  0  0  0
  8 29  1  0  0  0
 10 30  1  0  0  0
 14 31  1  0  0  0
 15 32  1  0  0  0
 17 33  1  0  0  0
 18 34  1  0  0  0
 19 35  1  0  0  0
 20 36  1  0  0  0
 23 37  1  0  0  0
M  END
$$$$
