5jiy_ligand
  -I-interpret- 

134133  0  0  0  0  0  0  0  0999 V2000
   93.0650   18.0980  129.6830 N   0  3  0  0  0
   93.4410   18.1010  131.1070 C   0  0  0  0  0
   94.8920   17.8460  131.2420 C   0  0  0  0  0
   95.6030   17.5190  130.2840 O   0  0  0  0  0
   92.6320   16.9950  131.8470 C   0  0  0  0  0
   91.1490   17.1380  131.6340 C   0  0  0  0  0
   90.3000   16.2890  132.5760 C   0  0  0  0  0
   88.8680   16.8270  132.5990 C   0  0  0  0  0
   87.8880   15.9310  133.2840 N   0  3  0  0  0
   95.3460   17.9970  132.4530 N   0  0  0  0  0
   96.7360   17.9380  132.7590 C   0  0  0  0  0
   97.1330   16.4710  133.0730 C   0  0  0  0  0
   98.3000   16.0790  133.0120 O   0  0  0  0  0
   96.9840   18.9240  133.9260 C   0  0  0  0  0
   96.3870   20.3540  133.6210 C   0  0  0  0  0
   96.6290   20.8790  132.1600 C   0  0  0  0  0
   95.7300   21.4630  131.4580 O   0  0  0  0  0
   97.8520   20.6550  131.6830 N   0  0  0  0  0
   96.1320   15.6810  133.4670 N   0  0  0  0  0
   96.3910   14.2520  133.7770 C   0  0  0  0  0
   95.4810   13.3580  132.9470 C   0  0  0  0  0
   94.4390   13.7090  132.4860 O   0  0  0  0  0
   96.1430   13.9690  135.2510 C   0  0  0  0  0
   94.8170   14.4270  135.6020 O   0  0  0  0  0
   97.2100   14.5570  136.1490 C   0  0  0  0  0
   95.9610   12.1320  132.7230 N   0  0  0  0  0
   95.2630   11.1260  131.9380 C   0  0  0  0  0
   94.0660   10.6210  132.7300 C   0  0  0  0  0
   94.2190   10.4010  133.9450 O   0  0  0  0  0
   96.2030    9.9490  131.7270 C   0  0  0  0  0
   92.9720   10.4640  132.0360 N   0  0  0  0  0
   91.7060   10.0320  132.6330 C   0  0  0  0  0
   91.1320    8.9090  131.8350 C   0  0  0  0  0
   90.9310    9.0620  130.6610 O   0  0  0  0  0
   90.6730   11.1920  132.7150 C   0  0  0  0  0
   91.2360   12.4910  133.2800 C   0  0  0  0  0
   91.5840   12.4410  134.7910 C   0  0  0  0  0
   92.0900   13.7810  135.1960 N   0  0  0  0  0
   91.2930   14.7800  135.6050 C   0  0  0  0  0
   89.9950   14.6200  135.6840 N   0  0  0  0  0
   91.8400   15.9450  135.9490 N   0  0  0  0  0
   90.8000    7.7620  132.4830 N   0  0  0  0  0
   89.9340    6.8290  131.8650 C   0  0  0  0  0
   88.5520    7.3510  131.8740 C   0  0  0  0  0
   88.2270    8.1850  132.7010 O   0  0  0  0  0
   89.9390    5.4930  132.6680 C   0  0  0  0  0
   91.3090    4.9060  132.9150 C   0  0  0  0  0
   91.2200    4.0140  134.2160 C   0  0  0  0  0
   92.4330    3.1320  134.3540 C   0  0  0  0  0
   87.7330    6.9130  130.9510 N   0  0  0  0  0
   86.4490    7.5110  130.7930 C   0  0  0  0  0
   85.5660    6.5940  129.9730 C   0  0  0  0  0
   86.0620    5.7030  129.3130 O   0  0  0  0  0
   86.6310    8.9270  130.1920 C   0  0  0  0  0
   86.9210    8.8480  128.7930 O   0  0  0  0  0
   84.2680    6.7850  130.0500 N   0  0  0  0  0
   83.3010    6.0270  129.2260 C   0  0  0  0  0
   83.1800    6.6480  127.8250 C   0  0  0  0  0
   83.5810    7.8110  127.6860 O   0  0  0  0  0
   81.9150    6.0590  129.8410 C   0  0  0  0  0
   81.4590    7.4230  129.9090 O   0  0  0  0  0
   81.9190    5.5200  131.2470 C   0  0  0  0  0
   82.6900    5.9410  126.9340 O   0  0  0  0  0
   93.5916   18.8206  129.1920 H   0  0  0  0  0
   93.2779   17.1862  129.2783 H   0  0  0  0  0
   92.0661   18.2851  129.5959 H   0  0  0  0  0
   93.2148   19.0724  131.5467 H   0  0  0  0  0
   92.8318   17.0852  132.9147 H   0  0  0  0  0
   92.9400   16.0271  131.4515 H   0  0  0  0  0
   90.9353   16.8049  130.6184 H   0  0  0  0  0
   90.8951   18.1811  131.8225 H   0  0  0  0  0
   90.7199   16.3321  133.5810 H   0  0  0  0  0
   90.2940   15.2562  132.2275 H   0  0  0  0  0
   88.5445   16.9248  131.5627 H   0  0  0  0  0
   88.8861   17.7662  133.1520 H   0  0  0  0  0
   86.9621   16.3580  133.2569 H   0  0  0  0  0
   87.8621   15.0297  132.8071 H   0  0  0  0  0
   88.1731   15.7957  134.2539 H   0  0  0  0  0
   94.6826   18.1635  133.2097 H   0  0  0  0  0
   97.3672   18.2389  131.9228 H   0  0  0  0  0
   98.0601   19.0246  134.0673 H   0  0  0  0  0
   96.4946   18.5309  134.8171 H   0  0  0  0  0
   96.8865   21.0525  134.2924 H   0  0  0  0  0
   95.3076   20.2782  133.7527 H   0  0  0  0  0
   98.0924   20.9505  130.7368 H   0  0  0  0  0
   98.5483   20.1879  132.2638 H   0  0  0  0  0
   95.1887   16.0589  133.5552 H   0  0  0  0  0
   97.4334   14.0416  133.5376 H   0  0  0  0  0
   96.2021   12.8925  135.4115 H   0  0  0  0  0
   94.6545   14.2510  136.5316 H   0  0  0  0  0
   98.1788   14.1322  135.8863 H   0  0  0  0  0
   97.2384   15.6386  136.0173 H   0  0  0  0  0
   96.9786   14.3222  137.1879 H   0  0  0  0  0
   96.8664   11.8879  133.1243 H   0  0  0  0  0
   94.9421   11.5529  130.9878 H   0  0  0  0  0
   97.0931   10.2871  131.1964 H   0  0  0  0  0
   96.4898    9.5367  132.6944 H   0  0  0  0  0
   95.6974    9.1826  131.1395 H   0  0  0  0  0
   92.9997   10.6503  131.0335 H   0  0  0  0  0
   91.9170    9.7024  133.6503 H   0  0  0  0  0
   89.8775   10.8675  133.3858 H   0  0  0  0  0
   90.3420   11.4005  131.6976 H   0  0  0  0  0
   90.4656   13.2521  133.1561 H   0  0  0  0  0
   92.1645   12.6939  132.7463 H   0  0  0  0  0
   92.3440   11.6818  134.9757 H   0  0  0  0  0
   90.6979   12.1838  135.3714 H   0  0  0  0  0
   93.0955   13.9487  135.1608 H   0  0  0  0  0
   89.5752   13.7250  135.4325 H   0  0  0  0  0
   91.2485   16.7102  136.2731 H   0  0  0  0  0
   92.8503   16.0718  135.8883 H   0  0  0  0  0
   91.1742    7.5738  133.4130 H   0  0  0  0  0
   90.2756    6.6631  130.8433 H   0  0  0  0  0
   89.3858    4.7653  132.0742 H   0  0  0  0  0
   89.5073    5.7099  133.6451 H   0  0  0  0  0
   92.0441    5.6998  133.0481 H   0  0  0  0  0
   91.6238    4.3041  132.0625 H   0  0  0  0  0
   90.3354    3.3812  134.1447 H   0  0  0  0  0
   91.1653    4.6697  135.0850 H   0  0  0  0  0
   92.5048    2.4767  133.4860 H   0  0  0  0  0
   93.3267    3.7528  134.4171 H   0  0  0  0  0
   92.3423    2.5305  135.2585 H   0  0  0  0  0
   88.0143    6.1428  130.3443 H   0  0  0  0  0
   85.9409    7.6406  131.7486 H   0  0  0  0  0
   87.4613    9.4206  130.6971 H   0  0  0  0  0
   85.7079    9.4900  130.3297 H   0  0  0  0  0
   87.0302    9.7338  128.4395 H   0  0  0  0  0
   83.9134    7.4833  130.7035 H   0  0  0  0  0
   83.6711    5.0033  129.1702 H   0  0  0  0  0
   81.2657    5.4438  129.2180 H   0  0  0  0  0
   80.5816    7.4469  130.2979 H   0  0  0  0  0
   82.2680    4.4874  131.2379 H   0  0  0  0  0
   82.5838    6.1241  131.8644 H   0  0  0  0  0
   80.9081    5.5597  131.6528 H   0  0  0  0  0
   82.4601    5.0830  127.2980 H   0  0  0  0  0
  1  2  1  0  0  0
  2  3  1  0  0  0
  2  5  1  0  0  0
  3  4  2  0  0  0
  3 10  1  0  0  0
  5  6  1  0  0  0
  6  7  1  0  0  0
  7  8  1  0  0  0
  8  9  1  0  0  0
 10 11  1  0  0  0
 11 12  1  0  0  0
 11 14  1  0  0  0
 12 13  2  0  0  0
 12 19  1  0  0  0
 14 15  1  0  0  0
 15 16  1  0  0  0
 16 17  2  0  0  0
 16 18  1  0  0  0
 19 20  1  0  0  0
 20 21  1  0  0  0
 20 23  1  0  0  0
 21 22  2  0  0  0
 21 26  1  0  0  0
 23 24  1  0  0  0
 23 25  1  0  0  0
 26 27  1  0  0  0
 27 28  1  0  0  0
 27 30  1  0  0  0
 28 29  2  0  0  0
 28 31  1  0  0  0
 31 32  1  0  0  0
 32 33  1  0  0  0
 32 35  1  0  0  0
 33 34  2  0  0  0
 33 42  1  0  0  0
 35 36  1  0  0  0
 36 37  1  0  0  0
 37 38  1  0  0  0
 38 39  1  0  0  0
 39 40  2  0  0  0
 39 41  1  0  0  0
 42 43  1  0  0  0
 43 44  1  0  0  0
 43 46  1  0  0  0
 44 45  2  0  0  0
 44 50  1  0  0  0
 46 47  1  0  0  0
 47 48  1  0  0  0
 48 49  1  0  0  0
 50 51  1  0  0  0
 51 52  1  0  0  0
 51 54  1  0  0  0
 52 53  2  0  0  0
 52 56  1  0  0  0
 54 55  1  0  0  0
 56 57  1  0  0  0
 57 58  1  0  0  0
 57 60  1  0  0  0
 58 59  2  0  0  0
 58 63  1  0  0  0
 60 61  1  0  0  0
 60 62  1  0  0  0
  1 64  1  0  0  0
  1 65  1  0  0  0
  1 66  1  0  0  0
  2 67  1  0  0  0
  5 68  1  0  0  0
  5 69  1  0  0  0
  6 70  1  0  0  0
  6 71  1  0  0  0
  7 72  1  0  0  0
  7 73  1  0  0  0
  8 74  1  0  0  0
  8 75  1  0  0  0
  9 76  1  0  0  0
  9 77  1  0  0  0
  9 78  1  0  0  0
 10 79  1  0  0  0
 11 80  1  0  0  0
 14 81  1  0  0  0
 14 82  1  0  0  0
 15 83  1  0  0  0
 15 84  1  0  0  0
 18 85  1  0  0  0
 18 86  1  0  0  0
 19 87  1  0  0  0
 20 88  1  0  0  0
 23 89  1  0  0  0
 24 90  1  0  0  0
 25 91  1  0  0  0
 25 92  1  0  0  0
 25 93  1  0  0  0
 26 94  1  0  0  0
 27 95  1  0  0  0
 30 96  1  0  0  0
 30 97  1  0  0  0
 30 98  1  0  0  0
 31 99  1  0  0  0
 32100  1  0  0  0
 35101  1  0  0  0
 35102  1  0  0  0
 36103  1  0  0  0
 36104  1  0  0  0
 37105  1  0  0  0
 37106  1  0  0  0
 38107  1  0  0  0
 40108  1  0  0  0
 41109  1  0  0  0
 41110  1  0  0  0
 42111  1  0  0  0
 43112  1  0  0  0
 46113  1  0  0  0
 46114  1  0  0  0
 47115  1  0  0  0
 47116  1  0  0  0
 48117  1  0  0  0
 48118  1  0  0  0
 49119  1  0  0  0
 49120  1  0  0  0
 49121  1  0  0  0
 50122  1  0  0  0
 51123  1  0  0  0
 54124  1  0  0  0
 54125  1  0  0  0
 55126  1  0  0  0
 56127  1  0  0  0
 57128  1  0  0  0
 60129  1  0  0  0
 61130  1  0  0  0
 62131  1  0  0  0
 62132  1  0  0  0
 62133  1  0  0  0
 63134  1  0  0  0
M  END
$$$$
