### 
### Created by X-TOOL on Mon Sep 10 21:13:29 2018
### 

@<TRIPOS>MOLECULE
5jiy_ligand
  134   133     1     0     0
SMALL
GAST_HUCK


@<TRIPOS>ATOM
      1 N          93.0650   18.0980  129.6830 N.4       1 LYS         0.2379
      2 CA         93.4410   18.1010  131.1070 C.3       1 LYS         0.0650
      3 C          94.8920   17.8460  131.2420 C.2       1 LYS         0.2267
      4 O          95.6030   17.5190  130.2840 O.2       1 LYS        -0.3907
      5 CB         92.6320   16.9950  131.8470 C.3       1 LYS         0.0080
      6 CG         91.1490   17.1380  131.6340 C.3       1 LYS        -0.0410
      7 CD         90.3000   16.2890  132.5760 C.3       1 LYS        -0.0123
      8 CE         88.8680   16.8270  132.5990 C.3       1 LYS        -0.0354
      9 NZ         87.8880   15.9310  133.2840 N.4       1 LYS         0.2185
     10 N          95.3460   17.9970  132.4530 N.am      1 GLN        -0.2609
     11 CA         96.7360   17.9380  132.7590 C.3       1 GLN         0.1331
     12 C          97.1330   16.4710  133.0730 C.2       1 GLN         0.2041
     13 O          98.3000   16.0790  133.0120 O.2       1 GLN        -0.3944
     14 CB         96.9840   18.9240  133.9260 C.3       1 GLN         0.0045
     15 CG         96.3870   20.3540  133.6210 C.3       1 GLN         0.0412
     16 CD         96.6290   20.8790  132.1600 C.2       1 GLN         0.1737
     17 OE1        95.7300   21.4630  131.4580 O.2       1 GLN        -0.3973
     18 NE2        97.8520   20.6550  131.6830 N.am      1 GLN        -0.3009
     19 N          96.1320   15.6810  133.4670 N.am      1 THR        -0.2613
     20 CA         96.3910   14.2520  133.7770 C.3       1 THR         0.1565
     21 C          95.4810   13.3580  132.9470 C.2       1 THR         0.2065
     22 O          94.4390   13.7090  132.4860 O.2       1 THR        -0.3943
     23 CB         96.1430   13.9690  135.2510 C.3       1 THR         0.0924
     24 OG1        94.8170   14.4270  135.6020 O.3       1 THR        -0.3874
     25 CG2        97.2100   14.5570  136.1490 C.3       1 THR        -0.0346
     26 N          95.9610   12.1320  132.7230 N.am      1 ALA        -0.2639
     27 CA         95.2630   11.1260  131.9380 C.3       1 ALA         0.1282
     28 C          94.0660   10.6210  132.7300 C.2       1 ALA         0.2036
     29 O          94.2190   10.4010  133.9450 O.2       1 ALA        -0.3944
     30 CB         96.2030    9.9490  131.7270 C.3       1 ALA        -0.0244
     31 N          92.9720   10.4640  132.0360 N.am      1 ARG        -0.2637
     32 CA         91.7060   10.0320  132.6330 C.3       1 ARG         0.1311
     33 C          91.1320    8.9090  131.8350 C.2       1 ARG         0.2039
     34 O          90.9310    9.0620  130.6610 O.2       1 ARG        -0.3944
     35 CB         90.6730   11.1920  132.7150 C.3       1 ARG        -0.0092
     36 CG         91.2360   12.4910  133.2800 C.3       1 ARG        -0.0156
     37 CD         91.5840   12.4410  134.7910 C.3       1 ARG         0.0627
     38 NE         92.0900   13.7810  135.1960 N.pl3     1 ARG        -0.2723
     39 CZ         91.2930   14.7800  135.6050 C.cat     1 ARG         0.2882
     40 NH1        89.9950   14.6200  135.6840 N.pl3     1 ARG        -0.2849
     41 NH2        91.8400   15.9450  135.9490 N.pl3     1 ARG        -0.2849
     42 N          90.8000    7.7620  132.4830 N.am      1 NLE        -0.2637
     43 CA         89.9340    6.8290  131.8650 C.3       1 NLE         0.1310
     44 C          88.5520    7.3510  131.8740 C.2       1 NLE         0.2040
     45 O          88.2270    8.1850  132.7010 O.2       1 NLE        -0.3944
     46 CB         89.9390    5.4930  132.6680 C.3       1 NLE        -0.0124
     47 CG         91.3090    4.9060  132.9150 C.3       1 NLE        -0.0491
     48 CD         91.2200    4.0140  134.2160 C.3       1 NLE        -0.0557
     49 CE         92.4330    3.1320  134.3540 C.3       1 NLE        -0.0653
     50 N          87.7330    6.9130  130.9510 N.am      1 SER        -0.2616
     51 CA         86.4490    7.5110  130.7930 C.3       1 SER         0.1539
     52 C          85.5660    6.5940  129.9730 C.2       1 SER         0.2057
     53 O          86.0620    5.7030  129.3130 O.2       1 SER        -0.3943
     54 CB         86.6310    8.9270  130.1920 C.3       1 SER         0.0843
     55 OG         86.9210    8.8480  128.7930 O.3       1 SER        -0.3903
     56 N          84.2680    6.7850  130.0500 N.am      1 THR        -0.2669
     57 CA         83.3010    6.0270  129.2260 C.3       1 THR         0.1198
     58 C          83.1800    6.6480  127.8250 C.2       1 THR         0.0626
     59 O          83.5810    7.8110  127.6860 O.co2     1 THR        -0.5665
     60 CB         81.9150    6.0590  129.8410 C.3       1 THR         0.0869
     61 OG1        81.4590    7.4230  129.9090 O.3       1 THR        -0.3880
     62 CG2        81.9190    5.5200  131.2470 C.3       1 THR        -0.0352
     63 OXT        82.6900    5.9410  126.9340 O.co2     1 THR        -0.5665
     64 H1         92.0759   18.2721  129.5963 H         1 LYS         0.2015
     65 H2         93.2849   17.2009  129.2793 H         1 LYS         0.2015
     66 H3         93.5767   18.8189  129.1988 H         1 LYS         0.2015
     67 H4         93.2037   19.0813  131.5459 H         1 LYS         0.1098
     68 H5         92.8434   17.0622  132.9244 H         1 LYS         0.0346
     69 H6         92.9507   16.0115  131.4714 H         1 LYS         0.0346
     70 H7         90.9183   16.8423  130.5999 H         1 LYS         0.0270
     71 H8         90.8788   18.1939  131.7824 H         1 LYS         0.0270
     72 H9         90.7238   16.3319  133.5902 H         1 LYS         0.0317
     73 H10        90.2941   15.2466  132.2248 H         1 LYS         0.0317
     74 H11        88.5366   16.9703  131.5600 H         1 LYS         0.0813
     75 H12        88.8718   17.7960  133.1196 H         1 LYS         0.0813
     76 H13        86.9725   16.3521  133.2579 H         1 LYS         0.1994
     77 H14        88.1687   15.7966  134.2427 H         1 LYS         0.1994
     78 H15        87.8615   15.0399  132.8135 H         1 LYS         0.1994
     79 H16        94.6956   18.1602  133.1948 H         1 GLN         0.1885
     80 H17        97.3193   18.2715  131.8881 H         1 GLN         0.0801
     81 H18        98.0678   19.0178  134.0890 H         1 GLN         0.0337
     82 H19        96.5095   18.5264  134.8353 H         1 GLN         0.0337
     83 H20        96.8431   21.0701  134.3204 H         1 GLN         0.0504
     84 H21        95.3013   20.3140  133.7933 H         1 GLN         0.0504
     85 H22        98.0918   20.9566  130.7602 H         1 GLN         0.1814
     86 H23        98.5306   20.1852  132.2476 H         1 GLN         0.1814
     87 H24        95.2072   16.0515  133.5535 H         1 THR         0.1884
     88 H25        97.4397   14.0218  133.5377 H         1 THR         0.0826
     89 H26        96.1695   12.8782  135.3907 H         1 THR         0.0639
     90 H27        94.6562   14.2529  136.5220 H         1 THR         0.2101
     91 H28        96.9775   14.3207  137.1979 H         1 THR         0.0257
     92 H29        97.2396   15.6486  136.0170 H         1 THR         0.0257
     93 H30        98.1883   14.1290  135.8849 H         1 THR         0.0257
     94 H31        96.8487   11.8926  133.1164 H         1 ALA         0.1883
     95 H32        94.9405   11.5456  130.9737 H         1 ALA         0.0797
     96 H33        95.6938    9.1748  131.1342 H         1 ALA         0.0277
     97 H34        96.4932    9.5320  132.7026 H         1 ALA         0.0277
     98 H35        97.1017   10.2889  131.1915 H         1 ALA         0.0277
     99 H36        92.9992   10.6467  131.0532 H         1 ARG         0.1883
    100 H37        91.9085    9.6755  133.6537 H         1 ARG         0.0800
    101 H38        89.8410   10.8683  133.3576 H         1 ARG         0.0313
    102 H39        90.2969   11.3914  131.7007 H         1 ARG         0.0313
    103 H40        90.4895   13.2841  133.1260 H         1 ARG         0.0301
    104 H41        92.1530   12.7377  132.7248 H         1 ARG         0.0301
    105 H42        92.3587   11.6808  134.9698 H         1 ARG         0.0689
    106 H43        90.6842   12.1914  135.3724 H         1 ARG         0.0689
    107 H44        93.1054   13.9503  135.1604 H         1 ARG         0.2642
    108 H45        89.3985   15.3979  136.0001 H         1 ARG         0.2615
    109 H46        89.5711   13.7163  135.4301 H         1 ARG         0.2615
    110 H47        92.8602   16.0730  135.8877 H         1 ARG         0.2615
    111 H48        91.2427   16.7177  136.2763 H         1 ARG         0.2615
    112 H49        91.1669    7.5775  133.3948 H         1 NLE         0.1883
    113 H50        90.2625    6.6485  130.8308 H         1 NLE         0.0800
    114 H51        89.3467    4.7548  132.1074 H         1 NLE         0.0312
    115 H52        89.4656    5.6785  133.6434 H         1 NLE         0.0312
    116 H53        92.0416    5.7131  133.0632 H         1 NLE         0.0267
    117 H54        91.6125    4.2883  132.0570 H         1 NLE         0.0267
    118 H55        90.3215    3.3822  134.1574 H         1 NLE         0.0263
    119 H56        91.1506    4.6694  135.0967 H         1 NLE         0.0263
    120 H57        92.3426    2.5244  135.2665 H         1 NLE         0.0230
    121 H58        93.3357    3.7573  134.4178 H         1 NLE         0.0230
    122 H59        92.5066    2.4701  133.4786 H         1 NLE         0.0230
    123 H60        88.0088    6.1579  130.3562 H         1 SER         0.1884
    124 H61        85.9854    7.6232  131.7842 H         1 SER         0.0823
    125 H62        87.4619    9.4333  130.7051 H         1 SER         0.0606
    126 H63        85.7051    9.5028  130.3370 H         1 SER         0.0606
    127 H64        87.7219    8.3535  128.6642 H         1 SER         0.2097
    128 H65        83.9204    7.4696  130.6907 H         1 THR         0.1876
    129 H66        83.6442    4.9853  129.1423 H         1 THR         0.0752
    130 H67        81.2303    5.4628  129.2200 H         1 THR         0.0632
    131 H68        82.0580    7.9296  130.4447 H         1 THR         0.2100
    132 H69        80.8993    5.5595  131.6577 H         1 THR         0.0256
    133 H70        82.5895    6.1289  131.8712 H         1 THR         0.0256
    134 H71        82.2710    4.4779  131.2392 H         1 THR         0.0256
@<TRIPOS>BOND
     1    1    2 1  
     2    2    3 1  
     3    2    5 1  
     4    3    4 2  
     5    3   10 am 
     6    5    6 1  
     7    6    7 1  
     8    7    8 1  
     9    8    9 1  
    10   10   11 1  
    11   11   12 1  
    12   11   14 1  
    13   12   13 2  
    14   12   19 am 
    15   14   15 1  
    16   15   16 1  
    17   16   17 2  
    18   16   18 am 
    19   19   20 1  
    20   20   21 1  
    21   20   23 1  
    22   21   22 2  
    23   21   26 am 
    24   23   24 1  
    25   23   25 1  
    26   26   27 1  
    27   27   28 1  
    28   27   30 1  
    29   28   29 2  
    30   28   31 am 
    31   31   32 1  
    32   32   33 1  
    33   32   35 1  
    34   33   34 2  
    35   33   42 am 
    36   35   36 1  
    37   36   37 1  
    38   37   38 1  
    39   38   39 ar 
    40   39   40 ar 
    41   39   41 ar 
    42   42   43 1  
    43   43   44 1  
    44   43   46 1  
    45   44   45 2  
    46   44   50 am 
    47   46   47 1  
    48   47   48 1  
    49   48   49 1  
    50   50   51 1  
    51   51   52 1  
    52   51   54 1  
    53   52   53 2  
    54   52   56 am 
    55   54   55 1  
    56   56   57 1  
    57   57   58 1  
    58   57   60 1  
    59   58   59 ar 
    60   58   63 ar 
    61   60   61 1  
    62   60   62 1  
    63    1   64 1  
    64    1   65 1  
    65    1   66 1  
    66    2   67 1  
    67    5   68 1  
    68    5   69 1  
    69    6   70 1  
    70    6   71 1  
    71    7   72 1  
    72    7   73 1  
    73    8   74 1  
    74    8   75 1  
    75    9   76 1  
    76    9   77 1  
    77    9   78 1  
    78   10   79 1  
    79   11   80 1  
    80   14   81 1  
    81   14   82 1  
    82   15   83 1  
    83   15   84 1  
    84   18   85 1  
    85   18   86 1  
    86   19   87 1  
    87   20   88 1  
    88   23   89 1  
    89   24   90 1  
    90   25   91 1  
    91   25   92 1  
    92   25   93 1  
    93   26   94 1  
    94   27   95 1  
    95   30   96 1  
    96   30   97 1  
    97   30   98 1  
    98   31   99 1  
    99   32  100 1  
   100   35  101 1  
   101   35  102 1  
   102   36  103 1  
   103   36  104 1  
   104   37  105 1  
   105   37  106 1  
   106   38  107 1  
   107   40  108 1  
   108   40  109 1  
   109   41  110 1  
   110   41  111 1  
   111   42  112 1  
   112   43  113 1  
   113   46  114 1  
   114   46  115 1  
   115   47  116 1  
   116   47  117 1  
   117   48  118 1  
   118   48  119 1  
   119   49  120 1  
   120   49  121 1  
   121   49  122 1  
   122   50  123 1  
   123   51  124 1  
   124   54  125 1  
   125   54  126 1  
   126   55  127 1  
   127   56  128 1  
   128   57  129 1  
   129   60  130 1  
   130   61  131 1  
   131   62  132 1  
   132   62  133 1  
   133   62  134 1  
@<TRIPOS>SUBSTRUCTURE
     1 LYS         1

