1o6q_ligand
  -I-interpret- 

 49 51  0  0  0  0  0  0  0  0999 V2000
   63.1340   67.6950   58.8050 C   0  0  0  0  0
   63.1290   68.9560   58.3740 C   0  0  0  0  0
   63.7300   70.0980   59.1590 C   0  0  0  0  0
   62.9050   71.3300   59.0640 N   0  3  0  0  0
   61.6770   71.2420   59.9220 C   0  0  0  0  0
   61.9050   71.5060   61.4030 C   0  0  0  0  0
   62.1260   70.5520   62.3090 C   0  0  0  0  0
   62.3430   70.8550   63.7650 C   0  0  0  0  0
   63.7190   71.2540   63.9650 O   0  0  0  0  0
   64.2430   71.0620   65.2680 C   0  0  0  0  0
   63.7170   70.0560   66.1390 C   0  0  0  0  0
   64.3020   69.9320   67.4120 C   0  0  0  0  0
   63.9750   69.0710   68.3720 O   0  0  0  0  0
   64.8010   69.2810   69.4480 C   0  0  0  0  0
   65.6720   70.2760   69.2090 C   0  0  0  0  0
   65.3710   70.7390   67.8690 C   0  0  0  0  0
   65.8910   71.7310   67.0190 C   0  0  0  0  0
   65.3160   71.8850   65.7130 C   0  0  0  0  0
   66.7140   70.7430   70.1670 C   0  0  0  0  0
   67.4470   69.7690   70.8920 C   0  0  0  0  0
   68.4430   70.1650   71.8020 C   0  0  0  0  0
   68.7110   71.5280   71.9910 C   0  0  0  0  0
   67.9840   72.5200   71.2700 C   0  0  0  0  0
   66.9830   72.1230   70.3570 C   0  0  0  0  0
   70.0100   72.0260   73.1920 Br  0  0  0  0  0
   63.7350   72.5360   59.3980 C   0  0  0  0  0
   63.5866   67.4492   59.7656 H   0  0  0  0  0
   62.6855   66.9094   58.1969 H   0  0  0  0  0
   62.6697   69.1735   57.4097 H   0  0  0  0  0
   64.7159   70.3142   58.7475 H   0  0  0  0  0
   63.7830   69.8021   60.2067 H   0  0  0  0  0
   62.5802   71.4250   58.1018 H   0  0  0  0  0
   61.3080   70.2198   59.8384 H   0  0  0  0  0
   60.9907   72.0112   59.5679 H   0  0  0  0  0
   61.8866   72.5406   61.7456 H   0  0  0  0  0
   62.1501   69.5129   61.9807 H   0  0  0  0  0
   62.1281   69.9676   64.3604 H   0  0  0  0  0
   61.6784   71.6615   64.0749 H   0  0  0  0  0
   62.8951   69.4110   65.8281 H   0  0  0  0  0
   64.7562   68.7133   70.3774 H   0  0  0  0  0
   66.7126   72.3689   67.3447 H   0  0  0  0  0
   65.7106   72.6510   65.0454 H   0  0  0  0  0
   67.2375   68.7097   70.7432 H   0  0  0  0  0
   69.0048   69.4149   72.3586 H   0  0  0  0  0
   68.1995   73.5775   71.4226 H   0  0  0  0  0
   66.4199   72.8726   69.8011 H   0  0  0  0  0
   63.1428   73.4377   59.2417 H   0  0  0  0  0
   64.0489   72.4821   60.4404 H   0  0  0  0  0
   64.6137   72.5606   58.7535 H   0  0  0  0  0
  1  2  2  0  0  0
  2  3  1  0  0  0
  3  4  1  0  0  0
  4  5  1  0  0  0
  4 26  1  0  0  0
  5  6  1  0  0  0
  6  7  2  0  0  0
  7  8  1  0  0  0
  8  9  1  0  0  0
  9 10  1  0  0  0
 10 11  4  0  0  0
 10 18  4  0  0  0
 11 12  4  0  0  0
 12 13  4  0  0  0
 12 16  4  0  0  0
 13 14  4  0  0  0
 14 15  4  0  0  0
 15 16  4  0  0  0
 15 19  1  0  0  0
 16 17  4  0  0  0
 17 18  4  0  0  0
 19 20  4  0  0  0
 19 24  4  0  0  0
 20 21  4  0  0  0
 21 22  4  0  0  0
 22 23  4  0  0  0
 22 25  1  0  0  0
 23 24  4  0  0  0
  1 27  1  0  0  0
  1 28  1  0  0  0
  2 29  1  0  0  0
  3 30  1  0  0  0
  3 31  1  0  0  0
  4 32  1  0  0  0
  5 33  1  0  0  0
  5 34  1  0  0  0
  6 35  1  0  0  0
  7 36  1  0  0  0
  8 37  1  0  0  0
  8 38  1  0  0  0
 11 39  1  0  0  0
 14 40  1  0  0  0
 17 41  1  0  0  0
 18 42  1  0  0  0
 20 43  1  0  0  0
 21 44  1  0  0  0
 23 45  1  0  0  0
 24 46  1  0  0  0
 26 47  1  0  0  0
 26 48  1  0  0  0
 26 49  1  0  0  0
M  END
$$$$
