5w4r_ligand
  -I-interpret- 

 75 80  0  0  0  0  0  0  0  0999 V2000
  -31.6140    6.6300   -2.6500 C   0  0  0  0  0
  -32.2740    7.6510   -3.5720 C   0  0  0  0  0
  -33.7920    7.6090   -3.5320 C   0  0  0  0  0
  -34.4690    6.5680   -2.8640 C   0  0  0  0  0
  -35.8770    6.5400   -2.8320 C   0  0  0  0  0
  -36.6310    7.5560   -3.4690 C   0  0  0  0  0
  -35.9440    8.5960   -4.1360 C   0  0  0  0  0
  -40.1970    8.0260   -3.7940 C   0  0  0  0  0
  -40.0220    6.9210   -2.9200 C   0  0  0  0  0
  -28.6760    1.0560   -2.1250 C   0  0  0  0  0
  -29.6320   -0.0880   -1.8110 C   0  0  0  0  0
  -31.3660   -1.4290   -1.7950 C   0  0  0  0  0
  -27.8470   -0.3610   -4.1330 C   0  0  0  0  0
  -27.0110    2.0420   -3.9290 C   0  0  0  0  0
  -24.9190    0.1780   -5.9980 C   0  0  0  0  0
  -32.0830    8.3180    0.6130 C   0  0  0  0  0
  -32.0710    8.0770   -0.7900 O   0  0  0  0  0
  -31.5370    6.8960   -1.2670 C   0  0  0  0  0
  -30.9670    6.0430   -0.3860 N   0  0  0  0  0
  -30.4400    4.8820   -0.8350 C   0  0  0  0  0
  -29.8450    3.9910    0.0810 C   0  0  0  0  0
  -29.2870    2.7740   -0.3470 C   0  0  0  0  0
  -29.3070    2.4030   -1.7090 C   0  0  0  0  0
  -29.9020    3.2990   -2.6310 C   0  0  0  0  0
  -30.4660    4.5250   -2.2080 C   0  0  0  0  0
  -31.0650    5.4170   -3.1320 C   0  0  0  0  0
  -31.1260    5.0350   -4.8230 Cl  0  0  0  0  0
  -34.5370    8.6220   -4.1660 C   0  0  0  0  0
  -38.0530    7.5490   -3.4480 N   0  0  0  0  0
  -38.9220    8.4020   -4.1070 C   0  0  0  0  0
  -38.7430    6.6380   -2.7150 N   0  0  0  0  0
  -27.4800    0.8410   -1.3940 O   0  0  0  0  0
  -29.4380   -1.1410   -0.9360 C   0  0  0  0  0
  -30.5410   -1.9910   -0.9240 N   0  0  0  0  0
  -30.9100   -0.3050   -2.3650 N   0  0  0  0  0
  -31.6610    0.4630   -3.3460 C   0  0  0  0  0
  -28.1840    1.0660   -3.6160 C   0  0  0  0  0
  -27.3290   -0.3550   -5.5810 C   0  0  0  0  0
  -26.1810    0.5520   -5.6770 N   0  0  0  0  0
  -26.5630    1.9420   -5.3980 C   0  0  0  0  0
  -24.6190   -1.2970   -6.2720 C   0  0  0  0  0
  -23.9830    0.9800   -6.0690 O   0  0  0  0  0
  -31.9660    7.4197   -4.5917 H   0  0  0  0  0
  -31.9642    8.6418   -3.2397 H   0  0  0  0  0
  -33.8998    5.7807   -2.3697 H   0  0  0  0  0
  -36.3902    5.7304   -2.3131 H   0  0  0  0  0
  -36.5092    9.3852   -4.6317 H   0  0  0  0  0
  -41.1316    8.4708   -4.1357 H   0  0  0  0  0
  -40.8457    6.3680   -2.4687 H   0  0  0  0  0
  -32.3435   -1.8497   -2.0307 H   0  0  0  0  0
  -28.7614   -0.9537   -4.1051 H   0  0  0  0  0
  -27.0635   -0.7730   -3.4970 H   0  0  0  0  0
  -26.1657    1.7776   -3.2936 H   0  0  0  0  0
  -27.3528    3.0602   -3.7430 H   0  0  0  0  0
  -32.6609    7.5384    1.1093 H   0  0  0  0  0
  -31.0605    8.3101    0.9905 H   0  0  0  0  0
  -32.5367    9.2894    0.8096 H   0  0  0  0  0
  -29.8171    4.2502    1.1394 H   0  0  0  0  0
  -28.8316    2.1061    0.3842 H   0  0  0  0  0
  -29.9256    3.0379   -3.6890 H   0  0  0  0  0
  -34.0210    9.4310   -4.6830 H   0  0  0  0  0
  -38.6386    9.2275   -4.7600 H   0  0  0  0  0
  -26.8619    1.5522   -1.5776 H   0  0  0  0  0
  -28.5403   -1.2865   -0.3351 H   0  0  0  0  0
  -31.8269    1.4712   -2.9665 H   0  0  0  0  0
  -31.0961    0.5122   -4.2769 H   0  0  0  0  0
  -32.6207   -0.0210   -3.5271 H   0  0  0  0  0
  -29.0437    1.4558   -4.1610 H   0  0  0  0  0
  -28.1194   -0.0177   -6.2515 H   0  0  0  0  0
  -27.0248   -1.3623   -5.8655 H   0  0  0  0  0
  -25.7140    2.6028   -5.5731 H   0  0  0  0  0
  -27.3783    2.2423   -6.0562 H   0  0  0  0  0
  -24.2269   -1.4049   -7.2833 H   0  0  0  0  0
  -23.8809   -1.6557   -5.5546 H   0  0  0  0  0
  -25.5362   -1.8775   -6.1726 H   0  0  0  0  0
  1  2  1  0  0  0
  1 18  4  0  0  0
 26  1  4  0  0  0
  2  3  1  0  0  0
  3  4  4  0  0  0
  3 28  4  0  0  0
  4  5  4  0  0  0
  5  6  4  0  0  0
  7  6  4  0  0  0
  6 29  1  0  0  0
 28  7  4  0  0  0
  9  8  4  0  0  0
 30  8  4  0  0  0
 31  9  4  0  0  0
 10 11  1  0  0  0
 10 23  1  0  0  0
 10 32  1  0  0  0
 37 10  1  0  0  0
 11 33  4  0  0  0
 11 35  4  0  0  0
 12 34  4  0  0  0
 35 12  4  0  0  0
 13 37  1  0  0  0
 38 13  1  0  0  0
 37 14  1  0  0  0
 14 40  1  0  0  0
 39 15  1  0  0  0
 15 41  1  0  0  0
 15 42  2  0  0  0
 17 16  1  0  0  0
 18 17  1  0  0  0
 19 18  4  0  0  0
 20 19  4  0  0  0
 21 20  4  0  0  0
 25 20  4  0  0  0
 22 21  4  0  0  0
 23 22  4  0  0  0
 23 24  4  0  0  0
 24 25  4  0  0  0
 25 26  4  0  0  0
 26 27  1  0  0  0
 29 30  4  0  0  0
 29 31  4  0  0  0
 33 34  4  0  0  0
 35 36  1  0  0  0
 38 39  1  0  0  0
 39 40  1  0  0  0
  2 43  1  0  0  0
  2 44  1  0  0  0
  4 45  1  0  0  0
  5 46  1  0  0  0
  7 47  1  0  0  0
  8 48  1  0  0  0
  9 49  1  0  0  0
 12 50  1  0  0  0
 13 51  1  0  0  0
 13 52  1  0  0  0
 14 53  1  0  0  0
 14 54  1  0  0  0
 16 55  1  0  0  0
 16 56  1  0  0  0
 16 57  1  0  0  0
 21 58  1  0  0  0
 22 59  1  0  0  0
 24 60  1  0  0  0
 28 61  1  0  0  0
 30 62  1  0  0  0
 32 63  1  0  0  0
 33 64  1  0  0  0
 36 65  1  0  0  0
 36 66  1  0  0  0
 36 67  1  0  0  0
 37 68  1  0  0  0
 38 69  1  0  0  0
 38 70  1  0  0  0
 40 71  1  0  0  0
 40 72  1  0  0  0
 41 73  1  0  0  0
 41 74  1  0  0  0
 41 75  1  0  0  0
M  END
$$$$
