3tz4_ligand
  -I-interpret- 

 20 19  0  0  0  0  0  0  0  0999 V2000
   -8.1750  -29.2420   14.7770 Cl  0  0  0  0  0
   -7.6730  -31.6310   13.6490 C   0  0  0  0  0
   -7.0450  -32.6690   13.6390 O   0  0  0  0  0
   -7.9570  -31.0180   14.9910 C   0  0  0  0  0
   -8.4250  -31.3380   12.5780 O   0  0  0  0  0
   -9.1900  -31.7190   15.5760 C   0  0  0  0  0
   -9.4970  -31.3490   17.0250 C   0  0  0  0  0
  -10.9950  -31.4060   17.2580 C   0  0  0  0  0
   -8.7860  -32.2460   18.0300 C   0  0  0  0  0
   -7.1358  -31.1527   15.6950 H   0  0  0  0  0
   -8.8642  -30.4958   12.7175 H   0  0  0  0  0
   -8.9893  -32.7902   15.5548 H   0  0  0  0  0
  -10.0475  -31.4100   14.9782 H   0  0  0  0  0
   -9.1247  -30.3368   17.1831 H   0  0  0  0  0
  -11.3417  -32.4321   17.1356 H   0  0  0  0  0
  -11.2175  -31.0641   18.2688 H   0  0  0  0  0
  -11.4984  -30.7626   16.5364 H   0  0  0  0  0
   -9.0081  -31.9042   19.0409 H   0  0  0  0  0
   -9.1323  -33.2723   17.9078 H   0  0  0  0  0
   -7.7106  -32.2011   17.8580 H   0  0  0  0  0
  4  1  1  0  0  0
  2  3  2  0  0  0
  2  4  1  0  0  0
  2  5  1  0  0  0
  4  6  1  0  0  0
  6  7  1  0  0  0
  7  8  1  0  0  0
  7  9  1  0  0  0
  4 10  1  0  0  0
  5 11  1  0  0  0
  6 12  1  0  0  0
  6 13  1  0  0  0
  7 14  1  0  0  0
  8 15  1  0  0  0
  8 16  1  0  0  0
  8 17  1  0  0  0
  9 18  1  0  0  0
  9 19  1  0  0  0
  9 20  1  0  0  0
M  END
$$$$
