6dpy_ligand
  -I-interpret- 

 41 43  0  0  0  0  0  0  0  0999 V2000
   22.6710    6.1810  -28.8310 C   0  0  0  0  0
   20.2560    6.5800  -29.0570 C   0  0  0  0  0
   18.0570    7.5550  -29.2330 C   0  0  0  0  0
   18.8550    6.8000  -27.0790 C   0  0  0  0  0
   20.0440    6.4130  -27.6970 C   0  0  0  0  0
   18.9080    7.6490  -23.1890 C   0  0  0  0  0
   16.9850    9.2470  -22.4380 C   0  0  0  0  0
   18.3760    8.9220  -22.9850 C   0  0  0  0  0
   20.4140    9.1940  -23.7750 C   0  0  0  0  0
   21.6930    9.8650  -24.2830 C   0  0  0  0  0
   20.1970    7.8340  -23.6940 C   0  0  0  0  0
   21.1970    5.7260  -26.9110 C   0  0  0  0  0
   22.5250    6.2810  -27.3280 C   0  0  0  0  0
   19.2480    7.1550  -29.8410 C   0  0  0  0  0
   17.8530    7.3780  -27.8520 C   0  0  0  0  0
   18.1840    6.3220  -22.9170 C   0  0  0  0  0
   16.6760    7.7650  -27.2600 F   0  0  0  0  0
   20.8520    5.6410  -25.4760 N   0  0  0  0  0
   19.3080    9.8310  -23.3470 O   0  0  0  0  0
   21.6710    5.7210  -23.0340 O   0  0  0  0  0
   22.7420    7.1570  -24.4570 O   0  0  0  0  0
   21.5090    6.1420  -29.6280 O   0  0  0  0  0
   17.1380    6.2950  -22.2120 O   0  0  0  0  0
   18.6440    5.2370  -23.3750 O   0  0  0  0  0
   21.4190    6.5860  -24.1780 S   0  0  0  0  0
   23.1622    5.2233  -29.0028 H   0  0  0  0  0
   23.1834    7.0969  -29.1254 H   0  0  0  0  0
   17.2729    8.0115  -29.8372 H   0  0  0  0  0
   18.7132    6.6521  -26.0084 H   0  0  0  0  0
   16.2283    8.8179  -23.0948 H   0  0  0  0  0
   16.8815    8.8254  -21.4382 H   0  0  0  0  0
   16.8574   10.3286  -22.3926 H   0  0  0  0  0
   22.5342    9.5582  -23.6615 H   0  0  0  0  0
   21.8738    9.5651  -25.3152 H   0  0  0  0  0
   21.5783   10.9478  -24.2327 H   0  0  0  0  0
   21.3202    4.6748  -27.1716 H   0  0  0  0  0
   22.5897    7.3268  -27.0277 H   0  0  0  0  0
   23.3211    5.7109  -26.8491 H   0  0  0  0  0
   19.3918    7.2886  -30.9132 H   0  0  0  0  0
   20.1801    4.9144  -25.2288 H   0  0  0  0  0
   19.4358    5.4173  -23.8871 H   0  0  0  0  0
 13  1  1  0  0  0
  1 22  1  0  0  0
  5  2  4  0  0  0
  2 14  4  0  0  0
  2 22  1  0  0  0
 14  3  4  0  0  0
 15  3  4  0  0  0
  5  4  4  0  0  0
  4 15  4  0  0  0
 12  5  1  0  0  0
  6  8  4  0  0  0
 11  6  4  0  0  0
  6 16  1  0  0  0
  8  7  1  0  0  0
 19  8  4  0  0  0
  9 10  1  0  0  0
 11  9  4  0  0  0
  9 19  4  0  0  0
 25 11  1  0  0  0
 12 13  1  0  0  0
 18 12  1  0  0  0
 15 17  1  0  0  0
 16 23  2  0  0  0
 16 24  1  0  0  0
 18 25  1  0  0  0
 25 20  2  0  0  0
 25 21  2  0  0  0
  1 26  1  0  0  0
  1 27  1  0  0  0
  3 28  1  0  0  0
  4 29  1  0  0  0
  7 30  1  0  0  0
  7 31  1  0  0  0
  7 32  1  0  0  0
 10 33  1  0  0  0
 10 34  1  0  0  0
 10 35  1  0  0  0
 12 36  1  0  0  0
 13 37  1  0  0  0
 13 38  1  0  0  0
 14 39  1  0  0  0
 18 40  1  0  0  0
 24 41  1  0  0  0
M  END
$$$$
