1at5_ligand
  -I-interpret- 

 84 86  0  0  0  0  0  0  0  0999 V2000
    0.9260   26.6220   35.5900 C   0  0  0  0  0
    0.6330   26.1320   37.0110 C   0  0  0  0  0
   -0.7300   26.6860   37.4410 C   0  0  0  0  0
   -0.6860   28.2190   37.3700 C   0  0  0  0  0
   -0.3460   28.6190   35.9250 C   0  0  0  0  0
   -0.2800   30.1110   35.6720 C   0  0  0  0  0
    1.6700   24.0010   37.5250 C   0  0  0  0  0
    1.5600   22.4830   37.5320 C   0  0  0  0  0
    0.6250   24.6800   37.0490 N   0  0  0  0  0
   -1.0590   26.2490   38.7530 O   0  0  0  0  0
   -1.9450   28.7700   37.7500 O   0  0  0  0  0
    0.9300   28.0560   35.5420 O   0  0  0  0  0
   -0.3580   30.3870   34.2790 O   0  0  0  0  0
    2.6990   24.5420   37.9310 O   0  0  0  0  0
    4.2690   26.1440   31.5340 C   0  0  0  0  0
    4.0870   27.4930   32.2300 C   0  0  0  0  0
    3.6500   27.3550   33.6720 C   0  0  0  0  0
    2.4750   26.4070   33.7800 C   0  0  0  0  0
    2.7900   25.0840   33.0970 C   0  0  0  0  0
    1.6000   24.1390   33.1280 C   0  0  0  0  0
    5.5030   29.2310   31.3310 C   0  0  0  0  0
    6.8410   29.9610   31.3530 C   0  0  0  0  0
    5.3340   28.2350   32.1960 N   0  0  0  0  0
    3.2610   28.6340   34.1330 O   0  0  0  0  0
    2.1680   26.1770   35.1690 O   0  0  0  0  0
    3.1200   25.3070   31.7140 O   0  0  0  0  0
    0.4600   24.7360   32.5200 O   0  0  0  0  0
    4.6300   29.5780   30.5350 O   0  0  0  0  0
    5.9260   24.7590   26.6890 C   0  0  0  0  0
    4.6300   24.1040   27.1640 C   0  0  0  0  0
    3.9680   24.9500   28.2640 C   0  0  0  0  0
    4.9780   25.3730   29.3480 C   0  0  0  0  0
    6.2350   25.9460   28.7180 C   0  0  0  0  0
    7.3220   26.2930   29.7270 C   0  0  0  0  0
    3.4690   22.7380   25.5340 C   0  0  0  0  0
    2.5500   22.6760   24.3250 C   0  0  0  0  0
    3.7370   23.9470   26.0230 N   0  0  0  0  0
    6.5800   23.9010   25.8170 O   0  0  0  0  0
    2.9460   24.1850   28.8720 O   0  0  0  0  0
    4.3920   26.3860   30.1760 O   0  0  0  0  0
    6.7890   24.9900   27.7970 O   0  0  0  0  0
    7.9360   25.1220   30.2510 O   0  0  0  0  0
    3.8820   21.6970   26.0510 O   0  0  0  0  0
    0.1455   26.2274   34.9394 H   0  0  0  0  0
    1.4067   26.4821   37.6943 H   0  0  0  0  0
   -1.5036   26.3144   36.7690 H   0  0  0  0  0
    0.0689   28.6038   38.0557 H   0  0  0  0  0
   -1.1708   28.2263   35.3303 H   0  0  0  0  0
    0.6666   30.4924   36.0549 H   0  0  0  0  0
   -1.1193   30.5917   36.1746 H   0  0  0  0  0
    2.3471   22.0601   36.9077 H   0  0  0  0  0
    1.6681   22.1169   38.5530 H   0  0  0  0  0
    0.5863   22.1887   37.1403 H   0  0  0  0  0
   -0.1910   24.1725   36.7070 H   0  0  0  0  0
   -1.0807   25.2895   38.7734 H   0  0  0  0  0
   -2.1458   28.5135   38.6530 H   0  0  0  0  0
   -0.3146   31.3357   34.1390 H   0  0  0  0  0
    5.1434   25.6470   31.9541 H   0  0  0  0  0
    3.3010   28.0201   31.6892 H   0  0  0  0  0
    4.4703   26.9577   34.2698 H   0  0  0  0  0
    1.6147   26.8567   33.2843 H   0  0  0  0  0
    3.6265   24.6413   33.6378 H   0  0  0  0  0
    1.3626   23.9089   34.1667 H   0  0  0  0  0
    1.8570   23.2342   32.5772 H   0  0  0  0  0
    7.3189   29.8706   30.3775 H   0  0  0  0  0
    6.6753   31.0138   31.5817 H   0  0  0  0  0
    7.4822   29.5188   32.1155 H   0  0  0  0  0
    6.0862   27.9908   32.8402 H   0  0  0  0  0
    2.9790   28.5708   35.0485 H   0  0  0  0  0
   -0.2768   24.1215   32.5517 H   0  0  0  0  0
    5.6816   25.7012   26.1984 H   0  0  0  0  0
    4.8492   23.1246   27.5893 H   0  0  0  0  0
    3.5667   25.8521   27.8022 H   0  0  0  0  0
    5.2352   24.4923   29.9365 H   0  0  0  0  0
    5.9284   26.8676   28.2233 H   0  0  0  0  0
    6.8671   26.8436   30.5504 H   0  0  0  0  0
    8.0842   26.8882   29.2240 H   0  0  0  0  0
    3.0583   22.1609   23.5099 H   0  0  0  0  0
    1.6415   22.1344   24.5882 H   0  0  0  0  0
    2.2935   23.6884   24.0129 H   0  0  0  0  0
    3.3136   24.7706   25.5953 H   0  0  0  0  0
    7.3947   24.3109   25.5174 H   0  0  0  0  0
    2.5258   24.7047   29.5611 H   0  0  0  0  0
    8.6146   25.3729   30.8820 H   0  0  0  0  0
  1  2  1  0  0  0
  1 12  1  0  0  0
 25  1  1  0  0  0
  2  3  1  0  0  0
  2  9  1  0  0  0
  3  4  1  0  0  0
  3 10  1  0  0  0
  5  4  1  0  0  0
  4 11  1  0  0  0
  5  6  1  0  0  0
 12  5  1  0  0  0
  6 13  1  0  0  0
  7  8  1  0  0  0
  9  7  1  0  0  0
  7 14  2  0  0  0
 15 16  1  0  0  0
 15 26  1  0  0  0
 40 15  1  0  0  0
 16 17  1  0  0  0
 16 23  1  0  0  0
 17 18  1  0  0  0
 17 24  1  0  0  0
 19 18  1  0  0  0
 18 25  1  0  0  0
 19 20  1  0  0  0
 26 19  1  0  0  0
 20 27  1  0  0  0
 21 22  1  0  0  0
 23 21  1  0  0  0
 21 28  2  0  0  0
 30 29  1  0  0  0
 29 38  1  0  0  0
 29 41  1  0  0  0
 30 31  1  0  0  0
 37 30  1  0  0  0
 31 32  1  0  0  0
 31 39  1  0  0  0
 32 33  1  0  0  0
 32 40  1  0  0  0
 33 34  1  0  0  0
 41 33  1  0  0  0
 34 42  1  0  0  0
 35 36  1  0  0  0
 35 37  1  0  0  0
 35 43  2  0  0  0
  1 44  1  0  0  0
  2 45  1  0  0  0
  3 46  1  0  0  0
  4 47  1  0  0  0
  5 48  1  0  0  0
  6 49  1  0  0  0
  6 50  1  0  0  0
  8 51  1  0  0  0
  8 52  1  0  0  0
  8 53  1  0  0  0
  9 54  1  0  0  0
 10 55  1  0  0  0
 11 56  1  0  0  0
 13 57  1  0  0  0
 15 58  1  0  0  0
 16 59  1  0  0  0
 17 60  1  0  0  0
 18 61  1  0  0  0
 19 62  1  0  0  0
 20 63  1  0  0  0
 20 64  1  0  0  0
 22 65  1  0  0  0
 22 66  1  0  0  0
 22 67  1  0  0  0
 23 68  1  0  0  0
 24 69  1  0  0  0
 27 70  1  0  0  0
 29 71  1  0  0  0
 30 72  1  0  0  0
 31 73  1  0  0  0
 32 74  1  0  0  0
 33 75  1  0  0  0
 34 76  1  0  0  0
 34 77  1  0  0  0
 36 78  1  0  0  0
 36 79  1  0  0  0
 36 80  1  0  0  0
 37 81  1  0  0  0
 38 82  1  0  0  0
 39 83  1  0  0  0
 42 84  1  0  0  0
M  END
$$$$
