6pvx_ligand
  -I-interpret- 

 54 55  0  0  0  0  0  0  0  0999 V2000
  -12.7890  -17.5930   11.7610 C   0  0  0  0  0
  -14.7870  -18.9090   11.3530 C   0  0  0  0  0
  -15.0970  -21.0580   12.2230 C   0  0  0  0  0
  -10.6430  -16.9560   12.5780 C   0  0  0  0  0
  -13.8270  -20.9770   12.8510 C   0  0  0  0  0
   -9.6750  -17.7080   13.4900 C   0  0  0  0  0
  -13.0910  -19.8530   12.6880 C   0  0  0  0  0
  -13.5820  -18.8150   11.9330 N   0  0  0  0  0
  -15.5410  -20.0200   11.4860 N   0  0  0  0  0
   -6.5040  -23.1590   15.3320 O   0  0  0  0  0
  -12.3220  -25.5100   13.8270 O   0  0  0  0  0
   -7.8250  -24.8480   13.9950 O   0  0  0  0  0
   -8.7330  -22.8150   12.7150 O   0  0  0  0  0
  -10.9540  -22.1550   13.6840 O   0  0  0  0  0
  -10.2620  -25.1680   15.3950 O   0  0  0  0  0
   -8.5170  -19.0380   15.7760 O   0  0  0  0  0
   -9.6650  -26.3770   17.5420 O   0  0  0  0  0
  -12.3870  -26.2880   16.2260 O   0  0  0  0  0
  -15.1970  -17.9730   10.6950 O   0  0  0  0  0
  -10.4860  -20.6260   15.8930 O   0  0  0  0  0
   -8.4600  -27.1280   15.4530 O   0  0  0  0  0
   -7.9640  -24.7970   16.5940 O   0  0  0  0  0
   -8.8420  -20.5790   13.7980 O   0  0  0  0  0
   -9.0000  -22.7850   15.2880 O   0  0  0  0  0
  -10.9650  -27.6100   14.6100 O   0  0  0  0  0
  -15.7870  -22.0510   12.3430 O   0  0  0  0  0
  -11.3820  -17.9210   11.7910 O   0  0  0  0  0
  -10.4790  -18.5930   14.2680 O   0  0  0  0  0
   -7.8000  -23.8740   15.2790 P   0  0  0  0  0
   -9.3520  -22.1090   13.8570 P   0  0  0  0  0
   -9.5500  -19.7080   14.9550 P   0  0  0  0  0
   -9.1050  -25.8900   16.2610 P   0  0  0  0  0
  -11.4940  -26.1550   15.0510 P   0  0  0  0  0
  -12.9660  -16.8620   13.1150 C   0  0  0  0  0
  -11.6620  -16.0630   13.3010 C   0  0  0  0  0
  -14.0990  -15.9990   13.1450 O   0  0  0  0  0
  -11.7430  -14.8070   12.6230 O   0  0  0  0  0
  -13.0754  -17.0647   10.8516 H   0  0  0  0  0
  -10.0222  -16.2928   11.9757 H   0  0  0  0  0
  -13.4514  -21.8043   13.4532 H   0  0  0  0  0
   -9.1147  -17.0213   14.1245 H   0  0  0  0  0
   -8.9304  -18.2550   12.9117 H   0  0  0  0  0
  -12.1096  -19.7711   13.1552 H   0  0  0  0  0
  -16.4504  -20.0748   11.0272 H   0  0  0  0  0
  -11.7464  -25.4223   13.0637 H   0  0  0  0  0
   -8.6655  -25.3107   13.9620 H   0  0  0  0  0
  -11.3675  -21.6991   14.4207 H   0  0  0  0  0
  -11.1531  -21.0569   15.3536 H   0  0  0  0  0
   -8.0969  -26.8121   14.6224 H   0  0  0  0  0
  -10.3867  -27.5218   13.8488 H   0  0  0  0  0
  -13.1472  -17.5770   13.9175 H   0  0  0  0  0
  -11.4277  -15.8463   14.3432 H   0  0  0  0  0
  -14.8982  -16.5177   13.0274 H   0  0  0  0  0
  -10.9235  -14.3231   12.7492 H   0  0  0  0  0
  1  8  1  0  0  0
 27  1  1  0  0  0
  1 34  1  0  0  0
  8  2  1  0  0  0
  2  9  1  0  0  0
  2 19  2  0  0  0
  5  3  1  0  0  0
  9  3  1  0  0  0
  3 26  2  0  0  0
  6  4  1  0  0  0
  4 27  1  0  0  0
  4 35  1  0  0  0
  7  5  2  0  0  0
 28  6  1  0  0  0
  8  7  1  0  0  0
 29 10  2  0  0  0
 33 11  1  0  0  0
 29 12  1  0  0  0
 30 13  2  0  0  0
 30 14  1  0  0  0
 32 15  1  0  0  0
 15 33  1  0  0  0
 31 16  2  0  0  0
 32 17  2  0  0  0
 33 18  2  0  0  0
 31 20  1  0  0  0
 32 21  1  0  0  0
 29 22  1  0  0  0
 22 32  1  0  0  0
 23 30  1  0  0  0
 31 23  1  0  0  0
 24 29  1  0  0  0
 30 24  1  0  0  0
 33 25  1  0  0  0
 28 31  1  0  0  0
 34 35  1  0  0  0
 34 36  1  0  0  0
 35 37  1  0  0  0
  1 38  1  0  0  0
  4 39  1  0  0  0
  5 40  1  0  0  0
  6 41  1  0  0  0
  6 42  1  0  0  0
  7 43  1  0  0  0
  9 44  1  0  0  0
 11 45  1  0  0  0
 12 46  1  0  0  0
 14 47  1  0  0  0
 20 48  1  0  0  0
 21 49  1  0  0  0
 25 50  1  0  0  0
 34 51  1  0  0  0
 35 52  1  0  0  0
 36 53  1  0  0  0
 37 54  1  0  0  0
M  END
$$$$
