### 
### Created by X-TOOL on Mon Aug  2 16:17:12 2021
### 

@<TRIPOS>MOLECULE
6pvx_ligand
   48    49     1     0     0
SMALL
GAST_HUCK


@<TRIPOS>ATOM
      1 C1'       -12.7890  -17.5930   11.7610 C.3       1 U5F         0.2059
      2 C2        -14.7870  -18.9090   11.3530 C.2       1 U5F         0.3328
      3 C4        -15.0970  -21.0580   12.2230 C.2       1 U5F         0.1822
      4 C4'       -10.6430  -16.9560   12.5780 C.3       1 U5F         0.1189
      5 C5        -13.8270  -20.9770   12.8510 C.2       1 U5F         0.0062
      6 C5'        -9.6750  -17.7080   13.4900 C.3       1 U5F         0.1130
      7 C6        -13.0910  -19.8530   12.6880 C.2       1 U5F         0.0591
      8 N1        -13.5820  -18.8150   11.9330 N.am      1 U5F        -0.1592
      9 N3        -15.5410  -20.0200   11.4860 N.am      1 U5F        -0.1865
     10 O01        -6.5040  -23.1590   15.3320 O.co2     1 U5F        -0.5789
     11 O02       -12.3220  -25.5100   13.8270 O.co2     1 U5F        -0.6292
     12 O03        -7.8250  -24.8480   13.9950 O.co2     1 U5F        -0.5789
     13 O04        -8.7330  -22.8150   12.7150 O.co2     1 U5F        -0.5789
     14 O05       -10.9540  -22.1550   13.6840 O.co2     1 U5F        -0.5789
     15 O06       -10.2620  -25.1680   15.3950 O.3       1 U5F        -0.1597
     16 O1A        -8.5170  -19.0380   15.7760 O.co2     1 U5F        -0.5837
     17 O1B        -9.6650  -26.3770   17.5420 O.co2     1 U5F        -0.5797
     18 O1G       -12.3870  -26.2880   16.2260 O.co2     1 U5F        -0.6292
     19 O2        -15.1970  -17.9730   10.6950 O.2       1 U5F        -0.3815
     20 O2A       -10.4860  -20.6260   15.8930 O.co2     1 U5F        -0.5837
     21 O2B        -8.4600  -27.1280   15.4530 O.co2     1 U5F        -0.5797
     22 O2G        -7.9640  -24.7970   16.5940 O.3       1 U5F        -0.1151
     23 O3A        -8.8420  -20.5790   13.7980 O.3       1 U5F        -0.1196
     24 O3B        -9.0000  -22.7850   15.2880 O.3       1 U5F        -0.1143
     25 O3G       -10.9650  -27.6100   14.6100 O.co2     1 U5F        -0.6292
     26 O4        -15.7870  -22.0510   12.3430 O.2       1 U5F        -0.4124
     27 O4'       -11.3820  -17.9210   11.7910 O.3       1 U5F        -0.3363
     28 O5'       -10.4790  -18.5930   14.2680 O.3       1 U5F        -0.2453
     29 P01        -7.8000  -23.8740   15.2790 P.3       1 U5F         0.3552
     30 P02        -9.3520  -22.1090   13.8570 P.3       1 U5F         0.3547
     31 PA         -9.5500  -19.7080   14.9550 P.3       1 U5F         0.3171
     32 PB         -9.1050  -25.8900   16.2610 P.3       1 U5F         0.3464
     33 PG        -11.4940  -26.1550   15.0510 P.3       1 U5F         0.1683
     34 C2'       -12.9660  -16.8620   13.1150 C.3       1 U5F         0.1387
     35 C3'       -11.6620  -16.0630   13.3010 C.3       1 U5F         0.1149
     36 O2'       -14.0990  -15.9990   13.1450 O.3       1 U5F        -0.3836
     37 O3'       -11.7430  -14.8070   12.6230 O.3       1 U5F        -0.3864
     38 H1        -13.0837  -17.0071   10.8779 H         1 U5F         0.0997
     39 H2        -10.0478  -16.3186   11.9075 H         1 U5F         0.0651
     40 H3        -13.4518  -21.8035   13.4526 H         1 U5F         0.0258
     41 H4         -9.1393  -17.0036   14.1433 H         1 U5F         0.0648
     42 H5         -8.9490  -18.2773   12.8911 H         1 U5F         0.0648
     43 H6        -12.1105  -19.7712   13.1547 H         1 U5F         0.1178
     44 H7        -16.4325  -20.0737   11.0362 H         1 U5F         0.2259
     45 H8        -13.0731  -17.6021   13.9217 H         1 U5F         0.0676
     46 H9        -11.4137  -15.9164   14.3625 H         1 U5F         0.0648
     47 H10       -14.1317  -15.5501   13.9817 H         1 U5F         0.2101
     48 H11       -12.4669  -14.3037   12.9766 H         1 U5F         0.2100
@<TRIPOS>BOND
     1    1    8 1  
     2   27    1 1  
     3    1   34 1  
     4    8    2 am 
     5    2    9 am 
     6    2   19 2  
     7    5    3 1  
     8    9    3 am 
     9    3   26 2  
    10    6    4 1  
    11    4   27 1  
    12    4   35 1  
    13    7    5 2  
    14   28    6 1  
    15    8    7 1  
    16   29   10 ar 
    17   33   11 ar 
    18   29   12 ar 
    19   30   13 ar 
    20   30   14 ar 
    21   32   15 1  
    22   15   33 1  
    23   31   16 ar 
    24   32   17 ar 
    25   33   18 ar 
    26   31   20 ar 
    27   32   21 ar 
    28   29   22 1  
    29   22   32 1  
    30   23   30 1  
    31   31   23 1  
    32   24   29 1  
    33   30   24 1  
    34   33   25 ar 
    35   28   31 1  
    36   34   35 1  
    37   34   36 1  
    38   35   37 1  
    39    1   38 1  
    40    4   39 1  
    41    5   40 1  
    42    6   41 1  
    43    6   42 1  
    44    7   43 1  
    45    9   44 1  
    46   34   45 1  
    47   35   46 1  
    48   36   47 1  
    49   37   48 1  
@<TRIPOS>SUBSTRUCTURE
     1 U5F         1

