3ith_ligand
  -I-interpret- 

 28 28  0  0  0  0  0  0  0  0999 V2000
   30.0670  -18.3710    7.0520 C   0  0  0  0  0
   30.8750  -19.5910    7.2010 N   0  0  0  0  0
   30.1970  -20.8950    7.2980 C   0  0  0  0  0
   32.1940  -19.5250    7.3110 C   0  0  0  0  0
   32.8740  -18.3820    6.8610 C   0  0  0  0  0
   32.8770  -20.4840    7.9340 N   0  0  0  0  0
   34.2000  -20.3830    8.1490 C   0  0  0  0  0
   35.0530  -21.6700    8.9750 S   0  0  0  0  0
   34.6310  -23.2420    8.2540 C   0  0  0  0  0
   36.4670  -21.4700    8.8670 O   0  0  0  0  0
   34.6610  -21.6770   10.4210 O   0  0  0  0  0
   34.8640  -19.2900    7.7350 N   0  0  0  0  0
   34.2370  -18.2920    7.1030 C   0  0  0  0  0
   34.9220  -17.1420    6.7310 C   0  0  0  0  0
   36.3150  -17.1210    6.6980 C   0  0  0  0  0
   30.2187  -17.7281    7.9191 H   0  0  0  0  0
   30.3721  -17.8428    6.1487 H   0  0  0  0  0
   29.0136  -18.6412    6.9782 H   0  0  0  0  0
   30.5632  -21.5530    6.5099 H   0  0  0  0  0
   30.4057  -21.3401    8.2709 H   0  0  0  0  0
   29.1222  -20.7535    7.1848 H   0  0  0  0  0
   32.3452  -17.5868    6.3356 H   0  0  0  0  0
   34.9240  -23.2492    7.2042 H   0  0  0  0  0
   35.1561  -24.0363    8.7845 H   0  0  0  0  0
   33.5554  -23.3997    8.3334 H   0  0  0  0  0
   34.3633  -16.2456    6.4618 H   0  0  0  0  0
   36.8800  -18.0138    6.9660 H   0  0  0  0  0
   36.8395  -16.2118    6.4042 H   0  0  0  0  0
  1  2  1  0  0  0
  2  3  1  0  0  0
  2  4  1  0  0  0
  4  5  4  0  0  0
  4  6  4  0  0  0
  5 13  4  0  0  0
  6  7  4  0  0  0
  7  8  1  0  0  0
  7 12  4  0  0  0
  8  9  1  0  0  0
  8 10  2  0  0  0
  8 11  2  0  0  0
 12 13  4  0  0  0
 13 14  1  0  0  0
 14 15  2  0  0  0
  1 16  1  0  0  0
  1 17  1  0  0  0
  1 18  1  0  0  0
  3 19  1  0  0  0
  3 20  1  0  0  0
  3 21  1  0  0  0
  5 22  1  0  0  0
  9 23  1  0  0  0
  9 24  1  0  0  0
  9 25  1  0  0  0
 14 26  1  0  0  0
 15 27  1  0  0  0
 15 28  1  0  0  0
M  END
$$$$
