5j7j_ligand
  -I-interpret- 

325326  0  0  0  0  0  0  0  0999 V2000
   -8.0360    4.1650   -1.3650 N   0  3  0  0  0
   -6.6200    4.4900   -1.4570 C   0  0  0  0  0
   -5.7890    3.4830   -0.6710 C   0  0  0  0  0
   -4.6760    3.1330   -1.0600 O   0  0  0  0  0
   -6.3660    5.9090   -0.9330 C   0  0  0  0  0
   -6.9550    6.1700    0.4470 C   0  0  0  0  0
   -7.2520    7.9210    0.7620 S   0  0  0  0  0
   -8.2780    7.8330    2.2290 C   0  0  0  0  0
   -6.3450    3.0000    0.4260 N   0  0  0  0  0
   -5.6410    2.0500    1.2800 C   0  0  0  0  0
   -5.6880    0.6390    0.7110 C   0  0  0  0  0
   -4.7820   -0.1550    0.9380 O   0  0  0  0  0
   -6.2230    2.0530    2.6890 C   0  0  0  0  0
   -6.3620    3.4510    3.2610 C   0  0  0  0  0
   -7.4990    3.8370    3.6010 O   0  0  0  0  0
   -5.3390    4.1640    3.3660 O   0  0  0  0  0
   -6.7350    0.3280   -0.0320 N   0  0  0  0  0
   -6.8800   -0.9990   -0.6130 C   0  0  0  0  0
   -5.8300   -1.2480   -1.7020 C   0  0  0  0  0
   -5.1960   -2.3090   -1.7410 O   0  0  0  0  0
   -8.3100   -1.1800   -1.1700 C   0  0  0  0  0
   -9.1500    0.3680   -1.6300 S   0  0  0  0  0
   -5.6140   -0.2640   -2.5620 N   0  0  0  0  0
   -4.6420   -0.4100   -3.6420 C   0  0  0  0  0
   -3.2090   -0.2580   -3.1410 C   0  0  0  0  0
   -2.3140   -0.9560   -3.6160 O   0  0  0  0  0
   -4.9380    0.5780   -4.7820 C   0  0  0  0  0
   -5.5250    1.9320   -4.3670 C   0  0  0  0  0
   -4.4200    2.9280   -4.0690 C   0  0  0  0  0
   -6.4430    2.4680   -5.4560 C   0  0  0  0  0
   -2.9820    0.6280   -2.1730 N   0  0  0  0  0
   -1.6350    0.8070   -1.6410 C   0  0  0  0  0
   -1.2200   -0.4500   -0.8820 C   0  0  0  0  0
   -0.0400   -0.7960   -0.8360 O   0  0  0  0  0
   -1.5520    2.0420   -0.7400 C   0  0  0  0  0
   -2.3220    1.8330    0.8810 S   0  0  0  0  0
   -2.2060   -1.1300   -0.2980 N   0  0  0  0  0
   -1.9670   -2.3700    0.4260 C   0  0  0  0  0
   -1.4470   -3.4270   -0.5380 C   0  0  0  0  0
   -0.4570   -4.1090   -0.2650 O   0  0  0  0  0
   -3.2590   -2.8630    1.1400 C   0  0  0  0  0
   -3.2640   -2.4070    2.6040 C   0  0  0  0  0
   -3.4160   -4.3820    1.0630 C   0  0  0  0  0
   -2.1080   -2.9420    3.4340 C   0  0  0  0  0
   -2.1120   -3.5340   -1.6830 N   0  0  0  0  0
   -1.7140   -4.4870   -2.7060 C   0  0  0  0  0
   -0.3130   -4.1590   -3.2190 C   0  0  0  0  0
    0.5260   -5.0480   -3.3790 O   0  0  0  0  0
   -2.7410   -4.5120   -3.8640 C   0  0  0  0  0
   -2.1740   -5.1930   -5.1040 C   0  0  0  0  0
   -4.0000   -5.2290   -3.4080 C   0  0  0  0  0
   -0.0510   -2.8780   -3.4470 N   0  0  0  0  0
    1.2570   -2.4410   -3.9050 C   0  0  0  0  0
    2.3120   -2.7490   -2.8410 C   0  0  0  0  0
    3.4240   -3.1650   -3.1600 O   0  0  0  0  0
    1.2640   -0.9360   -4.2310 C   0  0  0  0  0
    0.2230   -0.6340   -5.1720 O   0  0  0  0  0
    2.6100   -0.5140   -4.8070 C   0  0  0  0  0
    1.9450   -2.5590   -1.5740 N   0  0  0  0  0
    2.8370   -2.8460   -0.4600 C   0  0  0  0  0
    3.2130   -4.3250   -0.4800 C   0  0  0  0  0
    4.3590   -4.6950   -0.2320 O   0  0  0  0  0
    2.1630   -2.4940    0.8880 C   0  0  0  0  0
    1.9300   -1.0800    0.9660 O   0  0  0  0  0
    3.0160   -2.9340    2.0680 C   0  0  0  0  0
    2.2390   -5.1570   -0.8190 N   0  0  0  0  0
    2.4450   -6.5910   -0.8920 C   0  0  0  0  0
    3.3630   -6.9360   -2.0640 C   0  0  0  0  0
    4.2340   -7.7960   -1.9530 O   0  0  0  0  0
    1.1020   -7.3120   -1.0460 C   0  0  0  0  0
    0.9720   -8.5570   -0.1800 C   0  0  0  0  0
    0.8210   -8.2140    1.2950 C   0  0  0  0  0
    1.1460   -9.4140    2.1740 C   0  0  0  0  0
    0.7440   -9.2060    3.5880 N   0  3  0  0  0
    3.1730   -6.2420   -3.1810 N   0  0  0  0  0
    3.9780   -6.4630   -4.3780 C   0  0  0  0  0
    5.4100   -5.9670   -4.1670 C   0  0  0  0  0
    6.3510   -6.4860   -4.7670 O   0  0  0  0  0
    3.3350   -5.7630   -5.5840 C   0  0  0  0  0
    3.8950   -6.2220   -6.9240 C   0  0  0  0  0
    4.6970   -5.1260   -7.6060 C   0  0  0  0  0
    5.6680   -5.6990   -8.6260 C   0  0  0  0  0
    6.6830   -6.5740   -7.9860 N   0  3  0  0  0
    5.5590   -4.9550   -3.3180 N   0  0  0  0  0
    6.8690   -4.3880   -3.0060 C   0  0  0  0  0
    7.5950   -5.2620   -1.9810 C   0  0  0  0  0
    8.8220   -5.3140   -1.9500 O   0  0  0  0  0
    6.7010   -2.9460   -2.4910 C   0  0  0  0  0
    7.9470   -2.3260   -1.8780 C   0  0  0  0  0
    8.1170   -2.2880   -0.5000 C   0  0  0  0  0
    8.9440   -1.7640   -2.6770 C   0  0  0  0  0
    9.2360   -1.7140    0.0660 C   0  0  0  0  0
   10.0730   -1.1870   -2.1110 C   0  0  0  0  0
   10.2110   -1.1650   -0.7340 C   0  0  0  0  0
   11.3320   -0.5950   -0.1470 O   0  0  0  0  0
    6.8270   -5.9550   -1.1530 N   0  0  0  0  0
    7.3950   -6.8350   -0.1390 C   0  0  0  0  0
    7.7380   -8.2000   -0.7260 C   0  0  0  0  0
    8.8760   -8.6630   -0.6250 O   0  0  0  0  0
    6.4220   -7.0130    1.0290 C   0  0  0  0  0
    6.5630   -5.9570    2.1150 C   0  0  0  0  0
    6.8490   -6.5920    3.4690 C   0  0  0  0  0
    5.7000   -7.3330    3.9730 N   0  0  0  0  0
    5.7750   -8.5160    4.5750 C   0  0  0  0  0
    6.9390   -9.1250    4.7530 N   0  0  0  0  0
    4.6710   -9.1040    4.9910 N   0  0  0  0  0
    6.7520   -8.8270   -1.3500 N   0  0  0  0  0
    6.9190  -10.1470   -1.9440 C   0  0  0  0  0
    7.7590  -10.0870   -3.2170 C   0  0  0  0  0
    7.2340   -9.8970   -4.3160 O   0  0  0  0  0
    5.5440  -10.7430   -2.2510 C   0  0  0  0  0
    5.5220  -12.2520   -2.3650 C   0  0  0  0  0
    5.5990  -13.0550   -1.2310 C   0  0  0  0  0
    5.3940  -12.8760   -3.6020 C   0  0  0  0  0
    5.5490  -14.4330   -1.3270 C   0  0  0  0  0
    5.3490  -14.2520   -3.7060 C   0  0  0  0  0
    5.4220  -15.0250   -2.5660 C   0  0  0  0  0
    5.3620  -16.3970   -2.6690 O   0  0  0  0  0
    9.0640  -10.2370   -3.0570 N   0  0  0  0  0
    9.9840  -10.2230   -4.1830 C   0  0  0  0  0
   10.7480  -11.5430   -4.2520 C   0  0  0  0  0
   10.5720  -12.3200   -5.1920 O   0  0  0  0  0
   10.9510   -9.0400   -4.0760 C   0  0  0  0  0
   10.4110   -7.7580   -4.6920 C   0  0  0  0  0
   10.6390   -7.6910   -6.1920 C   0  0  0  0  0
   10.7010   -8.7160   -6.8730 O   0  0  0  0  0
   10.7760   -6.4860   -6.7170 N   0  0  0  0  0
   11.5820  -11.7980   -3.2440 N   0  0  0  0  0
   12.3600  -13.0370   -3.1740 C   0  0  0  0  0
   12.8620  -13.2600   -1.7550 C   0  0  0  0  0
   12.6270  -14.3120   -1.1580 O   0  0  0  0  0
   13.5490  -13.0050   -4.1350 C   0  0  0  0  0
   14.0260  -14.3970   -4.5160 C   0  0  0  0  0
   14.1770  -14.6690   -5.7280 O   0  0  0  0  0
   14.2550  -15.2290   -3.6080 O   0  0  0  0  0
   13.5370  -12.2530   -1.2150 N   0  0  0  0  0
   14.0870  -12.3280    0.1350 C   0  0  0  0  0
   12.9810  -12.3480    1.1920 C   0  0  0  0  0
   12.6130  -13.4050    1.7050 O   0  0  0  0  0
   15.0250  -11.1430    0.3930 C   0  0  0  0  0
   16.3060  -11.1810   -0.4240 C   0  0  0  0  0
   17.5200  -11.5040    0.4230 C   0  0  0  0  0
   17.5670  -12.6120    0.9980 O   0  0  0  0  0
   18.4290  -10.6490    0.5170 O   0  0  0  0  0
   12.4550  -11.1730    1.5000 N   0  0  0  0  0
   11.3990  -11.0310    2.5000 C   0  0  0  0  0
   10.0480  -11.4350    1.9160 C   0  0  0  0  0
    9.8600  -11.4080    0.7000 O   0  0  0  0  0
   11.3560   -9.5850    3.0020 C   0  0  0  0  0
   10.4560   -9.3970    4.2040 C   0  0  0  0  0
    9.4270   -8.6970    4.0720 O   0  0  0  0  0
   10.7770   -9.9390    5.2800 O   0  0  0  0  0
    9.1250  -11.8450    2.7770 N   0  0  0  0  0
    7.7920  -12.2400    2.3350 C   0  0  0  0  0
    7.1450  -13.2510    3.3000 C   0  0  0  0  0
    7.2020  -14.6580    2.7210 C   0  0  0  0  0
    7.8120  -13.2280    4.5740 O   0  0  0  0  0
    7.1800  -12.4330    5.8110 P   0  0  0  0  0
    6.0480  -11.5510    5.4820 O   0  0  0  0  0
    8.1830  -11.8000    6.6720 O   0  0  0  0  0
    6.5170  -13.5450    6.7430 O   0  0  0  0  0
    6.8780  -11.0280    2.2050 C   0  0  0  0  0
    6.1630  -10.8820    1.2140 O   0  0  0  0  0
    6.8380  -10.1720    3.0890 O   0  0  0  0  0
   -8.1902    3.2199   -1.7163 H   0  0  0  0  0
   -8.3336    4.2197   -0.3909 H   0  0  0  0  0
   -8.5729    4.8285   -1.9235 H   0  0  0  0  0
   -6.3221    4.4432   -2.5045 H   0  0  0  0  0
   -6.8435    6.6015   -1.6262 H   0  0  0  0  0
   -5.2865    6.0381   -0.8551 H   0  0  0  0  0
   -6.2387    5.8148    1.1878 H   0  0  0  0  0
   -7.9134    5.6539    0.5035 H   0  0  0  0  0
   -9.1841    7.2706    2.0039 H   0  0  0  0  0
   -7.7276    7.3337    3.0264 H   0  0  0  0  0
   -8.5441    8.8414    2.5458 H   0  0  0  0  0
   -7.2866    3.2978    0.6811 H   0  0  0  0  0
   -4.5993    2.3684    1.3208 H   0  0  0  0  0
   -5.5444    1.4935    3.3329 H   0  0  0  0  0
   -7.2178    1.6100    2.6415 H   0  0  0  0  0
   -4.5759    3.6754    3.0489 H   0  0  0  0  0
   -7.4549    1.0303   -0.2017 H   0  0  0  0  0
   -6.7154   -1.7373    0.1718 H   0  0  0  0  0
   -8.9026   -1.6391   -0.3787 H   0  0  0  0  0
   -8.2231   -1.7756   -2.0788 H   0  0  0  0  0
  -10.3653    0.0903   -2.0934 H   0  0  0  0  0
   -6.1342    0.6084   -2.4685 H   0  0  0  0  0
   -4.7395   -1.4223   -4.0343 H   0  0  0  0  0
   -5.6885    0.1006   -5.4120 H   0  0  0  0  0
   -3.9800    0.7932   -5.2553 H   0  0  0  0  0
   -6.1094    1.7877   -3.4583 H   0  0  0  0  0
   -3.8000    2.5487   -3.2567 H   0  0  0  0  0
   -3.8081    3.0673   -4.9602 H   0  0  0  0  0
   -4.8608    3.8811   -3.7767 H   0  0  0  0  0
   -5.8757    2.5938   -6.3782 H   0  0  0  0  0
   -7.2576    1.7631   -5.6223 H   0  0  0  0  0
   -6.8509    3.4297   -5.1448 H   0  0  0  0  0
   -3.7527    1.1837   -1.8020 H   0  0  0  0  0
   -0.9477    0.9679   -2.4716 H   0  0  0  0  0
   -2.0858    2.8456   -1.2474 H   0  0  0  0  0
   -0.4946    2.2438   -0.5691 H   0  0  0  0  0
   -2.1942    2.9578    1.5791 H   0  0  0  0  0
   -3.1584   -0.7702   -0.3603 H   0  0  0  0  0
   -1.2182   -2.1872    1.1968 H   0  0  0  0  0
   -4.1068   -2.4190    0.6183 H   0  0  0  0  0
   -4.1819   -2.7859    3.0533 H   0  0  0  0  0
   -3.1784   -1.3204    2.6003 H   0  0  0  0  0
   -3.4674   -4.6882    0.0181 H   0  0  0  0  0
   -2.5605   -4.8591    1.5411 H   0  0  0  0  0
   -4.3317   -4.6778    1.5750 H   0  0  0  0  0
   -2.1405   -4.0315    3.4402 H   0  0  0  0  0
   -1.1656   -2.6078    3.0001 H   0  0  0  0  0
   -2.1920   -2.5689    4.4547 H   0  0  0  0  0
   -2.9201   -2.9339   -1.8481 H   0  0  0  0  0
   -1.6906   -5.4826   -2.2629 H   0  0  0  0  0
   -2.9767   -3.4820   -4.1318 H   0  0  0  0  0
   -1.2888   -4.6533   -5.4406 H   0  0  0  0  0
   -1.9041   -6.2207   -4.8611 H   0  0  0  0  0
   -2.9251   -5.1902   -5.8939 H   0  0  0  0  0
   -3.7509   -6.2503   -3.1201 H   0  0  0  0  0
   -4.4269   -4.7032   -2.5539 H   0  0  0  0  0
   -4.7226   -5.2462   -4.2239 H   0  0  0  0  0
   -0.7841   -2.1848   -3.2974 H   0  0  0  0  0
    1.4927   -2.9850   -4.8197 H   0  0  0  0  0
    1.0912   -0.3849   -3.3066 H   0  0  0  0  0
    0.2344    0.3054   -5.3696 H   0  0  0  0  0
    3.3956   -0.7206   -4.0802 H   0  0  0  0  0
    2.8036   -1.0735   -5.7222 H   0  0  0  0  0
    2.5903    0.5529   -5.0292 H   0  0  0  0  0
    1.0099   -2.2013   -1.3788 H   0  0  0  0  0
    3.7347   -2.2365   -0.5637 H   0  0  0  0  0
    1.2136   -3.0274    0.9345 H   0  0  0  0  0
    1.5121   -0.8715    1.8047 H   0  0  0  0  0
    3.1630   -4.0132    2.0260 H   0  0  0  0  0
    3.9826   -2.4323    2.0230 H   0  0  0  0  0
    2.5115   -2.6707    2.9976 H   0  0  0  0  0
    1.3171   -4.7778   -1.0350 H   0  0  0  0  0
    2.9179   -6.9217    0.0327 H   0  0  0  0  0
    1.0198   -7.6286   -2.0858 H   0  0  0  0  0
    0.3218   -6.6168   -0.7359 H   0  0  0  0  0
    1.8778   -9.1513   -0.3002 H   0  0  0  0  0
    0.0813   -9.0999   -0.4961 H   0  0  0  0  0
   -0.2112   -7.9163    1.4796 H   0  0  0  0  0
    1.5124   -7.4070    1.5376 H   0  0  0  0  0
    2.2249   -9.5674    2.1494 H   0  0  0  0  0
    0.5949  -10.2723    1.7897 H   0  0  0  0  0
    0.9820  -10.0345    4.1333 H   0  0  0  0  0
    1.2369   -8.3964    3.9648 H   0  0  0  0  0
   -0.2621   -9.0447    3.6340 H   0  0  0  0  0
    2.4410   -5.5320   -3.2025 H   0  0  0  0  0
    4.0176   -7.5340   -4.5766 H   0  0  0  0  0
    3.5408   -4.6966   -5.4914 H   0  0  0  0  0
    2.2720   -6.0040   -5.5738 H   0  0  0  0  0
    3.0594   -6.4883   -7.5713 H   0  0  0  0  0
    4.5561   -7.0703   -6.7465 H   0  0  0  0  0
    5.2688   -4.5928   -6.8464 H   0  0  0  0  0
    4.0043   -4.4623   -8.1235 H   0  0  0  0  0
    6.1849   -4.8711   -9.1113 H   0  0  0  0  0
    5.1023   -6.2955   -9.3417 H   0  0  0  0  0
    7.3144   -6.9385   -8.6994 H   0  0  0  0  0
    7.2147   -6.0333   -7.3038 H   0  0  0  0  0
    6.2146   -7.3491   -7.5167 H   0  0  0  0  0
    4.7317   -4.5614   -2.8697 H   0  0  0  0  0
    7.4767   -4.3616   -3.9105 H   0  0  0  0  0
    5.9496   -2.9817   -1.7022 H   0  0  0  0  0
    6.4405   -2.3343   -3.3547 H   0  0  0  0  0
    7.3522   -2.7196    0.1457 H   0  0  0  0  0
    8.8347   -1.7783   -3.7614 H   0  0  0  0  0
    9.3481   -1.6953    1.1501 H   0  0  0  0  0
   10.8454   -0.7543   -2.7468 H   0  0  0  0  0
   11.9144   -0.2586   -0.8320 H   0  0  0  0  0
    5.8132   -5.8707   -1.2269 H   0  0  0  0  0
    8.3107   -6.3685    0.2241 H   0  0  0  0  0
    6.6373   -7.9788    1.4860 H   0  0  0  0  0
    5.4127   -6.9305    0.6257 H   0  0  0  0  0
    5.6277   -5.4013    2.1826 H   0  0  0  0  0
    7.3945   -5.3015    1.8562 H   0  0  0  0  0
    7.0817   -5.7972    4.1777 H   0  0  0  0  0
    7.6805   -7.2871    3.3526 H   0  0  0  0  0
    4.7764   -6.9162    3.8561 H   0  0  0  0  0
    6.9729  -10.0377    5.2072 H   0  0  0  0  0
    7.8007   -8.6809    4.4358 H   0  0  0  0  0
    3.7679   -8.6513    4.8501 H   0  0  0  0  0
    5.8430   -8.3692   -1.4171 H   0  0  0  0  0
    7.4463  -10.7796   -1.2300 H   0  0  0  0  0
    5.2344  -10.3466   -3.2180 H   0  0  0  0  0
    4.8897  -10.4773   -1.4207 H   0  0  0  0  0
    5.7004  -12.5895   -0.2506 H   0  0  0  0  0
    5.3281  -12.2681   -4.5044 H   0  0  0  0  0
    5.6096  -15.0479   -0.4290 H   0  0  0  0  0
    5.2563  -14.7249   -4.6837 H   0  0  0  0  0
    5.2746  -16.6439   -3.5926 H   0  0  0  0  0
    9.4356  -10.3663   -2.1159 H   0  0  0  0  0
    9.4099  -10.1058   -5.1021 H   0  0  0  0  0
   11.8578   -9.3077   -4.6184 H   0  0  0  0  0
   11.1192   -8.8489   -3.0161 H   0  0  0  0  0
   10.9354   -6.9189   -4.2348 H   0  0  0  0  0
    9.3361   -7.7267   -4.5140 H   0  0  0  0  0
   10.9392   -6.3815   -7.7184 H   0  0  0  0  0
   10.7185   -5.6604   -6.1208 H   0  0  0  0  0
   11.6815  -11.1091   -2.4984 H   0  0  0  0  0
   11.7039  -13.8570   -3.4658 H   0  0  0  0  0
   14.3713  -12.4922   -3.6361 H   0  0  0  0  0
   13.2321  -12.4968   -5.0457 H   0  0  0  0  0
   14.0789  -14.8262   -2.7546 H   0  0  0  0  0
   13.6755  -11.4016   -1.7593 H   0  0  0  0  0
   14.6474  -13.2598    0.2105 H   0  0  0  0  0
   15.3103  -11.1788    1.4444 H   0  0  0  0  0
   14.4878  -10.2375    0.1110 H   0  0  0  0  0
   16.4545  -10.1955   -0.8653 H   0  0  0  0  0
   16.2028  -11.9614   -1.1779 H   0  0  0  0  0
   18.1935   -9.8751    0.0001 H   0  0  0  0  0
   12.7982  -10.3390    1.0235 H   0  0  0  0  0
   11.6154  -11.6922    3.3391 H   0  0  0  0  0
   10.9623   -8.9670    2.1950 H   0  0  0  0  0
   12.3673   -9.3091    3.3006 H   0  0  0  0  0
    9.3716   -8.3788    3.1680 H   0  0  0  0  0
    9.3528  -11.8848    3.7704 H   0  0  0  0  0
    7.9147  -12.7130    1.3607 H   0  0  0  0  0
    6.1019  -12.9660    3.4371 H   0  0  0  0  0
    6.6651  -14.6813    1.7727 H   0  0  0  0  0
    8.2420  -14.9407    2.5582 H   0  0  0  0  0
    6.7395  -15.3558    3.4191 H   0  0  0  0  0
    5.4298  -12.0223    4.9187 H   0  0  0  0  0
    5.8397  -14.0128    6.2489 H   0  0  0  0  0
    7.4421  -10.4140    3.7948 H   0  0  0  0  0
  1  2  1  0  0  0
  2  3  1  0  0  0
  2  5  1  0  0  0
  3  4  2  0  0  0
  3  9  1  0  0  0
  5  6  1  0  0  0
  6  7  1  0  0  0
  7  8  1  0  0  0
  9 10  1  0  0  0
 10 11  1  0  0  0
 10 13  1  0  0  0
 11 12  2  0  0  0
 11 17  1  0  0  0
 13 14  1  0  0  0
 14 15  2  0  0  0
 14 16  1  0  0  0
 17 18  1  0  0  0
 18 19  1  0  0  0
 18 21  1  0  0  0
 19 20  2  0  0  0
 19 23  1  0  0  0
 21 22  1  0  0  0
 23 24  1  0  0  0
 24 25  1  0  0  0
 24 27  1  0  0  0
 25 26  2  0  0  0
 25 31  1  0  0  0
 27 28  1  0  0  0
 28 29  1  0  0  0
 28 30  1  0  0  0
 31 32  1  0  0  0
 32 33  1  0  0  0
 32 35  1  0  0  0
 33 34  2  0  0  0
 33 37  1  0  0  0
 35 36  1  0  0  0
 37 38  1  0  0  0
 38 39  1  0  0  0
 38 41  1  0  0  0
 39 40  2  0  0  0
 39 45  1  0  0  0
 41 42  1  0  0  0
 41 43  1  0  0  0
 42 44  1  0  0  0
 45 46  1  0  0  0
 46 47  1  0  0  0
 46 49  1  0  0  0
 47 48  2  0  0  0
 47 52  1  0  0  0
 49 50  1  0  0  0
 49 51  1  0  0  0
 52 53  1  0  0  0
 53 54  1  0  0  0
 53 56  1  0  0  0
 54 55  2  0  0  0
 54 59  1  0  0  0
 56 57  1  0  0  0
 56 58  1  0  0  0
 59 60  1  0  0  0
 60 61  1  0  0  0
 60 63  1  0  0  0
 61 62  2  0  0  0
 61 66  1  0  0  0
 63 64  1  0  0  0
 63 65  1  0  0  0
 66 67  1  0  0  0
 67 68  1  0  0  0
 67 70  1  0  0  0
 68 69  2  0  0  0
 68 75  1  0  0  0
 70 71  1  0  0  0
 71 72  1  0  0  0
 72 73  1  0  0  0
 73 74  1  0  0  0
 75 76  1  0  0  0
 76 77  1  0  0  0
 76 79  1  0  0  0
 77 78  2  0  0  0
 77 84  1  0  0  0
 79 80  1  0  0  0
 80 81  1  0  0  0
 81 82  1  0  0  0
 82 83  1  0  0  0
 84 85  1  0  0  0
 85 86  1  0  0  0
 85 88  1  0  0  0
 86 87  2  0  0  0
 86 96  1  0  0  0
 88 89  1  0  0  0
 89 90  4  0  0  0
 89 91  4  0  0  0
 90 92  4  0  0  0
 91 93  4  0  0  0
 92 94  4  0  0  0
 93 94  4  0  0  0
 94 95  1  0  0  0
 96 97  1  0  0  0
 97 98  1  0  0  0
 97100  1  0  0  0
 98 99  2  0  0  0
 98107  1  0  0  0
100101  1  0  0  0
101102  1  0  0  0
102103  1  0  0  0
103104  1  0  0  0
104105  1  0  0  0
104106  2  0  0  0
107108  1  0  0  0
108109  1  0  0  0
108111  1  0  0  0
109110  2  0  0  0
109119  1  0  0  0
111112  1  0  0  0
112113  4  0  0  0
112114  4  0  0  0
113115  4  0  0  0
114116  4  0  0  0
115117  4  0  0  0
116117  4  0  0  0
117118  1  0  0  0
119120  1  0  0  0
120121  1  0  0  0
120123  1  0  0  0
121122  2  0  0  0
121128  1  0  0  0
123124  1  0  0  0
124125  1  0  0  0
125126  2  0  0  0
125127  1  0  0  0
128129  1  0  0  0
129130  1  0  0  0
129132  1  0  0  0
130131  2  0  0  0
130136  1  0  0  0
132133  1  0  0  0
133134  2  0  0  0
133135  1  0  0  0
136137  1  0  0  0
137138  1  0  0  0
137140  1  0  0  0
138139  2  0  0  0
138145  1  0  0  0
140141  1  0  0  0
141142  1  0  0  0
142143  2  0  0  0
142144  1  0  0  0
145146  1  0  0  0
146147  1  0  0  0
146149  1  0  0  0
147148  2  0  0  0
147153  1  0  0  0
149150  1  0  0  0
150151  1  0  0  0
150152  2  0  0  0
153154  1  0  0  0
154155  1  0  0  0
154162  1  0  0  0
155156  1  0  0  0
155157  1  0  0  0
157158  1  0  0  0
158159  1  0  0  0
158160  2  0  0  0
158161  1  0  0  0
162163  2  0  0  0
162164  1  0  0  0
  1165  1  0  0  0
  1166  1  0  0  0
  1167  1  0  0  0
  2168  1  0  0  0
  5169  1  0  0  0
  5170  1  0  0  0
  6171  1  0  0  0
  6172  1  0  0  0
  8173  1  0  0  0
  8174  1  0  0  0
  8175  1  0  0  0
  9176  1  0  0  0
 10177  1  0  0  0
 13178  1  0  0  0
 13179  1  0  0  0
 16180  1  0  0  0
 17181  1  0  0  0
 18182  1  0  0  0
 21183  1  0  0  0
 21184  1  0  0  0
 22185  1  0  0  0
 23186  1  0  0  0
 24187  1  0  0  0
 27188  1  0  0  0
 27189  1  0  0  0
 28190  1  0  0  0
 29191  1  0  0  0
 29192  1  0  0  0
 29193  1  0  0  0
 30194  1  0  0  0
 30195  1  0  0  0
 30196  1  0  0  0
 31197  1  0  0  0
 32198  1  0  0  0
 35199  1  0  0  0
 35200  1  0  0  0
 36201  1  0  0  0
 37202  1  0  0  0
 38203  1  0  0  0
 41204  1  0  0  0
 42205  1  0  0  0
 42206  1  0  0  0
 43207  1  0  0  0
 43208  1  0  0  0
 43209  1  0  0  0
 44210  1  0  0  0
 44211  1  0  0  0
 44212  1  0  0  0
 45213  1  0  0  0
 46214  1  0  0  0
 49215  1  0  0  0
 50216  1  0  0  0
 50217  1  0  0  0
 50218  1  0  0  0
 51219  1  0  0  0
 51220  1  0  0  0
 51221  1  0  0  0
 52222  1  0  0  0
 53223  1  0  0  0
 56224  1  0  0  0
 57225  1  0  0  0
 58226  1  0  0  0
 58227  1  0  0  0
 58228  1  0  0  0
 59229  1  0  0  0
 60230  1  0  0  0
 63231  1  0  0  0
 64232  1  0  0  0
 65233  1  0  0  0
 65234  1  0  0  0
 65235  1  0  0  0
 66236  1  0  0  0
 67237  1  0  0  0
 70238  1  0  0  0
 70239  1  0  0  0
 71240  1  0  0  0
 71241  1  0  0  0
 72242  1  0  0  0
 72243  1  0  0  0
 73244  1  0  0  0
 73245  1  0  0  0
 74246  1  0  0  0
 74247  1  0  0  0
 74248  1  0  0  0
 75249  1  0  0  0
 76250  1  0  0  0
 79251  1  0  0  0
 79252  1  0  0  0
 80253  1  0  0  0
 80254  1  0  0  0
 81255  1  0  0  0
 81256  1  0  0  0
 82257  1  0  0  0
 82258  1  0  0  0
 83259  1  0  0  0
 83260  1  0  0  0
 83261  1  0  0  0
 84262  1  0  0  0
 85263  1  0  0  0
 88264  1  0  0  0
 88265  1  0  0  0
 90266  1  0  0  0
 91267  1  0  0  0
 92268  1  0  0  0
 93269  1  0  0  0
 95270  1  0  0  0
 96271  1  0  0  0
 97272  1  0  0  0
100273  1  0  0  0
100274  1  0  0  0
101275  1  0  0  0
101276  1  0  0  0
102277  1  0  0  0
102278  1  0  0  0
103279  1  0  0  0
105280  1  0  0  0
105281  1  0  0  0
106282  1  0  0  0
107283  1  0  0  0
108284  1  0  0  0
111285  1  0  0  0
111286  1  0  0  0
113287  1  0  0  0
114288  1  0  0  0
115289  1  0  0  0
116290  1  0  0  0
118291  1  0  0  0
119292  1  0  0  0
120293  1  0  0  0
123294  1  0  0  0
123295  1  0  0  0
124296  1  0  0  0
124297  1  0  0  0
127298  1  0  0  0
127299  1  0  0  0
128300  1  0  0  0
129301  1  0  0  0
132302  1  0  0  0
132303  1  0  0  0
135304  1  0  0  0
136305  1  0  0  0
137306  1  0  0  0
140307  1  0  0  0
140308  1  0  0  0
141309  1  0  0  0
141310  1  0  0  0
144311  1  0  0  0
145312  1  0  0  0
146313  1  0  0  0
149314  1  0  0  0
149315  1  0  0  0
151316  1  0  0  0
153317  1  0  0  0
154318  1  0  0  0
155319  1  0  0  0
156320  1  0  0  0
156321  1  0  0  0
156322  1  0  0  0
159323  1  0  0  0
161324  1  0  0  0
164325  1  0  0  0
M  END
$$$$
