### 
### Created by X-TOOL on Fri Nov  2 10:54:56 2018
### 

@<TRIPOS>MOLECULE
5j7j_ligand
  319   320     1     0     0
SMALL
GAST_HUCK


@<TRIPOS>ATOM
      1 N          -8.0360    4.1650   -1.3650 N.4       1 MET         0.2379
      2 CA         -6.6200    4.4900   -1.4570 C.3       1 MET         0.0658
      3 C          -5.7890    3.4830   -0.6710 C.2       1 MET         0.2268
      4 O          -4.6760    3.1330   -1.0600 O.2       1 MET        -0.3907
      5 CB         -6.3660    5.9090   -0.9330 C.3       1 MET         0.0168
      6 CG         -6.9550    6.1700    0.4470 C.3       1 MET         0.0007
      7 SD         -7.2520    7.9210    0.7620 S.3       1 MET        -0.1638
      8 CE         -8.2780    7.8330    2.2290 C.3       1 MET        -0.0181
      9 N          -6.3450    3.0000    0.4260 N.am      1 MET        -0.2595
     10 CA         -5.6410    2.0500    1.2800 C.3       1 MET         0.1424
     11 C          -5.6880    0.6390    0.7110 C.2       1 MET         0.2056
     12 O          -4.7820   -0.1550    0.9380 O.2       1 MET        -0.3943
     13 CB         -6.2230    2.0530    2.6890 C.3       1 MET         0.0406
     14 CG         -6.3620    3.4510    3.2610 C.2       1 MET         0.0393
     15 OD1        -7.4990    3.8370    3.6010 O.co2     1 MET        -0.5688
     16 OD2        -5.3390    4.1640    3.3660 O.co2     1 MET        -0.5688
     17 N          -6.7350    0.3280   -0.0320 N.am      1 MET        -0.2628
     18 CA         -6.8800   -0.9990   -0.6130 C.3       1 MET         0.1396
     19 C          -5.8300   -1.2480   -1.7020 C.2       1 MET         0.2047
     20 O          -5.1960   -2.3090   -1.7410 O.2       1 MET        -0.3944
     21 CB         -8.3100   -1.1800   -1.1700 C.3       1 MET         0.0311
     22 SG         -9.1500    0.3680   -1.6300 S.3       1 MET        -0.1735
     23 N          -5.6140   -0.2640   -2.5620 N.am      1 MET        -0.2637
     24 CA         -4.6420   -0.4100   -3.6420 C.3       1 MET         0.1312
     25 C          -3.2090   -0.2580   -3.1410 C.2       1 MET         0.2039
     26 O          -2.3140   -0.9560   -3.6160 O.2       1 MET        -0.3944
     27 CB         -4.9380    0.5780   -4.7820 C.3       1 MET        -0.0101
     28 CG         -5.5250    1.9320   -4.3670 C.3       1 MET        -0.0425
     29 CD1        -4.4200    2.9280   -4.0690 C.3       1 MET        -0.0625
     30 CD2        -6.4430    2.4680   -5.4560 C.3       1 MET        -0.0625
     31 N          -2.9820    0.6280   -2.1730 N.am      1 MET        -0.2629
     32 CA         -1.6350    0.8070   -1.6410 C.3       1 MET         0.1396
     33 C          -1.2200   -0.4500   -0.8820 C.2       1 MET         0.2047
     34 O          -0.0400   -0.7960   -0.8360 O.2       1 MET        -0.3944
     35 CB         -1.5520    2.0420   -0.7400 C.3       1 MET         0.0311
     36 SG         -2.3220    1.8330    0.8810 S.3       1 MET        -0.1735
     37 N          -2.2060   -1.1300   -0.2980 N.am      1 MET        -0.2634
     38 CA         -1.9670   -2.3700    0.4260 C.3       1 MET         0.1335
     39 C          -1.4470   -3.4270   -0.5380 C.2       1 MET         0.2042
     40 O          -0.4570   -4.1090   -0.2650 O.2       1 MET        -0.3944
     41 CB         -3.2590   -2.8630    1.1400 C.3       1 MET        -0.0037
     42 CG1        -3.2640   -2.4070    2.6040 C.3       1 MET        -0.0491
     43 CG2        -3.4160   -4.3820    1.0630 C.3       1 MET        -0.0582
     44 CD1        -2.1080   -2.9420    3.4340 C.3       1 MET        -0.0648
     45 N          -2.1120   -3.5340   -1.6830 N.am      1 MET        -0.2635
     46 CA         -1.7140   -4.4870   -2.7060 C.3       1 MET         0.1333
     47 C          -0.3130   -4.1590   -3.2190 C.2       1 MET         0.2042
     48 O           0.5260   -5.0480   -3.3790 O.2       1 MET        -0.3944
     49 CB         -2.7410   -4.5120   -3.8640 C.3       1 MET        -0.0063
     50 CG1        -2.1740   -5.1930   -5.1040 C.3       1 MET        -0.0584
     51 CG2        -4.0000   -5.2290   -3.4080 C.3       1 MET        -0.0584
     52 N          -0.0510   -2.8780   -3.4470 N.am      1 MET        -0.2613
     53 CA          1.2570   -2.4410   -3.9050 C.3       1 MET         0.1565
     54 C           2.3120   -2.7490   -2.8410 C.2       1 MET         0.2065
     55 O           3.4240   -3.1650   -3.1600 O.2       1 MET        -0.3943
     56 CB          1.2640   -0.9360   -4.2310 C.3       1 MET         0.0924
     57 OG1         0.2230   -0.6340   -5.1720 O.3       1 MET        -0.3874
     58 CG2         2.6100   -0.5140   -4.8070 C.3       1 MET        -0.0346
     59 N           1.9450   -2.5590   -1.5740 N.am      1 MET        -0.2613
     60 CA          2.8370   -2.8460   -0.4600 C.3       1 MET         0.1565
     61 C           3.2130   -4.3250   -0.4800 C.2       1 MET         0.2065
     62 O           4.3590   -4.6950   -0.2320 O.2       1 MET        -0.3943
     63 CB          2.1630   -2.4940    0.8880 C.3       1 MET         0.0924
     64 OG1         1.9300   -1.0800    0.9660 O.3       1 MET        -0.3874
     65 CG2         3.0160   -2.9340    2.0680 C.3       1 MET        -0.0346
     66 N           2.2390   -5.1570   -0.8190 N.am      1 MET        -0.2637
     67 CA          2.4450   -6.5910   -0.8920 C.3       1 MET         0.1310
     68 C           3.3630   -6.9360   -2.0640 C.2       1 MET         0.2039
     69 O           4.2340   -7.7960   -1.9530 O.2       1 MET        -0.3944
     70 CB          1.1020   -7.3120   -1.0460 C.3       1 MET        -0.0122
     71 CG          0.9720   -8.5570   -0.1800 C.3       1 MET        -0.0440
     72 CD          0.8210   -8.2140    1.2950 C.3       1 MET        -0.0124
     73 CE          1.1460   -9.4140    2.1740 C.3       1 MET        -0.0354
     74 NZ          0.7440   -9.2060    3.5880 N.4       1 MET         0.2185
     75 N           3.1730   -6.2420   -3.1810 N.am      1 MET        -0.2637
     76 CA          3.9780   -6.4630   -4.3780 C.3       1 MET         0.1310
     77 C           5.4100   -5.9670   -4.1670 C.2       1 MET         0.2040
     78 O           6.3510   -6.4860   -4.7670 O.2       1 MET        -0.3944
     79 CB          3.3350   -5.7630   -5.5840 C.3       1 MET        -0.0122
     80 CG          3.8950   -6.2220   -6.9240 C.3       1 MET        -0.0440
     81 CD          4.6970   -5.1260   -7.6060 C.3       1 MET        -0.0124
     82 CE          5.6680   -5.6990   -8.6260 C.3       1 MET        -0.0354
     83 NZ          6.6830   -6.5740   -7.9860 N.4       1 MET         0.2185
     84 N           5.5590   -4.9550   -3.3180 N.am      1 MET        -0.2621
     85 CA          6.8690   -4.3880   -3.0060 C.3       1 MET         0.1390
     86 C           7.5950   -5.2620   -1.9810 C.2       1 MET         0.2057
     87 O           8.8220   -5.3140   -1.9500 O.2       1 MET        -0.3942
     88 CB          6.7010   -2.9460   -2.4910 C.3       1 MET         0.0163
     89 CG          7.9470   -2.3260   -1.8780 C.ar      1 MET        -0.0493
     90 CD1         8.1170   -2.2880   -0.5000 C.ar      1 MET        -0.0685
     91 CD2         8.9440   -1.7640   -2.6770 C.ar      1 MET        -0.0685
     92 CE1         9.2360   -1.7140    0.0660 C.ar      1 MET        -0.0398
     93 CE2        10.0730   -1.1870   -2.1110 C.ar      1 MET        -0.0398
     94 CZ         10.2110   -1.1650   -0.7340 C.ar      1 MET         0.0805
     95 OH         11.3320   -0.5950   -0.1470 O.3       1 MET        -0.3376
     96 N           6.8270   -5.9550   -1.1530 N.am      1 MET        -0.2636
     97 CA          7.3950   -6.8350   -0.1390 C.3       1 MET         0.1311
     98 C           7.7380   -8.2000   -0.7260 C.2       1 MET         0.2040
     99 O           8.8760   -8.6630   -0.6250 O.2       1 MET        -0.3944
    100 CB          6.4220   -7.0130    1.0290 C.3       1 MET        -0.0092
    101 CG          6.5630   -5.9570    2.1150 C.3       1 MET        -0.0156
    102 CD          6.8490   -6.5920    3.4690 C.3       1 MET         0.0627
    103 NE          5.7000   -7.3330    3.9730 N.pl3     1 MET        -0.2723
    104 CZ          5.7750   -8.5160    4.5750 C.cat     1 MET         0.2882
    105 NH1         6.9390   -9.1250    4.7530 N.pl3     1 MET        -0.2849
    106 NH2         4.6710   -9.1040    4.9910 N.pl3     1 MET        -0.2849
    107 N           6.7520   -8.8270   -1.3500 N.am      1 MET        -0.2621
    108 CA          6.9190  -10.1470   -1.9440 C.3       1 MET         0.1390
    109 C           7.7590  -10.0870   -3.2170 C.2       1 MET         0.2057
    110 O           7.2340   -9.8970   -4.3160 O.2       1 MET        -0.3942
    111 CB          5.5440  -10.7430   -2.2510 C.3       1 MET         0.0163
    112 CG          5.5220  -12.2520   -2.3650 C.ar      1 MET        -0.0493
    113 CD1         5.5990  -13.0550   -1.2310 C.ar      1 MET        -0.0685
    114 CD2         5.3940  -12.8760   -3.6020 C.ar      1 MET        -0.0685
    115 CE1         5.5490  -14.4330   -1.3270 C.ar      1 MET        -0.0398
    116 CE2         5.3490  -14.2520   -3.7060 C.ar      1 MET        -0.0398
    117 CZ          5.4220  -15.0250   -2.5660 C.ar      1 MET         0.0805
    118 OH          5.3620  -16.3970   -2.6690 O.3       1 MET        -0.3376
    119 N           9.0640  -10.2370   -3.0570 N.am      1 MET        -0.2634
    120 CA          9.9840  -10.2230   -4.1830 C.3       1 MET         0.1330
    121 C          10.7480  -11.5430   -4.2520 C.2       1 MET         0.2041
    122 O          10.5720  -12.3200   -5.1920 O.2       1 MET        -0.3944
    123 CB         10.9510   -9.0400   -4.0760 C.3       1 MET         0.0045
    124 CG         10.4110   -7.7580   -4.6920 C.3       1 MET         0.0412
    125 CD         10.6390   -7.6910   -6.1920 C.2       1 MET         0.1737
    126 OE1        10.7010   -8.7160   -6.8730 O.2       1 MET        -0.3973
    127 NE2        10.7760   -6.4860   -6.7170 N.am      1 MET        -0.3009
    128 N          11.5820  -11.7980   -3.2440 N.am      1 MET        -0.2622
    129 CA         12.3600  -13.0370   -3.1740 C.3       1 MET         0.1423
    130 C          12.8620  -13.2600   -1.7550 C.2       1 MET         0.2056
    131 O          12.6270  -14.3120   -1.1580 O.2       1 MET        -0.3943
    132 CB         13.5490  -13.0050   -4.1350 C.3       1 MET         0.0406
    133 CG         14.0260  -14.3970   -4.5160 C.2       1 MET         0.0393
    134 OD1        14.1770  -14.6690   -5.7280 O.co2     1 MET        -0.5688
    135 OD2        14.2550  -15.2290   -3.6080 O.co2     1 MET        -0.5688
    136 N          13.5370  -12.2530   -1.2150 N.am      1 MET        -0.2635
    137 CA         14.0870  -12.3280    0.1350 C.3       1 MET         0.1325
    138 C          12.9810  -12.3480    1.1920 C.2       1 MET         0.2041
    139 O          12.6130  -13.4050    1.7050 O.2       1 MET        -0.3944
    140 CB         15.0250  -11.1430    0.3930 C.3       1 MET        -0.0008
    141 CG         16.3060  -11.1810   -0.4240 C.3       1 MET         0.0044
    142 CD         17.5200  -11.5040    0.4230 C.2       1 MET         0.0350
    143 OE1        17.5670  -12.6120    0.9980 O.co2     1 MET        -0.5690
    144 OE2        18.4290  -10.6490    0.5170 O.co2     1 MET        -0.5690
    145 N          12.4550  -11.1730    1.5000 N.am      1 MET        -0.2622
    146 CA         11.3990  -11.0310    2.5000 C.3       1 MET         0.1423
    147 C          10.0480  -11.4350    1.9160 C.2       1 MET         0.2051
    148 O           9.8600  -11.4080    0.7000 O.2       1 MET        -0.3943
    149 CB         11.3560   -9.5850    3.0020 C.3       1 MET         0.0406
    150 CG         10.4560   -9.3970    4.2040 C.2       1 MET         0.0393
    151 OD1         9.4270   -8.6970    4.0720 O.co2     1 MET        -0.5688
    152 OD2        10.7770   -9.9390    5.2800 O.co2     1 MET        -0.5688
    153 N           9.1250  -11.8450    2.7770 N.am      1 MET        -0.2665
    154 CA          7.7920  -12.2400    2.3350 C.3       1 MET         0.1245
    155 CB          7.1450  -13.2510    3.3000 C.3       1 MET         0.1208
    156 CG2         7.2020  -14.6580    2.7210 C.3       1 MET        -0.0304
    157 OG1         7.8120  -13.2280    4.5740 O.3       1 MET        -0.2691
    158 P           7.1800  -12.4330    5.8110 P.3       1 MET         0.2013
    159 O1P         6.0480  -11.5510    5.4820 O.co2     1 MET        -0.5537
    160 O2P         8.1830  -11.8000    6.6720 O.co2     1 MET        -0.5537
    161 O3P         6.5170  -13.5450    6.7430 O.co2     1 MET        -0.5537
    162 C           6.8780  -11.0280    2.2050 C.2       1 MET         0.0630
    163 O           6.1630  -10.8820    1.2140 O.co2     1 MET        -0.5665
    164 OXT         6.8380  -10.1720    3.0890 O.co2     1 MET        -0.5665
    165 H1         -8.5704    4.8398   -1.8896 H         1 MET         0.2015
    166 H2         -8.3236    4.1862   -0.3991 H         1 MET         0.2015
    167 H3         -8.1946    3.2440   -1.7427 H         1 MET         0.2015
    168 H4         -6.3179    4.4458   -2.5138 H         1 MET         0.1098
    169 H5         -6.8103    6.6245   -1.6405 H         1 MET         0.0354
    170 H6         -5.2791    6.0704   -0.8822 H         1 MET         0.0354
    171 H7         -6.2544    5.7906    1.2054 H         1 MET         0.0380
    172 H8         -7.9107    5.6315    0.5286 H         1 MET         0.0380
    173 H9         -8.5472    8.8502    2.5497 H         1 MET         0.0340
    174 H10        -7.7236    7.3293    3.0345 H         1 MET         0.0340
    175 H11        -9.1929    7.2656    2.0031 H         1 MET         0.0340
    176 H12        -7.2682    3.2920    0.6761 H         1 MET         0.1886
    177 H13        -4.5879    2.3621    1.3389 H         1 MET         0.0819
    178 H14        -5.5608    1.4686    3.3447 H         1 MET         0.0478
    179 H15        -7.2176    1.5840    2.6601 H         1 MET         0.0478
    180 H16        -7.4408    1.0166   -0.1984 H         1 MET         0.1884
    181 H17        -6.7249   -1.7411    0.1840 H         1 MET         0.0808
    182 H18        -8.9156   -1.6830   -0.4018 H         1 MET         0.0422
    183 H19        -8.2508   -1.8165   -2.0652 H         1 MET         0.0422
    184 H20       -10.0711    0.1575   -1.9812 H         1 MET         0.1019
    185 H21        -6.1240    0.5913   -2.4704 H         1 MET         0.1883
    186 H22        -4.7452   -1.4278   -4.0461 H         1 MET         0.0800
    187 H23        -5.6531    0.0974   -5.4658 H         1 MET         0.0315
    188 H24        -3.9944    0.7698   -5.3137 H         1 MET         0.0315
    189 H25        -6.1179    1.7874   -3.4518 H         1 MET         0.0298
    190 H26        -4.8636    3.8904   -3.7739 H         1 MET         0.0232
    191 H27        -3.8017    3.0695   -4.9677 H         1 MET         0.0232
    192 H28        -3.7936    2.5464   -3.2493 H         1 MET         0.0232
    193 H29        -7.2373    1.7348   -5.6596 H         1 MET         0.0232
    194 H30        -5.8612    2.6424   -6.3731 H         1 MET         0.0232
    195 H31        -6.8941    3.4142   -5.1225 H         1 MET         0.0232
    196 H32        -3.7376    1.1728   -1.8093 H         1 MET         0.1884
    197 H33        -0.9435    0.9509   -2.4843 H         1 MET         0.0808
    198 H34        -2.0511    2.8771   -1.2533 H         1 MET         0.0422
    199 H35        -0.4904    2.2869   -0.5880 H         1 MET         0.0422
    200 H36        -3.2999    1.6192    0.7621 H         1 MET         0.1019
    201 H37        -3.1397   -0.7773   -0.3590 H         1 MET         0.1883
    202 H38        -1.1993   -2.1851    1.1918 H         1 MET         0.0803
    203 H39        -4.1216   -2.4066    0.6324 H         1 MET         0.0345
    204 H40        -4.2037   -2.7442    3.0659 H         1 MET         0.0267
    205 H41        -3.2203   -1.3080    2.6219 H         1 MET         0.0267
    206 H42        -3.4111   -4.6982    0.0094 H         1 MET         0.0235
    207 H43        -4.3675   -4.6764    1.5297 H         1 MET         0.0235
    208 H44        -2.5823   -4.8642    1.5943 H         1 MET         0.0235
    209 H45        -2.1917   -2.5662    4.4644 H         1 MET         0.0230
    210 H46        -1.1563   -2.6054    2.9971 H         1 MET         0.0230
    211 H47        -2.1397   -4.0415    3.4411 H         1 MET         0.0230
    212 H48        -2.9043   -2.9457   -1.8448 H         1 MET         0.1883
    213 H49        -1.6874   -5.4885   -2.2519 H         1 MET         0.0802
    214 H50        -2.9980   -3.4747   -4.1248 H         1 MET         0.0343
    215 H51        -2.9311   -5.1908   -5.9020 H         1 MET         0.0234
    216 H52        -1.9012   -6.2304   -4.8602 H         1 MET         0.0234
    217 H53        -1.2806   -4.6493   -5.4448 H         1 MET         0.0234
    218 H54        -4.4019   -4.7310   -2.5133 H         1 MET         0.0234
    219 H55        -3.7597   -6.2753   -3.1684 H         1 MET         0.0234
    220 H56        -4.7502   -5.1999   -4.2120 H         1 MET         0.0234
    221 H57        -0.7698   -2.1984   -3.3003 H         1 MET         0.1884
    222 H58         1.5076   -2.9960   -4.8211 H         1 MET         0.0826
    223 H59         1.0826   -0.3727   -3.3038 H         1 MET         0.0639
    224 H60        -0.6181   -0.8700   -4.7986 H         1 MET         0.2101
    225 H61         2.5913    0.5626   -5.0317 H         1 MET         0.0257
    226 H62         2.8066   -1.0779   -5.7307 H         1 MET         0.0257
    227 H63         3.4038   -0.7219   -4.0744 H         1 MET         0.0257
    228 H64         1.0283   -2.2083   -1.3826 H         1 MET         0.1884
    229 H65         3.7493   -2.2412   -0.5690 H         1 MET         0.0826
    230 H66         1.1965   -3.0166    0.9409 H         1 MET         0.0639
    231 H67         1.3615   -0.8141    0.2529 H         1 MET         0.2101
    232 H68         2.5078   -2.6688    3.0068 H         1 MET         0.0257
    233 H69         3.9919   -2.4283    2.0238 H         1 MET         0.0257
    234 H70         3.1651   -4.0231    2.0268 H         1 MET         0.0257
    235 H71         1.3351   -4.7853   -1.0308 H         1 MET         0.1883
    236 H72         2.9216   -6.9268    0.0408 H         1 MET         0.0800
    237 H73         0.9857   -7.6080   -2.0990 H         1 MET         0.0312
    238 H74         0.2989   -6.6125   -0.7709 H         1 MET         0.0312
    239 H75         1.8723   -9.1754   -0.3101 H         1 MET         0.0269
    240 H76         0.0873   -9.1244   -0.5047 H         1 MET         0.0269
    241 H77        -0.2155   -7.8992    1.4862 H         1 MET         0.0317
    242 H78         1.5063   -7.3904    1.5441 H         1 MET         0.0317
    243 H79         2.2305   -9.5947    2.1381 H         1 MET         0.0813
    244 H80         0.6146  -10.2935    1.7815 H         1 MET         0.0813
    245 H81         0.9787  -10.0242    4.1279 H         1 MET         0.1994
    246 H82        -0.2502   -9.0465    3.6347 H         1 MET         0.1994
    247 H83         1.2306   -8.4061    3.9615 H         1 MET         0.1994
    248 H84         2.4554   -5.5459   -3.2021 H         1 MET         0.1883
    249 H85         4.0121   -7.5438   -4.5799 H         1 MET         0.0800
    250 H86         3.5041   -4.6803   -5.4888 H         1 MET         0.0312
    251 H87         2.2544   -5.9680   -5.5699 H         1 MET         0.0312
    252 H88         3.0597   -6.5117   -7.5785 H         1 MET         0.0269
    253 H89         4.5490   -7.0907   -6.7578 H         1 MET         0.0269
    254 H90         5.2647   -4.5717   -6.8442 H         1 MET         0.0317
    255 H91         4.0042   -4.4415   -8.1173 H         1 MET         0.0317
    256 H92         6.1817   -4.8698   -9.1344 H         1 MET         0.0813
    257 H93         5.1037   -6.2882   -9.3638 H         1 MET         0.0813
    258 H94         7.3076   -6.9348   -8.6902 H         1 MET         0.1994
    259 H95         6.2213   -7.3405   -7.5219 H         1 MET         0.1994
    260 H96         7.2092   -6.0407   -7.3116 H         1 MET         0.1994
    261 H97         4.7479   -4.5691   -2.8784 H         1 MET         0.1885
    262 H98         7.4700   -4.3617   -3.9269 H         1 MET         0.0821
    263 H99         5.9108   -2.9482   -1.7258 H         1 MET         0.0453
    264 H100        6.3897   -2.3167   -3.3378 H         1 MET         0.0453
    265 H101        7.3564   -2.7172    0.1421 H         1 MET         0.0530
    266 H102        8.8353   -1.7782   -3.7554 H         1 MET         0.0530
    267 H103        9.3475   -1.6954    1.1441 H         1 MET         0.0525
    268 H104       10.8411   -0.7567   -2.7433 H         1 MET         0.0525
    269 H105       11.2639   -0.6658    0.7979 H         1 MET         0.2458
    270 H106        5.8331   -5.8723   -1.2255 H         1 MET         0.1883
    271 H107        8.3192   -6.3745    0.2401 H         1 MET         0.0800
    272 H108        6.5998   -8.0001    1.4806 H         1 MET         0.0313
    273 H109        5.3960   -6.9695    0.6348 H         1 MET         0.0313
    274 H110        5.6276   -5.3817    2.1793 H         1 MET         0.0301
    275 H111        7.3913   -5.2821    1.8535 H         1 MET         0.0301
    276 H112        7.1041   -5.7990    4.1874 H         1 MET         0.0689
    277 H113        7.7000   -7.2814    3.3663 H         1 MET         0.0689
    278 H114        4.7673   -6.9121    3.8550 H         1 MET         0.2642
    279 H115        6.9744  -10.0414    5.2220 H         1 MET         0.2615
    280 H116        7.8080   -8.6818    4.4223 H         1 MET         0.2615
    281 H117        3.7601   -8.6417    4.8589 H         1 MET         0.2615
    282 H118        4.7193  -10.0257    5.4482 H         1 MET         0.2615
    283 H119        5.8608   -8.3782   -1.4158 H         1 MET         0.1885
    284 H120        7.4331  -10.7946   -1.2186 H         1 MET         0.0821
    285 H121        5.1928  -10.3219   -3.2046 H         1 MET         0.0453
    286 H122        4.8554  -10.4499   -1.4449 H         1 MET         0.0453
    287 H123        5.6999  -12.5920   -0.2560 H         1 MET         0.0530
    288 H124        5.3285  -12.2715   -4.4994 H         1 MET         0.0530
    289 H125        5.6092  -15.0445   -0.4340 H         1 MET         0.0525
    290 H126        5.2568  -14.7223   -4.6783 H         1 MET         0.0525
    291 H127        5.4250  -16.7815   -1.8026 H         1 MET         0.2458
    292 H128        9.4283  -10.3637   -2.1344 H         1 MET         0.1883
    293 H129        9.4004  -10.1100   -5.1085 H         1 MET         0.0801
    294 H130       11.8859   -9.3067   -4.5905 H         1 MET         0.0337
    295 H131       11.1582   -8.8546   -3.0117 H         1 MET         0.0337
    296 H132       10.9142   -6.9011   -4.2204 H         1 MET         0.0504
    297 H133        9.3299   -7.7013   -4.4969 H         1 MET         0.0504
    298 H134       10.9283   -6.3832   -7.7000 H         1 MET         0.1814
    299 H135       10.7274   -5.6769   -6.1313 H         1 MET         0.1814
    300 H136       11.6795  -11.1226   -2.5130 H         1 MET         0.1884
    301 H137       11.7053  -13.8751   -3.4548 H         1 MET         0.0819
    302 H138       14.3785  -12.4675   -3.6523 H         1 MET         0.0478
    303 H139       13.2495  -12.4720   -5.0494 H         1 MET         0.0478
    304 H140       13.6728  -11.4183   -1.7487 H         1 MET         0.1883
    305 H141       14.6656  -13.2596    0.2204 H         1 MET         0.0801
    306 H142       15.2946  -11.1407    1.4594 H         1 MET         0.0330
    307 H143       14.4863  -10.2155    0.1490 H         1 MET         0.0330
    308 H144       16.4546  -10.1979   -0.8944 H         1 MET         0.0433
    309 H145       16.2049  -11.9495   -1.2045 H         1 MET         0.0433
    310 H146       12.7915  -10.3554    1.0328 H         1 MET         0.1884
    311 H147       11.6253  -11.6930    3.3488 H         1 MET         0.0819
    312 H148       10.9897   -8.9430    2.1874 H         1 MET         0.0478
    313 H149       12.3762   -9.2805    3.2784 H         1 MET         0.0478
    314 H150        9.3484  -11.8841    3.7510 H         1 MET         0.1876
    315 H151        7.8879  -12.7144    1.3472 H         1 MET         0.0756
    316 H152        6.0914  -12.9710    3.4464 H         1 MET         0.0688
    317 H153        6.7355  -15.3632    3.4246 H         1 MET         0.0260
    318 H154        8.2512  -14.9445    2.5563 H         1 MET         0.0260
    319 H155        6.6605  -14.6829    1.7639 H         1 MET         0.0260
@<TRIPOS>BOND
     1    1    2 1  
     2    2    3 1  
     3    2    5 1  
     4    3    4 2  
     5    3    9 am 
     6    5    6 1  
     7    6    7 1  
     8    7    8 1  
     9    9   10 1  
    10   10   11 1  
    11   10   13 1  
    12   11   12 2  
    13   11   17 am 
    14   13   14 1  
    15   14   15 ar 
    16   14   16 ar 
    17   17   18 1  
    18   18   19 1  
    19   18   21 1  
    20   19   20 2  
    21   19   23 am 
    22   21   22 1  
    23   23   24 1  
    24   24   25 1  
    25   24   27 1  
    26   25   26 2  
    27   25   31 am 
    28   27   28 1  
    29   28   29 1  
    30   28   30 1  
    31   31   32 1  
    32   32   33 1  
    33   32   35 1  
    34   33   34 2  
    35   33   37 am 
    36   35   36 1  
    37   37   38 1  
    38   38   39 1  
    39   38   41 1  
    40   39   40 2  
    41   39   45 am 
    42   41   42 1  
    43   41   43 1  
    44   42   44 1  
    45   45   46 1  
    46   46   47 1  
    47   46   49 1  
    48   47   48 2  
    49   47   52 am 
    50   49   50 1  
    51   49   51 1  
    52   52   53 1  
    53   53   54 1  
    54   53   56 1  
    55   54   55 2  
    56   54   59 am 
    57   56   57 1  
    58   56   58 1  
    59   59   60 1  
    60   60   61 1  
    61   60   63 1  
    62   61   62 2  
    63   61   66 am 
    64   63   64 1  
    65   63   65 1  
    66   66   67 1  
    67   67   68 1  
    68   67   70 1  
    69   68   69 2  
    70   68   75 am 
    71   70   71 1  
    72   71   72 1  
    73   72   73 1  
    74   73   74 1  
    75   75   76 1  
    76   76   77 1  
    77   76   79 1  
    78   77   78 2  
    79   77   84 am 
    80   79   80 1  
    81   80   81 1  
    82   81   82 1  
    83   82   83 1  
    84   84   85 1  
    85   85   86 1  
    86   85   88 1  
    87   86   87 2  
    88   86   96 am 
    89   88   89 1  
    90   89   90 ar 
    91   89   91 ar 
    92   90   92 ar 
    93   91   93 ar 
    94   92   94 ar 
    95   93   94 ar 
    96   94   95 1  
    97   96   97 1  
    98   97   98 1  
    99   97  100 1  
   100   98   99 2  
   101   98  107 am 
   102  100  101 1  
   103  101  102 1  
   104  102  103 1  
   105  103  104 ar 
   106  104  105 ar 
   107  104  106 ar 
   108  107  108 1  
   109  108  109 1  
   110  108  111 1  
   111  109  110 2  
   112  109  119 am 
   113  111  112 1  
   114  112  113 ar 
   115  112  114 ar 
   116  113  115 ar 
   117  114  116 ar 
   118  115  117 ar 
   119  116  117 ar 
   120  117  118 1  
   121  119  120 1  
   122  120  121 1  
   123  120  123 1  
   124  121  122 2  
   125  121  128 am 
   126  123  124 1  
   127  124  125 1  
   128  125  126 2  
   129  125  127 am 
   130  128  129 1  
   131  129  130 1  
   132  129  132 1  
   133  130  131 2  
   134  130  136 am 
   135  132  133 1  
   136  133  134 ar 
   137  133  135 ar 
   138  136  137 1  
   139  137  138 1  
   140  137  140 1  
   141  138  139 2  
   142  138  145 am 
   143  140  141 1  
   144  141  142 1  
   145  142  143 ar 
   146  142  144 ar 
   147  145  146 1  
   148  146  147 1  
   149  146  149 1  
   150  147  148 2  
   151  147  153 am 
   152  149  150 1  
   153  150  151 ar 
   154  150  152 ar 
   155  153  154 1  
   156  154  155 1  
   157  154  162 1  
   158  155  156 1  
   159  155  157 1  
   160  157  158 1  
   161  158  159 ar 
   162  158  160 ar 
   163  158  161 ar 
   164  162  163 ar 
   165  162  164 ar 
   166    1  165 1  
   167    1  166 1  
   168    1  167 1  
   169    2  168 1  
   170    5  169 1  
   171    5  170 1  
   172    6  171 1  
   173    6  172 1  
   174    8  173 1  
   175    8  174 1  
   176    8  175 1  
   177    9  176 1  
   178   10  177 1  
   179   13  178 1  
   180   13  179 1  
   181   17  180 1  
   182   18  181 1  
   183   21  182 1  
   184   21  183 1  
   185   22  184 1  
   186   23  185 1  
   187   24  186 1  
   188   27  187 1  
   189   27  188 1  
   190   28  189 1  
   191   29  190 1  
   192   29  191 1  
   193   29  192 1  
   194   30  193 1  
   195   30  194 1  
   196   30  195 1  
   197   31  196 1  
   198   32  197 1  
   199   35  198 1  
   200   35  199 1  
   201   36  200 1  
   202   37  201 1  
   203   38  202 1  
   204   41  203 1  
   205   42  204 1  
   206   42  205 1  
   207   43  206 1  
   208   43  207 1  
   209   43  208 1  
   210   44  209 1  
   211   44  210 1  
   212   44  211 1  
   213   45  212 1  
   214   46  213 1  
   215   49  214 1  
   216   50  215 1  
   217   50  216 1  
   218   50  217 1  
   219   51  218 1  
   220   51  219 1  
   221   51  220 1  
   222   52  221 1  
   223   53  222 1  
   224   56  223 1  
   225   57  224 1  
   226   58  225 1  
   227   58  226 1  
   228   58  227 1  
   229   59  228 1  
   230   60  229 1  
   231   63  230 1  
   232   64  231 1  
   233   65  232 1  
   234   65  233 1  
   235   65  234 1  
   236   66  235 1  
   237   67  236 1  
   238   70  237 1  
   239   70  238 1  
   240   71  239 1  
   241   71  240 1  
   242   72  241 1  
   243   72  242 1  
   244   73  243 1  
   245   73  244 1  
   246   74  245 1  
   247   74  246 1  
   248   74  247 1  
   249   75  248 1  
   250   76  249 1  
   251   79  250 1  
   252   79  251 1  
   253   80  252 1  
   254   80  253 1  
   255   81  254 1  
   256   81  255 1  
   257   82  256 1  
   258   82  257 1  
   259   83  258 1  
   260   83  259 1  
   261   83  260 1  
   262   84  261 1  
   263   85  262 1  
   264   88  263 1  
   265   88  264 1  
   266   90  265 1  
   267   91  266 1  
   268   92  267 1  
   269   93  268 1  
   270   95  269 1  
   271   96  270 1  
   272   97  271 1  
   273  100  272 1  
   274  100  273 1  
   275  101  274 1  
   276  101  275 1  
   277  102  276 1  
   278  102  277 1  
   279  103  278 1  
   280  105  279 1  
   281  105  280 1  
   282  106  281 1  
   283  106  282 1  
   284  107  283 1  
   285  108  284 1  
   286  111  285 1  
   287  111  286 1  
   288  113  287 1  
   289  114  288 1  
   290  115  289 1  
   291  116  290 1  
   292  118  291 1  
   293  119  292 1  
   294  120  293 1  
   295  123  294 1  
   296  123  295 1  
   297  124  296 1  
   298  124  297 1  
   299  127  298 1  
   300  127  299 1  
   301  128  300 1  
   302  129  301 1  
   303  132  302 1  
   304  132  303 1  
   305  136  304 1  
   306  137  305 1  
   307  140  306 1  
   308  140  307 1  
   309  141  308 1  
   310  141  309 1  
   311  145  310 1  
   312  146  311 1  
   313  149  312 1  
   314  149  313 1  
   315  153  314 1  
   316  154  315 1  
   317  155  316 1  
   318  156  317 1  
   319  156  318 1  
   320  156  319 1  
@<TRIPOS>SUBSTRUCTURE
     1 MET         1

