1rt2_ligand
  -I-interpret- 

 51 53  0  0  0  0  0  0  0  0999 V2000
   -1.2100  -34.5120   26.5980 C   0  0  0  0  0
   -1.7060  -33.8430   27.7000 C   0  0  0  0  0
   -0.9010  -32.9710   28.4240 C   0  0  0  0  0
    0.4100  -32.7590   28.0510 C   0  0  0  0  0
    0.9210  -33.4170   26.9480 C   0  0  0  0  0
    0.1100  -34.2910   26.2230 C   0  0  0  0  0
   -1.8060  -35.5930   24.3900 C   0  0  0  0  0
   -2.5730  -34.8770   23.5310 N   0  0  0  0  0
   -2.4700  -35.0290   22.1300 C   0  0  0  0  0
   -3.1430  -34.4090   21.3230 O   0  0  0  0  0
   -1.5470  -35.9270   21.6820 N   0  0  0  0  0
   -0.7180  -36.6810   22.4670 C   0  0  0  0  0
    0.0850  -37.4310   21.9230 O   0  0  0  0  0
   -0.8960  -36.4660   23.9180 C   0  0  0  0  0
   -2.0670  -35.4850   25.8710 C   0  0  0  0  0
   -0.0190  -37.2660   24.8480 C   0  0  0  0  0
   -0.5780  -38.6370   25.1270 C   0  0  0  0  0
    1.4560  -37.2920   24.4280 C   0  0  0  0  0
   -3.5170  -33.9150   24.0820 C   0  0  0  0  0
   -4.7760  -34.1070   23.5020 O   0  0  0  0  0
   -5.9090  -33.8880   24.3300 C   0  0  0  0  0
   -6.9890  -34.8930   24.1830 C   0  0  0  0  0
   -6.8960  -35.8680   23.1900 C   0  0  0  0  0
   -7.8420  -36.8520   23.0770 C   0  0  0  0  0
   -8.9070  -36.8820   23.9580 C   0  0  0  0  0
   -9.0200  -35.9140   24.9510 C   0  0  0  0  0
   -8.0580  -34.9180   25.0590 C   0  0  0  0  0
   -2.7404  -34.0006   28.0054 H   0  0  0  0  0
   -1.3082  -32.4517   29.2916 H   0  0  0  0  0
    1.0392  -32.0767   28.6226 H   0  0  0  0  0
    1.9552  -33.2535   26.6452 H   0  0  0  0  0
    0.5163  -34.8063   25.3527 H   0  0  0  0  0
   -1.4675  -36.0473   20.6722 H   0  0  0  0  0
   -3.0948  -35.1396   25.9823 H   0  0  0  0  0
   -1.8563  -36.4658   26.2973 H   0  0  0  0  0
   -0.0312  -36.7320   25.7982 H   0  0  0  0  0
   -1.5602  -38.5403   25.5896 H   0  0  0  0  0
   -0.6685  -39.1884   24.1911 H   0  0  0  0  0
    0.0917  -39.1707   25.8014 H   0  0  0  0  0
    1.5422  -37.7351   23.4359 H   0  0  0  0  0
    1.8446  -36.2738   24.4076 H   0  0  0  0  0
    2.0257  -37.8855   25.1431 H   0  0  0  0  0
   -3.1702  -32.9041   23.8679 H   0  0  0  0  0
   -3.5899  -34.0562   25.1604 H   0  0  0  0  0
   -6.3308  -32.9252   24.0415 H   0  0  0  0  0
   -5.5627  -33.9438   25.3620 H   0  0  0  0  0
   -6.0579  -35.8466   22.4934 H   0  0  0  0  0
   -7.7556  -37.6077   22.2963 H   0  0  0  0  0
   -9.6599  -37.6658   23.8745 H   0  0  0  0  0
   -9.8619  -35.9373   25.6429 H   0  0  0  0  0
   -8.1459  -34.1566   25.8340 H   0  0  0  0  0
  1  2  4  0  0  0
  1  6  4  0  0  0
 15  1  1  0  0  0
  2  3  4  0  0  0
  3  4  4  0  0  0
  5  4  4  0  0  0
  6  5  4  0  0  0
  7  8  1  0  0  0
  7 14  2  0  0  0
  7 15  1  0  0  0
  8  9  1  0  0  0
  8 19  1  0  0  0
  9 10  2  0  0  0
  9 11  1  0  0  0
 11 12  1  0  0  0
 12 13  2  0  0  0
 12 14  1  0  0  0
 14 16  1  0  0  0
 16 17  1  0  0  0
 16 18  1  0  0  0
 19 20  1  0  0  0
 20 21  1  0  0  0
 21 22  1  0  0  0
 22 23  4  0  0  0
 22 27  4  0  0  0
 23 24  4  0  0  0
 24 25  4  0  0  0
 25 26  4  0  0  0
 26 27  4  0  0  0
  2 28  1  0  0  0
  3 29  1  0  0  0
  4 30  1  0  0  0
  5 31  1  0  0  0
  6 32  1  0  0  0
 11 33  1  0  0  0
 15 34  1  0  0  0
 15 35  1  0  0  0
 16 36  1  0  0  0
 17 37  1  0  0  0
 17 38  1  0  0  0
 17 39  1  0  0  0
 18 40  1  0  0  0
 18 41  1  0  0  0
 18 42  1  0  0  0
 19 43  1  0  0  0
 19 44  1  0  0  0
 21 45  1  0  0  0
 21 46  1  0  0  0
 23 47  1  0  0  0
 24 48  1  0  0  0
 25 49  1  0  0  0
 26 50  1  0  0  0
 27 51  1  0  0  0
M  END
$$$$
