4ks2_ligand
  -I-interpret- 

 49 49  0  0  0  0  0  0  0  0999 V2000
  -26.8480  -23.2820  -10.2960 C   0  0  0  0  0
  -25.7880  -22.2860  -10.8590 C   0  0  0  0  0
  -26.2610  -20.8150  -10.7000 C   0  0  0  0  0
  -27.8130  -20.7350  -10.8000 C   0  0  0  0  0
  -28.3690  -19.5580   -9.9940 C   0  0  0  0  0
  -25.7950  -20.2330   -9.4590 O   0  0  0  0  0
  -24.4290  -19.9190   -9.4990 C   0  0  0  0  0
  -23.7700  -20.8120   -8.4690 C   0  0  0  0  0
  -22.4960  -20.3720   -8.0370 C   0  0  0  0  0
  -21.7690  -21.3150   -7.2810 C   0  0  0  0  0
  -20.7220  -21.0290   -6.6660 O   0  0  0  0  0
  -22.1720  -22.4900   -7.2090 O   0  0  0  0  0
  -21.9950  -19.0810   -8.3380 C   0  0  0  0  0
  -22.6750  -18.1470   -9.1460 C   0  0  0  0  0
  -22.4840  -16.7060   -8.8100 N   0  0  0  0  0
  -22.3450  -15.6900   -9.6990 C   0  0  0  0  0
  -22.3720  -15.9230  -11.0040 N   0  0  0  0  0
  -22.1780  -14.4210   -9.2890 N   0  0  0  0  0
  -24.1840  -18.4280   -9.1940 C   0  0  0  0  0
  -24.7290  -17.5800  -10.2700 N   0  0  0  0  0
  -25.5230  -16.5050  -10.0900 C   0  0  0  0  0
  -25.8910  -16.1010   -8.9870 O   0  0  0  0  0
  -25.9600  -15.7890  -11.3420 C   0  0  0  0  0
  -27.0083  -23.0797   -9.2370 H   0  0  0  0  0
  -27.7858  -23.1568  -10.8372 H   0  0  0  0  0
  -26.4880  -24.3031  -10.4217 H   0  0  0  0  0
  -25.6442  -22.4930  -11.9195 H   0  0  0  0  0
  -24.8591  -22.4152  -10.3036 H   0  0  0  0  0
  -25.8253  -20.2340  -11.5128 H   0  0  0  0  0
  -28.2323  -21.6571  -10.3974 H   0  0  0  0  0
  -28.0842  -20.5949  -11.8464 H   0  0  0  0  0
  -28.0965  -19.6765   -8.9453 H   0  0  0  0  0
  -27.9502  -18.6272  -10.3766 H   0  0  0  0  0
  -29.4547  -19.5353  -10.0883 H   0  0  0  0  0
  -24.0127  -20.0872  -10.4922 H   0  0  0  0  0
  -24.2389  -21.7204   -8.0907 H   0  0  0  0  0
  -20.5176  -20.1005   -6.7989 H   0  0  0  0  0
  -21.0989  -19.2979   -8.9195 H   0  0  0  0  0
  -21.9800  -18.5932   -7.3634 H   0  0  0  0  0
  -22.2038  -18.2994  -10.1170 H   0  0  0  0  0
  -22.4552  -16.4617   -7.8201 H   0  0  0  0  0
  -22.4983  -16.8743  -11.3497 H   0  0  0  0  0
  -22.0768  -13.6727   -9.9747 H   0  0  0  0  0
  -22.1525  -14.2063   -8.2922 H   0  0  0  0  0
  -24.6662  -18.2059   -8.2420 H   0  0  0  0  0
  -24.4855  -17.8267  -11.2293 H   0  0  0  0  0
  -27.0480  -15.8034  -11.4063 H   0  0  0  0  0
  -25.6103  -14.7571  -11.3098 H   0  0  0  0  0
  -25.5367  -16.2905  -12.2123 H   0  0  0  0  0
  1  2  1  0  0  0
  2  3  1  0  0  0
  3  4  1  0  0  0
  3  6  1  0  0  0
  4  5  1  0  0  0
  6  7  1  0  0  0
  7  8  1  0  0  0
  7 19  1  0  0  0
  8  9  2  0  0  0
  9 10  1  0  0  0
  9 13  1  0  0  0
 10 11  1  0  0  0
 10 12  2  0  0  0
 13 14  1  0  0  0
 14 15  1  0  0  0
 14 19  1  0  0  0
 15 16  1  0  0  0
 16 17  2  0  0  0
 16 18  1  0  0  0
 19 20  1  0  0  0
 20 21  1  0  0  0
 21 22  2  0  0  0
 21 23  1  0  0  0
  1 24  1  0  0  0
  1 25  1  0  0  0
  1 26  1  0  0  0
  2 27  1  0  0  0
  2 28  1  0  0  0
  3 29  1  0  0  0
  4 30  1  0  0  0
  4 31  1  0  0  0
  5 32  1  0  0  0
  5 33  1  0  0  0
  5 34  1  0  0  0
  7 35  1  0  0  0
  8 36  1  0  0  0
 11 37  1  0  0  0
 13 38  1  0  0  0
 13 39  1  0  0  0
 14 40  1  0  0  0
 15 41  1  0  0  0
 17 42  1  0  0  0
 18 43  1  0  0  0
 18 44  1  0  0  0
 19 45  1  0  0  0
 20 46  1  0  0  0
 23 47  1  0  0  0
 23 48  1  0  0  0
 23 49  1  0  0  0
M  END
$$$$
