6g9x_ligand
  -I-interpret- 

 16 16  0  0  0  0  0  0  0  0999 V2000
   97.1410   25.9490   43.1510 S   0  0  0  0  0
   96.4220   29.0360   44.1000 C   0  0  0  0  0
   97.7140   28.7300   43.2800 C   0  0  0  0  0
   99.2890   27.3080   42.0480 C   0  0  0  0  0
   95.9160   30.1710   43.9690 O   0  0  0  0  0
   99.7200   29.6370   42.2170 C   0  0  0  0  0
   95.7970   28.2640   44.8920 O   0  0  0  0  0
   98.1140   27.4610   42.8080 C   0  0  0  0  0
   98.5440   29.8070   42.9560 C   0  0  0  0  0
  100.1090   28.3830   41.7510 C   0  0  0  0  0
   97.7410   24.9015   42.5929 H   0  0  0  0  0
   99.5602   26.3171   41.6838 H   0  0  0  0  0
  100.3448   30.5038   42.0014 H   0  0  0  0  0
   96.2488   27.4181   44.9355 H   0  0  0  0  0
   98.2674   30.8075   43.2884 H   0  0  0  0  0
  101.0247   28.2532   41.1742 H   0  0  0  0  0
  8  1  1  0  0  0
  3  2  1  0  0  0
  2  5  2  0  0  0
  2  7  1  0  0  0
  3  8  4  0  0  0
  3  9  4  0  0  0
  8  4  4  0  0  0
  4 10  4  0  0  0
  9  6  4  0  0  0
  6 10  4  0  0  0
  1 11  1  0  0  0
  4 12  1  0  0  0
  6 13  1  0  0  0
  7 14  1  0  0  0
  9 15  1  0  0  0
 10 16  1  0  0  0
M  END
$$$$
