3f78_ligand
  -I-interpret- 

 12 11  0  0  0  0  0  0  0  0999 V2000
   27.4000   17.1820    3.8110 F   0  0  0  0  0
   28.2080   17.2250    4.8700 C   0  0  0  0  0
   29.1390   18.1490    4.6670 F   0  0  0  0  0
   28.8090   16.0650    5.0390 F   0  0  0  0  0
   27.3980   17.5840    6.1190 C   0  0  0  0  0
   26.2020   16.2800    6.6240 Cl  0  0  0  0  0
   26.6990   18.7920    5.7910 O   0  0  0  0  0
   26.6070   19.7000    6.9060 C   0  0  0  0  0
   26.3150   19.0230    8.0300 F   0  0  0  0  0
   27.7460   20.4040    7.0710 F   0  0  0  0  0
   28.0704   17.6951    6.9697 H   0  0  0  0  0
   25.8069   20.4087    6.6922 H   0  0  0  0  0
  1  2  1  0  0  0
  2  3  1  0  0  0
  2  4  1  0  0  0
  2  5  1  0  0  0
  5  6  1  0  0  0
  5  7  1  0  0  0
  7  8  1  0  0  0
  8  9  1  0  0  0
  8 10  1  0  0  0
  5 11  1  0  0  0
  8 12  1  0  0  0
M  END
$$$$
