### 
### Created by X-TOOL on Mon Sep 10 21:13:18 2018
### 

@<TRIPOS>MOLECULE
4rcp_ligand
   88    89     1     0     0
SMALL
GAST_HUCK


@<TRIPOS>ATOM
      1 C          -7.5270   -5.8400   17.2710 C.2       1 ACE         0.1752
      2 O          -7.4560   -5.4200   16.1180 O.2       1 ACE        -0.3972
      3 CH3        -8.0310   -7.2280   17.5660 C.3       1 ACE         0.0258
      4 C          -5.6910   -3.3950   19.2810 C.2       1 56A         0.2061
      5 N          -7.1650   -5.0940   18.3210 N.am      1 56A        -0.2640
      6 O          -5.7280   -4.0400   20.3240 O.2       1 56A        -0.3942
      7 CA         -6.5370   -3.7930   18.0840 C.3       1 56A         0.1420
      8 CB         -7.5370   -2.6460   17.7690 C.3       1 56A         0.0429
      9 CG         -8.6630   -2.6100   18.7400 C.2       1 56A         0.0589
     10 C27       -10.4670   -2.9280   16.9660 C.3       1 56A         0.0580
     11 C28       -11.9400   -3.2860   16.8890 C.3       1 56A        -0.0249
     12 C29       -12.4080   -3.5810   15.4770 C.3       1 56A        -0.0505
     13 C30       -12.4340   -2.3930   14.5380 C.3       1 56A        -0.0530
     14 C31       -12.9530   -2.7650   13.1550 C.3       1 56A        -0.0529
     15 C32       -13.1080   -1.6010   12.1720 C.3       1 56A        -0.0513
     16 C33       -11.8130   -0.8720   11.8310 C.3       1 56A        -0.0433
     17 C34       -11.9950    0.1880   10.7400 C.3       1 56A        -0.0192
     18 C35       -12.3990   -0.3860    9.4000 C.ar      1 56A        -0.0430
     19 C36       -11.4410   -0.8510    8.5090 C.ar      1 56A        -0.0603
     20 C37       -11.8080   -1.3980    7.2910 C.ar      1 56A        -0.0686
     21 C38       -13.1380   -1.4880    6.9440 C.ar      1 56A        -0.0687
     22 C39       -14.1000   -1.0060    7.8070 C.ar      1 56A        -0.0686
     23 C40       -13.7330   -0.4650    9.0290 C.ar      1 56A        -0.0603
     24 ND1       -10.0030   -2.7520   18.3550 N.pl3     1 56A        -0.2480
     25 CD2        -8.7050   -2.4470   20.0960 C.2       1 56A        -0.0274
     26 CE1       -10.7470   -2.6870   19.4900 C.2       1 56A         0.0900
     27 NE2       -10.0110   -2.3810   20.5390 N.2       1 56A        -0.3436
     28 N          -4.9210   -2.3260   19.1210 N.am      1 SER        -0.2614
     29 CA         -4.0500   -1.8510   20.1820 C.3       1 SER         0.1539
     30 C          -4.8720   -1.2170   21.2970 C.2       1 SER         0.2063
     31 O          -6.0990   -1.1440   21.2180 O.2       1 SER        -0.3943
     32 CB         -3.0440   -0.8370   19.6220 C.3       1 SER         0.0843
     33 OG         -3.6990    0.2720   19.0220 O.3       1 SER        -0.3903
     34 N          -4.1990   -0.7460   22.3550 N.am      1 TPO        -0.2610
     35 CA         -4.8950   -0.4640   23.6010 C.3       1 TPO         0.1608
     36 CB         -3.9300   -0.1100   24.7500 C.3       1 TPO         0.1262
     37 CG2        -4.6540    0.0600   26.0660 C.3       1 TPO        -0.0298
     38 OG1        -3.0320   -1.2330   24.8140 O.3       1 TPO        -0.2685
     39 P          -1.4630   -1.1260   24.4670 P.3       1 TPO         0.2014
     40 O1P        -0.7940   -0.0050   25.1910 O.co2     1 TPO        -0.5537
     41 O2P        -0.9540   -2.5090   24.8340 O.co2     1 TPO        -0.5537
     42 O3P        -1.4560   -0.9180   22.9580 O.co2     1 TPO        -0.5537
     43 C          -5.7690    0.7600   23.3740 C.2       1 TPO         0.2021
     44 O          -5.3440    1.7620   22.8460 O.2       1 TPO        -0.3946
     45 N          -7.0280    0.6720   23.7910 N.am      1 NH2        -0.2989
     46 H          -8.0135   -7.4013   18.6521 H         1 ACE         0.0467
     47 H          -7.3862   -7.9661   17.0666 H         1 ACE         0.0467
     48 H          -9.0614   -7.3305   17.1949 H         1 ACE         0.0467
     49 H          -7.3210   -5.4201   19.2534 H         1 56A         0.1884
     50 H          -5.8747   -3.9035   17.2127 H         1 56A         0.0824
     51 H          -7.9438   -2.7964   16.7581 H         1 56A         0.0491
     52 H          -7.0015   -1.6860   17.8097 H         1 56A         0.0491
     53 H         -10.3025   -1.9891   16.4170 H         1 56A         0.0620
     54 H          -9.8826   -3.7338   16.4978 H         1 56A         0.0620
     55 H         -12.5262   -2.4427   17.2830 H         1 56A         0.0293
     56 H         -12.1166   -4.1769   17.5095 H         1 56A         0.0293
     57 H         -13.4279   -3.9888   15.5361 H         1 56A         0.0266
     58 H         -11.7348   -4.3377   15.0478 H         1 56A         0.0266
     59 H         -11.4124   -1.9974   14.4385 H         1 56A         0.0265
     60 H         -13.0874   -1.6179   14.9650 H         1 56A         0.0265
     61 H         -13.9388   -3.2369   13.2790 H         1 56A         0.0265
     62 H         -12.2525   -3.4894   12.7141 H         1 56A         0.0265
     63 H         -13.8045   -0.8723   12.6123 H         1 56A         0.0267
     64 H         -13.5334   -1.9968   11.2380 H         1 56A         0.0267
     65 H         -11.0756   -1.6105   11.4833 H         1 56A         0.0287
     66 H         -11.4378   -0.3792   12.7400 H         1 56A         0.0287
     67 H         -11.0436    0.7259   10.6154 H         1 56A         0.0426
     68 H         -12.7745    0.8924   11.0659 H         1 56A         0.0426
     69 H         -10.3911   -0.7849    8.7705 H         1 56A         0.0557
     70 H         -11.0461   -1.7566    6.6083 H         1 56A         0.0599
     71 H         -13.4266   -1.9345    5.9993 H         1 56A         0.0559
     72 H         -15.1467   -1.0505    7.5285 H         1 56A         0.0599
     73 H         -14.4985   -0.0989    9.7036 H         1 56A         0.0557
     74 H          -7.8287   -2.3786   20.7390 H         1 56A         0.0324
     75 H         -11.8205   -2.8660   19.5280 H         1 56A         0.1150
     76 H          -4.9409   -1.8360   18.2495 H         1 SER         0.1884
     77 H          -3.4965   -2.7072   20.5949 H         1 SER         0.0823
     78 H          -2.4190   -1.3344   18.8658 H         1 SER         0.0606
     79 H          -2.4078   -0.4746   20.4429 H         1 SER         0.0606
     80 H          -4.2372    0.7096   19.6711 H         1 SER         0.2097
     81 H          -3.2139   -0.5875   22.2881 H         1 TPO         0.1884
     82 H          -5.5075   -1.3325   23.8848 H         1 TPO         0.0830
     83 H          -3.3810    0.8145   24.5180 H         1 TPO         0.0695
     84 H          -3.9285    0.3109   26.8538 H         1 TPO         0.0260
     85 H          -5.1677   -0.8774   26.3257 H         1 TPO         0.0260
     86 H          -5.3926    0.8702   25.9762 H         1 TPO         0.0260
     87 H          -7.6503    1.4452   23.6689 H         1 NH2         0.1815
     88 H          -7.3529   -0.1674   24.2268 H         1 NH2         0.1815
@<TRIPOS>BOND
     1    1    2 2  
     2    1    3 1  
     3    5    1 am 
     4    4    6 2  
     5    7    4 1  
     6    4   28 am 
     7    7    5 1  
     8    8    7 1  
     9    9    8 1  
    10   24    9 1  
    11    9   25 2  
    12   10   11 1  
    13   10   24 1  
    14   11   12 1  
    15   12   13 1  
    16   13   14 1  
    17   14   15 1  
    18   15   16 1  
    19   16   17 1  
    20   17   18 1  
    21   18   19 ar 
    22   18   23 ar 
    23   19   20 ar 
    24   20   21 ar 
    25   21   22 ar 
    26   22   23 ar 
    27   24   26 1  
    28   25   27 1  
    29   26   27 2  
    30   28   29 1  
    31   29   30 1  
    32   29   32 1  
    33   30   31 2  
    34   30   34 am 
    35   32   33 1  
    36   34   35 1  
    37   35   36 1  
    38   35   43 1  
    39   36   37 1  
    40   36   38 1  
    41   38   39 1  
    42   39   40 ar 
    43   39   41 ar 
    44   39   42 ar 
    45   43   44 2  
    46   43   45 am 
    47    3   46 1  
    48    3   47 1  
    49    3   48 1  
    50    5   49 1  
    51    7   50 1  
    52    8   51 1  
    53    8   52 1  
    54   10   53 1  
    55   10   54 1  
    56   11   55 1  
    57   11   56 1  
    58   12   57 1  
    59   12   58 1  
    60   13   59 1  
    61   13   60 1  
    62   14   61 1  
    63   14   62 1  
    64   15   63 1  
    65   15   64 1  
    66   16   65 1  
    67   16   66 1  
    68   17   67 1  
    69   17   68 1  
    70   19   69 1  
    71   20   70 1  
    72   21   71 1  
    73   22   72 1  
    74   23   73 1  
    75   25   74 1  
    76   26   75 1  
    77   28   76 1  
    78   29   77 1  
    79   32   78 1  
    80   32   79 1  
    81   33   80 1  
    82   34   81 1  
    83   35   82 1  
    84   36   83 1  
    85   37   84 1  
    86   37   85 1  
    87   37   86 1  
    88   45   87 1  
    89   45   88 1  
@<TRIPOS>SUBSTRUCTURE
     1 ACE         1

