4rcp_ligand
  -I-interpret- 

 90 91  0  0  0  0  0  0  0  0999 V2000
   -7.5270   -5.8400   17.2710 C   0  0  0  0  0
   -7.4560   -5.4200   16.1180 O   0  0  0  0  0
   -8.0310   -7.2280   17.5660 C   0  0  0  0  0
   -5.6910   -3.3950   19.2810 C   0  0  0  0  0
   -7.1650   -5.0940   18.3210 N   0  0  0  0  0
   -5.7280   -4.0400   20.3240 O   0  0  0  0  0
   -6.5370   -3.7930   18.0840 C   0  0  0  0  0
   -7.5370   -2.6460   17.7690 C   0  0  0  0  0
   -8.6630   -2.6100   18.7400 C   0  0  0  0  0
  -10.4670   -2.9280   16.9660 C   0  0  0  0  0
  -11.9400   -3.2860   16.8890 C   0  0  0  0  0
  -12.4080   -3.5810   15.4770 C   0  0  0  0  0
  -12.4340   -2.3930   14.5380 C   0  0  0  0  0
  -12.9530   -2.7650   13.1550 C   0  0  0  0  0
  -13.1080   -1.6010   12.1720 C   0  0  0  0  0
  -11.8130   -0.8720   11.8310 C   0  0  0  0  0
  -11.9950    0.1880   10.7400 C   0  0  0  0  0
  -12.3990   -0.3860    9.4000 C   0  0  0  0  0
  -11.4410   -0.8510    8.5090 C   0  0  0  0  0
  -11.8080   -1.3980    7.2910 C   0  0  0  0  0
  -13.1380   -1.4880    6.9440 C   0  0  0  0  0
  -14.1000   -1.0060    7.8070 C   0  0  0  0  0
  -13.7330   -0.4650    9.0290 C   0  0  0  0  0
  -10.0030   -2.7520   18.3550 N   0  0  0  0  0
   -8.7050   -2.4470   20.0960 C   0  0  0  0  0
  -10.7470   -2.6870   19.4900 C   0  0  0  0  0
  -10.0110   -2.3810   20.5390 N   0  0  0  0  0
   -4.9210   -2.3260   19.1210 N   0  0  0  0  0
   -4.0500   -1.8510   20.1820 C   0  0  0  0  0
   -4.8720   -1.2170   21.2970 C   0  0  0  0  0
   -6.0990   -1.1440   21.2180 O   0  0  0  0  0
   -3.0440   -0.8370   19.6220 C   0  0  0  0  0
   -3.6990    0.2720   19.0220 O   0  0  0  0  0
   -4.1990   -0.7460   22.3550 N   0  0  0  0  0
   -4.8950   -0.4640   23.6010 C   0  0  0  0  0
   -3.9300   -0.1100   24.7500 C   0  0  0  0  0
   -4.6540    0.0600   26.0660 C   0  0  0  0  0
   -3.0320   -1.2330   24.8140 O   0  0  0  0  0
   -1.4630   -1.1260   24.4670 P   0  0  0  0  0
   -0.7940   -0.0050   25.1910 O   0  0  0  0  0
   -0.9540   -2.5090   24.8340 O   0  0  0  0  0
   -1.4560   -0.9180   22.9580 O   0  0  0  0  0
   -5.7690    0.7600   23.3740 C   0  0  0  0  0
   -5.3440    1.7620   22.8460 O   0  0  0  0  0
   -7.0280    0.6720   23.7910 N   0  0  0  0  0
   -9.0520   -7.3283   17.1978 H   0  0  0  0  0
   -7.3913   -7.9584   17.0705 H   0  0  0  0  0
   -8.0132   -7.3985   18.6424 H   0  0  0  0  0
   -7.3241   -5.4266   19.2720 H   0  0  0  0  0
   -5.9227   -3.9258   17.1935 H   0  0  0  0  0
   -7.9488   -2.8151   16.7741 H   0  0  0  0  0
   -7.0014   -1.6987   17.8314 H   0  0  0  0  0
  -10.3212   -1.9847   16.4397 H   0  0  0  0  0
   -9.8978   -3.7443   16.5212 H   0  0  0  0  0
  -12.5081   -2.4304   17.2541 H   0  0  0  0  0
  -12.0933   -4.1866   17.4835 H   0  0  0  0  0
  -13.4356   -3.9355   15.5580 H   0  0  0  0  0
  -11.6981   -4.2935   15.0569 H   0  0  0  0  0
  -11.4143   -2.0235   14.4298 H   0  0  0  0  0
  -13.1011   -1.6413   14.9600 H   0  0  0  0  0
  -13.9493   -3.1827   13.3001 H   0  0  0  0  0
  -12.2178   -3.4420   12.7200 H   0  0  0  0  0
  -13.7647   -0.8722   12.6470 H   0  0  0  0  0
  -13.4874   -2.0225   11.2411 H   0  0  0  0  0
  -11.1022   -1.6112   11.4617 H   0  0  0  0  0
  -11.4685   -0.3658   12.7328 H   0  0  0  0  0
  -11.0354    0.6874   10.6059 H   0  0  0  0  0
  -12.7930    0.8564   11.0634 H   0  0  0  0  0
  -10.3853   -0.7845    8.7720 H   0  0  0  0  0
  -11.0419   -1.7586    6.6045 H   0  0  0  0  0
  -13.4282   -1.9370    5.9941 H   0  0  0  0  0
  -15.1524   -1.0508    7.5269 H   0  0  0  0  0
  -14.5027   -0.0968    9.7073 H   0  0  0  0  0
   -7.8279   -2.3785   20.7396 H   0  0  0  0  0
  -11.8215   -2.8661   19.5280 H   0  0  0  0  0
   -4.9413   -1.8262   18.2321 H   0  0  0  0  0
   -3.5031   -2.6995   20.5932 H   0  0  0  0  0
   -2.4410   -1.3336   18.8618 H   0  0  0  0  0
   -2.4298   -0.4707   20.4446 H   0  0  0  0  0
   -3.0425    0.8850   18.6831 H   0  0  0  0  0
   -3.1942   -0.5844   22.2868 H   0  0  0  0  0
   -5.4572   -1.3560   23.8774 H   0  0  0  0  0
   -3.4221    0.8376   24.5707 H   0  0  0  0  0
   -5.3855    0.8630   25.9757 H   0  0  0  0  0
   -5.1626   -0.8694   26.3221 H   0  0  0  0  0
   -3.9341    0.3086   26.8458 H   0  0  0  0  0
   -1.4325   -3.1696   24.3278 H   0  0  0  0  0
   -1.8941   -1.6584   22.5320 H   0  0  0  0  0
   -7.6621    1.4616   23.6689 H   0  0  0  0  0
   -7.3601   -0.1851   24.2331 H   0  0  0  0  0
  1  2  2  0  0  0
  1  3  1  0  0  0
  5  1  1  0  0  0
  4  6  2  0  0  0
  7  4  1  0  0  0
  4 28  1  0  0  0
  7  5  1  0  0  0
  8  7  1  0  0  0
  9  8  1  0  0  0
 24  9  4  0  0  0
  9 25  4  0  0  0
 10 11  1  0  0  0
 10 24  1  0  0  0
 11 12  1  0  0  0
 12 13  1  0  0  0
 13 14  1  0  0  0
 14 15  1  0  0  0
 15 16  1  0  0  0
 16 17  1  0  0  0
 17 18  1  0  0  0
 18 19  4  0  0  0
 18 23  4  0  0  0
 19 20  4  0  0  0
 20 21  4  0  0  0
 21 22  4  0  0  0
 22 23  4  0  0  0
 24 26  4  0  0  0
 25 27  4  0  0  0
 26 27  4  0  0  0
 28 29  1  0  0  0
 29 30  1  0  0  0
 29 32  1  0  0  0
 30 31  2  0  0  0
 30 34  1  0  0  0
 32 33  1  0  0  0
 34 35  1  0  0  0
 35 36  1  0  0  0
 35 43  1  0  0  0
 36 37  1  0  0  0
 36 38  1  0  0  0
 38 39  1  0  0  0
 39 40  2  0  0  0
 39 41  1  0  0  0
 39 42  1  0  0  0
 43 44  2  0  0  0
 43 45  1  0  0  0
  3 46  1  0  0  0
  3 47  1  0  0  0
  3 48  1  0  0  0
  5 49  1  0  0  0
  7 50  1  0  0  0
  8 51  1  0  0  0
  8 52  1  0  0  0
 10 53  1  0  0  0
 10 54  1  0  0  0
 11 55  1  0  0  0
 11 56  1  0  0  0
 12 57  1  0  0  0
 12 58  1  0  0  0
 13 59  1  0  0  0
 13 60  1  0  0  0
 14 61  1  0  0  0
 14 62  1  0  0  0
 15 63  1  0  0  0
 15 64  1  0  0  0
 16 65  1  0  0  0
 16 66  1  0  0  0
 17 67  1  0  0  0
 17 68  1  0  0  0
 19 69  1  0  0  0
 20 70  1  0  0  0
 21 71  1  0  0  0
 22 72  1  0  0  0
 23 73  1  0  0  0
 25 74  1  0  0  0
 26 75  1  0  0  0
 28 76  1  0  0  0
 29 77  1  0  0  0
 32 78  1  0  0  0
 32 79  1  0  0  0
 33 80  1  0  0  0
 34 81  1  0  0  0
 35 82  1  0  0  0
 36 83  1  0  0  0
 37 84  1  0  0  0
 37 85  1  0  0  0
 37 86  1  0  0  0
 41 87  1  0  0  0
 42 88  1  0  0  0
 45 89  1  0  0  0
 45 90  1  0  0  0
M  END
$$$$
