6arn_ligand
  -I-interpret- 

 38 39  0  0  0  0  0  0  0  0999 V2000
   -1.2220  247.5530    1.5980 C   0  0  0  0  0
    4.3810  244.6430    2.9860 C   0  0  0  0  0
    4.7250  243.1810    2.9800 C   0  0  0  0  0
    1.2540  242.6110    5.6920 O   0  0  0  0  0
    1.3500  241.9940    4.4540 C   0  0  0  0  0
    2.3690  242.7470    3.5600 C   0  0  0  0  0
    2.1230  244.0980    3.6310 O   0  0  0  0  0
    2.8940  244.8160    2.7090 C   0  0  0  0  0
    2.6040  246.2050    2.8500 O   0  0  0  0  0
    1.2850  246.6130    2.3950 C   0  0  0  0  0
    0.4400  245.7900    1.6500 C   0  0  0  0  0
   -0.8160  246.2640    1.2500 C   0  0  0  0  0
   -0.3810  248.3690    2.3420 C   0  0  0  0  0
    0.8720  247.8950    2.7420 C   0  0  0  0  0
    1.7560  248.7010    3.4970 O   0  0  0  0  0
    1.1630  249.4940    4.4990 C   0  0  0  0  0
    5.1330  245.2890    1.9920 O   0  0  0  0  0
    6.1080  243.0330    3.3040 O   0  0  0  0  0
    3.8170  242.4760    3.9630 C   0  0  0  0  0
    4.0960  242.9650    5.2640 O   0  0  0  0  0
   -2.1999  247.9192    1.2854 H   0  0  0  0  0
    4.6117  245.0777    3.9586 H   0  0  0  0  0
    4.5702  242.7315    1.9992 H   0  0  0  0  0
    0.6212  242.1369    6.2364 H   0  0  0  0  0
    0.3728  242.0072    3.9713 H   0  0  0  0  0
    1.6864  240.9664    4.5919 H   0  0  0  0  0
    2.2410  242.3820    2.5409 H   0  0  0  0  0
    2.6575  244.4467    1.7111 H   0  0  0  0  0
    0.7559  244.7822    1.3803 H   0  0  0  0  0
   -1.4777  245.6246    0.6656 H   0  0  0  0  0
   -0.6965  249.3764    2.6136 H   0  0  0  0  0
    0.4444  250.1753    4.0435 H   0  0  0  0  0
    0.6520  248.8503    5.2150 H   0  0  0  0  0
    1.9354  250.0678    5.0111 H   0  0  0  0  0
    6.0684  245.1745    2.1749 H   0  0  0  0  0
    6.6395  243.4966    2.6527 H   0  0  0  0  0
    3.9816  241.3985    3.9587 H   0  0  0  0  0
    5.0114  242.7788    5.4851 H   0  0  0  0  0
 12  1  4  0  0  0
  1 13  4  0  0  0
  2  3  1  0  0  0
  8  2  1  0  0  0
  2 17  1  0  0  0
  3 18  1  0  0  0
  3 19  1  0  0  0
  5  4  1  0  0  0
  6  5  1  0  0  0
  7  6  1  0  0  0
  6 19  1  0  0  0
  8  7  1  0  0  0
  9  8  1  0  0  0
 10  9  1  0  0  0
 11 10  4  0  0  0
 10 14  4  0  0  0
 11 12  4  0  0  0
 13 14  4  0  0  0
 14 15  1  0  0  0
 15 16  1  0  0  0
 19 20  1  0  0  0
  1 21  1  0  0  0
  2 22  1  0  0  0
  3 23  1  0  0  0
  4 24  1  0  0  0
  5 25  1  0  0  0
  5 26  1  0  0  0
  6 27  1  0  0  0
  8 28  1  0  0  0
 11 29  1  0  0  0
 12 30  1  0  0  0
 13 31  1  0  0  0
 16 32  1  0  0  0
 16 33  1  0  0  0
 16 34  1  0  0  0
 17 35  1  0  0  0
 18 36  1  0  0  0
 19 37  1  0  0  0
 20 38  1  0  0  0
M  END
$$$$
