3avn_ligand
  -I-interpret- 

127128  0  0  0  0  0  0  0  0999 V2000
   -9.7400   53.8410   15.6610 N   0  0  0  0  0
  -10.2700   53.8740   17.0220 C   0  0  0  0  0
   -9.6540   52.7630   17.8760 C   0  0  0  0  0
  -10.2700   52.2590   18.8190 O   0  0  0  0  0
  -11.8090   53.8150   17.0090 C   0  0  0  0  0
  -12.2890   52.7960   16.1440 O   0  0  0  0  0
   -8.4160   52.4110   17.5350 N   0  0  0  0  0
   -7.6320   51.3320   18.1810 C   0  0  0  0  0
   -8.2720   49.9440   18.3330 C   0  0  0  0  0
   -8.2210   49.3640   19.4150 O   0  0  0  0  0
   -7.0090   51.7670   19.5260 C   0  0  0  0  0
   -5.6760   51.1200   19.7960 C   0  0  0  0  0
   -4.5410   51.8430   20.1090 N   0  0  0  0  0
   -5.2900   49.8200   19.7600 C   0  0  0  0  0
   -3.5190   51.0190   20.2680 C   0  0  0  0  0
   -3.9490   49.7840   20.0670 N   0  0  0  0  0
   -8.8270   49.3970   17.2530 N   0  0  0  0  0
   -9.3630   48.0170   17.2680 C   0  0  0  0  0
   -8.8410   47.2850   16.0550 C   0  0  0  0  0
   -8.5770   47.9480   15.0610 O   0  0  0  0  0
  -10.8900   48.0860   17.1660 C   0  0  0  0  0
  -11.5910   48.9150   18.2580 C   0  0  0  0  0
  -11.4700   48.3130   19.6580 C   0  0  0  0  0
  -12.2610   49.2150   20.6130 C   0  0  0  0  0
  -12.0680   48.8260   22.0070 N   0  3  0  0  0
   -8.7490   45.9480   16.0470 N   0  0  0  0  0
   -8.3220   45.2490   14.8030 C   0  0  0  0  0
   -9.1820   45.6680   13.5860 C   0  0  0  0  0
   -8.6690   45.7950   12.4690 O   0  0  0  0  0
   -8.2810   43.6570   14.8980 C   0  0  0  0  0
   -6.9960   43.0980   14.2970 C   0  0  0  0  0
   -9.3150   42.9610   14.0040 C   0  0  0  0  0
   -5.8840   42.9410   15.2960 C   0  0  0  0  0
  -10.4790   45.8950   13.8180 N   0  0  0  0  0
  -11.4220   46.0630   12.7010 C   0  0  0  0  0
  -11.6630   47.5220   12.4700 C   0  0  0  0  0
  -12.3890   47.8400   11.5410 O   0  0  0  0  0
  -12.7920   45.3270   12.8770 C   0  0  0  0  0
  -13.4950   45.6920   14.1920 C   0  0  0  0  0
  -14.6520   45.2940   14.3720 O   0  0  0  0  0
  -12.8840   46.3400   15.0770 O   0  0  0  0  0
  -11.0730   48.3790   13.3170 N   0  0  0  0  0
  -11.0990   49.8360   13.1260 C   0  0  0  0  0
   -9.8260   50.3960   13.7910 C   0  0  0  0  0
   -9.7980   50.6800   14.9980 O   0  0  0  0  0
  -12.3770   50.4640   13.7050 C   0  0  0  0  0
  -12.7120   51.8750   13.1010 C   0  0  0  0  0
  -11.8630   52.5630   12.5490 O   0  0  0  0  0
  -13.9660   52.2820   13.2370 N   0  0  0  0  0
   -8.7630   50.5000   12.9890 N   0  0  0  0  0
   -7.4200   50.7580   13.5170 C   0  0  0  0  0
   -7.3710   52.1930   14.0340 C   0  0  0  0  0
   -6.6450   52.4910   15.0030 O   0  0  0  0  0
   -6.3640   50.4920   12.4290 C   0  0  0  0  0
   -5.8800   49.0320   12.1870 C   0  0  0  0  0
   -4.6650   48.9710   11.2210 C   0  0  0  0  0
   -5.5150   48.2930   13.5040 C   0  0  0  0  0
   -8.1920   53.0600   13.4080 N   0  0  0  0  0
   -8.3410   54.4830   13.7870 C   0  0  0  0  0
   -8.7810   54.6670   15.2380 C   0  0  0  0  0
   -8.2620   55.5370   15.9460 O   0  0  0  0  0
   -9.3390   55.1980   12.8510 C   0  0  0  0  0
   -8.6970   55.6660   11.5350 C   0  0  0  0  0
   -7.4420   55.6960   11.4250 O   0  0  0  0  0
   -9.4620   56.0060   10.6020 O   0  0  0  0  0
  -10.1192   53.1573   15.0060 H   0  0  0  0  0
   -9.9883   54.8211   17.4821 H   0  0  0  0  0
  -12.1862   54.7735   16.6525 H   0  0  0  0  0
  -12.1526   53.5968   18.0201 H   0  0  0  0  0
  -13.2488   52.7889   16.1614 H   0  0  0  0  0
   -7.9738   52.9227   16.7714 H   0  0  0  0  0
   -6.8625   51.1816   17.4238 H   0  0  0  0  0
   -7.6912   51.4643   20.3204 H   0  0  0  0  0
   -6.8519   52.8449   19.4852 H   0  0  0  0  0
   -5.9239   48.9635   19.5306 H   0  0  0  0  0
   -2.4987   51.3074   20.5209 H   0  0  0  0  0
   -8.8843   49.9429   16.3933 H   0  0  0  0  0
   -9.0627   47.5054   18.1825 H   0  0  0  0  0
  -11.2544   47.0640   17.2705 H   0  0  0  0  0
  -11.1159   48.5702   16.2160 H   0  0  0  0  0
  -12.6516   48.9518   18.0093 H   0  0  0  0  0
  -11.1129   49.8943   18.2815 H   0  0  0  0  0
  -10.4246   48.2577   19.9617 H   0  0  0  0  0
  -11.8668   47.2979   19.6737 H   0  0  0  0  0
  -13.3205   49.1227   20.3742 H   0  0  0  0  0
  -11.9079   50.2388   20.4900 H   0  0  0  0  0
  -12.6080   49.4468   22.6099 H   0  0  0  0  0
  -12.3833   47.8647   22.1373 H   0  0  0  0  0
  -11.0784   48.8957   22.2443 H   0  0  0  0  0
   -8.9698   45.4129   16.8868 H   0  0  0  0  0
   -7.2909   45.5747   14.6659 H   0  0  0  0  0
   -8.4278   43.4747   15.9626 H   0  0  0  0  0
   -6.6565   43.8025   13.5377 H   0  0  0  0  0
   -7.2233   42.1078   13.9022 H   0  0  0  0  0
  -10.3165   43.2790   14.2936 H   0  0  0  0  0
   -9.1336   43.2301   12.9634 H   0  0  0  0  0
   -9.2271   41.8810   14.1219 H   0  0  0  0  0
   -5.6462   43.9127   15.7288 H   0  0  0  0  0
   -6.1996   42.2580   16.0847 H   0  0  0  0  0
   -5.0026   42.5388   14.7965 H   0  0  0  0  0
  -10.8180   45.9523   14.7783 H   0  0  0  0  0
  -10.9469   45.5940   11.8394 H   0  0  0  0  0
  -12.5972   44.2546   12.8878 H   0  0  0  0  0
  -13.4418   45.6277   12.0551 H   0  0  0  0  0
  -12.0053   46.5619   14.7603 H   0  0  0  0  0
  -10.5847   48.0026   14.1296 H   0  0  0  0  0
  -11.1127   50.0844   12.0648 H   0  0  0  0  0
  -12.2212   50.5949   14.7758 H   0  0  0  0  0
  -13.2066   49.7994   13.4638 H   0  0  0  0  0
  -14.2484   53.1934   12.8763 H   0  0  0  0  0
  -14.6487   51.6838   13.7023 H   0  0  0  0  0
   -8.8891   50.3971   11.9821 H   0  0  0  0  0
   -7.1949   50.0856   14.3448 H   0  0  0  0  0
   -5.4765   51.0303   12.7617 H   0  0  0  0  0
   -6.8426   50.7874   11.4953 H   0  0  0  0  0
   -6.7286   48.5240   11.7289 H   0  0  0  0  0
   -4.9454   49.3999   10.2590 H   0  0  0  0  0
   -3.8363   49.5378   11.6453 H   0  0  0  0  0
   -4.3637   47.9326   11.0833 H   0  0  0  0  0
   -4.7135   48.8306   14.0107 H   0  0  0  0  0
   -6.3915   48.2512   14.1506 H   0  0  0  0  0
   -5.1848   47.2806   13.2715 H   0  0  0  0  0
   -8.7451   52.7136   12.6241 H   0  0  0  0  0
   -7.3527   54.9308   13.6831 H   0  0  0  0  0
   -9.7098   56.0806   13.3723 H   0  0  0  0  0
  -10.1281   54.4884   12.6020 H   0  0  0  0  0
   -7.0428   55.3989   12.2459 H   0  0  0  0  0
  1  2  1  0  0  0
  1 60  1  0  0  0
  2  3  1  0  0  0
  2  5  1  0  0  0
  3  4  2  0  0  0
  3  7  1  0  0  0
  5  6  1  0  0  0
  7  8  1  0  0  0
  8  9  1  0  0  0
  8 11  1  0  0  0
  9 10  2  0  0  0
  9 17  1  0  0  0
 11 12  1  0  0  0
 12 13  4  0  0  0
 12 14  4  0  0  0
 13 15  4  0  0  0
 14 16  4  0  0  0
 15 16  4  0  0  0
 17 18  1  0  0  0
 18 19  1  0  0  0
 18 21  1  0  0  0
 19 20  2  0  0  0
 19 26  1  0  0  0
 21 22  1  0  0  0
 22 23  1  0  0  0
 23 24  1  0  0  0
 24 25  1  0  0  0
 26 27  1  0  0  0
 27 28  1  0  0  0
 27 30  1  0  0  0
 28 29  2  0  0  0
 28 34  1  0  0  0
 30 31  1  0  0  0
 30 32  1  0  0  0
 31 33  1  0  0  0
 34 35  1  0  0  0
 35 36  1  0  0  0
 35 38  1  0  0  0
 36 37  2  0  0  0
 36 42  1  0  0  0
 38 39  1  0  0  0
 39 40  2  0  0  0
 39 41  1  0  0  0
 42 43  1  0  0  0
 43 44  1  0  0  0
 43 46  1  0  0  0
 44 45  2  0  0  0
 44 50  1  0  0  0
 46 47  1  0  0  0
 47 48  2  0  0  0
 47 49  1  0  0  0
 50 51  1  0  0  0
 51 52  1  0  0  0
 51 54  1  0  0  0
 52 53  2  0  0  0
 52 58  1  0  0  0
 54 55  1  0  0  0
 55 56  1  0  0  0
 55 57  1  0  0  0
 58 59  1  0  0  0
 59 60  1  0  0  0
 59 62  1  0  0  0
 60 61  2  0  0  0
 62 63  1  0  0  0
 63 64  1  0  0  0
 63 65  2  0  0  0
  1 66  1  0  0  0
  2 67  1  0  0  0
  5 68  1  0  0  0
  5 69  1  0  0  0
  6 70  1  0  0  0
  7 71  1  0  0  0
  8 72  1  0  0  0
 11 73  1  0  0  0
 11 74  1  0  0  0
 14 75  1  0  0  0
 15 76  1  0  0  0
 17 77  1  0  0  0
 18 78  1  0  0  0
 21 79  1  0  0  0
 21 80  1  0  0  0
 22 81  1  0  0  0
 22 82  1  0  0  0
 23 83  1  0  0  0
 23 84  1  0  0  0
 24 85  1  0  0  0
 24 86  1  0  0  0
 25 87  1  0  0  0
 25 88  1  0  0  0
 25 89  1  0  0  0
 26 90  1  0  0  0
 27 91  1  0  0  0
 30 92  1  0  0  0
 31 93  1  0  0  0
 31 94  1  0  0  0
 32 95  1  0  0  0
 32 96  1  0  0  0
 32 97  1  0  0  0
 33 98  1  0  0  0
 33 99  1  0  0  0
 33100  1  0  0  0
 34101  1  0  0  0
 35102  1  0  0  0
 38103  1  0  0  0
 38104  1  0  0  0
 41105  1  0  0  0
 42106  1  0  0  0
 43107  1  0  0  0
 46108  1  0  0  0
 46109  1  0  0  0
 49110  1  0  0  0
 49111  1  0  0  0
 50112  1  0  0  0
 51113  1  0  0  0
 54114  1  0  0  0
 54115  1  0  0  0
 55116  1  0  0  0
 56117  1  0  0  0
 56118  1  0  0  0
 56119  1  0  0  0
 57120  1  0  0  0
 57121  1  0  0  0
 57122  1  0  0  0
 58123  1  0  0  0
 59124  1  0  0  0
 62125  1  0  0  0
 62126  1  0  0  0
 64127  1  0  0  0
M  END
$$$$
