6b0v_ligand
  -I-interpret- 

 52 54  0  0  0  0  0  0  0  0999 V2000
   -7.3750    6.1870    6.4940 O   0  0  0  0  0
   -9.0070   13.4560   17.2320 C   0  0  0  0  0
   -6.9820    6.6450    8.6630 N   0  0  0  0  0
   -7.0720   10.8270   15.3710 C   0  0  0  0  0
   -7.1820   11.1290   13.8790 C   0  0  0  0  0
   -7.9400   10.3880   11.6700 C   0  0  0  0  0
   -7.4620    9.2070   10.8210 C   0  0  0  0  0
   -6.3880    6.4340    9.9820 C   0  0  0  0  0
   -5.1270    5.9100    7.1990 C   0  0  0  0  0
   -5.0800    4.4220    6.8450 C   0  0  0  0  0
   -8.3490    6.8490    9.1600 C   0  0  0  0  0
   -7.6670    7.6730   12.7580 C   0  0  0  0  0
   -9.7130   11.7120   15.6470 C   0  0  0  0  0
  -11.0180   12.0550   15.8760 C   0  0  0  0  0
  -12.2560   11.0740   15.0360 Cl  0  0  0  0  0
  -11.3070   13.1350   16.7850 C   0  0  0  0  0
  -13.0080   13.5000   16.9840 Cl  0  0  0  0  0
   -8.6770   12.3710   16.3060 C   0  0  0  0  0
   -8.0350   14.0910   17.9330 O   0  0  0  0  0
  -10.3340   13.7820   17.4890 C   0  0  0  0  0
   -7.3780   12.0470   16.1130 N   0  0  0  0  0
   -6.8510   12.2080   13.3980 O   0  0  0  0  0
   -7.6340   10.1380   13.1060 N   0  0  0  0  0
   -8.0460    8.8410   13.6600 C   0  0  0  0  0
   -7.9220    7.9050   11.3450 N   0  3  0  0  0
   -7.8300    6.6650   10.5440 C   0  0  0  0  0
   -6.5680    6.2820    7.4270 C   0  0  0  0  0
   -6.0635   10.4889   15.6094 H   0  0  0  0  0
   -7.7735   10.0388   15.6443 H   0  0  0  0  0
   -9.0167   10.5059   11.5475 H   0  0  0  0  0
   -7.4276   11.2939   11.3460 H   0  0  0  0  0
   -6.3721    9.2061   10.8325 H   0  0  0  0  0
   -7.8721    9.3280    9.8184 H   0  0  0  0  0
   -5.5266    7.0026   10.3324 H   0  0  0  0  0
   -5.8021    5.5472   10.2236 H   0  0  0  0  0
   -4.7054    6.5056    6.3893 H   0  0  0  0  0
   -4.5388    6.1049    8.0958 H   0  0  0  0  0
   -5.4962    3.8408    7.6678 H   0  0  0  0  0
   -5.6646    4.2460    5.9420 H   0  0  0  0  0
   -4.0459    4.1230    6.6739 H   0  0  0  0  0
   -9.1761    6.2447    8.7874 H   0  0  0  0  0
   -8.9162    7.7394    8.8887 H   0  0  0  0  0
   -8.2774    6.8219   13.0598 H   0  0  0  0  0
   -6.5944    7.5147   12.8698 H   0  0  0  0  0
   -9.4814   10.9143   14.9412 H   0  0  0  0  0
   -8.4313   14.7687   18.4855 H   0  0  0  0  0
  -10.5903   14.5353   18.2340 H   0  0  0  0  0
   -6.6315   12.6395   16.4763 H   0  0  0  0  0
   -7.5375    8.7068   14.6148 H   0  0  0  0  0
   -9.1312    8.8486   13.7615 H   0  0  0  0  0
   -8.9110    8.1146   11.2096 H   0  0  0  0  0
   -8.2875    5.9359   11.2127 H   0  0  0  0  0
 27  1  2  0  0  0
 18  2  4  0  0  0
  2 19  1  0  0  0
  2 20  4  0  0  0
  8  3  1  0  0  0
 11  3  1  0  0  0
  3 27  1  0  0  0
  5  4  1  0  0  0
  4 21  1  0  0  0
  5 22  2  0  0  0
 23  5  1  0  0  0
  7  6  1  0  0  0
  6 23  1  0  0  0
 25  7  1  0  0  0
 26  8  1  0  0  0
  9 10  1  0  0  0
 27  9  1  0  0  0
 26 11  1  0  0  0
 12 24  1  0  0  0
 25 12  1  0  0  0
 13 14  4  0  0  0
 18 13  4  0  0  0
 14 15  1  0  0  0
 14 16  4  0  0  0
 16 17  1  0  0  0
 20 16  4  0  0  0
 21 18  1  0  0  0
 24 23  1  0  0  0
 25 26  1  0  0  0
  4 28  1  0  0  0
  4 29  1  0  0  0
  6 30  1  0  0  0
  6 31  1  0  0  0
  7 32  1  0  0  0
  7 33  1  0  0  0
  8 34  1  0  0  0
  8 35  1  0  0  0
  9 36  1  0  0  0
  9 37  1  0  0  0
 10 38  1  0  0  0
 10 39  1  0  0  0
 10 40  1  0  0  0
 11 41  1  0  0  0
 11 42  1  0  0  0
 12 43  1  0  0  0
 12 44  1  0  0  0
 13 45  1  0  0  0
 19 46  1  0  0  0
 20 47  1  0  0  0
 21 48  1  0  0  0
 24 49  1  0  0  0
 24 50  1  0  0  0
 25 51  1  0  0  0
 26 52  1  0  0  0
M  END
$$$$
