### 
### Created by X-TOOL on Mon Sep 10 21:13:09 2018
### 

@<TRIPOS>MOLECULE
4e3k_ligand
   28    29     1     0     0
SMALL
GAST_HUCK


@<TRIPOS>ATOM
      1 B03        26.5540    4.7160   16.2300 B         1 0NA         1.0000
      2 O04        26.7600    5.5300   17.4320 O.3       1 0NA        -0.8710
      3 O05        25.5060    3.7350   16.5030 O.3       1 0NA        -0.8710
      4 C06        26.1530    5.6210   15.0050 C.3       1 0NA        -0.2499
      5 N07        24.9120    6.3570   15.1640 N.am      1 0NA        -0.3982
      6 S08        24.3360    7.2720   13.9560 S.o2      1 0NA         0.0477
      7 O09        23.4190    8.2390   14.5170 O.2       1 0NA        -0.1516
      8 O10        25.3610    7.9820   13.2630 O.2       1 0NA        -0.1516
      9 C11        23.4490    6.3050   12.8050 C.ar      1 0NA         0.1323
     10 C12        23.9530    5.9910   11.5520 C.ar      1 0NA        -0.0156
     11 C13        23.1530    5.2290   10.7060 C.ar      1 0NA        -0.0232
     12 C14        21.8940    4.8210   11.1370 C.ar      1 0NA         0.0799
     13 C15        21.0500    4.0940   10.3190 C.2       1 0NA         0.1677
     14 N16        21.1330    3.9260    8.9840 N.2       1 0NA        -0.1717
     15 N17        20.0620    3.1690    8.6080 N.2       1 0NA        -0.0499
     16 N18        19.3110    2.9080    9.7210 N.pl3     1 0NA        -0.1006
     17 N19        19.9200    3.5240   10.7610 N.2       1 0NA        -0.1363
     18 N20        21.4280    5.1700   12.3510 N.ar      1 0NA        -0.2883
     19 C21        22.1880    5.8910   13.1740 C.ar      1 0NA         0.0363
     20 H          25.9421    5.9796   17.6567 H         1 0NA        -0.1290
     21 H          25.3626    3.1958   15.7218 H         1 0NA        -0.1290
     22 H          26.0158    4.9543   14.1537 H         1 0NA        -0.1900
     23 H          26.9445    6.3614   14.8891 H         1 0NA        -0.1900
     24 H          24.3981    6.2980   16.0431 H         1 0NA         0.1257
     25 H          24.9413    6.3292   11.2406 H         1 0NA         0.0753
     26 H          23.5096    4.9537    9.7134 H         1 0NA         0.0715
     27 H          18.4551    2.3546    9.7598 H         1 0NA         0.2961
     28 H          21.8046    6.1586   14.1586 H         1 0NA         0.0845
@<TRIPOS>BOND
     1    1    2 1  
     2    1    3 1  
     3    1    4 1  
     4    4    5 1  
     5    5    6 am 
     6    6    7 2  
     7    6    8 2  
     8    6    9 1  
     9    9   10 ar 
    10    9   19 ar 
    11   10   11 ar 
    12   11   12 ar 
    13   12   13 1  
    14   12   18 ar 
    15   13   14 1  
    16   13   17 2  
    17   14   15 2  
    18   15   16 1  
    19   16   17 1  
    20   18   19 ar 
    21    2   20 1  
    22    3   21 1  
    23    4   22 1  
    24    4   23 1  
    25    5   24 1  
    26   10   25 1  
    27   11   26 1  
    28   16   27 1  
    29   19   28 1  
@<TRIPOS>SUBSTRUCTURE
     1 0NA         1

