4e3k_ligand
  -I-interpret- 

 27 28  0  0  0  0  0  0  0  0999 V2000
   26.5540    4.7160   16.2300 B   0  0  0  0  0
   26.7600    5.5300   17.4320 O   0  0  0  0  0
   25.5060    3.7350   16.5030 O   0  0  0  0  0
   26.1530    5.6210   15.0050 C   0  0  0  0  0
   24.9120    6.3570   15.1640 N   0  0  0  0  0
   24.3360    7.2720   13.9560 S   0  0  0  0  0
   23.4190    8.2390   14.5170 O   0  0  0  0  0
   25.3610    7.9820   13.2630 O   0  0  0  0  0
   23.4490    6.3050   12.8050 C   0  0  0  0  0
   23.9530    5.9910   11.5520 C   0  0  0  0  0
   23.1530    5.2290   10.7060 C   0  0  0  0  0
   21.8940    4.8210   11.1370 C   0  0  0  0  0
   21.0500    4.0940   10.3190 C   0  0  0  0  0
   21.1330    3.9260    8.9840 N   0  0  0  0  0
   20.0620    3.1690    8.6080 N   0  0  0  0  0
   19.3110    2.9080    9.7210 N   0  0  0  0  0
   19.9200    3.5240   10.7610 N   0  0  0  0  0
   21.4280    5.1700   12.3510 N   0  0  0  0  0
   22.1880    5.8910   13.1740 C   0  0  0  0  0
   27.0031    4.9601   18.1653 H   0  0  0  0  0
   25.7647    3.1918   17.2511 H   0  0  0  0  0
   26.0158    4.9543   14.1537 H   0  0  0  0  0
   26.9445    6.3614   14.8891 H   0  0  0  0  0
   24.3981    6.2980   16.0431 H   0  0  0  0  0
   24.9413    6.3292   11.2406 H   0  0  0  0  0
   23.5096    4.9537    9.7134 H   0  0  0  0  0
   21.8046    6.1586   14.1586 H   0  0  0  0  0
  1  2  1  0  0  0
  1  3  1  0  0  0
  1  4  1  0  0  0
  4  5  1  0  0  0
  5  6  1  0  0  0
  6  7  2  0  0  0
  6  8  2  0  0  0
  6  9  1  0  0  0
  9 10  4  0  0  0
  9 19  4  0  0  0
 10 11  4  0  0  0
 11 12  4  0  0  0
 12 13  1  0  0  0
 12 18  4  0  0  0
 13 14  4  0  0  0
 13 17  4  0  0  0
 14 15  4  0  0  0
 15 16  4  0  0  0
 16 17  4  0  0  0
 18 19  4  0  0  0
  2 20  1  0  0  0
  3 21  1  0  0  0
  4 22  1  0  0  0
  4 23  1  0  0  0
  5 24  1  0  0  0
 10 25  1  0  0  0
 11 26  1  0  0  0
 19 27  1  0  0  0
M  END
$$$$
