2hhn_ligand
  -I-interpret- 

 70 72  0  0  0  0  0  0  0  0999 V2000
   34.1220   27.9400   19.3370 O   0  0  0  0  0
   33.9880   28.4750   18.0000 S   0  0  0  0  0
   34.0520   29.9080   17.8990 O   0  0  0  0  0
   32.6020   27.8750   17.2930 C   0  0  0  0  0
   31.3200   28.3370   17.9180 C   0  0  0  0  0
   30.7470   29.5180   17.4540 C   0  0  0  0  0
   29.5420   29.9710   17.9850 C   0  0  0  0  0
   28.9300   29.2080   18.9620 C   0  0  0  0  0
   29.5020   28.0230   19.4190 C   0  0  0  0  0
   30.7110   27.5610   18.8970 C   0  0  0  0  0
   35.2280   27.7880   17.1020 C   0  0  0  0  0
   35.5670   28.5690   15.8250 C   0  0  0  0  0
   34.5390   28.3870   14.7760 N   0  0  0  0  0
   34.6030   29.1490   13.6610 C   0  0  0  0  0
   35.5030   29.9920   13.5350 O   0  0  0  0  0
   33.7260   28.9910   12.6560 N   0  0  0  0  0
   33.8170   29.8720   11.4820 C   0  0  0  0  0
   33.5300   29.0900   10.2090 C   0  0  0  0  0
   32.2310   28.5240   10.3400 O   0  0  0  0  0
   32.2790   27.4860   11.3390 C   0  0  0  0  0
   32.5760   28.0830   12.7180 C   0  0  0  0  0
   36.8460   28.0560   15.2090 C   0  0  0  0  0
   36.8530   26.9900   14.6090 O   0  0  0  0  0
   37.9390   28.8090   15.3160 N   0  0  0  0  0
   39.1680   28.3760   14.6600 C   0  0  0  0  0
   39.2250   29.1560   13.3420 C   0  0  0  0  0
   40.3760   28.6320   15.5440 C   0  0  0  0  0
   41.2080   29.5600   14.7840 N   0  0  0  0  0
   42.5290   29.6450   15.0440 C   0  0  0  0  0
   42.9240   29.4380   16.3410 C   0  0  0  0  0
   44.2510   29.5220   16.6440 C   0  0  0  0  0
   43.4830   29.9300   14.0630 C   0  0  0  0  0
   44.8400   30.0120   14.4000 C   0  0  0  0  0
   45.2510   29.7860   15.7140 C   0  0  0  0  0
   46.5770   29.8530   16.1350 O   0  0  0  0  0
   47.6720   28.9570   15.8070 C   0  0  0  0  0
   47.5130   27.7430   16.3110 F   0  0  0  0  0
   47.7860   28.8460   14.4970 F   0  0  0  0  0
   48.8070   29.4480   16.2940 F   0  0  0  0  0
   32.6347   26.7915   17.4069 H   0  0  0  0  0
   32.5954   28.2305   16.2626 H   0  0  0  0  0
   31.2441   30.0909   16.6712 H   0  0  0  0  0
   29.0933   30.9023   17.6395 H   0  0  0  0  0
   27.9811   29.5403   19.3830 H   0  0  0  0  0
   28.9979   27.4481   20.1958 H   0  0  0  0  0
   31.1593   26.6296   19.2430 H   0  0  0  0  0
   34.9004   26.7933   16.7996 H   0  0  0  0  0
   36.1203   27.7818   17.7280 H   0  0  0  0  0
   35.6402   29.6126   16.1309 H   0  0  0  0  0
   33.7952   27.6987   14.8922 H   0  0  0  0  0
   34.8240   30.2854   11.4254 H   0  0  0  0  0
   33.0831   30.6719   11.5805 H   0  0  0  0  0
   34.2748   28.3071   10.0658 H   0  0  0  0  0
   33.5746   29.7461    9.3397 H   0  0  0  0  0
   33.0693   26.7813   11.0802 H   0  0  0  0  0
   31.3136   26.9809   11.3719 H   0  0  0  0  0
   31.7035   28.6435   13.0536 H   0  0  0  0  0
   32.8052   27.2725   13.4098 H   0  0  0  0  0
   37.9172   29.6778   15.8500 H   0  0  0  0  0
   39.1788   27.3026   14.4708 H   0  0  0  0  0
   38.3471   28.9172   12.7417 H   0  0  0  0  0
   39.2417   30.2250   13.5544 H   0  0  0  0  0
   40.1266   28.8787   12.7959 H   0  0  0  0  0
   40.9084   27.7103   15.7786 H   0  0  0  0  0
   40.0894   29.0446   16.5113 H   0  0  0  0  0
   40.7914   30.1429   14.0580 H   0  0  0  0  0
   42.1910   29.2106   17.1151 H   0  0  0  0  0
   44.5472   29.3726   17.6823 H   0  0  0  0  0
   43.1695   30.0891   13.0312 H   0  0  0  0  0
   45.5768   30.2530   13.6338 H   0  0  0  0  0
  1  2  2  0  0  0
  2  3  2  0  0  0
  2  4  1  0  0  0
  2 11  1  0  0  0
  4  5  1  0  0  0
  5  6  4  0  0  0
  5 10  4  0  0  0
  6  7  4  0  0  0
  7  8  4  0  0  0
  8  9  4  0  0  0
  9 10  4  0  0  0
 11 12  1  0  0  0
 12 13  1  0  0  0
 12 22  1  0  0  0
 13 14  1  0  0  0
 14 15  2  0  0  0
 14 16  1  0  0  0
 16 17  1  0  0  0
 16 21  1  0  0  0
 17 18  1  0  0  0
 18 19  1  0  0  0
 19 20  1  0  0  0
 20 21  1  0  0  0
 22 23  2  0  0  0
 22 24  1  0  0  0
 24 25  1  0  0  0
 25 26  1  0  0  0
 25 27  1  0  0  0
 27 28  1  0  0  0
 28 29  1  0  0  0
 29 30  4  0  0  0
 29 32  4  0  0  0
 30 31  4  0  0  0
 31 34  4  0  0  0
 32 33  4  0  0  0
 33 34  4  0  0  0
 34 35  1  0  0  0
 35 36  1  0  0  0
 36 37  1  0  0  0
 36 38  1  0  0  0
 36 39  1  0  0  0
  4 40  1  0  0  0
  4 41  1  0  0  0
  6 42  1  0  0  0
  7 43  1  0  0  0
  8 44  1  0  0  0
  9 45  1  0  0  0
 10 46  1  0  0  0
 11 47  1  0  0  0
 11 48  1  0  0  0
 12 49  1  0  0  0
 13 50  1  0  0  0
 17 51  1  0  0  0
 17 52  1  0  0  0
 18 53  1  0  0  0
 18 54  1  0  0  0
 20 55  1  0  0  0
 20 56  1  0  0  0
 21 57  1  0  0  0
 21 58  1  0  0  0
 24 59  1  0  0  0
 25 60  1  0  0  0
 26 61  1  0  0  0
 26 62  1  0  0  0
 26 63  1  0  0  0
 27 64  1  0  0  0
 27 65  1  0  0  0
 28 66  1  0  0  0
 30 67  1  0  0  0
 31 68  1  0  0  0
 32 69  1  0  0  0
 33 70  1  0  0  0
M  END
$$$$
