3k26_ligand
  -I-interpret- 

 52 51  0  0  0  0  0  0  0  0999 V2000
  -18.7160   29.7240  -28.1530 N   0  3  0  0  0
  -17.3920   28.9570  -27.8320 C   0  0  0  0  0
  -17.4560   27.5070  -27.3020 C   0  0  0  0  0
  -16.8220   27.2250  -25.9100 C   0  0  0  0  0
  -16.8080   25.6970  -25.6010 C   0  0  0  0  0
  -16.1510   25.2840  -24.2570 C   0  0  0  0  0
  -16.6480   24.0340  -23.5600 N   0  3  0  0  0
  -16.3870   28.9830  -28.9830 C   0  0  0  0  0
  -15.1880   29.0620  -28.7090 O   0  0  0  0  0
  -16.9620   24.2060  -22.1250 C   0  0  0  0  0
  -15.4650   23.1930  -23.5770 C   0  0  0  0  0
  -17.7250   23.3590  -24.3340 C   0  0  0  0  0
  -16.8800   28.9360  -30.2500 N   0  0  0  0  0
  -16.0680   29.1730  -31.5000 C   0  0  0  0  0
  -16.5450   30.3280  -32.4060 C   0  0  0  0  0
  -17.4690   31.0660  -32.0520 O   0  0  0  0  0
  -15.9980   27.9230  -32.3740 C   0  0  0  0  0
  -16.0810   26.6320  -31.6020 C   0  0  0  0  0
  -15.8040   25.4180  -32.4740 C   0  0  0  0  0
  -16.4340   25.2350  -33.5410 O   0  0  0  0  0
  -14.8760   24.5700  -32.0170 N   0  0  0  0  0
  -16.0100   30.5330  -33.5000 O   0  0  0  0  0
  -19.3421   29.6701  -27.3496 H   0  0  0  0  0
  -18.5016   30.7008  -28.3536 H   0  0  0  0  0
  -19.1651   29.2997  -28.9646 H   0  0  0  0  0
  -17.0721   29.5545  -26.9784 H   0  0  0  0  0
  -16.8849   26.9088  -28.0120 H   0  0  0  0  0
  -18.5166   27.2799  -27.1936 H   0  0  0  0  0
  -17.4144   27.7304  -25.1473 H   0  0  0  0  0
  -15.7950   27.5903  -25.9132 H   0  0  0  0  0
  -16.2167   25.2297  -26.3884 H   0  0  0  0  0
  -17.8510   25.3860  -25.5415 H   0  0  0  0  0
  -16.3738   26.1000  -23.5695 H   0  0  0  0  0
  -15.1092   25.0773  -24.5020 H   0  0  0  0  0
  -17.1503   23.2307  -21.6761 H   0  0  0  0  0
  -16.1184   24.6811  -21.6242 H   0  0  0  0  0
  -17.8479   24.8325  -22.0208 H   0  0  0  0  0
  -14.6578   23.6927  -23.0415 H   0  0  0  0  0
  -15.6896   22.2423  -23.0934 H   0  0  0  0  0
  -15.1624   23.0146  -24.6088 H   0  0  0  0  0
  -17.9011   22.3664  -23.9195 H   0  0  0  0  0
  -18.6399   23.9481  -24.2707 H   0  0  0  0  0
  -17.4201   23.2699  -25.3767 H   0  0  0  0  0
  -17.8715   28.7251  -30.3636 H   0  0  0  0  0
  -15.0936   29.4496  -31.0972 H   0  0  0  0  0
  -15.0331   27.9358  -32.8809 H   0  0  0  0  0
  -16.8529   27.9519  -33.0496 H   0  0  0  0  0
  -17.0923   26.5397  -31.2061 H   0  0  0  0  0
  -15.3283   26.6607  -30.8141 H   0  0  0  0  0
  -14.6522   23.7262  -32.5445 H   0  0  0  0  0
  -14.3921   24.7672  -31.1410 H   0  0  0  0  0
  -15.3138   29.8871  -33.6405 H   0  0  0  0  0
  1  2  1  0  0  0
  2  3  1  0  0  0
  2  8  1  0  0  0
  3  4  1  0  0  0
  4  5  1  0  0  0
  5  6  1  0  0  0
  6  7  1  0  0  0
  7 10  1  0  0  0
  7 11  1  0  0  0
  7 12  1  0  0  0
  8  9  2  0  0  0
  8 13  1  0  0  0
 13 14  1  0  0  0
 14 15  1  0  0  0
 14 17  1  0  0  0
 15 16  2  0  0  0
 15 22  1  0  0  0
 17 18  1  0  0  0
 18 19  1  0  0  0
 19 20  2  0  0  0
 19 21  1  0  0  0
  1 23  1  0  0  0
  1 24  1  0  0  0
  1 25  1  0  0  0
  2 26  1  0  0  0
  3 27  1  0  0  0
  3 28  1  0  0  0
  4 29  1  0  0  0
  4 30  1  0  0  0
  5 31  1  0  0  0
  5 32  1  0  0  0
  6 33  1  0  0  0
  6 34  1  0  0  0
 10 35  1  0  0  0
 10 36  1  0  0  0
 10 37  1  0  0  0
 11 38  1  0  0  0
 11 39  1  0  0  0
 11 40  1  0  0  0
 12 41  1  0  0  0
 12 42  1  0  0  0
 12 43  1  0  0  0
 13 44  1  0  0  0
 14 45  1  0  0  0
 17 46  1  0  0  0
 17 47  1  0  0  0
 18 48  1  0  0  0
 18 49  1  0  0  0
 21 50  1  0  0  0
 21 51  1  0  0  0
 22 52  1  0  0  0
M  END
$$$$
