3m36_ligand
  -I-interpret- 

 58 61  0  0  0  0  0  0  0  0999 V2000
   11.2840   27.6680   13.2700 C   0  0  0  0  0
    2.7130   26.8390   14.2130 F   0  0  0  0  0
    7.0380   27.8910   14.4050 N   0  0  0  0  0
    6.1220   34.4480   22.1140 S   0  0  0  0  0
   10.7700   26.7680   14.3080 C   0  0  0  0  0
    3.1090   28.2980   12.6940 F   0  0  0  0  0
    9.3430   26.8210   14.6970 C   0  0  0  0  0
    3.8760   26.3860   12.4040 F   0  0  0  0  0
    9.9870   29.6700   10.3890 N   0  3  0  0  0
    8.1690   29.5670   16.3730 O   0  0  0  0  0
    8.4000   27.7840   14.0710 C   0  0  0  0  0
    7.5820   29.8800   19.2170 F   0  0  0  0  0
    5.4010   34.4260   20.8940 O   0  0  0  0  0
    8.9000   28.6760   13.0390 C   0  0  0  0  0
    6.2090   30.4790   16.9730 N   0  0  0  0  0
    5.6330   35.3200   23.1360 O   0  0  0  0  0
   10.3180   28.5950   12.6610 C   0  0  0  0  0
    6.1010   27.2480   13.6520 N   0  0  0  0  0
    6.7630   31.4870   17.7620 C   0  0  0  0  0
    6.9590   29.6120   16.2330 C   0  0  0  0  0
    6.0850   32.8320   22.7880 C   0  0  0  0  0
    4.8760   27.6770   14.0080 C   0  0  0  0  0
    3.5820   27.2810   13.3200 C   0  0  0  0  0
    4.9840   28.6270   15.0600 C   0  0  0  0  0
    6.3830   28.7400   15.2860 C   0  0  0  0  0
    8.0840   32.1300   19.8710 C   0  0  0  0  0
    9.8380   35.1700   20.2800 C   0  0  0  0  0
    7.9610   33.5420   19.5160 C   0  0  0  0  0
    8.5050   34.5840   20.4960 C   0  0  0  0  0
    7.2400   33.8980   18.2750 C   0  0  0  0  0
   10.8440   29.5320   11.5900 C   0  0  0  0  0
    7.7880   34.9930   21.7130 C   0  0  0  0  0
    6.6300   32.8920   17.3930 C   0  0  0  0  0
   10.4090   36.0900   21.2830 C   0  0  0  0  0
    8.3600   35.9030   22.7140 C   0  0  0  0  0
    9.7000   36.4760   22.5250 C   0  0  0  0  0
    7.4820   31.1750   18.9730 C   0  0  0  0  0
   12.3303   27.6507   12.9650 H   0  0  0  0  0
   11.4403   26.0589   14.7938 H   0  0  0  0  0
    8.9746   26.1369   15.4614 H   0  0  0  0  0
   10.4247   30.3168    9.7329 H   0  0  0  0  0
    9.8753   28.7581    9.9459 H   0  0  0  0  0
    9.0731   30.0297   10.6644 H   0  0  0  0  0
    8.2361   29.3918   12.5542 H   0  0  0  0  0
    5.1936   30.3854   16.9480 H   0  0  0  0  0
    5.0507   32.5371   22.9649 H   0  0  0  0  0
    6.5476   32.1368   22.0874 H   0  0  0  0  0
    6.6337   32.8198   23.7297 H   0  0  0  0  0
    4.1782   29.1495   15.5756 H   0  0  0  0  0
    8.6068   31.8127   20.7733 H   0  0  0  0  0
   10.4026   34.9248   19.3805 H   0  0  0  0  0
    7.1573   34.9502   18.0027 H   0  0  0  0  0
   10.9046   30.5210   12.0443 H   0  0  0  0  0
   11.7917   29.1147   11.2497 H   0  0  0  0  0
    6.0946   33.1872   16.4906 H   0  0  0  0  0
   11.4002   36.5054   21.1010 H   0  0  0  0  0
    7.7854   36.1556   23.6051 H   0  0  0  0  0
   10.1472   37.1476   23.2579 H   0  0  0  0  0
  5  1  4  0  0  0
 17  1  4  0  0  0
 23  2  1  0  0  0
  3 11  1  0  0  0
  3 18  4  0  0  0
 25  3  4  0  0  0
  4 13  2  0  0  0
  4 16  2  0  0  0
  4 21  1  0  0  0
 32  4  1  0  0  0
  7  5  4  0  0  0
 23  6  1  0  0  0
 11  7  4  0  0  0
 23  8  1  0  0  0
 31  9  1  0  0  0
 20 10  2  0  0  0
 11 14  4  0  0  0
 37 12  1  0  0  0
 14 17  4  0  0  0
 19 15  1  0  0  0
 15 20  1  0  0  0
 17 31  1  0  0  0
 22 18  4  0  0  0
 19 33  4  0  0  0
 37 19  4  0  0  0
 20 25  1  0  0  0
 22 23  1  0  0  0
 24 22  4  0  0  0
 25 24  4  0  0  0
 28 26  4  0  0  0
 26 37  4  0  0  0
 29 27  4  0  0  0
 27 34  4  0  0  0
 29 28  1  0  0  0
 28 30  4  0  0  0
 29 32  4  0  0  0
 30 33  4  0  0  0
 32 35  4  0  0  0
 34 36  4  0  0  0
 35 36  4  0  0  0
  1 38  1  0  0  0
  5 39  1  0  0  0
  7 40  1  0  0  0
  9 41  1  0  0  0
  9 42  1  0  0  0
  9 43  1  0  0  0
 14 44  1  0  0  0
 15 45  1  0  0  0
 21 46  1  0  0  0
 21 47  1  0  0  0
 21 48  1  0  0  0
 24 49  1  0  0  0
 26 50  1  0  0  0
 27 51  1  0  0  0
 30 52  1  0  0  0
 31 53  1  0  0  0
 31 54  1  0  0  0
 33 55  1  0  0  0
 34 56  1  0  0  0
 35 57  1  0  0  0
 36 58  1  0  0  0
M  END
$$$$
