3ine_ligand
  -I-interpret- 

 56 60  0  0  0  0  0  0  0  0999 V2000
   16.0380  -11.1070   19.8410 C   0  0  0  0  0
   15.7360   -5.4810   17.0510 N   0  0  0  0  0
   16.5840  -12.7150   17.6370 O   0  0  0  0  0
   15.8030  -10.6420   18.4280 C   0  0  0  0  0
   14.9920   -6.8470   15.4410 N   0  0  0  0  0
   14.9490   -6.4920   18.9720 O   0  0  0  0  0
   15.2950   -9.3510   18.2060 C   0  0  0  0  0
   16.4120   -5.0920   14.8090 N   0  0  0  0  0
   15.0550   -8.8580   16.9120 C   0  0  0  0  0
   15.3400   -9.7050   15.8300 C   0  0  0  0  0
   15.8490  -10.9960   16.0340 C   0  0  0  0  0
   16.0830  -11.4710   17.3320 C   0  0  0  0  0
   17.0960  -13.4720   16.5460 C   0  0  0  0  0
   14.4930   -7.4370   16.7270 C   0  0  0  0  0
   15.0710   -6.4410   17.7560 C   0  0  0  0  0
   15.6490   -5.7600   15.7220 C   0  0  0  0  0
   16.4100   -4.3480   17.6690 C   0  0  0  0  0
   12.9040   -7.3890   16.7130 C   0  0  0  0  0
   12.3930   -5.9120   16.6440 C   0  0  0  0  0
   10.8580   -5.8460   16.6190 C   0  0  0  0  0
   10.3050   -6.5020   17.8930 C   0  0  0  0  0
   10.7370   -7.9730   17.9490 C   0  0  0  0  0
   12.2770   -8.0400   17.9840 C   0  0  0  0  0
   10.2220   -8.7070   16.7040 C   0  0  0  0  0
   10.7840   -8.0580   15.4320 C   0  0  0  0  0
   10.3410   -6.5900   15.3760 C   0  0  0  0  0
   12.3240   -8.1360   15.4690 C   0  0  0  0  0
   16.7563  -10.4454   20.3252 H   0  0  0  0  0
   15.0965  -11.0873   20.3899 H   0  0  0  0  0
   16.4307  -12.1237   19.8270 H   0  0  0  0  0
   14.8421   -7.2315   14.5082 H   0  0  0  0  0
   15.0806   -8.7127   19.0631 H   0  0  0  0  0
   17.0618   -4.3693   15.1186 H   0  0  0  0  0
   15.1628   -9.3536   14.8135 H   0  0  0  0  0
   16.0641  -11.6345   15.1772 H   0  0  0  0  0
   16.3032  -13.6374   15.8164 H   0  0  0  0  0
   17.9140  -12.9246   16.0778 H   0  0  0  0  0
   17.4615  -14.4318   16.9112 H   0  0  0  0  0
   17.4682   -4.3702   17.4086 H   0  0  0  0  0
   15.9650   -3.4209   17.3077 H   0  0  0  0  0
   16.2997   -4.4077   18.7518 H   0  0  0  0  0
   12.7725   -5.4584   15.7284 H   0  0  0  0  0
   12.7464   -5.3833   17.5293 H   0  0  0  0  0
   10.5284   -4.8078   16.5781 H   0  0  0  0  0
    9.2165   -6.4460   17.8841 H   0  0  0  0  0
   10.6942   -5.9784   18.7662 H   0  0  0  0  0
   10.3247   -8.4452   18.8407 H   0  0  0  0  0
   12.6273   -7.4951   18.8606 H   0  0  0  0  0
   12.5772   -9.0872   18.0204 H   0  0  0  0  0
    9.1338   -8.6493   16.6818 H   0  0  0  0  0
   10.5452   -9.7472   16.7452 H   0  0  0  0  0
   10.4129   -8.5801   14.5501 H   0  0  0  0  0
   10.7486   -6.1231   14.4794 H   0  0  0  0  0
    9.2524   -6.5413   15.3520 H   0  0  0  0  0
   12.6158   -9.1845   15.5282 H   0  0  0  0  0
   12.7159   -7.6636   14.5682 H   0  0  0  0  0
  4  1  1  0  0  0
  2 15  1  0  0  0
 16  2  4  0  0  0
  2 17  1  0  0  0
 12  3  1  0  0  0
  3 13  1  0  0  0
  7  4  4  0  0  0
  4 12  4  0  0  0
 14  5  1  0  0  0
  5 16  1  0  0  0
 15  6  2  0  0  0
  9  7  4  0  0  0
 16  8  2  0  0  0
  9 10  4  0  0  0
  9 14  1  0  0  0
 10 11  4  0  0  0
 11 12  4  0  0  0
 14 15  1  0  0  0
 14 18  1  0  0  0
 18 19  1  0  0  0
 18 23  1  0  0  0
 18 27  1  0  0  0
 19 20  1  0  0  0
 20 21  1  0  0  0
 20 26  1  0  0  0
 21 22  1  0  0  0
 22 23  1  0  0  0
 22 24  1  0  0  0
 24 25  1  0  0  0
 25 26  1  0  0  0
 25 27  1  0  0  0
  1 28  1  0  0  0
  1 29  1  0  0  0
  1 30  1  0  0  0
  5 31  1  0  0  0
  7 32  1  0  0  0
  8 33  1  0  0  0
 10 34  1  0  0  0
 11 35  1  0  0  0
 13 36  1  0  0  0
 13 37  1  0  0  0
 13 38  1  0  0  0
 17 39  1  0  0  0
 17 40  1  0  0  0
 17 41  1  0  0  0
 19 42  1  0  0  0
 19 43  1  0  0  0
 20 44  1  0  0  0
 21 45  1  0  0  0
 21 46  1  0  0  0
 22 47  1  0  0  0
 23 48  1  0  0  0
 23 49  1  0  0  0
 24 50  1  0  0  0
 24 51  1  0  0  0
 25 52  1  0  0  0
 26 53  1  0  0  0
 26 54  1  0  0  0
 27 55  1  0  0  0
 27 56  1  0  0  0
M  END
$$$$
