4jlm_ligand
  -I-interpret- 

 51 53  0  0  0  0  0  0  0  0999 V2000
  -34.9970    7.1020    0.9140 F   0  0  0  0  0
  -35.9710    7.9880    0.5270 C   0  0  0  0  0
  -35.4420    8.7270   -0.6870 C   0  0  0  0  0
  -36.5600    8.9910   -1.5340 O   0  0  0  0  0
  -36.2370    9.9820   -2.3930 C   0  0  0  0  0
  -34.9010   10.3480   -2.6350 C   0  0  0  0  0
  -37.3180   10.6020   -3.0410 C   0  0  0  0  0
  -38.5840   10.1760   -2.7420 O   0  0  0  0  0
  -39.6130   10.9690   -3.4030 C   0  0  0  0  0
  -37.0870   11.6270   -3.9540 C   0  0  0  0  0
  -35.7730   12.0120   -4.1900 C   0  0  0  0  0
  -34.7000   11.3780   -3.5640 C   0  0  0  0  0
  -33.4890   11.8460   -3.8510 C   0  0  0  0  0
  -32.3600   11.6260   -3.1480 N   0  0  0  0  0
  -33.2070   12.8700   -5.0860 S   0  0  0  0  0
  -31.6060   13.0360   -4.7610 C   0  0  0  0  0
  -30.7030   13.9030   -5.6630 C   0  0  0  0  0
  -29.8090   14.8540   -4.8520 C   0  0  0  0  0
  -31.2980   12.2690   -3.6750 C   0  0  0  0  0
  -29.9030   12.1100   -3.0280 C   0  0  0  0  0
  -29.0630   10.4600   -3.2470 S   0  0  0  0  0
  -27.3900   10.9170   -3.5990 C   0  0  0  0  0
  -26.9740   12.1760   -3.5390 N   0  0  0  0  0
  -26.5040    9.9530   -3.9200 N   0  0  0  0  0
  -25.2210   10.2130   -4.1760 C   0  0  0  0  0
  -24.4170    9.2020   -4.4760 N   0  0  0  0  0
  -24.7560   11.5150   -4.1300 C   0  0  0  0  0
  -25.6940   12.4960   -3.8220 C   0  0  0  0  0
  -25.3000   13.7520   -3.7530 N   0  0  0  0  0
  -36.2002    8.6851    1.3330 H   0  0  0  0  0
  -36.8956    7.4634    0.2862 H   0  0  0  0  0
  -34.6957    8.1278   -1.2086 H   0  0  0  0  0
  -34.9542    9.6558   -0.3911 H   0  0  0  0  0
  -34.0690    9.8585   -2.1288 H   0  0  0  0  0
  -39.5262   12.0091   -3.0887 H   0  0  0  0  0
  -39.4832   10.9025   -4.4832 H   0  0  0  0  0
  -40.5963   10.5863   -3.1297 H   0  0  0  0  0
  -37.9144   12.1143   -4.4698 H   0  0  0  0  0
  -35.5757   12.8306   -4.8822 H   0  0  0  0  0
  -31.3454   14.5071   -6.3038 H   0  0  0  0  0
  -30.0568   13.2369   -6.2347 H   0  0  0  0  0
  -30.4344   15.5210   -4.2587 H   0  0  0  0  0
  -29.1672   14.2718   -4.1908 H   0  0  0  0  0
  -29.1935   15.4414   -5.5333 H   0  0  0  0  0
  -30.0537   12.2306   -1.9552 H   0  0  0  0  0
  -29.2598   12.8420   -3.5166 H   0  0  0  0  0
  -24.7837    8.2507   -4.5071 H   0  0  0  0  0
  -23.4319    9.3757   -4.6756 H   0  0  0  0  0
  -23.7117   11.7594   -4.3244 H   0  0  0  0  0
  -25.9623   14.4803   -3.4860 H   0  0  0  0  0
  -24.3328   13.9956   -3.9666 H   0  0  0  0  0
  1  2  1  0  0  0
  2  3  1  0  0  0
  3  4  1  0  0  0
  4  5  1  0  0  0
  5  6  4  0  0  0
  5  7  4  0  0  0
  6 12  4  0  0  0
  7  8  1  0  0  0
  7 10  4  0  0  0
  8  9  1  0  0  0
 10 11  4  0  0  0
 11 12  4  0  0  0
 12 13  1  0  0  0
 13 14  4  0  0  0
 13 15  4  0  0  0
 14 19  4  0  0  0
 15 16  4  0  0  0
 16 17  1  0  0  0
 16 19  4  0  0  0
 17 18  1  0  0  0
 19 20  1  0  0  0
 20 21  1  0  0  0
 21 22  1  0  0  0
 22 23  4  0  0  0
 22 24  4  0  0  0
 23 28  4  0  0  0
 24 25  4  0  0  0
 25 26  1  0  0  0
 25 27  4  0  0  0
 27 28  4  0  0  0
 28 29  1  0  0  0
  2 30  1  0  0  0
  2 31  1  0  0  0
  3 32  1  0  0  0
  3 33  1  0  0  0
  6 34  1  0  0  0
  9 35  1  0  0  0
  9 36  1  0  0  0
  9 37  1  0  0  0
 10 38  1  0  0  0
 11 39  1  0  0  0
 17 40  1  0  0  0
 17 41  1  0  0  0
 18 42  1  0  0  0
 18 43  1  0  0  0
 18 44  1  0  0  0
 20 45  1  0  0  0
 20 46  1  0  0  0
 26 47  1  0  0  0
 26 48  1  0  0  0
 27 49  1  0  0  0
 29 50  1  0  0  0
 29 51  1  0  0  0
M  END
$$$$
