5v37_ligand
  -I-interpret- 

 60 64  0  0  0  0  0  0  0  0999 V2000
   24.9840   -4.4020   14.5520 N   0  3  0  0  0
   23.8540   -3.8780   15.3170 C   0  0  0  0  0
   23.6770   -2.3620   15.1260 C   0  0  0  0  0
   22.4930   -1.8410   15.9450 C   0  0  0  0  0
   21.1920   -2.5850   15.6400 C   0  0  0  0  0
   21.3790   -4.1070   15.7620 C   0  0  0  0  0
   22.5620   -4.6040   14.9380 C   0  0  0  0  0
   19.8270   -2.0910   16.6990 S   0  0  0  0  0
   20.3170   -2.1990   18.0480 O   0  0  0  0  0
   18.6500   -2.8380   16.3090 O   0  0  0  0  0
   19.5560   -0.4900   16.3720 N   0  0  0  0  0
   18.3210   -0.0480   15.7030 C   0  0  0  0  0
   17.4590    0.3490   16.9120 C   0  0  0  0  0
   18.4880    0.7070   17.9990 C   0  0  0  0  0
   19.8720    0.5580   17.3510 C   0  0  0  0  0
   20.3980    1.7670   16.5540 C   0  0  0  0  0
   19.3950    2.2800   15.5040 C   0  0  0  0  0
   18.6930    1.1170   14.7710 C   0  0  0  0  0
   18.4000    3.1810   16.0950 N   0  0  0  0  0
   17.5210    4.0660   15.5050 C   0  0  0  0  0
   17.5470    4.1380   14.2810 O   0  0  0  0  0
   16.5770    4.8530   16.2920 C   0  0  0  0  0
   15.9060    4.2730   17.3010 N   0  0  0  0  0
   15.0800    5.2380   17.8520 O   0  0  0  0  0
   15.2530    6.3790   17.1580 C   0  0  0  0  0
   16.1740    6.2050   16.1710 C   0  0  0  0  0
   14.5240    7.6240   17.4770 C   0  0  0  0  0
   14.0350    8.5130   16.3670 C   0  0  0  0  0
   15.1960    8.9410   17.2100 C   0  0  0  0  0
   25.8337   -3.9052   14.8195 H   0  0  0  0  0
   25.0941   -5.3968   14.7487 H   0  0  0  0  0
   24.8099   -4.2683   13.5559 H   0  0  0  0  0
   24.0734   -4.0573   16.3695 H   0  0  0  0  0
   23.4880   -2.1619   14.0713 H   0  0  0  0  0
   24.5835   -1.8588   15.4622 H   0  0  0  0  0
   22.3460   -0.7913   15.6907 H   0  0  0  0  0
   22.7243   -1.9895   16.9998 H   0  0  0  0  0
   20.9408   -2.3155   14.6141 H   0  0  0  0  0
   20.4765   -4.5925   15.3907 H   0  0  0  0  0
   21.5684   -4.3447   16.8088 H   0  0  0  0  0
   22.6946   -5.6684   15.1317 H   0  0  0  0  0
   22.3543   -4.4121   13.8853 H   0  0  0  0  0
   17.8006   -0.7646   15.0675 H   0  0  0  0  0
   16.7894   -0.4526   17.2239 H   0  0  0  0  0
   16.7885    1.1785   16.6876 H   0  0  0  0  0
   18.3881    0.0509   18.8637 H   0  0  0  0  0
   18.3342    1.7224   18.3642 H   0  0  0  0  0
   20.6402    0.3914   18.1061 H   0  0  0  0  0
   21.2975    1.4501   16.0262 H   0  0  0  0  0
   20.5806    2.5762   17.2611 H   0  0  0  0  0
   19.9725    2.8459   14.7731 H   0  0  0  0  0
   17.7692    1.5057   14.3424 H   0  0  0  0  0
   19.3848    0.7329   14.0213 H   0  0  0  0  0
   18.3493    3.1478   17.1132 H   0  0  0  0  0
   16.5235    6.9423   15.4483 H   0  0  0  0  0
   14.0555    7.1481   18.3385 H   0  0  0  0  0
   13.0928    8.9245   16.0050 H   0  0  0  0  0
   13.7776    8.4343   15.3108 H   0  0  0  0  0
   16.2052    9.3291   17.0724 H   0  0  0  0  0
   15.5195    9.8199   17.7676 H   0  0  0  0  0
  1  2  1  0  0  0
  2  3  1  0  0  0
  2  7  1  0  0  0
  3  4  1  0  0  0
  4  5  1  0  0  0
  5  6  1  0  0  0
  5  8  1  0  0  0
  6  7  1  0  0  0
  8  9  2  0  0  0
  8 10  2  0  0  0
  8 11  1  0  0  0
 11 12  1  0  0  0
 11 15  1  0  0  0
 12 13  1  0  0  0
 12 18  1  0  0  0
 13 14  1  0  0  0
 14 15  1  0  0  0
 15 16  1  0  0  0
 16 17  1  0  0  0
 17 18  1  0  0  0
 17 19  1  0  0  0
 19 20  1  0  0  0
 20 21  2  0  0  0
 20 22  1  0  0  0
 22 23  4  0  0  0
 22 26  4  0  0  0
 23 24  4  0  0  0
 24 25  4  0  0  0
 25 26  4  0  0  0
 25 27  1  0  0  0
 27 28  1  0  0  0
 27 29  1  0  0  0
 28 29  1  0  0  0
  1 30  1  0  0  0
  1 31  1  0  0  0
  1 32  1  0  0  0
  2 33  1  0  0  0
  3 34  1  0  0  0
  3 35  1  0  0  0
  4 36  1  0  0  0
  4 37  1  0  0  0
  5 38  1  0  0  0
  6 39  1  0  0  0
  6 40  1  0  0  0
  7 41  1  0  0  0
  7 42  1  0  0  0
 12 43  1  0  0  0
 13 44  1  0  0  0
 13 45  1  0  0  0
 14 46  1  0  0  0
 14 47  1  0  0  0
 15 48  1  0  0  0
 16 49  1  0  0  0
 16 50  1  0  0  0
 17 51  1  0  0  0
 18 52  1  0  0  0
 18 53  1  0  0  0
 19 54  1  0  0  0
 26 55  1  0  0  0
 27 56  1  0  0  0
 28 57  1  0  0  0
 28 58  1  0  0  0
 29 59  1  0  0  0
 29 60  1  0  0  0
M  END
$$$$
