6mdu_ligand
  -I-interpret- 

 37 40  0  0  0  0  0  0  0  0999 V2000
   13.4440   10.9840    4.7280 C   0  0  0  0  0
   11.0140   10.1970    4.6120 C   0  0  0  0  0
   14.3290   12.1470    5.1290 C   0  0  0  0  0
   17.2310   14.2870    5.1460 C   0  0  0  0  0
   18.4320   13.5970    5.1740 C   0  0  0  0  0
   19.6340   14.2650    4.9790 C   0  0  0  0  0
   19.6380   15.6280    4.7490 C   0  0  0  0  0
   18.4410   16.3180    4.7250 C   0  0  0  0  0
   17.2440   15.6500    4.9210 C   0  0  0  0  0
   14.9640   13.9640    6.1510 C   0  0  0  0  0
   14.9200   15.1320    7.1060 C   0  0  0  0  0
   14.0450   16.1850    6.9080 C   0  0  0  0  0
   14.0370   17.2290    7.8170 C   0  0  0  0  0
   14.8870   17.1880    8.9140 C   0  0  0  0  0
   15.7540   16.1250    9.0990 C   0  0  0  0  0
   15.7650   15.0860    8.1950 C   0  0  0  0  0
   13.9510   13.0710    6.0420 C   0  0  0  0  0
   12.0290   11.1710    4.9240 N   0  0  0  0  0
    9.7840   10.5180    4.1310 N   0  0  0  0  0
    9.0980    9.2770    3.9820 N   0  0  0  0  0
    9.9740    8.3180    4.3900 N   0  0  0  0  0
   11.0590    8.9290    4.7390 N   0  0  0  0  0
   15.5430   12.4540    4.6840 N   0  0  0  0  0
   15.9590   13.6050    5.3420 N   0  0  0  0  0
   13.8980    9.9800    4.2940 O   0  0  0  0  0
   18.4336   12.5214    5.3505 H   0  0  0  0  0
   20.5743   13.7144    5.0073 H   0  0  0  0  0
   20.5786   16.1547    4.5877 H   0  0  0  0  0
   18.4390   17.3940    4.5508 H   0  0  0  0  0
   16.3053   16.2035    4.8976 H   0  0  0  0  0
   13.3727   16.1925    6.0501 H   0  0  0  0  0
   13.3680   18.0773    7.6725 H   0  0  0  0  0
   14.8714   18.0025    9.6381 H   0  0  0  0  0
   16.4258   16.1102    9.9572 H   0  0  0  0  0
   16.4337   14.2373    8.3386 H   0  0  0  0  0
   13.0078   13.0929    6.5879 H   0  0  0  0  0
   11.7218   12.0621    5.3139 H   0  0  0  0  0
  3  1  1  0  0  0
  1 18  1  0  0  0
  1 25  2  0  0  0
 18  2  1  0  0  0
  2 19  4  0  0  0
  2 22  4  0  0  0
 17  3  4  0  0  0
  3 23  4  0  0  0
  4  5  4  0  0  0
  4  9  4  0  0  0
 24  4  1  0  0  0
  5  6  4  0  0  0
  6  7  4  0  0  0
  8  7  4  0  0  0
  9  8  4  0  0  0
 10 11  1  0  0  0
 10 17  4  0  0  0
 10 24  4  0  0  0
 11 12  4  0  0  0
 11 16  4  0  0  0
 12 13  4  0  0  0
 13 14  4  0  0  0
 14 15  4  0  0  0
 15 16  4  0  0  0
 19 20  4  0  0  0
 20 21  4  0  0  0
 21 22  4  0  0  0
 23 24  4  0  0  0
  5 26  1  0  0  0
  6 27  1  0  0  0
  7 28  1  0  0  0
  8 29  1  0  0  0
  9 30  1  0  0  0
 12 31  1  0  0  0
 13 32  1  0  0  0
 14 33  1  0  0  0
 15 34  1  0  0  0
 16 35  1  0  0  0
 17 36  1  0  0  0
 18 37  1  0  0  0
M  END
$$$$
