4pni_ligand
  -I-interpret- 

 71 75  0  0  0  0  0  0  0  0999 V2000
  -11.4040   -0.2520  -26.2330 O   0  0  0  0  0
  -12.0250   -1.2870  -26.3320 C   0  0  0  0  0
  -11.5240   -2.3450  -26.9510 N   0  0  0  0  0
  -13.3390   -1.4810  -25.7200 C   0  0  0  0  0
  -14.1170   -3.0570  -25.8670 S   0  0  0  0  0
  -15.4580   -2.5420  -24.9770 C   0  0  0  0  0
  -15.3240   -1.1960  -24.5620 C   0  0  0  0  0
  -14.1480   -0.5920  -25.0150 C   0  0  0  0  0
  -13.6270    0.7130  -24.9200 N   0  0  0  0  0
  -14.2440    1.7520  -24.3280 C   0  0  0  0  0
  -15.5550    1.7120  -24.0770 N   0  0  0  0  0
  -13.5750    3.0300  -24.1310 C   0  0  0  0  0
  -12.2120    3.4940  -24.2600 C   0  0  0  0  0
  -12.2490    4.7800  -23.8340 C   0  0  0  0  0
  -13.5150    5.0800  -23.3770 N   0  0  0  0  0
  -14.3710    4.0700  -23.5320 C   0  0  0  0  0
  -15.7080    3.9280  -23.2780 N   0  0  0  0  0
  -16.2810    2.7250  -23.5370 C   0  0  0  0  0
  -17.6030    2.6320  -23.2560 N   0  0  0  0  0
  -18.4390    1.5820  -23.5420 C   0  0  0  0  0
  -19.5470    1.4660  -22.6880 C   0  0  0  0  0
  -19.6830    2.4040  -21.7080 O   0  0  0  0  0
  -20.7190    2.4300  -20.7230 C   0  0  0  0  0
  -18.3010    0.6510  -24.5460 C   0  0  0  0  0
  -19.1940   -0.4450  -24.6750 C   0  0  0  0  0
  -20.2480   -0.5570  -23.7830 C   0  0  0  0  0
  -20.4150    0.3720  -22.8070 C   0  0  0  0  0
  -18.9430   -1.3950  -25.6270 N   0  0  0  0  0
  -18.4790   -1.1370  -26.8580 C   0  0  0  0  0
  -18.1340   -2.3290  -27.7340 C   0  0  0  0  0
  -17.4110   -1.8010  -28.8960 N   0  3  0  0  0
  -16.1470   -1.0500  -28.6340 C   0  0  0  0  0
  -17.0910   -2.8910  -29.8780 C   0  0  0  0  0
  -18.3620    0.0400  -27.3250 O   0  0  0  0  0
  -19.2190   -2.7330  -25.1140 C   0  0  0  0  0
  -20.7090   -2.6220  -25.0020 C   0  0  0  0  0
  -21.1620   -1.7550  -23.8390 C   0  0  0  0  0
  -22.6270   -1.3350  -23.9180 C   0  0  0  0  0
  -20.9310   -2.4800  -22.5080 C   0  0  0  0  0
  -10.5908   -2.3018  -27.3605 H   0  0  0  0  0
  -12.0713   -3.2031  -27.0183 H   0  0  0  0  0
  -16.3200   -3.1695  -24.7505 H   0  0  0  0  0
  -16.0645   -0.6813  -23.9498 H   0  0  0  0  0
  -12.7099    0.8840  -25.3324 H   0  0  0  0  0
  -11.3481    2.9349  -24.6194 H   0  0  0  0  0
  -11.4067    5.4716  -23.8501 H   0  0  0  0  0
  -18.0231    3.4301  -22.7795 H   0  0  0  0  0
  -21.6874    2.5033  -21.2179 H   0  0  0  0  0
  -20.6798    1.5149  -20.1321 H   0  0  0  0  0
  -20.5768    3.2916  -20.0707 H   0  0  0  0  0
  -17.4849    0.7579  -25.2607 H   0  0  0  0  0
  -21.2399    0.2650  -22.1026 H   0  0  0  0  0
  -19.0354   -2.8577  -28.0441 H   0  0  0  0  0
  -17.5223   -3.0480  -27.1891 H   0  0  0  0  0
  -18.0743   -1.1186  -29.2631 H   0  0  0  0  0
  -16.3634   -0.1839  -28.0085 H   0  0  0  0  0
  -15.4383   -1.7013  -28.1224 H   0  0  0  0  0
  -15.7199   -0.7186  -29.5805 H   0  0  0  0  0
  -16.4691   -3.6437  -29.3935 H   0  0  0  0  0
  -18.0171   -3.3505  -30.2234 H   0  0  0  0  0
  -16.5553   -2.4672  -30.7274 H   0  0  0  0  0
  -18.7012   -2.9932  -24.1908 H   0  0  0  0  0
  -18.8590   -3.5529  -25.7355 H   0  0  0  0  0
  -21.1024   -3.6251  -24.8376 H   0  0  0  0  0
  -21.0746   -2.1600  -25.9190 H   0  0  0  0  0
  -22.8825   -0.7452  -23.0377 H   0  0  0  0  0
  -22.7843   -0.7371  -24.8157 H   0  0  0  0  0
  -23.2568   -2.2238  -23.9569 H   0  0  0  0  0
  -19.8835   -2.7715  -22.4316 H   0  0  0  0  0
  -21.1851   -1.8135  -21.6838 H   0  0  0  0  0
  -21.5608   -3.3686  -22.4657 H   0  0  0  0  0
  1  2  2  0  0  0
  2  3  1  0  0  0
  2  4  1  0  0  0
  4  5  4  0  0  0
  4  8  4  0  0  0
  5  6  4  0  0  0
  6  7  4  0  0  0
  7  8  4  0  0  0
  8  9  1  0  0  0
  9 10  1  0  0  0
 10 11  4  0  0  0
 10 12  4  0  0  0
 11 18  4  0  0  0
 12 13  4  0  0  0
 12 16  4  0  0  0
 13 14  4  0  0  0
 14 15  4  0  0  0
 15 16  4  0  0  0
 16 17  4  0  0  0
 17 18  4  0  0  0
 18 19  1  0  0  0
 19 20  1  0  0  0
 20 21  4  0  0  0
 20 24  4  0  0  0
 21 22  1  0  0  0
 21 27  4  0  0  0
 22 23  1  0  0  0
 24 25  4  0  0  0
 25 26  4  0  0  0
 25 28  1  0  0  0
 26 27  4  0  0  0
 26 37  1  0  0  0
 28 29  1  0  0  0
 28 35  1  0  0  0
 29 30  1  0  0  0
 29 34  2  0  0  0
 30 31  1  0  0  0
 31 32  1  0  0  0
 31 33  1  0  0  0
 35 36  1  0  0  0
 36 37  1  0  0  0
 37 38  1  0  0  0
 37 39  1  0  0  0
  3 40  1  0  0  0
  3 41  1  0  0  0
  6 42  1  0  0  0
  7 43  1  0  0  0
  9 44  1  0  0  0
 13 45  1  0  0  0
 14 46  1  0  0  0
 19 47  1  0  0  0
 23 48  1  0  0  0
 23 49  1  0  0  0
 23 50  1  0  0  0
 24 51  1  0  0  0
 27 52  1  0  0  0
 30 53  1  0  0  0
 30 54  1  0  0  0
 31 55  1  0  0  0
 32 56  1  0  0  0
 32 57  1  0  0  0
 32 58  1  0  0  0
 33 59  1  0  0  0
 33 60  1  0  0  0
 33 61  1  0  0  0
 35 62  1  0  0  0
 35 63  1  0  0  0
 36 64  1  0  0  0
 36 65  1  0  0  0
 38 66  1  0  0  0
 38 67  1  0  0  0
 38 68  1  0  0  0
 39 69  1  0  0  0
 39 70  1  0  0  0
 39 71  1  0  0  0
M  END
$$$$
