3kwj_ligand
  -I-interpret- 

 56 59  0  0  0  0  0  0  0  0999 V2000
   47.9100   49.8050   34.0260 N   0  3  0  0  0
   48.0280   51.1810   36.0810 C   0  0  0  0  0
   46.3240   51.6280   34.3830 C   0  0  0  0  0
   48.3730   49.8610   35.4190 C   0  0  0  0  0
   47.0000   49.4600   31.3990 C   0  0  0  0  0
   46.5580   51.5300   35.8780 C   0  0  0  0  0
   48.3150   51.1350   37.5290 C   0  0  0  0  0
   45.5290   50.1250   29.5460 C   0  0  0  0  0
   47.7730   50.1330   38.3450 C   0  0  0  0  0
   49.1220   52.1400   38.0730 C   0  0  0  0  0
   47.4670   49.0860   40.6180 C   0  0  0  0  0
   45.6070   49.1350   27.2370 C   0  0  0  0  0
   48.4830   48.3120   41.1440 F   0  0  0  0  0
   48.0430   50.1450   39.7080 C   0  0  0  0  0
   48.8520   51.1410   40.2450 C   0  0  0  0  0
   49.3890   52.1410   39.4370 C   0  0  0  0  0
   46.2630   52.8290   36.4500 N   0  3  0  0  0
   46.5410   50.2560   33.7260 C   0  0  0  0  0
   46.3770   50.3840   32.2430 C   0  0  0  0  0
   45.3370   51.1760   31.7240 C   0  0  0  0  0
   48.2110   48.6860   31.8760 C   0  0  0  0  0
   48.1100   48.5010   33.3930 C   0  0  0  0  0
   46.5800   49.3310   30.0640 C   0  0  0  0  0
   45.0710   50.0220   28.2290 O   0  0  0  0  0
   44.9080   51.0610   30.3910 C   0  0  0  0  0
   43.8930   51.8590   29.8850 O   0  0  0  0  0
   42.7330   52.1990   30.6420 C   0  0  0  0  0
   48.5269   50.5106   33.6235 H   0  0  0  0  0
   48.6460   51.9473   35.6131 H   0  0  0  0  0
   47.0256   52.3448   33.9565 H   0  0  0  0  0
   45.3002   51.9549   34.2010 H   0  0  0  0  0
   49.4575   49.7520   35.4219 H   0  0  0  0  0
   47.8800   49.0628   35.9739 H   0  0  0  0  0
   45.9314   50.7740   36.3513 H   0  0  0  0  0
   47.1459   49.3521   37.9149 H   0  0  0  0  0
   49.5384   52.9168   37.4317 H   0  0  0  0  0
   46.9254   49.5682   41.4318 H   0  0  0  0  0
   46.7912   48.4503   40.0459 H   0  0  0  0  0
   46.6609   49.3636   27.0785 H   0  0  0  0  0
   45.5047   48.1051   27.5790 H   0  0  0  0  0
   45.0612   49.2648   26.3025 H   0  0  0  0  0
   49.0689   51.1391   41.3132 H   0  0  0  0  0
   50.0151   52.9199   39.8722 H   0  0  0  0  0
   46.4112   52.7966   37.4587 H   0  0  0  0  0
   46.8793   53.5290   36.0369 H   0  0  0  0  0
   45.2917   53.0722   36.2555 H   0  0  0  0  0
   45.8157   49.5383   34.1094 H   0  0  0  0  0
   44.8491   51.9009   32.3756 H   0  0  0  0  0
   49.1207   49.2336   31.6297 H   0  0  0  0  0
   48.2448   47.7129   31.3860 H   0  0  0  0  0
   47.2683   47.8489   33.6262 H   0  0  0  0  0
   49.0288   48.0501   33.7679 H   0  0  0  0  0
   47.0726   48.6063   29.4157 H   0  0  0  0  0
   42.2030   51.2883   30.9211 H   0  0  0  0  0
   43.0325   52.7368   31.5416 H   0  0  0  0  0
   42.0801   52.8308   30.0399 H   0  0  0  0  0
  1  4  1  0  0  0
 18  1  1  0  0  0
  1 22  1  0  0  0
  4  2  1  0  0  0
  6  2  1  0  0  0
  2  7  1  0  0  0
  3  6  1  0  0  0
 18  3  1  0  0  0
 19  5  4  0  0  0
  5 21  1  0  0  0
  5 23  4  0  0  0
  6 17  1  0  0  0
  7  9  4  0  0  0
  7 10  4  0  0  0
 23  8  4  0  0  0
  8 24  1  0  0  0
  8 25  4  0  0  0
  9 14  4  0  0  0
 10 16  4  0  0  0
 11 13  1  0  0  0
 14 11  1  0  0  0
 24 12  1  0  0  0
 14 15  4  0  0  0
 16 15  4  0  0  0
 18 19  1  0  0  0
 19 20  4  0  0  0
 20 25  4  0  0  0
 21 22  1  0  0  0
 25 26  1  0  0  0
 26 27  1  0  0  0
  1 28  1  0  0  0
  2 29  1  0  0  0
  3 30  1  0  0  0
  3 31  1  0  0  0
  4 32  1  0  0  0
  4 33  1  0  0  0
  6 34  1  0  0  0
  9 35  1  0  0  0
 10 36  1  0  0  0
 11 37  1  0  0  0
 11 38  1  0  0  0
 12 39  1  0  0  0
 12 40  1  0  0  0
 12 41  1  0  0  0
 15 42  1  0  0  0
 16 43  1  0  0  0
 17 44  1  0  0  0
 17 45  1  0  0  0
 17 46  1  0  0  0
 18 47  1  0  0  0
 20 48  1  0  0  0
 21 49  1  0  0  0
 21 50  1  0  0  0
 22 51  1  0  0  0
 22 52  1  0  0  0
 23 53  1  0  0  0
 27 54  1  0  0  0
 27 55  1  0  0  0
 27 56  1  0  0  0
M  END
$$$$
