### 
### Created by X-TOOL on Mon Sep 10 21:13:04 2018
### 

@<TRIPOS>MOLECULE
3kwj_ligand
   55    58     1     0     0
SMALL
GAST_HUCK


@<TRIPOS>ATOM
      1 N1         47.9100   49.8050   34.0260 N.4       1 23Q         0.4113
      2 C4         48.0280   51.1810   36.0810 C.3       1 23Q         0.0158
      3 C5         46.3240   51.6280   34.3830 C.3       1 23Q        -0.0161
      4 C6         48.3730   49.8610   35.4190 C.3       1 23Q        -0.0921
      5 C7         47.0000   49.4600   31.3990 C.ar      1 23Q        -0.0638
      6 C8         46.5580   51.5300   35.8780 C.3       1 23Q        -0.0142
      7 C10        48.3150   51.1350   37.5290 C.ar      1 23Q        -0.0433
      8 C13        45.5290   50.1250   29.5460 C.ar      1 23Q         0.1060
      9 C15        47.7730   50.1330   38.3450 C.ar      1 23Q        -0.0563
     10 C22        49.1220   52.1400   38.0730 C.ar      1 23Q        -0.0669
     11 C24        47.4670   49.0860   40.6180 C.3       1 23Q         0.1230
     12 C26        45.6070   49.1350   27.2370 C.3       1 23Q         0.0553
     13 F21        48.4830   48.3120   41.1440 F         1 23Q        -0.2339
     14 C18        48.0430   50.1450   39.7080 C.ar      1 23Q        -0.0193
     15 C25        48.8520   51.1410   40.2450 C.ar      1 23Q        -0.0648
     16 C23        49.3890   52.1410   39.4370 C.ar      1 23Q        -0.0751
     17 N17        46.2630   52.8290   36.4500 N.4       1 23Q         0.2224
     18 C2         46.5410   50.2560   33.7260 C.3       1 23Q        -0.0685
     19 C3         46.3770   50.3840   32.2430 C.ar      1 23Q        -0.0772
     20 C9         45.3370   51.1760   31.7240 C.ar      1 23Q        -0.0477
     21 C16        48.2110   48.6860   31.8760 C.3       1 23Q        -0.0476
     22 C14        48.1100   48.5010   33.3930 C.3       1 23Q        -0.1026
     23 C12        46.5800   49.3310   30.0640 C.ar      1 23Q        -0.0461
     24 O20        45.0710   50.0220   28.2290 O.3       1 23Q        -0.3310
     25 C11        44.9080   51.0610   30.3910 C.ar      1 23Q         0.1060
     26 O19        43.8930   51.8590   29.8850 O.3       1 23Q        -0.3310
     27 C27        42.7330   52.1990   30.6420 C.3       1 23Q         0.0553
     28 H          48.6460   51.9473   35.6131 H         1 23Q         0.0495
     29 H          47.0256   52.3448   33.9565 H         1 23Q         0.0323
     30 H          45.3002   51.9549   34.2010 H         1 23Q         0.0323
     31 H          49.4575   49.7520   35.4219 H         1 23Q         0.0047
     32 H          47.8800   49.0628   35.9739 H         1 23Q         0.0047
     33 H          45.9314   50.7740   36.3513 H         1 23Q         0.0876
     34 H          47.1459   49.3521   37.9149 H         1 23Q         0.0495
     35 H          49.5384   52.9168   37.4317 H         1 23Q         0.0500
     36 H          46.9254   49.5682   41.4318 H         1 23Q         0.0779
     37 H          46.7912   48.4503   40.0459 H         1 23Q         0.0779
     38 H          46.6609   49.3636   27.0785 H         1 23Q         0.0570
     39 H          45.5047   48.1051   27.5790 H         1 23Q         0.0570
     40 H          45.0612   49.2648   26.3025 H         1 23Q         0.0570
     41 H          49.0689   51.1391   41.3132 H         1 23Q         0.0500
     42 H          50.0151   52.9199   39.8722 H         1 23Q         0.0582
     43 H          46.4112   52.7966   37.4587 H         1 23Q         0.1998
     44 H          46.8793   53.5290   36.0369 H         1 23Q         0.1998
     45 H          45.2917   53.0722   36.2555 H         1 23Q         0.1998
     46 H          45.8157   49.5383   34.1094 H         1 23Q         0.0183
     47 H          44.8491   51.9009   32.3756 H         1 23Q         0.0434
     48 H          49.1207   49.2336   31.6297 H         1 23Q         0.0370
     49 H          48.2448   47.7129   31.3860 H         1 23Q         0.0370
     50 H          47.2683   47.8489   33.6262 H         1 23Q         0.0038
     51 H          49.0288   48.0501   33.7679 H         1 23Q         0.0038
     52 H          47.0726   48.6063   29.4157 H         1 23Q         0.0434
     53 H          42.2030   51.2883   30.9211 H         1 23Q         0.0570
     54 H          43.0325   52.7368   31.5416 H         1 23Q         0.0570
     55 H          42.0801   52.8308   30.0399 H         1 23Q         0.0570
@<TRIPOS>BOND
     1    1    4 1  
     2   18    1 1  
     3    1   22 1  
     4    4    2 1  
     5    6    2 1  
     6    2    7 1  
     7    3    6 1  
     8   18    3 1  
     9   19    5 ar 
    10    5   21 1  
    11    5   23 ar 
    12    6   17 1  
    13    7    9 ar 
    14    7   10 ar 
    15   23    8 ar 
    16    8   24 1  
    17    8   25 ar 
    18    9   14 ar 
    19   10   16 ar 
    20   11   13 1  
    21   14   11 1  
    22   24   12 1  
    23   14   15 ar 
    24   16   15 ar 
    25   18   19 1  
    26   19   20 ar 
    27   20   25 ar 
    28   21   22 1  
    29   25   26 1  
    30   26   27 1  
    31    2   28 1  
    32    3   29 1  
    33    3   30 1  
    34    4   31 1  
    35    4   32 1  
    36    6   33 1  
    37    9   34 1  
    38   10   35 1  
    39   11   36 1  
    40   11   37 1  
    41   12   38 1  
    42   12   39 1  
    43   12   40 1  
    44   15   41 1  
    45   16   42 1  
    46   17   43 1  
    47   17   44 1  
    48   17   45 1  
    49   18   46 1  
    50   20   47 1  
    51   21   48 1  
    52   21   49 1  
    53   22   50 1  
    54   22   51 1  
    55   23   52 1  
    56   27   53 1  
    57   27   54 1  
    58   27   55 1  
@<TRIPOS>SUBSTRUCTURE
     1 23Q         1

