6p9e_ligand
  -I-interpret- 

 62 65  0  0  0  0  0  0  0  0999 V2000
  -29.7170    4.7580  -22.8320 C   0  0  0  0  0
  -30.3220    4.5140  -24.0650 C   0  0  0  0  0
  -31.6090    4.9740  -24.3530 C   0  0  0  0  0
  -32.2380    4.6010  -25.6430 C   0  0  0  0  0
  -33.2670    5.3260  -26.2310 C   0  0  0  0  0
  -33.6560    4.9710  -27.5140 C   0  0  0  0  0
  -32.1020    3.3110  -27.5030 C   0  0  0  0  0
  -30.5300    1.5040  -27.5550 C   0  0  0  0  0
  -30.3620    0.1150  -28.4120 C   0  0  0  0  0
  -33.9260   -2.3000  -28.9860 C   0  0  0  0  0
  -28.4900    1.0910  -32.2020 C   0  0  0  0  0
  -32.7000   -2.7460  -29.4390 C   0  0  0  0  0
  -34.0160   -1.0830  -28.3380 C   0  0  0  0  0
  -29.8670    1.0760  -32.0930 C   0  0  0  0  0
  -27.7140    0.7870  -31.1010 C   0  0  0  0  0
  -32.2880    5.6940  -23.3710 C   0  0  0  0  0
  -31.5610   -1.9790  -29.2450 C   0  0  0  0  0
  -32.8800   -0.3090  -28.1450 C   0  0  0  0  0
  -30.4690    0.7780  -30.8800 C   0  0  0  0  0
  -28.3130    0.4560  -29.8940 C   0  0  0  0  0
  -31.7030    5.9360  -22.1390 C   0  0  0  0  0
  -31.6330   -0.7430  -28.6010 C   0  0  0  0  0
  -29.7020    0.4530  -29.7640 C   0  0  0  0  0
  -30.4200    5.4780  -21.8430 C   0  0  0  0  0
  -29.2150    2.2600  -27.4240 C   0  0  0  0  0
  -29.7680    5.8070  -20.5280 C   0  0  0  0  0
  -34.7080    5.7260  -28.2620 C   0  0  0  0  0
  -29.8170   -1.2270  -26.3980 C   0  0  0  0  0
  -31.6640    3.5680  -26.2720 N   0  0  0  0  0
  -33.0630    3.9510  -28.1670 N   0  0  0  0  0
  -28.4220    4.3190  -22.6080 N   0  0  0  0  0
  -28.8980    3.1370  -28.2100 O   0  0  0  0  0
  -28.4820    1.8930  -26.3860 O   0  0  0  0  0
  -31.5380    2.2990  -28.1790 O   0  0  0  0  0
  -29.4010   -0.6660  -27.6570 O   0  0  0  0  0
  -29.7770    3.9505  -24.8223 H   0  0  0  0  0
  -33.7522    6.1461  -25.7018 H   0  0  0  0  0
  -30.8332    1.2626  -26.5362 H   0  0  0  0  0
  -34.8192   -2.9057  -29.1391 H   0  0  0  0  0
  -28.0184    1.3415  -33.1522 H   0  0  0  0  0
  -32.6272   -3.7053  -29.9514 H   0  0  0  0  0
  -34.9820   -0.7296  -27.9773 H   0  0  0  0  0
  -30.4829    1.2994  -32.9642 H   0  0  0  0  0
  -26.6271    0.8071  -31.1804 H   0  0  0  0  0
  -33.2903    6.0706  -23.5750 H   0  0  0  0  0
  -30.5979   -2.3460  -29.5998 H   0  0  0  0  0
  -32.9620    0.6489  -27.6315 H   0  0  0  0  0
  -31.5558    0.7984  -30.7990 H   0  0  0  0  0
  -27.6912    0.1953  -29.0376 H   0  0  0  0  0
  -32.2571    6.4959  -21.3856 H   0  0  0  0  0
  -29.4848    4.8834  -20.0232 H   0  0  0  0  0
  -28.8793    6.4125  -20.7060 H   0  0  0  0  0
  -30.4691    6.3627  -19.9053 H   0  0  0  0  0
  -35.6443    5.6903  -27.7051 H   0  0  0  0  0
  -34.3939    6.7629  -28.3810 H   0  0  0  0  0
  -34.8500    5.2732  -29.2433 H   0  0  0  0  0
  -30.1172   -0.4237  -25.7252 H   0  0  0  0  0
  -30.6592   -1.8993  -26.5618 H   0  0  0  0  0
  -28.9884   -1.7813  -25.9572 H   0  0  0  0  0
  -27.9181    3.8213  -23.3420 H   0  0  0  0  0
  -27.9726    4.4935  -21.7091 H   0  0  0  0  0
  -28.9300    1.1882  -25.9126 H   0  0  0  0  0
  2  1  4  0  0  0
  1 24  4  0  0  0
  1 31  1  0  0  0
  3  2  4  0  0  0
  4  3  1  0  0  0
  3 16  4  0  0  0
  4  5  4  0  0  0
 29  4  4  0  0  0
  6  5  4  0  0  0
  6 27  1  0  0  0
 30  6  4  0  0  0
  7 29  4  0  0  0
  7 30  4  0  0  0
 34  7  1  0  0  0
  9  8  1  0  0  0
  8 25  1  0  0  0
  8 34  1  0  0  0
  9 22  1  0  0  0
 23  9  1  0  0  0
  9 35  1  0  0  0
 12 10  4  0  0  0
 13 10  4  0  0  0
 14 11  4  0  0  0
 11 15  4  0  0  0
 17 12  4  0  0  0
 18 13  4  0  0  0
 19 14  4  0  0  0
 15 20  4  0  0  0
 16 21  4  0  0  0
 22 17  4  0  0  0
 22 18  4  0  0  0
 19 23  4  0  0  0
 20 23  4  0  0  0
 21 24  4  0  0  0
 24 26  1  0  0  0
 25 32  2  0  0  0
 25 33  1  0  0  0
 35 28  1  0  0  0
  2 36  1  0  0  0
  5 37  1  0  0  0
  8 38  1  0  0  0
 10 39  1  0  0  0
 11 40  1  0  0  0
 12 41  1  0  0  0
 13 42  1  0  0  0
 14 43  1  0  0  0
 15 44  1  0  0  0
 16 45  1  0  0  0
 17 46  1  0  0  0
 18 47  1  0  0  0
 19 48  1  0  0  0
 20 49  1  0  0  0
 21 50  1  0  0  0
 26 51  1  0  0  0
 26 52  1  0  0  0
 26 53  1  0  0  0
 27 54  1  0  0  0
 27 55  1  0  0  0
 27 56  1  0  0  0
 28 57  1  0  0  0
 28 58  1  0  0  0
 28 59  1  0  0  0
 31 60  1  0  0  0
 31 61  1  0  0  0
 33 62  1  0  0  0
M  END
$$$$
