### 
### Created by X-TOOL on Mon Aug  2 16:16:00 2021
### 

@<TRIPOS>MOLECULE
6p9e_ligand
   61    64     1     0     0
SMALL
GAST_HUCK


@<TRIPOS>ATOM
      1 C4        -29.7170    4.7580  -22.8320 C.ar      1 O6D         0.0422
      2 C5        -30.3220    4.5140  -24.0650 C.ar      1 O6D        -0.0376
      3 C6        -31.6090    4.9740  -24.3530 C.ar      1 O6D        -0.0163
      4 C7        -32.2380    4.6010  -25.6430 C.ar      1 O6D         0.0412
      5 C8        -33.2670    5.3260  -26.2310 C.ar      1 O6D        -0.0174
      6 C9        -33.6560    4.9710  -27.5140 C.ar      1 O6D         0.0285
      7 C11       -32.1020    3.3110  -27.5030 C.ar      1 O6D         0.2353
      8 C14       -30.5300    1.5040  -27.5550 C.3       1 O6D         0.1372
      9 C15       -30.3620    0.1150  -28.4120 C.3       1 O6D         0.1037
     10 C24       -33.9260   -2.3000  -28.9860 C.ar      1 O6D        -0.0398
     11 C29       -28.4900    1.0910  -32.2020 C.ar      1 O6D        -0.0398
     12 C23       -32.7000   -2.7460  -29.4390 C.ar      1 O6D        -0.0390
     13 C25       -34.0160   -1.0830  -28.3380 C.ar      1 O6D        -0.0390
     14 C28       -29.8670    1.0760  -32.0930 C.ar      1 O6D        -0.0390
     15 C30       -27.7140    0.7870  -31.1010 C.ar      1 O6D        -0.0390
     16 C1        -32.2880    5.6940  -23.3710 C.ar      1 O6D        -0.0674
     17 C22       -31.5610   -1.9790  -29.2450 C.ar      1 O6D        -0.0474
     18 C26       -32.8800   -0.3090  -28.1450 C.ar      1 O6D        -0.0474
     19 C27       -30.4690    0.7780  -30.8800 C.ar      1 O6D        -0.0474
     20 C31       -28.3130    0.4560  -29.8940 C.ar      1 O6D        -0.0474
     21 C2        -31.7030    5.9360  -22.1390 C.ar      1 O6D        -0.0664
     22 C21       -31.6330   -0.7430  -28.6010 C.ar      1 O6D        -0.0395
     23 C20       -29.7020    0.4530  -29.7640 C.ar      1 O6D        -0.0395
     24 C3        -30.4200    5.4780  -21.8430 C.ar      1 O6D        -0.0233
     25 C16       -29.2150    2.2600  -27.4240 C.2       1 O6D         0.0596
     26 C34       -29.7680    5.8070  -20.5280 C.3       1 O6D        -0.0324
     27 C33       -34.7080    5.7260  -28.2620 C.3       1 O6D        -0.0128
     28 C32       -29.8170   -1.2270  -26.3980 C.3       1 O6D         0.0205
     29 N12       -31.6640    3.5680  -26.2720 N.ar      1 O6D        -0.2517
     30 N10       -33.0630    3.9510  -28.1670 N.ar      1 O6D        -0.2474
     31 N35       -28.4220    4.3190  -22.6080 N.pl3     1 O6D        -0.3394
     32 O17       -28.8980    3.1370  -28.2100 O.co2     1 O6D        -0.5670
     33 O18       -28.4820    1.8930  -26.3860 O.co2     1 O6D        -0.5670
     34 O13       -31.5380    2.2990  -28.1790 O.3       1 O6D        -0.2725
     35 O19       -29.4010   -0.6660  -27.6570 O.3       1 O6D        -0.4243
     36 H1        -29.7800    3.9536  -24.8182 H         1 O6D         0.0526
     37 H2        -33.7495    6.1416  -25.7047 H         1 O6D         0.0610
     38 H3        -30.8693    1.2461  -26.5409 H         1 O6D         0.0710
     39 H4        -34.8143   -2.9024  -29.1382 H         1 O6D         0.0805
     40 H5        -28.0210    1.3401  -33.1470 H         1 O6D         0.0805
     41 H6        -32.6276   -3.7000  -29.9486 H         1 O6D         0.0681
     42 H7        -34.9767   -0.7316  -27.9792 H         1 O6D         0.0681
     43 H8        -30.4795    1.2981  -32.9594 H         1 O6D         0.0681
     44 H9        -26.6331    0.8070  -31.1799 H         1 O6D         0.0681
     45 H10       -33.2848    6.0686  -23.5739 H         1 O6D         0.0532
     46 H11       -30.6032   -2.3439  -29.5978 H         1 O6D         0.0796
     47 H12       -32.9615    0.6437  -27.6343 H         1 O6D         0.0796
     48 H13       -31.5498    0.7983  -30.7994 H         1 O6D         0.0796
     49 H14       -27.6946    0.1968  -29.0423 H         1 O6D         0.0796
     50 H15       -32.2540    6.4928  -21.3898 H         1 O6D         0.0534
     51 H16       -28.7658    5.3549  -20.4924 H         1 O6D         0.0375
     52 H17       -30.3797    5.4079  -19.7054 H         1 O6D         0.0375
     53 H18       -29.6816    6.8987  -20.4245 H         1 O6D         0.0375
     54 H19       -34.8522    5.2699  -29.2525 H         1 O6D         0.0441
     55 H20       -34.3922    6.7727  -28.3828 H         1 O6D         0.0441
     56 H21       -35.6535    5.6907  -27.7010 H         1 O6D         0.0441
     57 H22       -28.9816   -1.7867  -25.9521 H         1 O6D         0.0507
     58 H23       -30.6669   -1.9058  -26.5619 H         1 O6D         0.0507
     59 H24       -30.1202   -0.4173  -25.7180 H         1 O6D         0.0507
     60 H25       -27.9221    3.7945  -23.3401 H         1 O6D         0.1697
     61 H26       -27.9592    4.5171  -21.7094 H         1 O6D         0.1697
@<TRIPOS>BOND
     1    2    1 ar 
     2    1   24 ar 
     3    1   31 1  
     4    3    2 ar 
     5    4    3 1  
     6    3   16 ar 
     7    4    5 ar 
     8   29    4 ar 
     9    6    5 ar 
    10    6   27 1  
    11   30    6 ar 
    12    7   29 ar 
    13    7   30 ar 
    14   34    7 1  
    15    9    8 1  
    16    8   25 1  
    17    8   34 1  
    18    9   22 1  
    19   23    9 1  
    20    9   35 1  
    21   12   10 ar 
    22   13   10 ar 
    23   14   11 ar 
    24   11   15 ar 
    25   17   12 ar 
    26   18   13 ar 
    27   19   14 ar 
    28   15   20 ar 
    29   16   21 ar 
    30   22   17 ar 
    31   22   18 ar 
    32   19   23 ar 
    33   20   23 ar 
    34   21   24 ar 
    35   24   26 1  
    36   25   32 ar 
    37   25   33 ar 
    38   35   28 1  
    39    2   36 1  
    40    5   37 1  
    41    8   38 1  
    42   10   39 1  
    43   11   40 1  
    44   12   41 1  
    45   13   42 1  
    46   14   43 1  
    47   15   44 1  
    48   16   45 1  
    49   17   46 1  
    50   18   47 1  
    51   19   48 1  
    52   20   49 1  
    53   21   50 1  
    54   26   51 1  
    55   26   52 1  
    56   26   53 1  
    57   27   54 1  
    58   27   55 1  
    59   27   56 1  
    60   28   57 1  
    61   28   58 1  
    62   28   59 1  
    63   31   60 1  
    64   31   61 1  
@<TRIPOS>SUBSTRUCTURE
     1 O6D         1

