4a23_ligand
  -I-interpret- 

 33 33  0  0  0  0  0  0  0  0999 V2000
   29.9990   21.3310   10.5810 O   0  0  0  0  0
   30.7600   22.2710   10.7700 C   0  0  0  0  0
   31.8940   22.4740    9.7840 C   0  0  0  0  0
   32.9430   23.3900    9.9280 C   0  0  0  0  0
   33.0660   24.2280   11.0080 O   0  0  0  0  0
   34.3360   24.8490   11.2090 C   0  0  0  0  0
   33.9350   23.4990    8.9600 C   0  0  0  0  0
   33.9180   22.6940    7.8400 C   0  0  0  0  0
   34.9470   22.8820    6.8950 N   0  0  0  0  0
   36.1440   23.6680    7.1720 C   0  0  0  0  0
   34.9270   22.3110    5.5600 C   0  0  0  0  0
   32.8670   21.7900    7.6960 C   0  0  0  0  0
   32.7390   20.9330    6.6100 N   0  0  0  0  0
   33.4540   19.7460    6.6660 O   0  0  0  0  0
   31.9840   21.2190    5.6980 O   0  0  0  0  0
   31.8760   21.6810    8.6540 C   0  0  0  0  0
   30.5640   23.0840   11.8150 N   0  0  0  0  0
   29.4630   22.8650   12.7470 C   0  0  0  0  0
   35.0969   24.0808   11.3468 H   0  0  0  0  0
   34.5841   25.4559   10.3382 H   0  0  0  0  0
   34.2930   25.4827   12.0948 H   0  0  0  0  0
   34.7348   24.2285    9.0875 H   0  0  0  0  0
   35.8572   24.6915    7.4134 H   0  0  0  0  0
   36.6774   23.2302    8.0157 H   0  0  0  0  0
   36.7888   23.6676    6.2932 H   0  0  0  0  0
   34.8796   21.2244    5.6316 H   0  0  0  0  0
   34.0537   22.6793    5.0217 H   0  0  0  0  0
   35.8327   22.6022    5.0281 H   0  0  0  0  0
   31.0704   20.9599    8.5153 H   0  0  0  0  0
   31.1959   23.8710   11.9625 H   0  0  0  0  0
   28.5170   22.9148   12.2079 H   0  0  0  0  0
   29.5687   21.8829   13.2079 H   0  0  0  0  0
   29.4837   23.6342   13.5190 H   0  0  0  0  0
  1  2  2  0  0  0
  2  3  1  0  0  0
  2 17  1  0  0  0
  3  4  4  0  0  0
  3 16  4  0  0  0
  4  5  1  0  0  0
  4  7  4  0  0  0
  5  6  1  0  0  0
  7  8  4  0  0  0
  8  9  1  0  0  0
  8 12  4  0  0  0
  9 10  1  0  0  0
  9 11  1  0  0  0
 12 13  1  0  0  0
 12 16  4  0  0  0
 13 14  2  0  0  0
 13 15  2  0  0  0
 17 18  1  0  0  0
  6 19  1  0  0  0
  6 20  1  0  0  0
  6 21  1  0  0  0
  7 22  1  0  0  0
 10 23  1  0  0  0
 10 24  1  0  0  0
 10 25  1  0  0  0
 11 26  1  0  0  0
 11 27  1  0  0  0
 11 28  1  0  0  0
 16 29  1  0  0  0
 17 30  1  0  0  0
 18 31  1  0  0  0
 18 32  1  0  0  0
 18 33  1  0  0  0
M  END
$$$$
