6dd1_ligand
  -I-interpret- 

 25 26  0  0  0  0  0  0  0  0999 V2000
  -13.3180   30.1090   18.1810 C   0  0  0  0  0
  -13.9090   31.2480   17.3420 C   0  0  0  0  0
  -13.1050   32.1190   16.6760 C   0  0  0  0  0
  -13.6960   33.1000   15.9010 C   0  0  0  0  0
  -15.0720   33.2160   15.8130 C   0  0  0  0  0
  -15.8890   32.2990   16.4470 C   0  0  0  0  0
  -17.2790   32.3450   16.3960 C   0  0  0  0  0
  -18.0410   31.4390   17.1040 C   0  0  0  0  0
  -17.3410   30.4620   17.8210 C   0  0  0  0  0
  -15.3020   31.3440   17.1920 C   0  0  0  0  0
  -16.0570   30.4700   17.8160 N   0  0  0  0  0
  -13.8960   31.1300   20.6940 O   0  0  0  0  0
  -12.0390   31.6020   19.4290 O   0  0  0  0  0
  -12.0950   29.5910   20.3650 O   0  0  0  0  0
  -12.7790   30.6450   19.9210 P   0  0  0  0  0
  -12.4307   29.7474   17.6614 H   0  0  0  0  0
  -14.0946   29.3531   18.2983 H   0  0  0  0  0
  -12.0201   32.0457   16.7512 H   0  0  0  0  0
  -13.0651   33.7960   15.3482 H   0  0  0  0  0
  -15.5130   34.0330   15.2420 H   0  0  0  0  0
  -17.7711   33.1055   15.7898 H   0  0  0  0  0
  -19.1302   31.4817   17.1050 H   0  0  0  0  0
  -17.8824   29.6990   18.3802 H   0  0  0  0  0
  -14.4004   30.3845   21.0279 H   0  0  0  0  0
  -12.7066   28.9357   20.7087 H   0  0  0  0  0
  1  2  1  0  0  0
  1 15  1  0  0  0
  2  3  4  0  0  0
  2 10  4  0  0  0
  3  4  4  0  0  0
  4  5  4  0  0  0
  5  6  4  0  0  0
  6  7  4  0  0  0
  6 10  4  0  0  0
  7  8  4  0  0  0
  8  9  4  0  0  0
  9 11  4  0  0  0
 10 11  4  0  0  0
 15 12  1  0  0  0
 15 13  2  0  0  0
 15 14  1  0  0  0
  1 16  1  0  0  0
  1 17  1  0  0  0
  3 18  1  0  0  0
  4 19  1  0  0  0
  5 20  1  0  0  0
  7 21  1  0  0  0
  8 22  1  0  0  0
  9 23  1  0  0  0
 12 24  1  0  0  0
 14 25  1  0  0  0
M  END
$$$$
