### 
### Created by X-TOOL on Mon Aug  2 16:17:10 2021
### 

@<TRIPOS>MOLECULE
6dd1_ligand
   23    24     1     0     0
SMALL
GAST_HUCK


@<TRIPOS>ATOM
      1 C05       -13.3180   30.1090   18.1810 C.3       1 M3Q         0.0568
      2 C06       -13.9090   31.2480   17.3420 C.ar      1 M3Q        -0.0012
      3 C07       -13.1050   32.1190   16.6760 C.ar      1 M3Q        -0.0540
      4 C08       -13.6960   33.1000   15.9010 C.ar      1 M3Q        -0.0653
      5 C09       -15.0720   33.2160   15.8130 C.ar      1 M3Q        -0.0549
      6 C10       -15.8890   32.2990   16.4470 C.ar      1 M3Q         0.0010
      7 C11       -17.2790   32.3450   16.3960 C.ar      1 M3Q        -0.0372
      8 C12       -18.0410   31.4390   17.1040 C.ar      1 M3Q        -0.0332
      9 C13       -17.3410   30.4620   17.8210 C.ar      1 M3Q         0.0096
     10 C15       -15.3020   31.3440   17.1920 C.ar      1 M3Q         0.0540
     11 N14       -16.0570   30.4700   17.8160 N.ar      1 M3Q        -0.2957
     12 O01       -13.8960   31.1300   20.6940 O.co2     1 M3Q        -0.5606
     13 O03       -12.0390   31.6020   19.4290 O.co2     1 M3Q        -0.5606
     14 O04       -12.0950   29.5910   20.3650 O.co2     1 M3Q        -0.5606
     15 P02       -12.7790   30.6450   19.9210 P.3       1 M3Q         0.0710
     16 H1        -12.4400   29.7081   17.6534 H         1 M3Q         0.0628
     17 H2        -14.0780   29.3200   18.2803 H         1 M3Q         0.0628
     18 H3        -12.0260   32.0461   16.7508 H         1 M3Q         0.0564
     19 H4        -13.0685   33.7922   15.3512 H         1 M3Q         0.0618
     20 H5        -15.5106   34.0285   15.2451 H         1 M3Q         0.0573
     21 H6        -17.7684   33.1013   15.7931 H         1 M3Q         0.0758
     22 H7        -19.1242   31.4815   17.1050 H         1 M3Q         0.0692
     23 H8        -17.8795   29.7032   18.3772 H         1 M3Q         0.0849
@<TRIPOS>BOND
     1    1    2 1  
     2    1   15 1  
     3    2    3 ar 
     4    2   10 ar 
     5    3    4 ar 
     6    4    5 ar 
     7    5    6 ar 
     8    6    7 ar 
     9    6   10 ar 
    10    7    8 ar 
    11    8    9 ar 
    12    9   11 ar 
    13   10   11 ar 
    14   15   12 ar 
    15   15   13 ar 
    16   15   14 ar 
    17    1   16 1  
    18    1   17 1  
    19    3   18 1  
    20    4   19 1  
    21    5   20 1  
    22    7   21 1  
    23    8   22 1  
    24    9   23 1  
@<TRIPOS>SUBSTRUCTURE
     1 M3Q         1

