2vd7_ligand
  -I-interpret- 

 17 17  0  0  0  0  0  0  0  0999 V2000
   26.6950  -22.5790  -25.5080 O   0  0  0  0  0
   26.6720  -21.7280  -24.6190 C   0  0  0  0  0
   27.6840  -21.0530  -24.3600 O   0  0  0  0  0
   25.3860  -21.5660  -23.8820 C   0  0  0  0  0
   24.3490  -22.4500  -24.2020 C   0  0  0  0  0
   23.1370  -22.3500  -23.5400 C   0  0  0  0  0
   25.2130  -20.5830  -22.9020 C   0  0  0  0  0
   23.9550  -20.5410  -22.2800 C   0  0  0  0  0
   22.9650  -21.4140  -22.5980 N   0  0  0  0  0
   23.6310  -19.5380  -21.2330 C   0  0  0  0  0
   22.4740  -19.5600  -20.7670 O   0  0  0  0  0
   24.4830  -18.7240  -20.8790 O   0  0  0  0  0
   27.4864  -20.4436  -23.6450 H   0  0  0  0  0
   24.4946  -23.2122  -24.9674 H   0  0  0  0  0
   22.3235  -23.0327  -23.7855 H   0  0  0  0  0
   26.0101  -19.8886  -22.6362 H   0  0  0  0  0
   21.9775  -20.2705  -21.1796 H   0  0  0  0  0
  1  2  2  0  0  0
  2  3  1  0  0  0
  2  4  1  0  0  0
  4  5  4  0  0  0
  4  7  4  0  0  0
  5  6  4  0  0  0
  6  9  4  0  0  0
  7  8  4  0  0  0
  8  9  4  0  0  0
  8 10  1  0  0  0
 10 11  1  0  0  0
 10 12  2  0  0  0
  3 13  1  0  0  0
  5 14  1  0  0  0
  6 15  1  0  0  0
  7 16  1  0  0  0
 11 17  1  0  0  0
M  END
$$$$
