1hk1_ligand
  -I-interpret- 

 36 37  0  0  0  0  0  0  0  0999 V2000
   -8.8380    0.4350   16.1240 C   0  0  0  0  0
   -8.5030   -0.8960   15.9270 C   0  0  0  0  0
   -8.7710   -1.5650   14.7400 C   0  0  0  0  0
   -9.4150   -0.8670   13.6630 C   0  0  0  0  0
   -9.7690    0.4540   13.8660 C   0  0  0  0  0
   -9.4990    1.1350   15.0750 C   0  0  0  0  0
   -8.4600    1.0780   17.4500 C   0  0  0  0  0
   -6.9520    1.2850   17.7520 C   0  0  0  0  0
   -5.9370    1.2820   16.5510 C   0  0  0  0  0
   -8.5950   -1.3360   11.4930 C   0  0  0  0  0
   -8.9690   -1.2970   10.1510 C   0  0  0  0  0
   -7.9560   -1.1160    9.1870 C   0  0  0  0  0
   -6.5240   -0.9600    9.5080 C   0  0  0  0  0
   -6.2470   -1.0120   10.8780 C   0  0  0  0  0
   -7.2150   -1.1930   11.8700 C   0  0  0  0  0
   -6.7950    2.6050   18.4820 N   0  3  0  0  0
   -9.6400   -1.5140   12.4670 O   0  0  0  0  0
   -5.5950   -0.7910    8.6000 O   0  0  0  0  0
   -5.9910    2.2340   15.7580 O   0  0  0  0  0
   -5.1460    0.3320   16.4750 O   0  0  0  0  0
   -8.1980   -3.5550   14.5810 I   0  0  0  0  0
   -8.5320   -1.0760    7.1830 I   0  0  0  0  0
  -10.7310    1.5180   12.3380 I   0  0  0  0  0
   -4.2520   -0.8100   11.4730 I   0  0  0  0  0
   -8.0106   -1.4378   16.7345 H   0  0  0  0  0
   -9.7916    2.1773   15.2019 H   0  0  0  0  0
   -8.8183    0.3922   18.2177 H   0  0  0  0  0
   -8.8901    2.0791   17.4202 H   0  0  0  0  0
   -6.6835    0.3988   18.3271 H   0  0  0  0  0
  -10.0128   -1.4032    9.8556 H   0  0  0  0  0
   -6.9260   -1.2255   12.9205 H   0  0  0  0  0
   -5.8089    2.7615   18.6908 H   0  0  0  0  0
   -7.1432    3.3614   17.8930 H   0  0  0  0  0
   -7.3276    2.5768   19.3514 H   0  0  0  0  0
   -4.7400   -0.7123    9.0294 H   0  0  0  0  0
   -6.6853    2.8379   16.0316 H   0  0  0  0  0
  2  1  4  0  0  0
  6  1  4  0  0  0
  1  7  1  0  0  0
  3  2  4  0  0  0
  4  3  4  0  0  0
  3 21  1  0  0  0
  4  5  4  0  0  0
 17  4  1  0  0  0
  5  6  4  0  0  0
  5 23  1  0  0  0
  7  8  1  0  0  0
  8  9  1  0  0  0
  8 16  1  0  0  0
  9 19  1  0  0  0
  9 20  2  0  0  0
 10 11  4  0  0  0
 10 15  4  0  0  0
 10 17  1  0  0  0
 11 12  4  0  0  0
 12 13  4  0  0  0
 12 22  1  0  0  0
 13 14  4  0  0  0
 13 18  1  0  0  0
 14 15  4  0  0  0
 14 24  1  0  0  0
  2 25  1  0  0  0
  6 26  1  0  0  0
  7 27  1  0  0  0
  7 28  1  0  0  0
  8 29  1  0  0  0
 11 30  1  0  0  0
 15 31  1  0  0  0
 16 32  1  0  0  0
 16 33  1  0  0  0
 16 34  1  0  0  0
 18 35  1  0  0  0
 19 36  1  0  0  0
M  END
$$$$
