3r4p_ligand
  -I-interpret- 

 53 56  0  0  0  0  0  0  0  0999 V2000
   13.7980   -1.0690   51.6670 C   0  0  0  0  0
   17.6490   -7.7760   54.3260 F   0  0  0  0  0
   16.3200   -4.7780   51.5020 N   0  0  0  0  0
   15.1890   -6.4590   52.6080 O   0  0  0  0  0
   12.8200   -0.7640   49.0780 Cl  0  0  0  0  0
   13.5680   -1.1720   53.0990 C   0  0  0  0  0
   19.3610   -8.2000   53.0490 F   0  0  0  0  0
   17.6520   -1.7480   49.9190 N   0  0  0  0  0
   14.7180   -1.2760   53.8670 O   0  0  0  0  0
    9.5430   -1.0160   53.3530 Cl  0  0  0  0  0
   12.2350   -1.1500   53.6100 C   0  0  0  0  0
   15.7850   -0.2460   50.4390 N   0  0  0  0  0
   11.1440   -1.0160   52.7260 C   0  0  0  0  0
   17.6880    0.5230   49.2410 N   0  0  0  0  0
   11.3450   -0.8830   51.3330 C   0  0  0  0  0
   17.2390   -6.9460   51.6660 N   0  0  0  0  0
   12.6590   -0.8990   50.8040 C   0  0  0  0  0
   16.9330   -2.3940   55.2400 N   0  0  0  0  0
   15.7320   -2.5560   51.1490 C   0  0  0  0  0
   16.7850   -3.6990   55.5360 N   0  0  0  0  0
   15.2560   -3.8190   51.7680 C   0  0  0  0  0
   17.4340   -4.1620   50.7390 C   0  0  0  0  0
   16.9730   -2.7310   50.5580 C   0  0  0  0  0
   17.0290   -0.5120   49.8800 C   0  0  0  0  0
   15.1460   -1.2730   51.0700 C   0  0  0  0  0
   16.1870   -6.0880   51.9660 C   0  0  0  0  0
   14.6380   -1.3760   55.2950 C   0  0  0  0  0
   16.0590   -1.4160   55.8500 C   0  0  0  0  0
   17.9490   -2.1400   54.3610 C   0  0  0  0  0
   18.4970   -3.3580   54.0640 C   0  0  0  0  0
   17.7430   -4.2820   54.8130 C   0  0  0  0  0
   17.2240   -8.3480   52.0910 C   0  0  0  0  0
   18.0880   -8.5660   53.3150 C   0  0  0  0  0
   18.0770  -10.0030   53.7890 C   0  0  0  0  0
   12.0605   -1.2367   54.6824 H   0  0  0  0  0
   18.6022    0.3617   48.8184 H   0  0  0  0  0
   17.2597    1.4474   49.1925 H   0  0  0  0  0
   10.4899   -0.7683   50.6668 H   0  0  0  0  0
   18.0376   -6.5922   51.1392 H   0  0  0  0  0
   14.3209   -3.9901   52.3014 H   0  0  0  0  0
   18.3578   -4.6260   50.3935 H   0  0  0  0  0
   14.0994   -2.2804   55.5779 H   0  0  0  0  0
   14.1008   -0.5190   55.7013 H   0  0  0  0  0
   16.4988   -0.4383   55.6532 H   0  0  0  0  0
   15.9756   -1.6853   56.9029 H   0  0  0  0  0
   18.2584   -1.1682   53.9764 H   0  0  0  0  0
   19.3323   -3.5669   53.3956 H   0  0  0  0  0
   17.9226   -5.3571   54.8032 H   0  0  0  0  0
   17.6161   -8.9594   51.2782 H   0  0  0  0  0
   16.1987   -8.6227   52.3387 H   0  0  0  0  0
   18.4892  -10.6444   53.0100 H   0  0  0  0  0
   18.6816  -10.0911   54.6917 H   0  0  0  0  0
   17.0523  -10.3050   54.0055 H   0  0  0  0  0
  1  6  4  0  0  0
  1 17  4  0  0  0
 25  1  1  0  0  0
 33  2  1  0  0  0
  3 21  4  0  0  0
  3 22  4  0  0  0
 26  3  1  0  0  0
 26  4  2  0  0  0
 17  5  1  0  0  0
  6  9  1  0  0  0
  6 11  4  0  0  0
 33  7  1  0  0  0
 23  8  4  0  0  0
  8 24  4  0  0  0
  9 27  1  0  0  0
 13 10  1  0  0  0
 11 13  4  0  0  0
 24 12  4  0  0  0
 25 12  4  0  0  0
 15 13  4  0  0  0
 24 14  1  0  0  0
 17 15  4  0  0  0
 16 26  1  0  0  0
 32 16  1  0  0  0
 18 20  4  0  0  0
 28 18  1  0  0  0
 18 29  4  0  0  0
 21 19  4  0  0  0
 23 19  4  0  0  0
 19 25  4  0  0  0
 20 31  4  0  0  0
 22 23  4  0  0  0
 27 28  1  0  0  0
 29 30  4  0  0  0
 30 31  4  0  0  0
 32 33  1  0  0  0
 33 34  1  0  0  0
 11 35  1  0  0  0
 14 36  1  0  0  0
 14 37  1  0  0  0
 15 38  1  0  0  0
 16 39  1  0  0  0
 21 40  1  0  0  0
 22 41  1  0  0  0
 27 42  1  0  0  0
 27 43  1  0  0  0
 28 44  1  0  0  0
 28 45  1  0  0  0
 29 46  1  0  0  0
 30 47  1  0  0  0
 31 48  1  0  0  0
 32 49  1  0  0  0
 32 50  1  0  0  0
 34 51  1  0  0  0
 34 52  1  0  0  0
 34 53  1  0  0  0
M  END
$$$$
