4yrd_ligand
  -I-interpret- 

 22 22  0  0  0  0  0  0  0  0999 V2000
   21.5210    6.6420  -33.5670 C   0  0  0  0  0
   22.0940    7.1440  -34.9320 C   0  0  0  0  0
   23.4160    7.8560  -34.7700 C   0  0  0  0  0
   21.5090    6.8800  -36.2270 C   0  0  0  0  0
   22.1470    7.3740  -37.3860 C   0  0  0  0  0
   21.7630    7.2470  -38.7200 C   0  0  0  0  0
   20.6540    6.6020  -39.2880 C   0  0  0  0  0
   19.5840    5.9500  -38.6770 C   0  0  0  0  0
   19.4490    5.7060  -37.3260 C   0  0  0  0  0
   18.4300    5.1060  -36.9750 O   0  0  0  0  0
   20.3170    6.1160  -36.2940 C   0  0  0  0  0
   19.8940    5.6730  -35.1270 O   0  0  0  0  0
   20.5145    7.0371  -33.4296 H   0  0  0  0  0
   21.4882    5.5525  -33.5668 H   0  0  0  0  0
   22.1622    6.9876  -32.7561 H   0  0  0  0  0
   24.1975    7.2878  -35.2745 H   0  0  0  0  0
   23.3474    8.8512  -35.2093 H   0  0  0  0  0
   23.6539    7.9411  -33.7097 H   0  0  0  0  0
   23.0673    7.9320  -37.2135 H   0  0  0  0  0
   22.4311    7.7252  -39.4363 H   0  0  0  0  0
   20.6244    6.6123  -40.3776 H   0  0  0  0  0
   18.7807    5.6012  -39.3260 H   0  0  0  0  0
  1  2  1  0  0  0
  2  3  1  0  0  0
  2  4  2  0  0  0
  4  5  1  0  0  0
  4 11  1  0  0  0
  5  6  2  0  0  0
  6  7  1  0  0  0
  7  8  2  0  0  0
  8  9  1  0  0  0
  9 10  2  0  0  0
  9 11  1  0  0  0
 11 12  2  0  0  0
  1 13  1  0  0  0
  1 14  1  0  0  0
  1 15  1  0  0  0
  3 16  1  0  0  0
  3 17  1  0  0  0
  3 18  1  0  0  0
  5 19  1  0  0  0
  6 20  1  0  0  0
  7 21  1  0  0  0
  8 22  1  0  0  0
M  END
$$$$
