1w11_ligand
  -I-interpret- 

 59 60  0  0  0  0  0  0  0  0999 V2000
   28.4620    8.1490   29.6750 N   0  0  0  0  0
   34.2760    4.7210   26.7910 N   0  0  0  0  0
   33.1130    4.2970   27.3250 C   0  0  0  0  0
   33.0430    2.9720   27.5180 N   0  0  0  0  0
   32.0250    5.1160   27.6680 C   0  0  0  0  0
   31.9470    6.4710   27.3000 C   0  0  0  0  0
   30.7480    7.1680   27.5350 C   0  0  0  0  0
   29.6660    6.5930   28.2340 C   0  0  0  0  0
   29.8080    5.2800   28.6940 C   0  0  0  0  0
   30.9620    4.5500   28.4020 C   0  0  0  0  0
   28.3800    7.3430   28.4950 C   0  0  0  0  0
   28.8020    9.4820   29.6000 C   0  0  0  0  0
   29.0000   10.0970   28.5810 O   0  0  0  0  0
   28.9360   10.1550   30.9410 C   0  0  0  0  0
   29.9270   11.1780   30.9750 N   0  0  0  0  0
   31.2390   10.8040   30.7810 C   0  0  0  0  0
   31.5510    9.6390   30.6300 O   0  0  0  0  0
   32.2790   11.9060   30.7370 C   0  0  0  0  0
   33.0280   12.0850   32.0660 C   0  0  0  0  0
   32.0730   12.0210   33.0980 O   0  0  0  0  0
   33.3060   11.6510   29.7850 N   0  0  0  0  0
   33.2070   11.7830   28.1520 S   0  0  0  0  0
   34.5830   11.5010   27.7120 O   0  0  0  0  0
   32.7600   13.1350   27.9210 O   0  0  0  0  0
   31.9210   10.6550   27.5940 C   0  0  0  0  0
   31.8740   10.9070   26.1030 C   0  0  0  0  0
   32.5730   10.0880   25.2100 C   0  0  0  0  0
   32.6790   10.5110   23.8830 C   0  0  0  0  0
   32.1010   11.7150   23.4590 C   0  0  0  0  0
   31.3260   12.4830   24.3410 C   0  0  0  0  0
   31.1300   12.0100   25.6470 C   0  0  0  0  0
   27.6060   10.7720   31.3850 C   0  0  0  0  0
   28.2659    7.7305   30.5843 H   0  0  0  0  0
   35.0107    4.0489   26.5700 H   0  0  0  0  0
   34.4212    5.7139   26.6080 H   0  0  0  0  0
   32.1991    2.5582   27.9142 H   0  0  0  0  0
   32.7996    6.9718   26.8413 H   0  0  0  0  0
   30.6516    8.1883   27.1639 H   0  0  0  0  0
   29.0131    4.8237   29.2840 H   0  0  0  0  0
   31.0430    3.5199   28.7490 H   0  0  0  0  0
   28.1886    7.9990   27.6458 H   0  0  0  0  0
   27.5815    6.6141   28.6339 H   0  0  0  0  0
   29.2443    9.3605   31.6206 H   0  0  0  0  0
   29.6743   12.1528   31.1372 H   0  0  0  0  0
   31.6934   12.7900   30.4846 H   0  0  0  0  0
   33.5487   13.0424   32.0856 H   0  0  0  0  0
   33.7783   11.3042   32.1903 H   0  0  0  0  0
   32.5112   12.1299   33.9452 H   0  0  0  0  0
   34.2061   11.3522   30.1604 H   0  0  0  0  0
   30.9629   10.8302   28.0833 H   0  0  0  0  0
   32.1340    9.6149   27.8409 H   0  0  0  0  0
   33.0205    9.1501   25.5390 H   0  0  0  0  0
   33.2203    9.8943   23.1655 H   0  0  0  0  0
   32.2547   12.0576   22.4357 H   0  0  0  0  0
   30.8858   13.4266   24.0185 H   0  0  0  0  0
   30.4066   12.4936   26.3034 H   0  0  0  0  0
   27.2887   11.5141   30.6524 H   0  0  0  0  0
   26.8513    9.9892   31.4614 H   0  0  0  0  0
   27.7350   11.2502   32.3560 H   0  0  0  0  0
 11  1  1  0  0  0
  1 12  1  0  0  0
  3  2  1  0  0  0
  3  4  2  0  0  0
  5  3  1  0  0  0
  6  5  4  0  0  0
  5 10  4  0  0  0
  7  6  4  0  0  0
  8  7  4  0  0  0
  8  9  4  0  0  0
  8 11  1  0  0  0
  9 10  4  0  0  0
 12 13  2  0  0  0
 12 14  1  0  0  0
 14 15  1  0  0  0
 14 32  1  0  0  0
 15 16  1  0  0  0
 16 17  2  0  0  0
 16 18  1  0  0  0
 18 19  1  0  0  0
 18 21  1  0  0  0
 19 20  1  0  0  0
 21 22  1  0  0  0
 22 23  2  0  0  0
 22 24  2  0  0  0
 22 25  1  0  0  0
 25 26  1  0  0  0
 26 27  4  0  0  0
 26 31  4  0  0  0
 27 28  4  0  0  0
 28 29  4  0  0  0
 29 30  4  0  0  0
 30 31  4  0  0  0
  1 33  1  0  0  0
  2 34  1  0  0  0
  2 35  1  0  0  0
  4 36  1  0  0  0
  6 37  1  0  0  0
  7 38  1  0  0  0
  9 39  1  0  0  0
 10 40  1  0  0  0
 11 41  1  0  0  0
 11 42  1  0  0  0
 14 43  1  0  0  0
 15 44  1  0  0  0
 18 45  1  0  0  0
 19 46  1  0  0  0
 19 47  1  0  0  0
 20 48  1  0  0  0
 21 49  1  0  0  0
 25 50  1  0  0  0
 25 51  1  0  0  0
 27 52  1  0  0  0
 28 53  1  0  0  0
 29 54  1  0  0  0
 30 55  1  0  0  0
 31 56  1  0  0  0
 32 57  1  0  0  0
 32 58  1  0  0  0
 32 59  1  0  0  0
M  END
$$$$
