### 
### Created by X-TOOL on Mon Sep 10 21:13:33 2018
### 

@<TRIPOS>MOLECULE
5vwi_ligand
  125   127     1     0     0
SMALL
GAST_HUCK


@<TRIPOS>ATOM
      1 N          13.7400   -6.1010   43.3870 N.4       1 PRO         0.2461
      2 CA         12.9740   -4.9160   42.9910 C.3       1 PRO         0.0669
      3 C          12.5510   -4.9590   41.5180 C.2       1 PRO         0.2268
      4 O          13.2990   -5.4660   40.6820 O.2       1 PRO        -0.3907
      5 CB         13.9540   -3.7560   43.2480 C.3       1 PRO         0.0127
      6 CG         15.1880   -4.3690   43.8930 C.3       1 PRO        -0.0053
      7 CD         14.8410   -5.7570   44.2990 C.3       1 PRO        -0.0313
      8 N          11.3620   -4.4410   41.2210 N.am      1 ALA        -0.2613
      9 CA         10.7860   -4.5120   39.8890 C.3       1 ALA         0.1283
     10 C          10.2020   -3.1650   39.4870 C.2       1 ALA         0.2037
     11 O           9.6540   -2.4470   40.3230 O.2       1 ALA        -0.3944
     12 CB          9.7090   -5.5690   39.8360 C.3       1 ALA        -0.0244
     13 N          10.3530   -2.8170   38.2130 N.am      1 TRP        -0.2627
     14 CA          9.7860   -1.6090   37.6360 C.3       1 TRP         0.1352
     15 C           8.8950   -1.9880   36.4580 C.2       1 TRP         0.2052
     16 O           9.3490   -2.6580   35.5320 O.2       1 TRP        -0.3942
     17 CB         10.8930   -0.6550   37.1600 C.3       1 TRP         0.0042
     18 CG         11.7680   -0.1290   38.2170 C.2       1 TRP        -0.0418
     19 CD1        11.6390    1.0450   38.8590 C.2       1 TRP         0.0167
     20 CD2        12.9370   -0.7580   38.7500 C.ar      1 TRP        -0.0214
     21 NE1        12.6500    1.1990   39.7910 N.pl3     1 TRP        -0.2890
     22 CE2        13.4700    0.1060   39.7280 C.ar      1 TRP         0.0603
     23 CE3        13.5870   -1.9620   38.4900 C.ar      1 TRP        -0.0747
     24 CZ2        14.6220   -0.2060   40.4570 C.ar      1 TRP        -0.0443
     25 CZ3        14.7360   -2.2660   39.2140 C.ar      1 TRP        -0.0792
     26 CH2        15.2340   -1.3940   40.1850 C.ar      1 TRP        -0.0768
     27 N           7.6380   -1.5460   36.4910 N.am      1 ASP        -0.2621
     28 CA          6.7510   -1.6660   35.3380 C.3       1 ASP         0.1423
     29 C           7.3740   -1.0220   34.1080 C.2       1 ASP         0.2056
     30 O           7.8740    0.1020   34.1470 O.2       1 ASP        -0.3943
     31 CB          5.4020   -1.0010   35.6050 C.3       1 ASP         0.0406
     32 CG          4.5450   -1.7570   36.6070 C.2       1 ASP         0.0393
     33 OD1         4.8860   -2.9010   36.9850 O.co2     1 ASP        -0.5688
     34 OD2         3.5210   -1.1800   37.0240 O.co2     1 ASP        -0.5688
     35 N           7.2890   -1.7250   33.0020 N.am      1 GLU        -0.2635
     36 CA          7.7840   -1.2500   31.7190 C.3       1 GLU         0.1325
     37 C           6.6020   -1.1210   30.7770 C.2       1 GLU         0.2041
     38 O           5.8480   -2.0790   30.5980 O.2       1 GLU        -0.3944
     39 CB          8.8250   -2.2240   31.2030 C.3       1 GLU        -0.0008
     40 CG          9.4600   -1.9400   29.9170 C.3       1 GLU         0.0044
     41 CD         10.6300   -2.8570   29.6760 C.2       1 GLU         0.0350
     42 OE1        11.7210   -2.3520   29.4010 O.co2     1 GLU        -0.5690
     43 OE2        10.4570   -4.0920   29.7520 O.co2     1 GLU        -0.5690
     44 N           6.4200    0.0740   30.2110 N.am      1 THR        -0.2613
     45 CA          5.2890    0.3860   29.3280 C.3       1 THR         0.1565
     46 C           5.7820    0.4280   27.8880 C.2       1 THR         0.2066
     47 O           6.6690    1.2100   27.5600 O.2       1 THR        -0.3943
     48 CB          4.6320    1.7080   29.7000 C.3       1 THR         0.0924
     49 OG1         4.1110    1.6380   31.0260 O.3       1 THR        -0.3874
     50 CG2         3.4680    2.0100   28.7600 C.3       1 THR        -0.0346
     51 N           5.1910   -0.3950   27.0280 N.am      1 ASN        -0.2615
     52 CA          5.6310   -0.5400   25.6420 C.3       1 ASN         0.1475
     53 C           4.7880    0.3740   24.7680 C.2       1 ASN         0.2057
     54 O           3.5620    0.3800   24.8820 O.2       1 ASN        -0.3942
     55 CB          5.5010   -1.9940   25.1900 C.3       1 ASN         0.0773
     56 CG          6.2150   -2.9590   26.1300 C.2       1 ASN         0.1780
     57 OD1         7.3830   -2.7620   26.4670 O.2       1 ASN        -0.3970
     58 ND2         5.5020   -3.9780   26.5870 N.am      1 ASN        -0.3007
     59 N           5.4370    1.1310   23.8960 N.am      1 LEU        -0.2693
     60 CA          4.7450    2.1550   23.1230 C.3       1 LEU         0.0946
     61 C           5.1320    2.1010   21.6740 C.2       1 LEU         0.0601
     62 O           6.1320    1.4700   21.3310 O.co2     1 LEU        -0.5666
     63 CB          5.0620    3.5450   23.6740 C.3       1 LEU        -0.0156
     64 CG          4.6380    3.7690   25.1110 C.3       1 LEU        -0.0431
     65 CD1         5.1060    5.1400   25.5540 C.3       1 LEU        -0.0625
     66 CD2         3.1240    3.6330   25.2580 C.3       1 LEU        -0.0625
     67 OXT         4.4710    2.7020   20.8250 O.co2     1 LEU        -0.5666
     68 H1         14.1231   -6.5335   42.5610 H         1 PRO         0.2035
     69 H2         13.1226   -6.7493   43.8502 H         1 PRO         0.2035
     70 H3         12.0758   -4.8127   43.6175 H         1 PRO         0.1099
     71 H4         13.4993   -3.0168   43.9239 H         1 PRO         0.0347
     72 H5         14.2233   -3.2686   42.2994 H         1 PRO         0.0347
     73 H6         15.4804   -3.7820   44.7761 H         1 PRO         0.0320
     74 H7         16.0188   -4.3857   43.1723 H         1 PRO         0.0320
     75 H8         15.6960   -6.4351   44.1606 H         1 PRO         0.0814
     76 H9         14.5115   -5.7917   45.3479 H         1 PRO         0.0814
     77 H10        10.8437   -3.9842   41.9440 H         1 ALA         0.1884
     78 H11        11.5804   -4.7799   39.1769 H         1 ALA         0.0797
     79 H12         9.2844   -5.6092   38.8221 H         1 ALA         0.0277
     80 H13         8.9156   -5.3205   40.5562 H         1 ALA         0.0277
     81 H14        10.1425   -6.5473   40.0910 H         1 ALA         0.0277
     82 H15        10.8860   -3.4193   37.6187 H         1 TRP         0.1884
     83 H16         9.1802   -1.0985   38.3991 H         1 TRP         0.0815
     84 H17        10.4132    0.1993   36.6600 H         1 TRP         0.0397
     85 H18        11.5211   -1.1971   36.4378 H         1 TRP         0.0397
     86 H19        10.8502    1.7721   38.6720 H         1 TRP         0.0795
     87 H20        12.7657    2.0019   40.4257 H         1 TRP         0.2216
     88 H21        13.2066   -2.6468   37.7407 H         1 TRP         0.0540
     89 H22        15.0131    0.4700   41.2088 H         1 TRP         0.0541
     90 H23        15.2548   -3.1979   39.0206 H         1 TRP         0.0510
     91 H24        16.1272   -1.6678   40.7348 H         1 TRP         0.0530
     92 H25         7.2934   -1.1208   37.3280 H         1 ASP         0.1884
     93 H26         6.5863   -2.7347   35.1365 H         1 ASP         0.0819
     94 H27         4.8515   -0.9350   34.6550 H         1 ASP         0.0478
     95 H28         5.5833    0.0115   35.9949 H         1 ASP         0.0478
     96 H29         6.8641   -2.6293   33.0436 H         1 GLU         0.1883
     97 H30         8.2521   -0.2625   31.8446 H         1 GLU         0.0801
     98 H31         8.3377   -3.2063   31.1161 H         1 GLU         0.0330
     99 H32         9.6244   -2.2766   31.9568 H         1 GLU         0.0330
    100 H33         9.8132   -0.8983   29.9130 H         1 GLU         0.0433
    101 H34         8.7222   -2.0801   29.1132 H         1 GLU         0.0433
    102 H35         7.0884    0.7940   30.3979 H         1 THR         0.1884
    103 H36         4.5384   -0.4124   29.4240 H         1 THR         0.0826
    104 H37         5.3782    2.5136   29.6356 H         1 THR         0.0639
    105 H38         3.7034    2.4666   31.2490 H         1 THR         0.2101
    106 H39         3.0065    2.9673   29.0438 H         1 THR         0.0257
    107 H40         2.7201    1.2067   28.8326 H         1 THR         0.0257
    108 H41         3.8385    2.0738   27.7263 H         1 THR         0.0257
    109 H42         4.4124   -0.9379   27.3426 H         1 ASN         0.1885
    110 H43         6.6862   -0.2391   25.5647 H         1 ASN         0.0826
    111 H44         5.9368   -2.0921   24.1848 H         1 ASN         0.0551
    112 H45         4.4341   -2.2593   25.1546 H         1 ASN         0.0551
    113 H46         5.9196   -4.6422   27.2070 H         1 ASN         0.1814
    114 H47         4.5463   -4.0828   26.3119 H         1 ASN         0.1814
    115 H48         6.4195    0.9976   23.7656 H         1 LEU         0.1875
    116 H49         3.6623    1.9790   23.2048 H         1 LEU         0.0726
    117 H50         4.5486    4.2878   23.0457 H         1 LEU         0.0308
    118 H51         6.1492    3.6991   23.6098 H         1 LEU         0.0308
    119 H52         5.1180    3.0091   25.7451 H         1 LEU         0.0297
    120 H53         4.8024    5.3117   26.5972 H         1 LEU         0.0232
    121 H54         4.6536    5.9079   24.9094 H         1 LEU         0.0232
    122 H55         6.2019    5.1959   25.4772 H         1 LEU         0.0232
    123 H56         2.8124    2.6303   24.9300 H         1 LEU         0.0232
    124 H57         2.6257    4.3929   24.6381 H         1 LEU         0.0232
    125 H58         2.8434    3.7777   26.3117 H         1 LEU         0.0232
@<TRIPOS>BOND
     1    1    2 1  
     2    1    7 1  
     3    2    3 1  
     4    2    5 1  
     5    3    4 2  
     6    3    8 am 
     7    5    6 1  
     8    6    7 1  
     9    8    9 1  
    10    9   10 1  
    11    9   12 1  
    12   10   11 2  
    13   10   13 am 
    14   13   14 1  
    15   14   15 1  
    16   14   17 1  
    17   15   16 2  
    18   15   27 am 
    19   17   18 1  
    20   18   19 2  
    21   18   20 1  
    22   19   21 1  
    23   20   22 ar 
    24   20   23 ar 
    25   21   22 1  
    26   22   24 ar 
    27   23   25 ar 
    28   24   26 ar 
    29   25   26 ar 
    30   27   28 1  
    31   28   29 1  
    32   28   31 1  
    33   29   30 2  
    34   29   35 am 
    35   31   32 1  
    36   32   33 ar 
    37   32   34 ar 
    38   35   36 1  
    39   36   37 1  
    40   36   39 1  
    41   37   38 2  
    42   37   44 am 
    43   39   40 1  
    44   40   41 1  
    45   41   42 ar 
    46   41   43 ar 
    47   44   45 1  
    48   45   46 1  
    49   45   48 1  
    50   46   47 2  
    51   46   51 am 
    52   48   49 1  
    53   48   50 1  
    54   51   52 1  
    55   52   53 1  
    56   52   55 1  
    57   53   54 2  
    58   53   59 am 
    59   55   56 1  
    60   56   57 2  
    61   56   58 am 
    62   59   60 1  
    63   60   61 1  
    64   60   63 1  
    65   61   62 ar 
    66   61   67 ar 
    67   63   64 1  
    68   64   65 1  
    69   64   66 1  
    70    1   68 1  
    71    1   69 1  
    72    2   70 1  
    73    5   71 1  
    74    5   72 1  
    75    6   73 1  
    76    6   74 1  
    77    7   75 1  
    78    7   76 1  
    79    8   77 1  
    80    9   78 1  
    81   12   79 1  
    82   12   80 1  
    83   12   81 1  
    84   13   82 1  
    85   14   83 1  
    86   17   84 1  
    87   17   85 1  
    88   19   86 1  
    89   21   87 1  
    90   23   88 1  
    91   24   89 1  
    92   25   90 1  
    93   26   91 1  
    94   27   92 1  
    95   28   93 1  
    96   31   94 1  
    97   31   95 1  
    98   35   96 1  
    99   36   97 1  
   100   39   98 1  
   101   39   99 1  
   102   40  100 1  
   103   40  101 1  
   104   44  102 1  
   105   45  103 1  
   106   48  104 1  
   107   49  105 1  
   108   50  106 1  
   109   50  107 1  
   110   50  108 1  
   111   51  109 1  
   112   52  110 1  
   113   55  111 1  
   114   55  112 1  
   115   58  113 1  
   116   58  114 1  
   117   59  115 1  
   118   60  116 1  
   119   63  117 1  
   120   63  118 1  
   121   64  119 1  
   122   65  120 1  
   123   65  121 1  
   124   65  122 1  
   125   66  123 1  
   126   66  124 1  
   127   66  125 1  
@<TRIPOS>SUBSTRUCTURE
     1 PRO         1

