5vwi_ligand
  -I-interpret- 

127129  0  0  0  0  0  0  0  0999 V2000
   13.7400   -6.1010   43.3870 N   0  3  0  0  0
   12.9740   -4.9160   42.9910 C   0  0  0  0  0
   12.5510   -4.9590   41.5180 C   0  0  0  0  0
   13.2990   -5.4660   40.6820 O   0  0  0  0  0
   13.9540   -3.7560   43.2480 C   0  0  0  0  0
   15.1880   -4.3690   43.8930 C   0  0  0  0  0
   14.8410   -5.7570   44.2990 C   0  0  0  0  0
   11.3620   -4.4410   41.2210 N   0  0  0  0  0
   10.7860   -4.5120   39.8890 C   0  0  0  0  0
   10.2020   -3.1650   39.4870 C   0  0  0  0  0
    9.6540   -2.4470   40.3230 O   0  0  0  0  0
    9.7090   -5.5690   39.8360 C   0  0  0  0  0
   10.3530   -2.8170   38.2130 N   0  0  0  0  0
    9.7860   -1.6090   37.6360 C   0  0  0  0  0
    8.8950   -1.9880   36.4580 C   0  0  0  0  0
    9.3490   -2.6580   35.5320 O   0  0  0  0  0
   10.8930   -0.6550   37.1600 C   0  0  0  0  0
   11.7680   -0.1290   38.2170 C   0  0  0  0  0
   11.6390    1.0450   38.8590 C   0  0  0  0  0
   12.9370   -0.7580   38.7500 C   0  0  0  0  0
   12.6500    1.1990   39.7910 N   0  0  0  0  0
   13.4700    0.1060   39.7280 C   0  0  0  0  0
   13.5870   -1.9620   38.4900 C   0  0  0  0  0
   14.6220   -0.2060   40.4570 C   0  0  0  0  0
   14.7360   -2.2660   39.2140 C   0  0  0  0  0
   15.2340   -1.3940   40.1850 C   0  0  0  0  0
    7.6380   -1.5460   36.4910 N   0  0  0  0  0
    6.7510   -1.6660   35.3380 C   0  0  0  0  0
    7.3740   -1.0220   34.1080 C   0  0  0  0  0
    7.8740    0.1020   34.1470 O   0  0  0  0  0
    5.4020   -1.0010   35.6050 C   0  0  0  0  0
    4.5450   -1.7570   36.6070 C   0  0  0  0  0
    4.8860   -2.9010   36.9850 O   0  0  0  0  0
    3.5210   -1.1800   37.0240 O   0  0  0  0  0
    7.2890   -1.7250   33.0020 N   0  0  0  0  0
    7.7840   -1.2500   31.7190 C   0  0  0  0  0
    6.6020   -1.1210   30.7770 C   0  0  0  0  0
    5.8480   -2.0790   30.5980 O   0  0  0  0  0
    8.8250   -2.2240   31.2030 C   0  0  0  0  0
    9.4600   -1.9400   29.9170 C   0  0  0  0  0
   10.6300   -2.8570   29.6760 C   0  0  0  0  0
   11.7210   -2.3520   29.4010 O   0  0  0  0  0
   10.4570   -4.0920   29.7520 O   0  0  0  0  0
    6.4200    0.0740   30.2110 N   0  0  0  0  0
    5.2890    0.3860   29.3280 C   0  0  0  0  0
    5.7820    0.4280   27.8880 C   0  0  0  0  0
    6.6690    1.2100   27.5600 O   0  0  0  0  0
    4.6320    1.7080   29.7000 C   0  0  0  0  0
    4.1110    1.6380   31.0260 O   0  0  0  0  0
    3.4680    2.0100   28.7600 C   0  0  0  0  0
    5.1910   -0.3950   27.0280 N   0  0  0  0  0
    5.6310   -0.5400   25.6420 C   0  0  0  0  0
    4.7880    0.3740   24.7680 C   0  0  0  0  0
    3.5620    0.3800   24.8820 O   0  0  0  0  0
    5.5010   -1.9940   25.1900 C   0  0  0  0  0
    6.2150   -2.9590   26.1300 C   0  0  0  0  0
    7.3830   -2.7620   26.4670 O   0  0  0  0  0
    5.5020   -3.9780   26.5870 N   0  0  0  0  0
    5.4370    1.1310   23.8960 N   0  0  0  0  0
    4.7450    2.1550   23.1230 C   0  0  0  0  0
    5.1320    2.1010   21.6740 C   0  0  0  0  0
    6.1320    1.4700   21.3310 O   0  0  0  0  0
    5.0620    3.5450   23.6740 C   0  0  0  0  0
    4.6380    3.7690   25.1110 C   0  0  0  0  0
    5.1060    5.1400   25.5540 C   0  0  0  0  0
    3.1240    3.6330   25.2580 C   0  0  0  0  0
    4.4710    2.7020   20.8250 O   0  0  0  0  0
   14.1378   -6.5220   42.5474 H   0  0  0  0  0
   13.1117   -6.7434   43.8696 H   0  0  0  0  0
   12.0395   -4.8277   43.5452 H   0  0  0  0  0
   13.5068   -3.0035   43.8975 H   0  0  0  0  0
   14.2107   -3.2483   42.3182 H   0  0  0  0  0
   15.4936   -3.7843   44.7607 H   0  0  0  0  0
   16.0209   -4.3756   43.1899 H   0  0  0  0  0
   15.6841   -6.4435   44.2223 H   0  0  0  0  0
   14.5597   -5.8327   45.3493 H   0  0  0  0  0
   10.8333   -3.9751   41.9584 H   0  0  0  0  0
   11.5791   -4.7767   39.1897 H   0  0  0  0  0
   10.1398   -6.5378   40.0889 H   0  0  0  0  0
    8.9235   -5.3216   40.5501 H   0  0  0  0  0
    9.2890   -5.6079   38.8309 H   0  0  0  0  0
   10.8966   -3.4313   37.6068 H   0  0  0  0  0
    9.1999   -1.0978   38.3997 H   0  0  0  0  0
   10.3929    0.2043   36.7131 H   0  0  0  0  0
   11.5291   -1.2278   36.4853 H   0  0  0  0  0
   10.8495    1.7728   38.6718 H   0  0  0  0  0
   13.2045   -2.6506   37.7366 H   0  0  0  0  0
   15.0153    0.4737   41.2129 H   0  0  0  0  0
   15.2577   -3.2031   39.0195 H   0  0  0  0  0
   16.1321   -1.6693   40.7378 H   0  0  0  0  0
    7.2865   -1.1123   37.3447 H   0  0  0  0  0
    6.5994   -2.7308   35.1609 H   0  0  0  0  0
    4.8569   -0.9726   34.6615 H   0  0  0  0  0
    5.5991   -0.0127   36.0204 H   0  0  0  0  0
    5.6994   -3.1539   36.5422 H   0  0  0  0  0
    6.8556   -2.6474   33.0445 H   0  0  0  0  0
    8.2618   -0.2742   31.8067 H   0  0  0  0  0
    8.2925   -3.1641   31.0591 H   0  0  0  0  0
    9.6325   -2.1958   31.9346 H   0  0  0  0  0
    9.8192   -0.9109   29.9250 H   0  0  0  0  0
    8.7274   -2.0936   29.1247 H   0  0  0  0  0
    9.5411   -4.2725   29.9760 H   0  0  0  0  0
    7.1017    0.8084   30.4017 H   0  0  0  0  0
    4.5345   -0.3924   29.4419 H   0  0  0  0  0
    5.3882    2.4894   29.6246 H   0  0  0  0  0
    3.6991    2.4753   31.2514 H   0  0  0  0  0
    3.8364    2.0729   27.7361 H   0  0  0  0  0
    2.7277    1.2133   28.8328 H   0  0  0  0  0
    3.0115    2.9587   29.0422 H   0  0  0  0  0
    4.3968   -0.9488   27.3489 H   0  0  0  0  0
    6.6809   -0.2601   25.5554 H   0  0  0  0  0
    5.9569   -2.0834   24.2039 H   0  0  0  0  0
    4.4420   -2.2518   25.1816 H   0  0  0  0  0
    5.9180   -4.6372   27.2449 H   0  0  0  0  0
    4.5371   -4.1032   26.2809 H   0  0  0  0  0
    6.4391    0.9949   23.7630 H   0  0  0  0  0
    3.6759    1.9605   23.2080 H   0  0  0  0  0
    4.5096    4.2608   23.0653 H   0  0  0  0  0
    6.1455    3.6592   23.6417 H   0  0  0  0  0
    5.0950    3.0105   25.7466 H   0  0  0  0  0
    6.1920    5.1941   25.4774 H   0  0  0  0  0
    4.6570    5.9000   24.9145 H   0  0  0  0  0
    4.8046    5.3089   26.5878 H   0  0  0  0  0
    2.6311    4.3722   24.6266 H   0  0  0  0  0
    2.8191    2.6318   24.9533 H   0  0  0  0  0
    2.8450    3.7982   26.2986 H   0  0  0  0  0
    3.7299    3.1405   21.2495 H   0  0  0  0  0
  1  2  1  0  0  0
  1  7  1  0  0  0
  2  3  1  0  0  0
  2  5  1  0  0  0
  3  4  2  0  0  0
  3  8  1  0  0  0
  5  6  1  0  0  0
  6  7  1  0  0  0
  8  9  1  0  0  0
  9 10  1  0  0  0
  9 12  1  0  0  0
 10 11  2  0  0  0
 10 13  1  0  0  0
 13 14  1  0  0  0
 14 15  1  0  0  0
 14 17  1  0  0  0
 15 16  2  0  0  0
 15 27  1  0  0  0
 17 18  1  0  0  0
 18 19  4  0  0  0
 18 20  4  0  0  0
 19 21  4  0  0  0
 20 22  4  0  0  0
 20 23  4  0  0  0
 21 22  4  0  0  0
 22 24  4  0  0  0
 23 25  4  0  0  0
 24 26  4  0  0  0
 25 26  4  0  0  0
 27 28  1  0  0  0
 28 29  1  0  0  0
 28 31  1  0  0  0
 29 30  2  0  0  0
 29 35  1  0  0  0
 31 32  1  0  0  0
 32 33  1  0  0  0
 32 34  2  0  0  0
 35 36  1  0  0  0
 36 37  1  0  0  0
 36 39  1  0  0  0
 37 38  2  0  0  0
 37 44  1  0  0  0
 39 40  1  0  0  0
 40 41  1  0  0  0
 41 42  2  0  0  0
 41 43  1  0  0  0
 44 45  1  0  0  0
 45 46  1  0  0  0
 45 48  1  0  0  0
 46 47  2  0  0  0
 46 51  1  0  0  0
 48 49  1  0  0  0
 48 50  1  0  0  0
 51 52  1  0  0  0
 52 53  1  0  0  0
 52 55  1  0  0  0
 53 54  2  0  0  0
 53 59  1  0  0  0
 55 56  1  0  0  0
 56 57  2  0  0  0
 56 58  1  0  0  0
 59 60  1  0  0  0
 60 61  1  0  0  0
 60 63  1  0  0  0
 61 62  2  0  0  0
 61 67  1  0  0  0
 63 64  1  0  0  0
 64 65  1  0  0  0
 64 66  1  0  0  0
  1 68  1  0  0  0
  1 69  1  0  0  0
  2 70  1  0  0  0
  5 71  1  0  0  0
  5 72  1  0  0  0
  6 73  1  0  0  0
  6 74  1  0  0  0
  7 75  1  0  0  0
  7 76  1  0  0  0
  8 77  1  0  0  0
  9 78  1  0  0  0
 12 79  1  0  0  0
 12 80  1  0  0  0
 12 81  1  0  0  0
 13 82  1  0  0  0
 14 83  1  0  0  0
 17 84  1  0  0  0
 17 85  1  0  0  0
 19 86  1  0  0  0
 23 87  1  0  0  0
 24 88  1  0  0  0
 25 89  1  0  0  0
 26 90  1  0  0  0
 27 91  1  0  0  0
 28 92  1  0  0  0
 31 93  1  0  0  0
 31 94  1  0  0  0
 33 95  1  0  0  0
 35 96  1  0  0  0
 36 97  1  0  0  0
 39 98  1  0  0  0
 39 99  1  0  0  0
 40100  1  0  0  0
 40101  1  0  0  0
 43102  1  0  0  0
 44103  1  0  0  0
 45104  1  0  0  0
 48105  1  0  0  0
 49106  1  0  0  0
 50107  1  0  0  0
 50108  1  0  0  0
 50109  1  0  0  0
 51110  1  0  0  0
 52111  1  0  0  0
 55112  1  0  0  0
 55113  1  0  0  0
 58114  1  0  0  0
 58115  1  0  0  0
 59116  1  0  0  0
 60117  1  0  0  0
 63118  1  0  0  0
 63119  1  0  0  0
 64120  1  0  0  0
 65121  1  0  0  0
 65122  1  0  0  0
 65123  1  0  0  0
 66124  1  0  0  0
 66125  1  0  0  0
 66126  1  0  0  0
 67127  1  0  0  0
M  END
$$$$
