3kqw_ligand
  -I-interpret- 

 14 15  0  0  0  0  0  0  0  0999 V2000
   28.1610   42.9330   16.9100 C   0  0  0  0  0
   27.3190   41.3440   14.8010 Cl  0  0  0  0  0
   27.6270   42.9130   15.6050 C   0  0  0  0  0
   27.3410   44.1180   14.9350 C   0  0  0  0  0
   27.5890   45.3520   15.5630 C   0  0  0  0  0
   28.1310   45.3680   16.8720 C   0  0  0  0  0
   28.4560   46.3810   17.6930 N   0  0  0  0  0
   28.9410   45.8540   18.8740 C   0  0  0  0  0
   28.9110   44.4810   18.7640 N   0  0  0  0  0
   28.4130   44.1760   17.5430 C   0  0  0  0  0
   28.3785   41.9991   17.4283 H   0  0  0  0  0
   26.9264   44.0945   13.9272 H   0  0  0  0  0
   27.3665   46.2864   15.0478 H   0  0  0  0  0
   29.2856   46.4223   19.7379 H   0  0  0  0  0
  1  3  4  0  0  0
  1 10  4  0  0  0
  3  2  1  0  0  0
  3  4  4  0  0  0
  4  5  4  0  0  0
  5  6  4  0  0  0
  6  7  4  0  0  0
  6 10  4  0  0  0
  7  8  4  0  0  0
  8  9  4  0  0  0
  9 10  4  0  0  0
  1 11  1  0  0  0
  4 12  1  0  0  0
  5 13  1  0  0  0
  8 14  1  0  0  0
M  END
$$$$
