6f3f_ligand
  -I-interpret- 

 42 44  0  0  0  0  0  0  0  0999 V2000
   29.1810   78.0380  103.9220 P   0  0  0  0  0
   30.2450   77.9510  102.8540 O   0  0  0  0  0
   28.0760   79.0320  103.6540 O   0  0  0  0  0
   29.7400   78.1000  105.3210 O   0  0  0  0  0
   28.2470   75.5700  105.0200 P   0  0  0  0  0
   28.7070   74.2140  104.5380 O   0  0  0  0  0
   28.7600   76.1170  106.3300 O   0  0  0  0  0
   28.3970   76.6350  103.8200 O   0  0  0  0  0
   26.6410   75.5470  105.1200 O   0  0  0  0  0
   25.8800   75.0410  104.0280 C   0  0  0  0  0
   24.4040   75.3940  104.1780 C   0  0  0  0  0
   23.8080   74.5680  105.1790 O   0  0  0  0  0
   24.1450   76.8440  104.5650 C   0  0  0  0  0
   23.7340   77.6080  103.4270 O   0  0  0  0  0
   23.0520   76.7880  105.6140 C   0  0  0  0  0
   21.8100   77.2750  105.0990 O   0  0  0  0  0
   22.9180   75.3260  105.9970 C   0  0  0  0  0
   23.3090   75.1710  107.4110 N   0  0  0  0  0
   24.5780   75.1740  107.8630 C   0  0  0  0  0
   24.6030   75.0160  109.2060 N   0  0  0  0  0
   23.3280   74.9130  109.6220 C   0  0  0  0  0
   22.6570   74.7290  110.9190 C   0  0  0  0  0
   23.4040   74.6300  112.0360 N   0  0  0  0  0
   21.3050   74.6730  110.9400 N   0  0  0  0  0
   20.5730   74.7760  109.8130 C   0  0  0  0  0
   21.1280   74.9420  108.5990 N   0  0  0  0  0
   22.4720   75.0180  108.4370 C   0  0  0  0  0
   29.8276   77.9146  101.9903 H   0  0  0  0  0
   27.7716   78.9341  102.7488 H   0  0  0  0  0
   28.2905   74.0168  103.6959 H   0  0  0  0  0
   25.9789   73.9557  104.0068 H   0  0  0  0  0
   26.2535   75.4867  103.1061 H   0  0  0  0  0
   23.9666   75.2305  103.1931 H   0  0  0  0  0
   25.0420   77.3311  104.9475 H   0  0  0  0  0
   23.5765   78.5168  103.6931 H   0  0  0  0  0
   23.3043   77.4148  106.4693 H   0  0  0  0  0
   21.1397   77.2270  105.7846 H   0  0  0  0  0
   21.8929   74.9827  105.8577 H   0  0  0  0  0
   25.4611   75.2878  107.2343 H   0  0  0  0  0
   24.4209   74.6828  111.9758 H   0  0  0  0  0
   22.9526   74.5023  112.9417 H   0  0  0  0  0
   19.4869   74.7226  109.8884 H   0  0  0  0  0
  1  2  1  0  0  0
  1  3  1  0  0  0
  1  4  2  0  0  0
  8  1  1  0  0  0
  5  6  1  0  0  0
  5  7  2  0  0  0
  5  8  1  0  0  0
  5  9  1  0  0  0
  9 10  1  0  0  0
 10 11  1  0  0  0
 11 12  1  0  0  0
 11 13  1  0  0  0
 12 17  1  0  0  0
 13 14  1  0  0  0
 13 15  1  0  0  0
 15 16  1  0  0  0
 15 17  1  0  0  0
 17 18  1  0  0  0
 18 19  4  0  0  0
 18 27  4  0  0  0
 19 20  4  0  0  0
 20 21  4  0  0  0
 21 22  4  0  0  0
 21 27  4  0  0  0
 22 23  1  0  0  0
 22 24  4  0  0  0
 24 25  4  0  0  0
 25 26  4  0  0  0
 26 27  4  0  0  0
  2 28  1  0  0  0
  3 29  1  0  0  0
  6 30  1  0  0  0
 10 31  1  0  0  0
 10 32  1  0  0  0
 11 33  1  0  0  0
 13 34  1  0  0  0
 14 35  1  0  0  0
 15 36  1  0  0  0
 16 37  1  0  0  0
 17 38  1  0  0  0
 19 39  1  0  0  0
 23 40  1  0  0  0
 23 41  1  0  0  0
 25 42  1  0  0  0
M  END
$$$$
