### 
### Created by X-TOOL on Mon Sep 10 21:13:33 2018
### 

@<TRIPOS>MOLECULE
6f3f_ligand
   39    41     1     0     0
SMALL
GAST_HUCK


@<TRIPOS>ATOM
      1 PB         29.1810   78.0380  103.9220 P.3       1 ADP         0.2069
      2 O1B        30.2450   77.9510  102.8540 O.co2     1 ADP        -0.5891
      3 O2B        28.0760   79.0320  103.6540 O.co2     1 ADP        -0.5891
      4 O3B        29.7400   78.1000  105.3210 O.co2     1 ADP        -0.5891
      5 PA         28.2470   75.5700  105.0200 P.3       1 ADP         0.3276
      6 O1A        28.7070   74.2140  104.5380 O.co2     1 ADP        -0.5556
      7 O2A        28.7600   76.1170  106.3300 O.co2     1 ADP        -0.5556
      8 O3A        28.3970   76.6350  103.8200 O.3       1 ADP        -0.1548
      9 O5'        26.6410   75.5470  105.1200 O.3       1 ADP        -0.2436
     10 C5'        25.8800   75.0410  104.0280 C.3       1 ADP         0.1132
     11 C4'        24.4040   75.3940  104.1780 C.3       1 ADP         0.1189
     12 O4'        23.8080   74.5680  105.1790 O.3       1 ADP        -0.3364
     13 C3'        24.1450   76.8440  104.5650 C.3       1 ADP         0.1149
     14 O3'        23.7340   77.6080  103.4270 O.3       1 ADP        -0.3864
     15 C2'        23.0520   76.7880  105.6140 C.3       1 ADP         0.1385
     16 O2'        21.8100   77.2750  105.0990 O.3       1 ADP        -0.3836
     17 C1'        22.9180   75.3260  105.9970 C.3       1 ADP         0.2010
     18 N9         23.3090   75.1710  107.4110 N.pl3     1 ADP        -0.1919
     19 C8         24.5780   75.1740  107.8630 C.2       1 ADP         0.1123
     20 N7         24.6030   75.0160  109.2060 N.2       1 ADP        -0.2958
     21 C5         23.3280   74.9130  109.6220 C.ar      1 ADP         0.1045
     22 C6         22.6570   74.7290  110.9190 C.ar      1 ADP         0.1298
     23 N6         23.4040   74.6300  112.0360 N.pl3     1 ADP        -0.3152
     24 N1         21.3050   74.6730  110.9400 N.ar      1 ADP        -0.2698
     25 C2         20.5730   74.7760  109.8130 C.ar      1 ADP         0.0533
     26 N3         21.1280   74.9420  108.5990 N.ar      1 ADP        -0.2714
     27 C4         22.4720   75.0180  108.4370 C.ar      1 ADP         0.1613
     28 H1         25.9859   73.9467  103.9926 H         1 ADP         0.0648
     29 H2         26.2604   75.4767  103.0924 H         1 ADP         0.0648
     30 H3         23.9125   75.2022  103.2128 H         1 ADP         0.0651
     31 H4         25.0550   77.2931  104.9896 H         1 ADP         0.0648
     32 H5         22.9349   77.2382  103.0706 H         1 ADP         0.2100
     33 H6         23.3401   77.3871  106.4904 H         1 ADP         0.0676
     34 H7         21.9158   78.1771  104.8206 H         1 ADP         0.2101
     35 H8         21.8824   74.9853  105.8504 H         1 ADP         0.0996
     36 H9         25.4603   75.2877  107.2349 H         1 ADP         0.1349
     37 H10        22.9482   74.5010  112.9506 H         1 ADP         0.1820
     38 H11        24.4308   74.6833  111.9753 H         1 ADP         0.1820
     39 H12        19.4929   74.7229  109.8880 H         1 ADP         0.0996
@<TRIPOS>BOND
     1    1    2 ar 
     2    1    3 ar 
     3    1    4 ar 
     4    8    1 1  
     5    5    6 ar 
     6    5    7 ar 
     7    5    8 1  
     8    5    9 1  
     9    9   10 1  
    10   10   11 1  
    11   11   12 1  
    12   11   13 1  
    13   12   17 1  
    14   13   14 1  
    15   13   15 1  
    16   15   16 1  
    17   15   17 1  
    18   17   18 1  
    19   18   19 1  
    20   18   27 1  
    21   19   20 2  
    22   20   21 1  
    23   21   22 ar 
    24   21   27 ar 
    25   22   23 1  
    26   22   24 ar 
    27   24   25 ar 
    28   25   26 ar 
    29   26   27 ar 
    30   10   28 1  
    31   10   29 1  
    32   11   30 1  
    33   13   31 1  
    34   14   32 1  
    35   15   33 1  
    36   16   34 1  
    37   17   35 1  
    38   19   36 1  
    39   23   37 1  
    40   23   38 1  
    41   25   39 1  
@<TRIPOS>SUBSTRUCTURE
     1 ADP         1

