6nwl_ligand
  -I-interpret- 

 56 59  0  0  0  0  0  0  0  0999 V2000
    0.9330  -29.5560   12.0410 C   0  0  0  0  0
   -0.3950  -29.0100   12.5130 C   0  0  0  0  0
   -0.2210  -27.6170   13.0410 C   0  0  0  0  0
    0.7210  -26.7560   12.3380 C   0  0  0  0  0
    1.6010  -27.2230   11.4440 C   0  0  0  0  0
    2.5050  -26.2780   10.7240 C   0  0  0  0  0
    3.9840  -26.6890   10.8230 C   0  0  0  0  0
    4.1550  -28.1010   10.3430 C   0  0  0  0  0
    3.2600  -29.0380   11.1720 C   0  0  0  0  0
    1.7400  -28.6560   11.0880 C   0  0  0  0  0
    5.0130  -30.9250   10.9310 C   0  0  0  0  0
    3.5150  -30.5550   10.8920 C   0  0  0  0  0
    5.8390  -30.0270   10.0270 C   0  0  0  0  0
    5.6190  -28.5590   10.4780 C   0  0  0  0  0
    6.6640  -27.8090    9.6420 C   0  0  0  0  0
    7.9090  -28.7600    9.6730 C   0  0  0  0  0
    7.4010  -30.1610   10.1700 C   0  0  0  0  0
    5.4740  -30.2540    8.5610 C   0  0  0  0  0
    1.1380  -28.7850    9.6660 C   0  0  0  0  0
    7.9520  -31.3520    9.3720 C   0  0  0  0  0
    7.9840  -32.7000   10.0920 C   0  0  0  0  0
   -0.8480  -27.2240   14.0160 O   0  0  0  0  0
    2.8740  -30.9650    9.6960 O   0  0  0  0  0
    7.6890  -30.3490   11.5220 O   0  0  0  0  0
    8.3630  -31.2540    8.2320 O   0  0  0  0  0
    8.0360  -33.6590    9.0960 O   0  0  0  0  0
    0.7067  -30.4641   11.4823 H   0  0  0  0  0
    1.5456  -29.6789   12.9342 H   0  0  0  0  0
   -0.7821  -29.6480   13.3075 H   0  0  0  0  0
   -1.0920  -28.9906   11.6752 H   0  0  0  0  0
    0.7086  -25.6867   12.5489 H   0  0  0  0  0
    2.3974  -25.2945   11.1815 H   0  0  0  0  0
    2.2246  -26.2803    9.6707 H   0  0  0  0  0
    4.3074  -26.6207   11.8617 H   0  0  0  0  0
    4.5844  -26.0233   10.2030 H   0  0  0  0  0
    3.8716  -28.1389    9.2912 H   0  0  0  0  0
    3.5601  -28.8800   12.2079 H   0  0  0  0  0
    5.1213  -31.9528   10.5847 H   0  0  0  0  0
    5.3697  -30.8030   11.9538 H   0  0  0  0  0
    3.0617  -31.1181   11.7078 H   0  0  0  0  0
    5.7662  -28.3747   11.5422 H   0  0  0  0  0
    6.8849  -26.8187   10.0402 H   0  0  0  0  0
    6.3195  -27.6049    8.6282 H   0  0  0  0  0
    8.6778  -28.3688   10.3394 H   0  0  0  0  0
    8.3587  -28.8406    8.6834 H   0  0  0  0  0
    5.6665  -31.2938    8.2968 H   0  0  0  0  0
    4.4179  -30.0294    8.4119 H   0  0  0  0  0
    6.0781  -29.6001    7.9320 H   0  0  0  0  0
    1.6752  -28.1257    8.9842 H   0  0  0  0  0
    1.2315  -29.8162    9.3254 H   0  0  0  0  0
    0.0853  -28.5035    9.6916 H   0  0  0  0  0
    7.1060  -32.8325   10.7242 H   0  0  0  0  0
    8.8439  -32.7733   10.7579 H   0  0  0  0  0
    3.0449  -31.8977    9.5462 H   0  0  0  0  0
    8.6383  -30.4339   11.6370 H   0  0  0  0  0
    8.0580  -34.5320    9.4947 H   0  0  0  0  0
  1  2  1  0  0  0
  1 10  1  0  0  0
  2  3  1  0  0  0
  3  4  1  0  0  0
  3 22  2  0  0  0
  4  5  2  0  0  0
  5  6  1  0  0  0
  5 10  1  0  0  0
  6  7  1  0  0  0
  7  8  1  0  0  0
  8  9  1  0  0  0
  8 14  1  0  0  0
  9 10  1  0  0  0
  9 12  1  0  0  0
 10 19  1  0  0  0
 12 11  1  0  0  0
 11 13  1  0  0  0
 12 23  1  0  0  0
 13 14  1  0  0  0
 13 17  1  0  0  0
 13 18  1  0  0  0
 14 15  1  0  0  0
 15 16  1  0  0  0
 16 17  1  0  0  0
 17 20  1  0  0  0
 17 24  1  0  0  0
 20 21  1  0  0  0
 20 25  2  0  0  0
 21 26  1  0  0  0
  1 27  1  0  0  0
  1 28  1  0  0  0
  2 29  1  0  0  0
  2 30  1  0  0  0
  4 31  1  0  0  0
  6 32  1  0  0  0
  6 33  1  0  0  0
  7 34  1  0  0  0
  7 35  1  0  0  0
  8 36  1  0  0  0
  9 37  1  0  0  0
 11 38  1  0  0  0
 11 39  1  0  0  0
 12 40  1  0  0  0
 14 41  1  0  0  0
 15 42  1  0  0  0
 15 43  1  0  0  0
 16 44  1  0  0  0
 16 45  1  0  0  0
 18 46  1  0  0  0
 18 47  1  0  0  0
 18 48  1  0  0  0
 19 49  1  0  0  0
 19 50  1  0  0  0
 19 51  1  0  0  0
 21 52  1  0  0  0
 21 53  1  0  0  0
 23 54  1  0  0  0
 24 55  1  0  0  0
 26 56  1  0  0  0
M  END
$$$$
