1czc_ligand
  -I-interpret- 

 17 16  0  0  0  0  0  0  0  0999 V2000
   24.7030   10.1530  -10.8530 C   0  0  0  0  0
   23.2970    9.9960  -11.3500 C   0  0  0  0  0
   22.9610   10.8420  -12.5170 C   0  0  0  0  0
   23.6990   10.2330  -13.7050 C   0  0  0  0  0
   24.3590   11.2860  -14.5330 C   0  0  0  0  0
   25.5060   10.9490  -11.4040 O   0  0  0  0  0
   25.0040    9.4500   -9.8840 O   0  0  0  0  0
   23.8520   12.4080  -14.5190 O   0  0  0  0  0
   25.3790   11.0160  -15.2060 O   0  0  0  0  0
   22.6357   10.2962  -10.5372 H   0  0  0  0  0
   23.1837    8.9586  -11.6646 H   0  0  0  0  0
   23.2620   11.8768  -12.3539 H   0  0  0  0  0
   21.8852   10.8654  -12.6907 H   0  0  0  0  0
   22.9770    9.7045  -14.3276 H   0  0  0  0  0
   24.4666    9.5577  -13.3270 H   0  0  0  0  0
   25.0662   11.3916  -12.1336 H   0  0  0  0  0
   25.6099   10.0929  -15.0787 H   0  0  0  0  0
  1  2  1  0  0  0
  1  6  1  0  0  0
  1  7  2  0  0  0
  2  3  1  0  0  0
  3  4  1  0  0  0
  4  5  1  0  0  0
  5  8  2  0  0  0
  5  9  1  0  0  0
  2 10  1  0  0  0
  2 11  1  0  0  0
  3 12  1  0  0  0
  3 13  1  0  0  0
  4 14  1  0  0  0
  4 15  1  0  0  0
  6 16  1  0  0  0
  9 17  1  0  0  0
M  END
$$$$
