4bfr_ligand
  -I-interpret- 

 48 51  0  0  0  0  0  0  0  0999 V2000
    0.3770   73.5740   79.9420 C   0  0  0  0  0
    0.9240   72.6840   80.8520 N   0  0  0  0  0
    2.0940   73.0470   81.6670 C   0  0  0  0  0
    2.8780   71.8060   82.0250 C   0  0  0  0  0
    2.0570   70.8320   82.6690 O   0  0  0  0  0
    0.9850   70.4420   81.8110 C   0  0  0  0  0
    0.1090   71.6180   81.4520 C   0  0  0  0  0
    1.1180   74.6600   79.5830 N   0  0  0  0  0
    0.6170   75.5380   78.7130 C   0  0  0  0  0
   -0.6500   75.3860   78.1250 N   0  0  0  0  0
   -1.4640   74.3090   78.4360 C   0  0  0  0  0
   -0.9130   73.3890   79.3790 C   0  0  0  0  0
   -2.5780   74.2180   77.9030 O   0  0  0  0  0
    1.3580   76.8000   78.3370 C   0  0  0  0  0
    1.1470   77.9730   79.2730 C   0  0  0  0  0
    0.0110   78.2210   79.6460 O   0  0  0  0  0
    2.2110   78.7440   79.6640 N   0  0  0  0  0
    4.5190   79.1690   80.1340 C   0  0  0  0  0
    3.6140   78.5380   79.0850 C   0  0  0  0  0
    3.6050   80.0780   80.9110 C   0  0  0  0  0
    2.2760   79.7120   80.7030 C   0  0  0  0  0
    1.2470   80.3190   81.4220 C   0  0  0  0  0
    1.5680   81.3150   82.3400 C   0  0  0  0  0
    2.8870   81.7000   82.5320 C   0  0  0  0  0
    3.9060   81.0870   81.8190 C   0  0  0  0  0
    3.7910   79.2630   77.7570 C   0  0  0  0  0
    1.7570   73.5351   82.5815 H   0  0  0  0  0
    2.7321   73.7231   81.0980 H   0  0  0  0  0
    3.6769   72.0896   82.7101 H   0  0  0  0  0
    3.2716   71.3709   81.1064 H   0  0  0  0  0
    0.3758   69.7038   82.3327 H   0  0  0  0  0
    1.4080   70.0333   80.8933 H   0  0  0  0  0
   -0.6475   71.2974   80.7357 H   0  0  0  0  0
   -0.3713   71.9971   82.3540 H   0  0  0  0  0
   -0.9771   76.0827   77.4556 H   0  0  0  0  0
   -1.4999   72.5195   79.6751 H   0  0  0  0  0
    0.9813   77.1059   77.3610 H   0  0  0  0  0
    2.4210   76.5608   78.3686 H   0  0  0  0  0
    5.3533   79.7092   79.6864 H   0  0  0  0  0
    4.9946   78.4223   80.7699 H   0  0  0  0  0
    3.8245   77.4874   78.8848 H   0  0  0  0  0
    0.2104   80.0192   81.2681 H   0  0  0  0  0
    0.7759   81.7968   82.9132 H   0  0  0  0  0
    3.1234   82.4882   83.2468 H   0  0  0  0  0
    4.9405   81.3954   81.9700 H   0  0  0  0  0
    3.0647   78.8840   77.0380 H   0  0  0  0  0
    3.6348   80.3316   77.9043 H   0  0  0  0  0
    4.7997   79.0903   77.3818 H   0  0  0  0  0
  1  2  1  0  0  0
  1  8  1  0  0  0
  1 12  2  0  0  0
  2  3  1  0  0  0
  2  7  1  0  0  0
  3  4  1  0  0  0
  4  5  1  0  0  0
  5  6  1  0  0  0
  6  7  1  0  0  0
  8  9  2  0  0  0
  9 10  1  0  0  0
  9 14  1  0  0  0
 10 11  1  0  0  0
 11 12  1  0  0  0
 11 13  2  0  0  0
 14 15  1  0  0  0
 15 16  2  0  0  0
 15 17  1  0  0  0
 17 19  1  0  0  0
 17 21  1  0  0  0
 19 18  1  0  0  0
 18 20  1  0  0  0
 19 26  1  0  0  0
 20 21  4  0  0  0
 20 25  4  0  0  0
 21 22  4  0  0  0
 22 23  4  0  0  0
 23 24  4  0  0  0
 24 25  4  0  0  0
  3 27  1  0  0  0
  3 28  1  0  0  0
  4 29  1  0  0  0
  4 30  1  0  0  0
  6 31  1  0  0  0
  6 32  1  0  0  0
  7 33  1  0  0  0
  7 34  1  0  0  0
 10 35  1  0  0  0
 12 36  1  0  0  0
 14 37  1  0  0  0
 14 38  1  0  0  0
 18 39  1  0  0  0
 18 40  1  0  0  0
 19 41  1  0  0  0
 22 42  1  0  0  0
 23 43  1  0  0  0
 24 44  1  0  0  0
 25 45  1  0  0  0
 26 46  1  0  0  0
 26 47  1  0  0  0
 26 48  1  0  0  0
M  END
$$$$
