6qmd_ligand
  -I-interpret- 

 36 38  0  0  0  0  0  0  0  0999 V2000
   12.4530   60.6490   25.7190 N   0  0  0  0  0
   14.0900   61.9910   26.2580 C   0  0  0  0  0
   15.2350   62.6270   26.7850 C   0  0  0  0  0
   15.5660   63.9280   26.3800 C   0  0  0  0  0
   14.7450   64.5800   25.4500 C   0  0  0  0  0
   13.3010   62.6580   25.3430 C   0  0  0  0  0
   18.0730   64.1600   26.2430 C   0  0  0  0  0
   16.9820   64.3500   31.2290 C   0  0  0  0  0
   18.0760   63.9680   30.4870 C   0  0  0  0  0
   11.1850   62.0010   24.1100 C   0  0  0  0  0
   12.3040   61.8180   25.0260 N   0  0  0  0  0
   13.5430   60.7620   26.4660 N   0  0  0  0  0
   13.6130   63.9560   24.9260 C   0  0  0  0  0
   16.7960   64.6270   26.9380 C   0  0  0  0  0
   18.0890   64.3750   24.7360 C   0  0  0  0  0
   18.7450   63.5420   24.0720 O   0  0  0  0  0
   17.4610   65.3480   24.2460 O   0  0  0  0  0
   16.8780   64.5230   28.4570 C   0  0  0  0  0
   15.7880   64.9020   29.2380 C   0  0  0  0  0
   15.8380   64.8160   30.6180 C   0  0  0  0  0
   17.0410   64.2450   32.9660 Cl  0  0  0  0  0
   18.0270   64.0530   29.1000 C   0  0  0  0  0
   15.8627   62.1059   27.5079 H   0  0  0  0  0
   14.9953   65.5917   25.1308 H   0  0  0  0  0
   18.1528   63.0862   26.4121 H   0  0  0  0  0
   18.8932   64.7466   26.6568 H   0  0  0  0  0
   18.9747   63.6013   30.9830 H   0  0  0  0  0
   11.2287   61.2420   23.3289 H   0  0  0  0  0
   10.2483   61.9056   24.6591 H   0  0  0  0  0
   11.2442   62.9917   23.6594 H   0  0  0  0  0
   12.9814   64.4719   24.2028 H   0  0  0  0  0
   16.6925   65.6891   26.7161 H   0  0  0  0  0
   17.0377   65.8423   24.9517 H   0  0  0  0  0
   14.8834   65.2714   28.7550 H   0  0  0  0  0
   14.9784   65.1148   31.2179 H   0  0  0  0  0
   18.8916   63.7507   28.5091 H   0  0  0  0  0
 11  1  4  0  0  0
 12  1  4  0  0  0
  3  2  4  0  0  0
  2  6  4  0  0  0
  2 12  4  0  0  0
  4  3  4  0  0  0
  4  5  4  0  0  0
 14  4  1  0  0  0
  5 13  4  0  0  0
  6 11  4  0  0  0
 13  6  4  0  0  0
 14  7  1  0  0  0
  7 15  1  0  0  0
  9  8  4  0  0  0
  8 20  4  0  0  0
  8 21  1  0  0  0
 22  9  4  0  0  0
 11 10  1  0  0  0
 18 14  1  0  0  0
 15 16  2  0  0  0
 15 17  1  0  0  0
 18 19  4  0  0  0
 18 22  4  0  0  0
 19 20  4  0  0  0
  3 23  1  0  0  0
  5 24  1  0  0  0
  7 25  1  0  0  0
  7 26  1  0  0  0
  9 27  1  0  0  0
 10 28  1  0  0  0
 10 29  1  0  0  0
 10 30  1  0  0  0
 13 31  1  0  0  0
 14 32  1  0  0  0
 17 33  1  0  0  0
 19 34  1  0  0  0
 20 35  1  0  0  0
 22 36  1  0  0  0
M  END
$$$$
