2ieo_ligand
  -I-interpret- 

 75 78  0  0  0  0  0  0  0  0999 V2000
   20.9120   28.9400   13.8770 N   0  0  0  0  0
   20.3960   27.7490   14.3180 C   0  0  0  0  0
   19.0550   27.4970   14.0710 C   0  0  0  0  0
   18.4460   26.3080   14.4870 C   0  0  0  0  0
   19.2490   25.3190   15.0740 C   0  0  0  0  0
   20.5700   25.5650   15.4250 C   0  0  0  0  0
   21.1450   26.7850   15.0130 C   0  0  0  0  0
   18.3090   23.8960   15.7390 S   0  0  0  0  0
   17.1170   23.6220   14.7590 O   0  0  0  0  0
   19.2840   22.6650   15.8560 O   0  0  0  0  0
   17.6690   24.2910   17.3490 N   0  0  0  0  0
   18.6620   24.5460   18.4100 C   0  0  0  0  0
   18.3760   23.8900   19.7820 C   0  0  0  0  0
   18.3260   22.3820   19.6680 C   0  0  0  0  0
   19.5090   24.2820   20.7170 C   0  0  0  0  0
   16.3770   25.0620   17.3560 C   0  0  0  0  0
   15.1840   24.1760   17.8640 C   0  0  0  0  0
   14.0630   24.9920   18.1820 O   0  0  0  0  0
   14.8280   23.0050   16.8980 C   0  0  0  0  0
   13.9380   22.0840   17.5730 N   0  0  0  0  0
   14.2540   20.8040   17.9010 C   0  0  0  0  0
   15.3620   20.2300   17.6100 O   0  0  0  0  0
   13.1980   20.1860   18.6370 O   0  0  0  0  0
   13.3750   18.7510   18.8950 C   0  0  0  0  0
   12.7750   18.5040   20.2960 C   0  0  0  0  0
   11.3490   18.5800   20.1260 O   0  0  0  0  0
   11.0940   18.1750   18.7860 C   0  0  0  0  0
   10.1320   18.9830   18.0780 O   0  0  0  0  0
   10.8780   19.5250   16.9990 C   0  0  0  0  0
   12.0020   18.5370   16.6520 C   0  0  0  0  0
   12.3440   18.0180   18.0210 C   0  0  0  0  0
   14.1590   23.4190   15.5500 C   0  0  0  0  0
   12.4110   21.7690   14.6130 C   0  0  0  0  0
   12.0720   20.6320   13.8480 C   0  0  0  0  0
   13.0470   19.8970   13.1850 C   0  0  0  0  0
   14.3900   20.2920   13.3030 C   0  0  0  0  0
   14.7120   21.4400   14.0580 C   0  0  0  0  0
   13.7280   22.2030   14.7050 C   0  0  0  0  0
   20.3137   29.6045   13.3861 H   0  0  0  0  0
   21.8942   29.1617   14.0397 H   0  0  0  0  0
   18.4619   28.2421   13.5407 H   0  0  0  0  0
   17.3746   26.1541   14.3582 H   0  0  0  0  0
   21.1439   24.8385   16.0004 H   0  0  0  0  0
   22.1926   26.9841   15.2386 H   0  0  0  0  0
   18.6577   25.6227   18.5797 H   0  0  0  0  0
   19.6013   24.1198   18.0578 H   0  0  0  0  0
   17.4099   24.2291   20.1558 H   0  0  0  0  0
   17.5349   22.0974   18.9742 H   0  0  0  0  0
   19.2838   22.0148   19.2993 H   0  0  0  0  0
   18.1234   21.9513   20.6486 H   0  0  0  0  0
   20.4545   23.9227   20.3107 H   0  0  0  0  0
   19.5416   25.3674   20.8112 H   0  0  0  0  0
   19.3403   23.8359   21.6971 H   0  0  0  0  0
   16.1602   25.3836   16.3373 H   0  0  0  0  0
   16.4858   25.9139   18.0272 H   0  0  0  0  0
   15.5108   23.6836   18.7799 H   0  0  0  0  0
   13.3425   24.4378   18.4907 H   0  0  0  0  0
   15.7870   22.5577   16.6366 H   0  0  0  0  0
   13.0072   22.4201   17.8200 H   0  0  0  0  0
   14.4131   18.4515   18.7513 H   0  0  0  0  0
   13.1298   19.2409   21.0165 H   0  0  0  0  0
   13.0774   17.5351   20.6934 H   0  0  0  0  0
   10.6178   17.1987   18.8762 H   0  0  0  0  0
   11.2996   20.4898   17.2810 H   0  0  0  0  0
   10.2317   19.6775   16.1346 H   0  0  0  0  0
   12.8426   18.9864   16.1233 H   0  0  0  0  0
   11.7110   17.7628   15.9420 H   0  0  0  0  0
   12.7733   17.0338   17.8335 H   0  0  0  0  0
   14.8891   23.9869   14.9733 H   0  0  0  0  0
   13.2663   23.9997   15.7826 H   0  0  0  0  0
   11.6280   22.3147   15.1394 H   0  0  0  0  0
   11.0284   20.3257   13.7763 H   0  0  0  0  0
   12.7747   19.0294   12.5840 H   0  0  0  0  0
   15.1769   19.7165   12.8154 H   0  0  0  0  0
   15.7558   21.7429   14.1410 H   0  0  0  0  0
  2  1  1  0  0  0
  3  2  4  0  0  0
  7  2  4  0  0  0
  4  3  4  0  0  0
  5  4  4  0  0  0
  5  6  4  0  0  0
  8  5  1  0  0  0
  6  7  4  0  0  0
  8  9  2  0  0  0
  8 10  2  0  0  0
 11  8  1  0  0  0
 11 12  1  0  0  0
 16 11  1  0  0  0
 12 13  1  0  0  0
 13 14  1  0  0  0
 13 15  1  0  0  0
 17 16  1  0  0  0
 17 18  1  0  0  0
 19 17  1  0  0  0
 19 20  1  0  0  0
 32 19  1  0  0  0
 20 21  1  0  0  0
 21 22  2  0  0  0
 21 23  1  0  0  0
 23 24  1  0  0  0
 24 25  1  0  0  0
 24 31  1  0  0  0
 25 26  1  0  0  0
 27 26  1  0  0  0
 27 28  1  0  0  0
 31 27  1  0  0  0
 29 28  1  0  0  0
 30 29  1  0  0  0
 31 30  1  0  0  0
 38 32  1  0  0  0
 33 34  4  0  0  0
 33 38  4  0  0  0
 34 35  4  0  0  0
 35 36  4  0  0  0
 36 37  4  0  0  0
 37 38  4  0  0  0
  1 39  1  0  0  0
  1 40  1  0  0  0
  3 41  1  0  0  0
  4 42  1  0  0  0
  6 43  1  0  0  0
  7 44  1  0  0  0
 12 45  1  0  0  0
 12 46  1  0  0  0
 13 47  1  0  0  0
 14 48  1  0  0  0
 14 49  1  0  0  0
 14 50  1  0  0  0
 15 51  1  0  0  0
 15 52  1  0  0  0
 15 53  1  0  0  0
 16 54  1  0  0  0
 16 55  1  0  0  0
 17 56  1  0  0  0
 18 57  1  0  0  0
 19 58  1  0  0  0
 20 59  1  0  0  0
 24 60  1  0  0  0
 25 61  1  0  0  0
 25 62  1  0  0  0
 27 63  1  0  0  0
 29 64  1  0  0  0
 29 65  1  0  0  0
 30 66  1  0  0  0
 30 67  1  0  0  0
 31 68  1  0  0  0
 32 69  1  0  0  0
 32 70  1  0  0  0
 33 71  1  0  0  0
 34 72  1  0  0  0
 35 73  1  0  0  0
 36 74  1  0  0  0
 37 75  1  0  0  0
M  END
$$$$
