3g58_ligand
  -I-interpret- 

 41 44  0  0  0  0  0  0  0  0999 V2000
   21.9110   -1.2690   34.0930 C   0  0  0  0  0
   21.9300   -2.3400   33.2120 C   0  0  0  0  0
   22.2390   -3.6770   33.7620 C   0  0  0  0  0
   22.4800   -3.8310   35.0880 N   0  0  0  0  0
   22.4470   -2.7720   35.9250 C   0  0  0  0  0
   22.1580   -1.4870   35.4510 C   0  0  0  0  0
   21.7050   -2.2000   31.8380 C   0  0  0  0  0
   21.7340   -3.3020   30.9650 C   0  0  0  0  0
   22.0150   -4.5840   31.4400 C   0  0  0  0  0
   22.2690   -4.8040   32.7930 C   0  0  0  0  0
   22.5460   -6.1650   33.2760 C   0  0  0  0  0
   23.5710   -6.9250   32.7260 C   0  0  0  0  0
   23.7950   -8.2130   33.2220 C   0  0  0  0  0
   22.9800   -8.7000   34.2450 C   0  0  0  0  0
   21.9560   -7.9310   34.7750 C   0  0  0  0  0
   21.7390   -6.6540   34.2900 C   0  0  0  0  0
   21.4870   -3.0780   29.4820 C   0  0  0  0  0
   20.5770   -4.1160   28.8650 C   0  0  0  0  0
   19.1950   -3.9860   28.9680 C   0  0  0  0  0
   18.3790   -4.9520   28.3900 C   0  0  0  0  0
   18.9280   -6.0030   27.7490 N   0  0  0  0  0
   20.2610   -6.1560   27.6330 C   0  0  0  0  0
   21.1200   -5.2120   28.1900 C   0  0  0  0  0
   24.8100   -9.0480   32.7160 N   0  0  0  0  0
   25.4840   -8.7320   31.7420 O   0  0  0  0  0
   25.0380  -10.2720   33.3310 O   0  0  0  0  0
   21.7045   -0.2628   33.7281 H   0  0  0  0  0
   22.6485   -2.9200   36.9859 H   0  0  0  0  0
   22.1253   -0.6490   36.1473 H   0  0  0  0  0
   21.5015   -1.2087   31.4330 H   0  0  0  0  0
   22.0361   -5.4232   30.7448 H   0  0  0  0  0
   24.1892   -6.5244   31.9226 H   0  0  0  0  0
   23.1520   -9.7035   34.6342 H   0  0  0  0  0
   21.3254   -8.3302   35.5694 H   0  0  0  0  0
   20.9399   -6.0378   34.7021 H   0  0  0  0  0
   22.4496   -3.1396   28.9743 H   0  0  0  0  0
   21.0033   -2.1075   29.3711 H   0  0  0  0  0
   18.7581   -3.1378   29.4950 H   0  0  0  0  0
   17.2949   -4.8594   28.4552 H   0  0  0  0  0
   20.6671   -7.0179   27.1036 H   0  0  0  0  0
   22.2003   -5.3266   28.1006 H   0  0  0  0  0
  1  2  4  0  0  0
  1  6  4  0  0  0
  2  3  4  0  0  0
  2  7  4  0  0  0
  3  4  4  0  0  0
  3 10  4  0  0  0
  4  5  4  0  0  0
  5  6  4  0  0  0
  7  8  4  0  0  0
  8  9  4  0  0  0
  8 17  1  0  0  0
  9 10  4  0  0  0
 10 11  1  0  0  0
 11 12  4  0  0  0
 11 16  4  0  0  0
 12 13  4  0  0  0
 13 14  4  0  0  0
 13 24  1  0  0  0
 14 15  4  0  0  0
 15 16  4  0  0  0
 17 18  1  0  0  0
 18 19  4  0  0  0
 18 23  4  0  0  0
 19 20  4  0  0  0
 20 21  4  0  0  0
 21 22  4  0  0  0
 22 23  4  0  0  0
 24 25  2  0  0  0
 24 26  2  0  0  0
  1 27  1  0  0  0
  5 28  1  0  0  0
  6 29  1  0  0  0
  7 30  1  0  0  0
  9 31  1  0  0  0
 12 32  1  0  0  0
 14 33  1  0  0  0
 15 34  1  0  0  0
 16 35  1  0  0  0
 17 36  1  0  0  0
 17 37  1  0  0  0
 19 38  1  0  0  0
 20 39  1  0  0  0
 22 40  1  0  0  0
 23 41  1  0  0  0
M  END
$$$$
