5oh3_ligand
  -I-interpret- 

 21 21  0  0  0  0  0  0  0  0999 V2000
   26.2120   15.9610   -8.4570 O   0  0  0  0  0
   25.1320   16.4410   -8.1520 C   0  0  0  0  0
   23.9450   15.8230   -8.2660 N   0  0  0  0  0
   24.9490   17.8230   -7.5730 C   0  0  0  0  0
   24.9600   18.8750   -8.6840 C   0  0  0  0  0
   26.2330   18.9310   -9.5140 C   0  0  0  0  0
   26.0170   18.1730   -6.5640 C   0  0  0  0  0
   23.5430   17.6740   -6.9670 C   0  0  0  0  0
   23.0440   16.3600   -7.5630 C   0  0  0  0  0
   21.9230   15.8820   -7.3760 O   0  0  0  0  0
   23.7881   15.0069   -8.8574 H   0  0  0  0  0
   24.8628   19.8449   -8.1962 H   0  0  0  0  0
   24.1526   18.6144   -9.3684 H   0  0  0  0  0
   27.0789   19.1571   -8.8648 H   0  0  0  0  0
   26.3923   17.9675   -9.9981 H   0  0  0  0  0
   26.1371   19.7084  -10.2720 H   0  0  0  0  0
   25.7683   19.1214   -6.0878 H   0  0  0  0  0
   26.0722   17.3892   -5.8086 H   0  0  0  0  0
   26.9785   18.2601   -7.0700 H   0  0  0  0  0
   22.8923   18.5163   -7.2020 H   0  0  0  0  0
   23.5537   17.6642   -5.8771 H   0  0  0  0  0
  1  2  2  0  0  0
  2  3  1  0  0  0
  2  4  1  0  0  0
  3  9  1  0  0  0
  4  5  1  0  0  0
  4  7  1  0  0  0
  4  8  1  0  0  0
  5  6  1  0  0  0
  8  9  1  0  0  0
  9 10  2  0  0  0
  3 11  1  0  0  0
  5 12  1  0  0  0
  5 13  1  0  0  0
  6 14  1  0  0  0
  6 15  1  0  0  0
  6 16  1  0  0  0
  7 17  1  0  0  0
  7 18  1  0  0  0
  7 19  1  0  0  0
  8 20  1  0  0  0
  8 21  1  0  0  0
M  END
$$$$
