3qfz_ligand
  -I-interpret- 

 25 25  0  0  0  0  0  0  0  0999 V2000
   10.8350   43.9170   82.5760 C   0  0  0  0  0
   11.3620   44.9720   83.5590 C   0  0  0  0  0
   11.9690   46.0440   82.8080 O   0  0  0  0  0
   12.2830   44.3900   84.6690 C   0  0  0  0  0
   12.5710   45.3870   85.6880 O   0  0  0  0  0
   11.6850   43.1410   85.3430 C   0  0  0  0  0
   12.7260   42.6810   86.1960 O   0  0  0  0  0
   11.2800   42.0950   84.2970 C   0  0  0  0  0
   10.3750   42.7380   83.3330 N   0  3  0  0  0
   10.7430   40.7680   84.8180 C   0  0  0  0  0
    9.4190   40.9330   85.3150 O   0  0  0  0  0
   11.6308   43.6248   81.8908 H   0  0  0  0  0
   10.0051   44.3316   82.0038 H   0  0  0  0  0
   10.5190   45.3728   84.1219 H   0  0  0  0  0
   11.3516   46.3567   82.1427 H   0  0  0  0  0
   13.2057   44.0967   84.1683 H   0  0  0  0  0
   12.9442   46.1682   85.2733 H   0  0  0  0  0
   10.7704   43.3487   85.8984 H   0  0  0  0  0
   12.9444   43.3670   86.8311 H   0  0  0  0  0
   12.2018   41.7699   83.8146 H   0  0  0  0  0
   10.2059   42.0255   82.6230 H   0  0  0  0  0
    9.5981   43.0811   83.8978 H   0  0  0  0  0
   11.3853   40.4160   85.6252 H   0  0  0  0  0
   10.7301   40.0442   84.0031 H   0  0  0  0  0
    9.0930   40.0905   85.6398 H   0  0  0  0  0
  1  2  1  0  0  0
  1  9  1  0  0  0
  2  3  1  0  0  0
  2  4  1  0  0  0
  4  5  1  0  0  0
  4  6  1  0  0  0
  6  7  1  0  0  0
  6  8  1  0  0  0
  8  9  1  0  0  0
  8 10  1  0  0  0
 10 11  1  0  0  0
  1 12  1  0  0  0
  1 13  1  0  0  0
  2 14  1  0  0  0
  3 15  1  0  0  0
  4 16  1  0  0  0
  5 17  1  0  0  0
  6 18  1  0  0  0
  7 19  1  0  0  0
  8 20  1  0  0  0
  9 21  1  0  0  0
  9 22  1  0  0  0
 10 23  1  0  0  0
 10 24  1  0  0  0
 11 25  1  0  0  0
M  END
$$$$
