6hva_ligand
  -I-interpret- 

 85 86  0  0  0  0  0  0  0  0999 V2000
   58.7410 -134.6970   33.7300 C   0  0  0  0  0
   59.9570 -135.1980   34.4940 C   0  0  0  0  0
   61.1990 -134.6250   37.3840 C   0  0  0  0  0
   62.6890 -135.8560   40.3720 C   0  0  0  0  0
   63.6110 -135.4650   42.5860 C   0  0  0  0  0
   64.0970 -133.0650   42.7230 C   0  0  0  0  0
   65.0370 -130.7360   41.4250 C   0  0  0  0  0
   65.5230 -129.6330   40.7300 C   0  0  0  0  0
   64.7820 -133.1310   41.4960 C   0  0  0  0  0
   61.8920 -136.8970   43.7560 C   0  0  0  0  0
   61.7540 -139.8010   42.8240 C   0  0  0  0  0
   63.8980 -131.7980   43.2800 C   0  0  0  0  0
   64.3580 -130.6430   42.6440 C   0  0  0  0  0
   65.3370 -128.3930   41.1910 N   0  0  0  0  0
   65.2400 -131.9860   40.8620 C   0  0  0  0  0
   63.5990 -134.1540   43.4340 C   0  0  0  0  0
   63.3740 -136.7810   43.3610 C   0  0  0  0  0
   61.1830 -138.5550   43.9640 S   0  0  0  0  0
   59.6950 -138.4100   43.7350 O   0  0  0  0  0
   61.4020 -139.0080   45.3970 O   0  0  0  0  0
   62.5690 -135.3360   41.5780 N   0  0  0  0  0
   63.6700 -136.4600   39.9370 O   0  0  0  0  0
   61.4490 -135.6730   39.5490 C   0  0  0  0  0
   60.6290 -136.9430   39.6990 C   0  0  0  0  0
   59.3780 -136.7510   39.0580 O   0  0  0  0  0
   61.8410 -135.4870   38.1680 N   0  0  0  0  0
   60.2470 -133.9120   37.7210 O   0  0  0  0  0
   61.7820 -134.5590   35.9920 C   0  0  0  0  0
   62.9000 -133.5150   36.0320 C   0  0  0  0  0
   63.7970 -133.6100   34.7890 C   0  0  0  0  0
   62.9920 -133.2860   33.5320 C   0  0  0  0  0
   64.9640 -132.6180   34.9450 C   0  0  0  0  0
   60.6600 -134.2260   35.1180 N   0  0  0  0  0
   60.1500 -136.4050   34.6320 O   0  0  0  0  0
   58.0950 -135.7380   32.9250 N   0  0  0  0  0
   58.1770 -135.6270   31.8840 N   0  0  0  0  0
   58.2820 -135.4880   30.8050 N   0  0  0  0  0
   57.8940 -134.1950   34.8760 C   0  0  0  0  0
   56.7080 -134.7460   35.3050 C   0  0  0  0  0
   56.2650 -133.8970   36.2920 C   0  0  0  0  0
   55.1000 -134.1550   36.9550 C   0  0  0  0  0
   54.3560 -135.3030   36.6910 C   0  0  0  0  0
   54.8020 -136.1920   35.7150 C   0  0  0  0  0
   55.9930 -135.9280   35.0190 C   0  0  0  0  0
   58.9559 -133.9437   32.9720 H   0  0  0  0  0
   64.6192 -135.5533   42.1813 H   0  0  0  0  0
   66.0636 -129.7829   39.7954 H   0  0  0  0  0
   64.9564 -134.1027   41.0339 H   0  0  0  0  0
   61.3395 -136.4510   42.9290 H   0  0  0  0  0
   61.8200 -136.4296   44.7380 H   0  0  0  0  0
   61.2361 -140.7391   43.0237 H   0  0  0  0  0
   61.5466 -139.4801   41.8032 H   0  0  0  0  0
   62.8273 -139.9430   42.9506 H   0  0  0  0  0
   63.3726 -131.7100   44.2309 H   0  0  0  0  0
   64.1875 -129.6671   43.0986 H   0  0  0  0  0
   64.8322 -128.2441   42.0647 H   0  0  0  0  0
   65.7653 -132.0700   39.9106 H   0  0  0  0  0
   64.2329 -134.3083   44.3072 H   0  0  0  0  0
   62.5669 -133.9368   43.7093 H   0  0  0  0  0
   63.9872 -136.7827   44.2621 H   0  0  0  0  0
   63.6439 -137.6252   42.7265 H   0  0  0  0  0
   61.7172 -134.8262   41.8123 H   0  0  0  0  0
   60.8674 -134.8083   39.8684 H   0  0  0  0  0
   60.4753 -137.1635   40.7553 H   0  0  0  0  0
   61.1555 -137.7813   39.2428 H   0  0  0  0  0
   58.8493 -137.5475   39.1456 H   0  0  0  0  0
   62.6211 -136.0249   37.7904 H   0  0  0  0  0
   62.2319 -135.4798   35.6208 H   0  0  0  0  0
   63.5117 -133.6954   36.9159 H   0  0  0  0  0
   62.4480 -132.5235   36.0588 H   0  0  0  0  0
   64.1866 -134.6234   34.6922 H   0  0  0  0  0
   62.1705 -133.9958   33.4352 H   0  0  0  0  0
   62.5928 -132.2746   33.6084 H   0  0  0  0  0
   63.6402 -133.3572   32.6586 H   0  0  0  0  0
   64.5691 -131.6066   35.0408 H   0  0  0  0  0
   65.5378 -132.8713   35.8365 H   0  0  0  0  0
   65.6084 -132.6763   34.0678 H   0  0  0  0  0
   60.4038 -133.2488   34.9768 H   0  0  0  0  0
   57.5700 -133.2218   34.5073 H   0  0  0  0  0
   58.5462 -134.3697   35.7317 H   0  0  0  0  0
   56.8481 -133.0120   36.5466 H   0  0  0  0  0
   54.7448 -133.4490   37.7057 H   0  0  0  0  0
   53.4365 -135.5033   37.2410 H   0  0  0  0  0
   54.2274 -137.0910   35.4920 H   0  0  0  0  0
   56.3601 -136.6272   34.2677 H   0  0  0  0  0
  2  1  1  0  0  0
  1 35  1  0  0  0
  1 38  1  0  0  0
 33  2  1  0  0  0
  2 34  2  0  0  0
  3 26  1  0  0  0
  3 27  2  0  0  0
 28  3  1  0  0  0
  4 21  1  0  0  0
  4 22  2  0  0  0
 23  4  1  0  0  0
  5 16  1  0  0  0
  5 17  1  0  0  0
 21  5  1  0  0  0
  6  9  4  0  0  0
  6 12  4  0  0  0
 16  6  1  0  0  0
  7  8  1  0  0  0
 13  7  4  0  0  0
 15  7  4  0  0  0
  8 14  2  0  0  0
  9 15  4  0  0  0
 17 10  1  0  0  0
 10 18  1  0  0  0
 18 11  1  0  0  0
 12 13  4  0  0  0
 18 19  2  0  0  0
 18 20  2  0  0  0
 23 24  1  0  0  0
 26 23  1  0  0  0
 24 25  1  0  0  0
 28 29  1  0  0  0
 28 33  1  0  0  0
 29 30  1  0  0  0
 30 31  1  0  0  0
 30 32  1  0  0  0
 35 36  2  0  0  0
 36 37  3  0  0  0
 38 39  1  0  0  0
 39 40  4  0  0  0
 39 44  4  0  0  0
 40 41  4  0  0  0
 41 42  4  0  0  0
 42 43  4  0  0  0
 43 44  4  0  0  0
  1 45  1  0  0  0
  5 46  1  0  0  0
  8 47  1  0  0  0
  9 48  1  0  0  0
 10 49  1  0  0  0
 10 50  1  0  0  0
 11 51  1  0  0  0
 11 52  1  0  0  0
 11 53  1  0  0  0
 12 54  1  0  0  0
 13 55  1  0  0  0
 14 56  1  0  0  0
 15 57  1  0  0  0
 16 58  1  0  0  0
 16 59  1  0  0  0
 17 60  1  0  0  0
 17 61  1  0  0  0
 21 62  1  0  0  0
 23 63  1  0  0  0
 24 64  1  0  0  0
 24 65  1  0  0  0
 25 66  1  0  0  0
 26 67  1  0  0  0
 28 68  1  0  0  0
 29 69  1  0  0  0
 29 70  1  0  0  0
 30 71  1  0  0  0
 31 72  1  0  0  0
 31 73  1  0  0  0
 31 74  1  0  0  0
 32 75  1  0  0  0
 32 76  1  0  0  0
 32 77  1  0  0  0
 33 78  1  0  0  0
 38 79  1  0  0  0
 38 80  1  0  0  0
 40 81  1  0  0  0
 41 82  1  0  0  0
 42 83  1  0  0  0
 43 84  1  0  0  0
 44 85  1  0  0  0
M  END
$$$$
