### 
### Created by X-TOOL on Mon Aug  2 16:10:12 2021
### 

@<TRIPOS>MOLECULE
6hva_ligand
   85    86     1     0     0
SMALL
GAST_HUCK


@<TRIPOS>ATOM
      1 C6         58.7410 -134.6970   33.7300 C.3       1 GQT         0.3131
      2 C7         59.9570 -135.1980   34.4940 C.2       1 GQT         0.2449
      3 C10        61.1990 -134.6250   37.3840 C.2       1 GQT         0.2040
      4 C13        62.6890 -135.8560   40.3720 C.2       1 GQT         0.2043
      5 C15        63.6110 -135.4650   42.5860 C.3       1 GQT         0.0542
      6 C17        64.0970 -133.0650   42.7230 C.ar      1 GQT        -0.0325
      7 C20        65.0370 -130.7360   41.4250 C.ar      1 GQT         0.0061
      8 C21        65.5230 -129.6330   40.7300 C.2       1 GQT         0.0101
      9 C24        64.7820 -133.1310   41.4960 C.ar      1 GQT        -0.0508
     10 C26        61.8920 -136.8970   43.7560 C.3       1 GQT         0.0677
     11 C28        61.7540 -139.8010   42.8240 C.3       1 GQT         0.0544
     12 C18        63.8980 -131.7980   43.2800 C.ar      1 GQT        -0.0508
     13 C19        64.3580 -130.6430   42.6440 C.ar      1 GQT        -0.0481
     14 N22        65.3370 -128.3930   41.1910 N.2       1 GQT        -0.3549
     15 C23        65.2400 -131.9860   40.8620 C.ar      1 GQT        -0.0481
     16 C16        63.5990 -134.1540   43.4340 C.3       1 GQT         0.0079
     17 C25        63.3740 -136.7810   43.3610 C.3       1 GQT        -0.0084
     18 S27        61.1830 -138.5550   43.9640 S.o2      1 GQT        -0.0337
     19 O29        59.6950 -138.4100   43.7350 O.2       1 GQT        -0.1746
     20 O30        61.4020 -139.0080   45.3970 O.2       1 GQT        -0.1746
     21 N14        62.5690 -135.3360   41.5780 N.am      1 GQT        -0.2797
     22 O31        63.6700 -136.4600   39.9370 O.2       1 GQT        -0.3944
     23 C12        61.4490 -135.6730   39.5490 C.3       1 GQT         0.1538
     24 C32        60.6290 -136.9430   39.6990 C.3       1 GQT         0.0843
     25 O33        59.3780 -136.7510   39.0580 O.3       1 GQT        -0.3903
     26 N11        61.8410 -135.4870   38.1680 N.am      1 GQT        -0.2616
     27 O39        60.2470 -133.9120   37.7210 O.2       1 GQT        -0.3944
     28 C9         61.7820 -134.5590   35.9920 C.3       1 GQT         0.1313
     29 C40        62.9000 -133.5150   36.0320 C.3       1 GQT        -0.0101
     30 C41        63.7970 -133.6100   34.7890 C.3       1 GQT        -0.0425
     31 C42        62.9920 -133.2860   33.5320 C.3       1 GQT        -0.0625
     32 C43        64.9640 -132.6180   34.9450 C.3       1 GQT        -0.0625
     33 N8         60.6600 -134.2260   35.1180 N.am      1 GQT        -0.2609
     34 O44        60.1500 -136.4050   34.6320 O.2       1 GQT        -0.3906
     35 N51        58.0950 -135.7380   32.9250 N.2       1 GQT         0.1934
     36 N52        58.1770 -135.6270   31.8840 N.1       1 GQT         0.1323
     37 N53        58.2820 -135.4880   30.8050 N.1       1 GQT         0.2336
     38 C54        57.8940 -134.1950   34.8760 C.3       1 GQT         0.0575
     39 C55        56.7080 -134.7460   35.3050 C.ar      1 GQT        -0.0354
     40 C60        56.2650 -133.8970   36.2920 C.ar      1 GQT        -0.0600
     41 C59        55.1000 -134.1550   36.9550 C.ar      1 GQT        -0.0686
     42 C58        54.3560 -135.3030   36.6910 C.ar      1 GQT        -0.0687
     43 C57        54.8020 -136.1920   35.7150 C.ar      1 GQT        -0.0686
     44 C56        55.9930 -135.9280   35.0190 C.ar      1 GQT        -0.0600
     45 H1         59.0157 -133.8688   33.0601 H         1 GQT         0.1271
     46 H2         64.5915 -135.5394   42.0930 H         1 GQT         0.0581
     47 H3         66.0631 -129.7827   39.7963 H         1 GQT         0.1084
     48 H4         64.9554 -134.0973   41.0365 H         1 GQT         0.0581
     49 H5         61.3065 -136.3882   42.9761 H         1 GQT         0.0500
     50 H6         61.7676 -136.3675   44.7121 H         1 GQT         0.0500
     51 H7         61.2576 -140.7570   43.0469 H         1 GQT         0.0464
     52 H8         62.8427 -139.9206   42.9265 H         1 GQT         0.0464
     53 H9         61.5141 -139.4944   41.7952 H         1 GQT         0.0464
     54 H10        63.3755 -131.7105   44.2257 H         1 GQT         0.0581
     55 H11        64.1884 -129.6725   43.0961 H         1 GQT         0.0677
     56 H12        65.6955 -127.6045   40.6754 H         1 GQT         0.1192
     57 H13        65.7624 -132.0695   39.9159 H         1 GQT         0.0677
     58 H14        64.2186 -134.3056   44.3301 H         1 GQT         0.0467
     59 H15        62.5639 -133.9367   43.7363 H         1 GQT         0.0467
     60 H16        63.9948 -136.7863   44.2690 H         1 GQT         0.0305
     61 H17        63.6493 -137.6342   42.7236 H         1 GQT         0.0305
     62 H18        61.7339 -134.8362   41.8077 H         1 GQT         0.1857
     63 H19        60.8740 -134.8027   39.8984 H         1 GQT         0.0823
     64 H20        60.4698 -137.1577   40.7660 H         1 GQT         0.0606
     65 H21        61.1602 -137.7848   39.2308 H         1 GQT         0.0606
     66 H22        58.8548 -137.5392   39.1447 H         1 GQT         0.2097
     67 H23        62.6058 -136.0143   37.7978 H         1 GQT         0.1884
     68 H24        62.2042 -135.5295   35.6923 H         1 GQT         0.0800
     69 H25        63.5133 -133.6810   36.9299 H         1 GQT         0.0315
     70 H26        62.4517 -132.5114   36.0745 H         1 GQT         0.0315
     71 H27        64.1965 -134.6315   34.7055 H         1 GQT         0.0298
     72 H28        63.6451 -133.3575   32.6498 H         1 GQT         0.0232
     73 H29        62.5886 -132.2655   33.6078 H         1 GQT         0.0232
     74 H30        62.1626 -134.0017   33.4331 H         1 GQT         0.0232
     75 H31        65.5344 -132.8628   35.8531 H         1 GQT         0.0232
     76 H32        64.5675 -131.5951   35.0258 H         1 GQT         0.0232
     77 H33        65.6239 -132.6873   34.0677 H         1 GQT         0.0232
     78 H34        60.4088 -133.2680   34.9795 H         1 GQT         0.1884
     79 H35        57.6527 -133.1524   34.6217 H         1 GQT         0.0506
     80 H36        58.5558 -134.2144   35.7544 H         1 GQT         0.0506
     81 H37        56.8449 -133.0169   36.5452 H         1 GQT         0.0557
     82 H38        54.7468 -133.4529   37.7016 H         1 GQT         0.0599
     83 H39        53.4416 -135.5022   37.2380 H         1 GQT         0.0559
     84 H40        54.2305 -137.0860   35.4933 H         1 GQT         0.0599
     85 H41        56.3580 -136.6234   34.2718 H         1 GQT         0.0557
@<TRIPOS>BOND
     1    2    1 1  
     2    1   35 1  
     3    1   38 1  
     4   33    2 am 
     5    2   34 2  
     6    3   26 am 
     7    3   27 2  
     8   28    3 1  
     9    4   21 am 
    10    4   22 2  
    11   23    4 1  
    12    5   16 1  
    13    5   17 1  
    14   21    5 1  
    15    6    9 ar 
    16    6   12 ar 
    17   16    6 1  
    18    7    8 1  
    19   13    7 ar 
    20   15    7 ar 
    21    8   14 2  
    22    9   15 ar 
    23   17   10 1  
    24   10   18 1  
    25   18   11 1  
    26   12   13 ar 
    27   18   19 2  
    28   18   20 2  
    29   23   24 1  
    30   26   23 1  
    31   24   25 1  
    32   28   29 1  
    33   28   33 1  
    34   29   30 1  
    35   30   31 1  
    36   30   32 1  
    37   35   36 2  
    38   36   37 3  
    39   38   39 1  
    40   39   40 ar 
    41   39   44 ar 
    42   40   41 ar 
    43   41   42 ar 
    44   42   43 ar 
    45   43   44 ar 
    46    1   45 1  
    47    5   46 1  
    48    8   47 1  
    49    9   48 1  
    50   10   49 1  
    51   10   50 1  
    52   11   51 1  
    53   11   52 1  
    54   11   53 1  
    55   12   54 1  
    56   13   55 1  
    57   14   56 1  
    58   15   57 1  
    59   16   58 1  
    60   16   59 1  
    61   17   60 1  
    62   17   61 1  
    63   21   62 1  
    64   23   63 1  
    65   24   64 1  
    66   24   65 1  
    67   25   66 1  
    68   26   67 1  
    69   28   68 1  
    70   29   69 1  
    71   29   70 1  
    72   30   71 1  
    73   31   72 1  
    74   31   73 1  
    75   31   74 1  
    76   32   75 1  
    77   32   76 1  
    78   32   77 1  
    79   33   78 1  
    80   38   79 1  
    81   38   80 1  
    82   40   81 1  
    83   41   82 1  
    84   42   83 1  
    85   43   84 1  
    86   44   85 1  
@<TRIPOS>SUBSTRUCTURE
     1 GQT         1

