3kah_ligand
  -I-interpret- 

 47 50  0  0  0  0  0  0  0  0999 V2000
   32.0150  -24.0450  -15.6130 C   0  0  0  0  0
   32.1730  -24.7840  -14.4460 C   0  0  0  0  0
   33.3600  -25.4680  -14.2110 C   0  0  0  0  0
   33.0430  -23.9890  -16.5460 C   0  0  0  0  0
   35.3530  -24.7970  -17.0060 N   0  0  0  0  0
   34.2290  -24.6740  -16.3090 C   0  0  0  0  0
   34.3870  -25.4110  -15.1460 C   0  0  0  0  0
   35.6000  -25.9510  -15.1850 N   0  0  0  0  0
   36.1900  -25.5760  -16.3200 C   0  0  0  0  0
   37.5980  -25.9760  -16.7640 C   0  0  0  0  0
   37.5500  -27.1330  -17.7640 C   0  0  0  0  0
   38.9740  -27.5070  -18.1810 C   0  0  0  0  0
   39.3330  -27.3840  -19.3510 O   0  0  0  0  0
   39.7750  -27.9340  -17.3500 O   0  0  0  0  0
   36.7820  -26.7260  -18.9490 N   0  0  0  0  0
   35.5200  -27.1020  -19.1330 C   0  0  0  0  0
   34.8740  -26.5870  -20.4210 C   0  0  0  0  0
   34.8900  -27.8080  -18.3480 O   0  0  0  0  0
   33.5760  -26.4220  -20.6240 N   0  0  0  0  0
   33.3790  -25.9940  -21.7610 N   0  0  0  0  0
   34.5610  -25.8550  -22.3710 C   0  0  0  0  0
   35.5170  -26.2310  -21.5220 C   0  0  0  0  0
   32.5180  -26.7100  -19.6290 C   0  0  0  0  0
   34.7590  -25.3960  -23.6680 C   0  0  0  0  0
   35.9150  -25.7400  -24.3580 C   0  0  0  0  0
   36.1120  -25.2820  -25.6560 C   0  0  0  0  0
   35.1530  -24.4780  -26.2620 C   0  0  0  0  0
   33.9970  -24.1340  -25.5720 C   0  0  0  0  0
   33.8000  -24.5930  -24.2740 C   0  0  0  0  0
   31.0837  -23.5090  -15.7962 H   0  0  0  0  0
   31.3656  -24.8270  -13.7150 H   0  0  0  0  0
   33.4851  -26.0474  -13.2962 H   0  0  0  0  0
   32.9198  -23.4097  -17.4610 H   0  0  0  0  0
   38.1635  -26.2942  -15.8882 H   0  0  0  0  0
   38.0700  -25.1186  -17.2438 H   0  0  0  0  0
   37.0701  -27.9944  -17.2995 H   0  0  0  0  0
   39.3513  -27.9731  -16.4895 H   0  0  0  0  0
   37.2304  -26.1376  -19.6512 H   0  0  0  0  0
   36.5929  -26.2428  -21.6961 H   0  0  0  0  0
   32.5587  -27.7634  -19.3518 H   0  0  0  0  0
   32.6759  -26.0937  -18.7439 H   0  0  0  0  0
   31.5432  -26.4842  -20.0614 H   0  0  0  0  0
   36.6673  -26.3688  -23.8818 H   0  0  0  0  0
   37.0178  -25.5531  -26.1982 H   0  0  0  0  0
   35.3081  -24.1174  -27.2789 H   0  0  0  0  0
   33.2449  -23.5047  -26.0478 H   0  0  0  0  0
   32.8936  -24.3230  -23.7320 H   0  0  0  0  0
  1  2  4  0  0  0
  1  4  4  0  0  0
  2  3  4  0  0  0
  3  7  4  0  0  0
  4  6  4  0  0  0
  6  5  4  0  0  0
  5  9  4  0  0  0
  6  7  4  0  0  0
  7  8  4  0  0  0
  8  9  4  0  0  0
  9 10  1  0  0  0
 10 11  1  0  0  0
 11 12  1  0  0  0
 11 15  1  0  0  0
 12 13  2  0  0  0
 12 14  1  0  0  0
 15 16  1  0  0  0
 16 17  1  0  0  0
 16 18  2  0  0  0
 17 19  4  0  0  0
 17 22  4  0  0  0
 19 20  4  0  0  0
 19 23  1  0  0  0
 20 21  4  0  0  0
 21 22  4  0  0  0
 21 24  1  0  0  0
 24 25  4  0  0  0
 24 29  4  0  0  0
 25 26  4  0  0  0
 26 27  4  0  0  0
 27 28  4  0  0  0
 28 29  4  0  0  0
  1 30  1  0  0  0
  2 31  1  0  0  0
  3 32  1  0  0  0
  4 33  1  0  0  0
 10 34  1  0  0  0
 10 35  1  0  0  0
 11 36  1  0  0  0
 14 37  1  0  0  0
 15 38  1  0  0  0
 22 39  1  0  0  0
 23 40  1  0  0  0
 23 41  1  0  0  0
 23 42  1  0  0  0
 25 43  1  0  0  0
 26 44  1  0  0  0
 27 45  1  0  0  0
 28 46  1  0  0  0
 29 47  1  0  0  0
M  END
$$$$
