2xf0_ligand
  -I-interpret- 

 30 33  0  0  0  0  0  0  0  0999 V2000
   15.0250   -4.6190    8.1190 C   0  0  0  0  0
   16.0230   -5.4970    8.5160 C   0  0  0  0  0
   17.3130   -5.3580    8.0240 C   0  0  0  0  0
   17.6070   -4.3350    7.1330 C   0  0  0  0  0
   16.6070   -3.4560    6.7370 C   0  0  0  0  0
   10.6130   -5.3280    9.7280 C   0  0  0  0  0
    9.5710   -5.8050   10.4010 N   0  0  0  0  0
    8.5890   -5.0870   10.2100 N   0  0  0  0  0
    8.9200   -4.0920    9.3970 C   0  0  0  0  0
   10.1980   -4.2480    9.0880 C   0  0  0  0  0
   10.9510   -3.4180    8.2720 C   0  0  0  0  0
   12.3040   -3.6600    8.0800 C   0  0  0  0  0
   12.3660   -1.7280    6.6700 C   0  0  0  0  0
   13.2580   -1.0610    5.9440 N   0  0  0  0  0
   14.4470   -1.6510    6.0440 C   0  0  0  0  0
   14.3310   -2.7120    6.8320 C   0  0  0  0  0
   15.3170   -3.6030    7.2230 C   0  0  0  0  0
   13.0160   -2.7930    7.2600 N   0  0  0  0  0
   11.0140   -1.5390    6.9070 C   0  0  0  0  0
   10.3530   -2.3690    7.6920 N   0  0  0  0  0
   14.0137   -4.7280    8.5108 H   0  0  0  0  0
   15.7929   -6.2992    9.2172 H   0  0  0  0  0
   18.0941   -6.0509    8.3366 H   0  0  0  0  0
   18.6194   -4.2218    6.7453 H   0  0  0  0  0
   16.8372   -2.6484    6.0422 H   0  0  0  0  0
   11.6188   -5.7475    9.7075 H   0  0  0  0  0
    8.2628   -3.2952    9.0487 H   0  0  0  0  0
   12.7948   -4.5070    8.5593 H   0  0  0  0  0
   15.3643   -1.3176    5.5587 H   0  0  0  0  0
   10.4939   -0.7010    6.4430 H   0  0  0  0  0
  1  2  4  0  0  0
 17  1  4  0  0  0
  2  3  4  0  0  0
  4  3  4  0  0  0
  5  4  4  0  0  0
 17  5  4  0  0  0
  6  7  4  0  0  0
 10  6  4  0  0  0
  8  7  4  0  0  0
  9  8  4  0  0  0
 10  9  4  0  0  0
 11 10  1  0  0  0
 12 11  4  0  0  0
 11 20  4  0  0  0
 18 12  4  0  0  0
 14 13  4  0  0  0
 13 18  4  0  0  0
 13 19  4  0  0  0
 15 14  4  0  0  0
 16 15  4  0  0  0
 16 17  1  0  0  0
 16 18  4  0  0  0
 19 20  4  0  0  0
  1 21  1  0  0  0
  2 22  1  0  0  0
  3 23  1  0  0  0
  4 24  1  0  0  0
  5 25  1  0  0  0
  6 26  1  0  0  0
  9 27  1  0  0  0
 12 28  1  0  0  0
 15 29  1  0  0  0
 19 30  1  0  0  0
M  END
$$$$
