### 
### Created by X-TOOL on Mon Sep 10 21:12:51 2018
### 

@<TRIPOS>MOLECULE
1o4k_ligand
   34    35     1     0     0
SMALL
GAST_HUCK


@<TRIPOS>ATOM
      1 C1         18.2550   26.2210   20.8860 C.ar      1 PSN        -0.0764
      2 C2         18.2980   24.8480   20.5000 C.ar      1 PSN        -0.0788
      3 C3         17.4090   24.3740   19.4840 C.ar      1 PSN        -0.0654
      4 C4         16.4800   25.2360   18.8090 C.ar      1 PSN         0.0171
      5 C5         16.4360   26.5960   19.2320 C.ar      1 PSN         0.1333
      6 C6         17.2920   27.1030   20.2940 C.ar      1 PSN        -0.0340
      7 C7         15.6070   24.6710   17.7140 C.3       1 PSN         0.0771
      8 O8         15.4480   27.4150   18.5870 O.3       1 PSN        -0.1973
      9 P9         15.8280   28.2790   17.2910 P.3       1 PSN         0.2817
     10 O10        16.5510   29.5990   17.5800 O.3       1 PSN        -0.2381
     11 O11        14.4590   28.7830   16.7490 O.co2     1 PSN        -0.6134
     12 C12        17.5610   29.8470   18.6300 C.3       1 PSN         0.1179
     13 C13        18.9590   29.1280   18.4410 C.ar      1 PSN        -0.0121
     14 C16        20.0200   29.4700   19.3790 C.ar      1 PSN        -0.0578
     15 C17        21.3110   28.8980   19.1550 C.ar      1 PSN        -0.0685
     16 C18        21.5380   27.9940   18.0290 C.ar      1 PSN        -0.0687
     17 C19        20.4460   27.5500   17.1990 C.ar      1 PSN        -0.0685
     18 C20        19.1590   28.1350   17.3870 C.ar      1 PSN        -0.0578
     19 O32        16.5240   27.4650   16.1870 O.co2     1 PSN        -0.6134
     20 O25        15.7700   24.8240   16.3820 O.3       1 PSN        -0.3843
     21 H1         18.9507   26.5974   21.6272 H         1 PSN         0.0533
     22 H2         18.9987   24.1693   20.9728 H         1 PSN         0.0512
     23 H3         17.4379   23.3246   19.2137 H         1 PSN         0.0529
     24 H4         17.2032   28.1293   20.6315 H         1 PSN         0.0533
     25 H5         14.6011   25.0640   17.9229 H         1 PSN         0.0700
     26 H6         15.6169   23.5832   17.8771 H         1 PSN         0.0700
     27 H7         17.1380   29.5111   19.5882 H         1 PSN         0.0786
     28 H8         17.7441   30.9309   18.6699 H         1 PSN         0.0786
     29 H9         19.8373   30.1339   20.2162 H         1 PSN         0.0557
     30 H10        22.1284   29.1367   19.8258 H         1 PSN         0.0599
     31 H11        22.5440   27.6518   17.8145 H         1 PSN         0.0559
     32 H12        20.6003   26.7857   16.4460 H         1 PSN         0.0599
     33 H13        18.3314   27.8441   16.7501 H         1 PSN         0.0557
     34 H14        15.7348   25.7480   16.1638 H         1 PSN         0.2123
@<TRIPOS>BOND
     1    1    2 ar 
     2    1    6 ar 
     3    2    3 ar 
     4    3    4 ar 
     5    4    5 ar 
     6    4    7 1  
     7    5    6 ar 
     8    5    8 1  
     9    7   20 1  
    10    8    9 1  
    11    9   10 1  
    12    9   11 ar 
    13    9   19 ar 
    14   10   12 1  
    15   12   13 1  
    16   13   14 ar 
    17   13   18 ar 
    18   14   15 ar 
    19   15   16 ar 
    20   16   17 ar 
    21   17   18 ar 
    22    1   21 1  
    23    2   22 1  
    24    3   23 1  
    25    6   24 1  
    26    7   25 1  
    27    7   26 1  
    28   12   27 1  
    29   12   28 1  
    30   14   29 1  
    31   15   30 1  
    32   16   31 1  
    33   17   32 1  
    34   18   33 1  
    35   20   34 1  
@<TRIPOS>SUBSTRUCTURE
     1 PSN         1

