5za7_ligand
  -I-interpret- 

 38 39  0  0  0  0  0  0  0  0999 V2000
  -28.0790  -16.9650   -1.6940 C   0  0  0  0  0
  -27.6890  -16.0440   -3.8200 N   0  0  0  0  0
  -27.3790  -16.0810   -2.4990 C   0  0  0  0  0
  -29.0150  -17.7610   -2.1930 N   0  0  0  0  0
  -28.6300  -16.8560   -4.3460 C   0  0  0  0  0
  -29.3260  -17.7060   -3.5030 C   0  0  0  0  0
  -30.3760  -18.6580   -3.9390 C   0  0  0  0  0
  -26.2510  -14.9130   -0.5770 C   0  0  0  0  0
  -25.9090  -13.4460   -0.3290 C   0  0  0  0  0
  -27.0010  -12.5110   -0.8330 C   0  0  0  0  0
  -27.2480  -12.6040   -2.3370 C   0  0  0  0  0
  -26.0440  -13.0530   -3.1730 C   0  0  0  0  0
  -25.5550  -14.4830   -2.9650 C   0  0  0  0  0
  -32.0460  -20.1360   -3.0790 C   0  0  0  0  0
  -30.5200  -18.8660   -5.1340 O   0  0  0  0  0
  -31.0750  -19.2330   -2.9420 N   0  0  0  0  0
  -32.6620  -20.5940   -1.9890 N   0  0  0  0  0
  -32.4030  -20.5850   -4.2770 N   0  0  0  0  0
  -27.8050  -17.1750    0.0560 Cl  0  0  0  0  0
  -28.8880  -16.7610   -5.6850 N   0  0  0  0  0
  -26.4050  -15.1890   -2.0130 N   0  0  0  0  0
  -27.1925  -15.1396   -0.0767 H   0  0  0  0  0
  -25.4395  -15.5292   -0.1898 H   0  0  0  0  0
  -24.9889  -13.2155   -0.8661 H   0  0  0  0  0
  -25.8035  -13.2981    0.7458 H   0  0  0  0  0
  -26.6796  -11.4916   -0.6193 H   0  0  0  0  0
  -27.9274  -12.7950   -0.3338 H   0  0  0  0  0
  -27.5041  -11.5994   -2.6736 H   0  0  0  0  0
  -28.0243  -13.3557   -2.4796 H   0  0  0  0  0
  -25.2169  -12.4083   -2.8758 H   0  0  0  0  0
  -26.3644  -12.9952   -4.2132 H   0  0  0  0  0
  -24.5385  -14.4528   -2.5728 H   0  0  0  0  0
  -25.5869  -15.0073   -3.9201 H   0  0  0  0  0
  -32.3883  -20.2533   -1.0674 H   0  0  0  0  0
  -33.4070  -21.2851   -2.0767 H   0  0  0  0  0
  -31.9317  -20.2387   -5.1127 H   0  0  0  0  0
  -28.3750  -16.0901   -6.2569 H   0  0  0  0  0
  -29.5935  -17.3611   -6.1123 H   0  0  0  0  0
  3  1  4  0  0  0
  1  4  4  0  0  0
  1 19  1  0  0  0
  3  2  4  0  0  0
  2  5  4  0  0  0
 21  3  1  0  0  0
  4  6  4  0  0  0
  5  6  4  0  0  0
  5 20  1  0  0  0
  6  7  1  0  0  0
  7 15  2  0  0  0
  7 16  1  0  0  0
  8  9  1  0  0  0
  8 21  1  0  0  0
  9 10  1  0  0  0
 10 11  1  0  0  0
 11 12  1  0  0  0
 12 13  1  0  0  0
 13 21  1  0  0  0
 16 14  4  0  0  0
 14 17  1  0  0  0
 14 18  2  0  0  0
  8 22  1  0  0  0
  8 23  1  0  0  0
  9 24  1  0  0  0
  9 25  1  0  0  0
 10 26  1  0  0  0
 10 27  1  0  0  0
 11 28  1  0  0  0
 11 29  1  0  0  0
 12 30  1  0  0  0
 12 31  1  0  0  0
 13 32  1  0  0  0
 13 33  1  0  0  0
 17 34  1  0  0  0
 17 35  1  0  0  0
 18 36  1  0  0  0
 20 37  1  0  0  0
 20 38  1  0  0  0
M  END
$$$$
