### 
### Created by X-TOOL on Mon Sep 10 21:13:03 2018
### 

@<TRIPOS>MOLECULE
3l3z_ligand
  208   208     1     0     0
SMALL
GAST_HUCK


@<TRIPOS>ATOM
      1 N         -12.3780   31.6090   19.2840 N.4       1 ASN         0.2396
      2 CA        -11.4610   30.4410   19.0910 C.3       1 ASN         0.0818
      3 C         -12.1490   29.0990   19.3860 C.2       1 ASN         0.2291
      4 O         -11.5170   28.1530   19.8620 O.2       1 ASN        -0.3905
      5 CB        -10.2000   30.5950   19.9650 C.3       1 ASN         0.0972
      6 CG        -10.5230   30.7600   21.4370 C.2       1 ASN         0.1813
      7 OD1       -11.2460   29.9500   22.0210 O.2       1 ASN        -0.3969
      8 ND2        -9.9890   31.8150   22.0450 N.am      1 ASN        -0.3006
      9 N         -13.4460   29.0160   19.1000 N.am      1 ALA        -0.2612
     10 CA        -14.2070   27.8060   19.4140 C.3       1 ALA         0.1283
     11 C         -13.6450   26.5990   18.6470 C.2       1 ALA         0.2036
     12 O         -13.3830   25.5470   19.2450 O.2       1 ALA        -0.3944
     13 CB        -15.6990   27.9960   19.1260 C.3       1 ALA        -0.0244
     14 N         -13.4320   26.7760   17.3400 N.am      1 LEU        -0.2637
     15 CA        -12.9540   25.7050   16.4710 C.3       1 LEU         0.1312
     16 C         -11.6010   25.1370   16.9380 C.2       1 LEU         0.2039
     17 O         -11.4200   23.9230   16.9780 O.2       1 LEU        -0.3944
     18 CB        -12.8720   26.1860   15.0120 C.3       1 LEU        -0.0101
     19 CG        -12.5440   25.0840   13.9880 C.3       1 LEU        -0.0425
     20 CD1       -13.3350   23.7800   14.2820 C.3       1 LEU        -0.0625
     21 CD2       -12.7850   25.5460   12.5580 C.3       1 LEU        -0.0625
     22 N         -10.6690   26.0100   17.3120 N.am      1 LEU        -0.2637
     23 CA         -9.3690   25.5730   17.8720 C.3       1 LEU         0.1312
     24 C          -9.5160   24.7190   19.1240 C.2       1 LEU         0.2039
     25 O          -8.8740   23.6840   19.2330 O.2       1 LEU        -0.3944
     26 CB         -8.4900   26.7680   18.2120 C.3       1 LEU        -0.0101
     27 CG         -7.0200   26.4450   18.4720 C.3       1 LEU        -0.0425
     28 CD1        -6.3880   25.9660   17.2080 C.3       1 LEU        -0.0625
     29 CD2        -6.3010   27.6750   18.9610 C.3       1 LEU        -0.0625
     30 N         -10.3710   25.1650   20.0470 N.am      1 ARG        -0.2637
     31 CA        -10.6600   24.4650   21.3070 C.3       1 ARG         0.1311
     32 C         -11.1430   23.0570   21.0550 C.2       1 ARG         0.2040
     33 O         -10.7460   22.1260   21.7430 O.2       1 ARG        -0.3944
     34 CB        -11.7440   25.1980   22.1100 C.3       1 ARG        -0.0092
     35 CG        -11.2290   26.0870   23.2200 C.3       1 ARG        -0.0156
     36 CD        -10.9230   25.2910   24.4910 C.3       1 ARG         0.0627
     37 NE        -10.6330   26.1770   25.6350 N.pl3     1 ARG        -0.2723
     38 CZ        -10.4700   25.7610   26.8920 C.cat     1 ARG         0.2882
     39 NH1       -10.5710   24.4650   27.2000 N.pl3     1 ARG        -0.2849
     40 NH2       -10.2150   26.6430   27.8500 N.pl3     1 ARG        -0.2849
     41 N         -12.0430   22.9360   20.0890 N.am      1 TYR        -0.2621
     42 CA        -12.5990   21.6480   19.6950 C.3       1 TYR         0.1390
     43 C         -11.5020   20.7000   19.2300 C.2       1 TYR         0.2057
     44 O         -11.5140   19.5470   19.6310 O.2       1 TYR        -0.3942
     45 CB        -13.6230   21.8190   18.5740 C.3       1 TYR         0.0163
     46 CG        -14.4220   20.5700   18.2570 C.ar      1 TYR        -0.0493
     47 CD1       -15.1570   19.9270   19.2520 C.ar      1 TYR        -0.0685
     48 CD2       -14.4680   20.0500   16.9660 C.ar      1 TYR        -0.0685
     49 CE1       -15.8990   18.8040   18.9850 C.ar      1 TYR        -0.0398
     50 CE2       -15.2220   18.8990   16.6880 C.ar      1 TYR        -0.0398
     51 CZ        -15.9330   18.2860   17.7060 C.ar      1 TYR         0.0805
     52 OH        -16.6860   17.1670   17.4340 O.3       1 TYR        -0.3376
     53 N         -10.5730   21.1900   18.3880 N.am      1 LEU        -0.2636
     54 CA         -9.4450   20.3770   17.8850 C.3       1 LEU         0.1312
     55 C          -8.5020   19.8890   19.0080 C.2       1 LEU         0.2039
     56 O          -7.9320   18.7920   18.9280 O.2       1 LEU        -0.3944
     57 CB         -8.6310   21.1470   16.8240 C.3       1 LEU        -0.0101
     58 CG         -9.2750   21.3620   15.4500 C.3       1 LEU        -0.0425
     59 CD1        -8.4440   22.3640   14.6560 C.3       1 LEU        -0.0625
     60 CD2        -9.4150   20.0620   14.6590 C.3       1 LEU        -0.0625
     61 N          -8.3570   20.7170   20.0420 N.am      1 LEU        -0.2637
     62 CA         -7.5710   20.3700   21.2250 C.3       1 LEU         0.1312
     63 C          -8.2610   19.3620   22.1450 C.2       1 LEU         0.2040
     64 O          -7.6090   18.4250   22.6200 O.2       1 LEU        -0.3944
     65 CB         -7.2430   21.6240   22.0480 C.3       1 LEU        -0.0101
     66 CG         -5.9830   22.4260   21.7380 C.3       1 LEU        -0.0425
     67 CD1        -5.9450   23.6030   22.7050 C.3       1 LEU        -0.0625
     68 CD2        -4.7150   21.6070   21.9110 C.3       1 LEU        -0.0625
     69 N          -9.5560   19.5810   22.4210 N.am      1 ASP        -0.2622
     70 CA        -10.3350   18.7180   23.3290 C.3       1 ASP         0.1423
     71 C         -10.5930   17.3270   22.7600 C.2       1 ASP         0.2056
     72 O         -10.4870   16.3410   23.4950 O.2       1 ASP        -0.3943
     73 CB        -11.6890   19.3540   23.6640 C.3       1 ASP         0.0406
     74 CG        -11.5530   20.6360   24.4360 C.2       1 ASP         0.0393
     75 OD1       -12.4790   21.4550   24.3650 O.co2     1 ASP        -0.5688
     76 OD2       -10.5120   20.8370   25.1030 O.co2     1 ASP        -0.5688
     77 N         -10.9550   17.2700   21.4720 N.am      1 ARG        -0.2636
     78 CA        -11.3430   16.0200   20.8110 C.3       1 ARG         0.1311
     79 C         -10.1570   15.0780   20.7900 C.2       1 ARG         0.2040
     80 O          -9.0920   15.4480   20.3040 O.2       1 ARG        -0.3944
     81 CB        -11.8360   16.2700   19.3860 C.3       1 ARG        -0.0092
     82 CG        -10.7480   16.7940   18.4410 C.3       1 ARG        -0.0156
     83 CD        -11.3170   17.2290   17.1330 C.3       1 ARG         0.0627
     84 NE        -12.1920   16.2080   16.5670 N.pl3     1 ARG        -0.2723
     85 CZ        -12.8780   16.3510   15.4360 C.cat     1 ARG         0.2882
     86 NH1       -12.7910   17.4740   14.7280 N.pl3     1 ARG        -0.2849
     87 NH2       -13.6550   15.3600   15.0050 N.pl3     1 ARG        -0.2849
     88 N         -10.3380   13.8790   21.3430 N.am      1 ASP        -0.2622
     89 CA         -9.2470   12.9150   21.5200 C.3       1 ASP         0.1423
     90 C          -8.0800   13.4970   22.3630 C.2       1 ASP         0.2051
     91 O          -7.4520   14.5030   21.9820 O.2       1 ASP        -0.3943
     92 CB         -8.7460   12.4510   20.1520 C.3       1 ASP         0.0406
     93 CG         -9.8130   11.7750   19.3550 C.2       1 ASP         0.0393
     94 OD1       -10.3150   10.7500   19.8440 O.co2     1 ASP        -0.5688
     95 OD2       -10.1450   12.2650   18.2540 O.co2     1 ASP        -0.5688
     96 N          -7.8050   12.8820   23.5120 N.am      1 ASP        -0.2678
     97 CA         -6.6750   13.3040   24.3540 C.3       1 ASP         0.1058
     98 C          -6.3400   12.2430   25.4310 C.2       1 ASP         0.0618
     99 O          -5.5530   11.3220   25.2050 O.co2     1 ASP        -0.5665
    100 CB         -6.9630   14.6860   24.9790 C.3       1 ASP         0.0351
    101 CG         -8.2220   14.6910   25.8200 C.2       1 ASP         0.0387
    102 OD1        -8.3460   13.8080   26.6950 O.co2     1 ASP        -0.5688
    103 OD2        -9.0830   15.5760   25.6190 O.co2     1 ASP        -0.5688
    104 OXT        -6.8480   12.2810   26.5530 O.co2     1 ASP        -0.5665
    105 H1        -11.8825   32.4626   19.0792 H         1 ASN         0.2017
    106 H2        -12.7007   31.6287   20.2387 H         1 ASN         0.2017
    107 H3        -13.1680   31.5221   18.6640 H         1 ASN         0.2017
    108 H4        -11.1479   30.4326   18.0365 H         1 ASN         0.1125
    109 H5         -9.6431   31.4809   19.6258 H         1 ASN         0.0585
    110 H6         -9.5744   29.6988   19.8407 H         1 ASN         0.0585
    111 H7        -10.1669   31.9757   23.0158 H         1 ASN         0.1814
    112 H8         -9.4094   32.4478   21.5314 H         1 ASN         0.1814
    113 H9        -13.9063   29.7900   18.6652 H         1 ALA         0.1884
    114 H10       -14.0950   27.6059   20.4898 H         1 ALA         0.0797
    115 H11       -16.2406   27.0708   19.3721 H         1 ALA         0.0277
    116 H12       -15.8398   28.2310   18.0607 H         1 ALA         0.0277
    117 H13       -16.0883   28.8226   19.7384 H         1 ALA         0.0277
    118 H14       -13.6067   27.6765   16.9419 H         1 LEU         0.1883
    119 H15       -13.6893   24.8881   16.5155 H         1 LEU         0.0800
    120 H16       -12.0892   26.9562   14.9487 H         1 LEU         0.0315
    121 H17       -13.8429   26.6268   14.7416 H         1 LEU         0.0315
    122 H18       -11.4729   24.8532   14.0857 H         1 LEU         0.0298
    123 H19       -13.0762   23.0174   13.5327 H         1 LEU         0.0232
    124 H20       -14.4143   23.9876   14.2362 H         1 LEU         0.0232
    125 H21       -13.0747   23.4115   15.2852 H         1 LEU         0.0232
    126 H22       -12.2170   26.4691   12.3703 H         1 LEU         0.0232
    127 H23       -13.8578   25.7393   12.4110 H         1 LEU         0.0232
    128 H24       -12.4543   24.7635   11.8592 H         1 LEU         0.0232
    129 H25       -10.8512   26.9882   17.2123 H         1 LEU         0.1883
    130 H26        -8.8609   24.9715   17.1039 H         1 LEU         0.0800
    131 H27        -8.8982   27.2437   19.1159 H         1 LEU         0.0315
    132 H28        -8.5387   27.4757   17.3713 H         1 LEU         0.0315
    133 H29        -6.9508   25.6568   19.2361 H         1 LEU         0.0298
    134 H30        -5.3291   25.7328   17.3930 H         1 LEU         0.0232
    135 H31        -6.4619   26.7508   16.4408 H         1 LEU         0.0232
    136 H32        -6.9070   25.0613   16.8584 H         1 LEU         0.0232
    137 H33        -6.7682   28.0267   19.8927 H         1 LEU         0.0232
    138 H34        -6.3649   28.4648   18.1980 H         1 LEU         0.0232
    139 H35        -5.2449   27.4318   19.1495 H         1 LEU         0.0232
    140 H36       -10.8439   26.0282   19.8705 H         1 ARG         0.1883
    141 H37        -9.7359   24.4261   21.9024 H         1 ARG         0.0800
    142 H38       -12.4059   24.4422   22.5580 H         1 ARG         0.0313
    143 H39       -12.3207   25.8232   21.4125 H         1 ARG         0.0313
    144 H40       -11.9908   26.8463   23.4504 H         1 ARG         0.0301
    145 H41       -10.3078   26.5831   22.8803 H         1 ARG         0.0301
    146 H42       -10.0490   24.6488   24.3074 H         1 ARG         0.0689
    147 H43       -11.7931   24.6646   24.7372 H         1 ARG         0.0689
    148 H44       -10.5507   27.1869   25.4501 H         1 ARG         0.2642
    149 H45       -10.4431   24.1557   28.1741 H         1 ARG         0.2615
    150 H46       -10.7767   23.7751   26.4634 H         1 ARG         0.2615
    151 H47       -10.1356   27.6440   27.6206 H         1 ARG         0.2615
    152 H48       -10.0964   26.3266   28.8230 H         1 ARG         0.2615
    153 H49       -12.3518   23.7594   19.6130 H         1 TYR         0.1885
    154 H50       -13.1012   21.2053   20.5678 H         1 TYR         0.0821
    155 H51       -13.0875   22.1248   17.6631 H         1 TYR         0.0453
    156 H52       -14.3266   22.6113   18.8692 H         1 TYR         0.0453
    157 H53       -15.1420   20.3237   20.2607 H         1 TYR         0.0530
    158 H54       -13.9174   20.5377   16.1697 H         1 TYR         0.0530
    159 H55       -16.4589   18.3233   19.7791 H         1 TYR         0.0525
    160 H56       -15.2475   18.4928   15.6833 H         1 TYR         0.0525
    161 H57       -17.1085   16.8696   18.2312 H         1 TYR         0.2458
    162 H58       -10.6488   22.1418   18.0908 H         1 LEU         0.1883
    163 H59        -9.8744   19.4869   17.4020 H         1 LEU         0.0800
    164 H60        -7.6934   20.5944   16.6645 H         1 LEU         0.0315
    165 H61        -8.4052   22.1400   17.2400 H         1 LEU         0.0315
    166 H62       -10.2812   21.7792   15.6031 H         1 LEU         0.0298
    167 H63        -8.9034   22.5208   13.6689 H         1 LEU         0.0232
    168 H64        -7.4235   21.9740   14.5276 H         1 LEU         0.0232
    169 H65        -8.4056   23.3201   15.1986 H         1 LEU         0.0232
    170 H66       -10.0152   19.3439   15.2371 H         1 LEU         0.0232
    171 H67        -8.4176   19.6382   14.4705 H         1 LEU         0.0232
    172 H68        -9.9131   20.2680   13.7001 H         1 LEU         0.0232
    173 H69        -8.8035   21.6111   20.0075 H         1 LEU         0.1883
    174 H70        -6.6283   19.9228   20.8766 H         1 LEU         0.0800
    175 H71        -7.1672   21.3051   23.0980 H         1 LEU         0.0315
    176 H72        -8.0941   22.3114   21.9341 H         1 LEU         0.0315
    177 H73        -6.0325   22.7924   20.7020 H         1 LEU         0.0298
    178 H74        -5.0466   24.2075   22.5116 H         1 LEU         0.0232
    179 H75        -5.9189   23.2277   23.7386 H         1 LEU         0.0232
    180 H76        -6.8420   24.2235   22.5628 H         1 LEU         0.0232
    181 H77        -4.7321   20.7538   21.2169 H         1 LEU         0.0232
    182 H78        -4.6556   21.2371   22.9452 H         1 LEU         0.0232
    183 H79        -3.8393   22.2371   21.6960 H         1 LEU         0.0232
    184 H80       -10.0118   20.3616   21.9934 H         1 ASP         0.1884
    185 H81        -9.7589   18.6072   24.2595 H         1 ASP         0.0819
    186 H82       -12.2732   18.6417   24.2651 H         1 ASP         0.0478
    187 H83       -12.2212   19.5639   22.7245 H         1 ASP         0.0478
    188 H84       -10.9610   18.1157   20.9384 H         1 ARG         0.1883
    189 H85       -12.1579   15.5560   21.3861 H         1 ARG         0.0800
    190 H86       -12.6487   17.0103   19.4244 H         1 ARG         0.0313
    191 H87       -12.2215   15.3229   18.9806 H         1 ARG         0.0313
    192 H88       -10.0150   15.9935   18.2624 H         1 ARG         0.0301
    193 H89       -10.2469   17.6511   18.9145 H         1 ARG         0.0301
    194 H90       -10.4927   17.4231   16.4309 H         1 ARG         0.0689
    195 H91       -11.8954   18.1524   17.2837 H         1 ARG         0.0689
    196 H92       -12.2848   15.3177   17.0766 H         1 ARG         0.2642
    197 H93       -13.3263   17.5744   13.8538 H         1 ARG         0.2615
    198 H94       -12.1883   18.2430   15.0541 H         1 ARG         0.2615
    199 H95       -13.7266   14.4881   15.5486 H         1 ARG         0.2615
    200 H96       -14.1847   15.4651   14.1279 H         1 ARG         0.2615
    201 H97       -11.2556   13.6262   21.6499 H         1 ASP         0.1884
    202 H98        -9.6473   12.0421   22.0564 H         1 ASP         0.0819
    203 H99        -7.9153   11.7454   20.3005 H         1 ASP         0.0478
    204 H100       -8.3874   13.3268   19.5913 H         1 ASP         0.0478
    205 H101       -8.3782   12.1180   23.8082 H         1 ASP         0.1877
    206 H102       -5.7924   13.4067   23.7056 H         1 ASP         0.0745
    207 H103       -7.0764   15.4224   24.1698 H         1 ASP         0.0471
    208 H104       -6.1122   14.9693   25.6160 H         1 ASP         0.0471
@<TRIPOS>BOND
     1    1    2 1  
     2    2    3 1  
     3    2    5 1  
     4    3    4 2  
     5    3    9 am 
     6    5    6 1  
     7    6    7 2  
     8    6    8 am 
     9    9   10 1  
    10   10   11 1  
    11   10   13 1  
    12   11   12 2  
    13   11   14 am 
    14   14   15 1  
    15   15   16 1  
    16   15   18 1  
    17   16   17 2  
    18   16   22 am 
    19   18   19 1  
    20   19   20 1  
    21   19   21 1  
    22   22   23 1  
    23   23   24 1  
    24   23   26 1  
    25   24   25 2  
    26   24   30 am 
    27   26   27 1  
    28   27   28 1  
    29   27   29 1  
    30   30   31 1  
    31   31   32 1  
    32   31   34 1  
    33   32   33 2  
    34   32   41 am 
    35   34   35 1  
    36   35   36 1  
    37   36   37 1  
    38   37   38 ar 
    39   38   39 ar 
    40   38   40 ar 
    41   41   42 1  
    42   42   43 1  
    43   42   45 1  
    44   43   44 2  
    45   43   53 am 
    46   45   46 1  
    47   46   47 ar 
    48   46   48 ar 
    49   47   49 ar 
    50   48   50 ar 
    51   49   51 ar 
    52   50   51 ar 
    53   51   52 1  
    54   53   54 1  
    55   54   55 1  
    56   54   57 1  
    57   55   56 2  
    58   55   61 am 
    59   57   58 1  
    60   58   59 1  
    61   58   60 1  
    62   61   62 1  
    63   62   63 1  
    64   62   65 1  
    65   63   64 2  
    66   63   69 am 
    67   65   66 1  
    68   66   67 1  
    69   66   68 1  
    70   69   70 1  
    71   70   71 1  
    72   70   73 1  
    73   71   72 2  
    74   71   77 am 
    75   73   74 1  
    76   74   75 ar 
    77   74   76 ar 
    78   77   78 1  
    79   78   79 1  
    80   78   81 1  
    81   79   80 2  
    82   79   88 am 
    83   81   82 1  
    84   82   83 1  
    85   83   84 1  
    86   84   85 ar 
    87   85   86 ar 
    88   85   87 ar 
    89   88   89 1  
    90   89   90 1  
    91   89   92 1  
    92   90   91 2  
    93   90   96 am 
    94   92   93 1  
    95   93   94 ar 
    96   93   95 ar 
    97   96   97 1  
    98   97   98 1  
    99   97  100 1  
   100   98   99 ar 
   101   98  104 ar 
   102  100  101 1  
   103  101  102 ar 
   104  101  103 ar 
   105    1  105 1  
   106    1  106 1  
   107    1  107 1  
   108    2  108 1  
   109    5  109 1  
   110    5  110 1  
   111    8  111 1  
   112    8  112 1  
   113    9  113 1  
   114   10  114 1  
   115   13  115 1  
   116   13  116 1  
   117   13  117 1  
   118   14  118 1  
   119   15  119 1  
   120   18  120 1  
   121   18  121 1  
   122   19  122 1  
   123   20  123 1  
   124   20  124 1  
   125   20  125 1  
   126   21  126 1  
   127   21  127 1  
   128   21  128 1  
   129   22  129 1  
   130   23  130 1  
   131   26  131 1  
   132   26  132 1  
   133   27  133 1  
   134   28  134 1  
   135   28  135 1  
   136   28  136 1  
   137   29  137 1  
   138   29  138 1  
   139   29  139 1  
   140   30  140 1  
   141   31  141 1  
   142   34  142 1  
   143   34  143 1  
   144   35  144 1  
   145   35  145 1  
   146   36  146 1  
   147   36  147 1  
   148   37  148 1  
   149   39  149 1  
   150   39  150 1  
   151   40  151 1  
   152   40  152 1  
   153   41  153 1  
   154   42  154 1  
   155   45  155 1  
   156   45  156 1  
   157   47  157 1  
   158   48  158 1  
   159   49  159 1  
   160   50  160 1  
   161   52  161 1  
   162   53  162 1  
   163   54  163 1  
   164   57  164 1  
   165   57  165 1  
   166   58  166 1  
   167   59  167 1  
   168   59  168 1  
   169   59  169 1  
   170   60  170 1  
   171   60  171 1  
   172   60  172 1  
   173   61  173 1  
   174   62  174 1  
   175   65  175 1  
   176   65  176 1  
   177   66  177 1  
   178   67  178 1  
   179   67  179 1  
   180   67  180 1  
   181   68  181 1  
   182   68  182 1  
   183   68  183 1  
   184   69  184 1  
   185   70  185 1  
   186   73  186 1  
   187   73  187 1  
   188   77  188 1  
   189   78  189 1  
   190   81  190 1  
   191   81  191 1  
   192   82  192 1  
   193   82  193 1  
   194   83  194 1  
   195   83  195 1  
   196   84  196 1  
   197   86  197 1  
   198   86  198 1  
   199   87  199 1  
   200   87  200 1  
   201   88  201 1  
   202   89  202 1  
   203   92  203 1  
   204   92  204 1  
   205   96  205 1  
   206   97  206 1  
   207  100  207 1  
   208  100  208 1  
@<TRIPOS>SUBSTRUCTURE
     1 ASN         1

