3l3z_ligand
  -I-interpret- 

210210  0  0  0  0  0  0  0  0999 V2000
  -12.3780   31.6090   19.2840 N   0  3  0  0  0
  -11.4610   30.4410   19.0910 C   0  0  0  0  0
  -12.1490   29.0990   19.3860 C   0  0  0  0  0
  -11.5170   28.1530   19.8620 O   0  0  0  0  0
  -10.2000   30.5950   19.9650 C   0  0  0  0  0
  -10.5230   30.7600   21.4370 C   0  0  0  0  0
  -11.2460   29.9500   22.0210 O   0  0  0  0  0
   -9.9890   31.8150   22.0450 N   0  0  0  0  0
  -13.4460   29.0160   19.1000 N   0  0  0  0  0
  -14.2070   27.8060   19.4140 C   0  0  0  0  0
  -13.6450   26.5990   18.6470 C   0  0  0  0  0
  -13.3830   25.5470   19.2450 O   0  0  0  0  0
  -15.6990   27.9960   19.1260 C   0  0  0  0  0
  -13.4320   26.7760   17.3400 N   0  0  0  0  0
  -12.9540   25.7050   16.4710 C   0  0  0  0  0
  -11.6010   25.1370   16.9380 C   0  0  0  0  0
  -11.4200   23.9230   16.9780 O   0  0  0  0  0
  -12.8720   26.1860   15.0120 C   0  0  0  0  0
  -12.5440   25.0840   13.9880 C   0  0  0  0  0
  -13.3350   23.7800   14.2820 C   0  0  0  0  0
  -12.7850   25.5460   12.5580 C   0  0  0  0  0
  -10.6690   26.0100   17.3120 N   0  0  0  0  0
   -9.3690   25.5730   17.8720 C   0  0  0  0  0
   -9.5160   24.7190   19.1240 C   0  0  0  0  0
   -8.8740   23.6840   19.2330 O   0  0  0  0  0
   -8.4900   26.7680   18.2120 C   0  0  0  0  0
   -7.0200   26.4450   18.4720 C   0  0  0  0  0
   -6.3880   25.9660   17.2080 C   0  0  0  0  0
   -6.3010   27.6750   18.9610 C   0  0  0  0  0
  -10.3710   25.1650   20.0470 N   0  0  0  0  0
  -10.6600   24.4650   21.3070 C   0  0  0  0  0
  -11.1430   23.0570   21.0550 C   0  0  0  0  0
  -10.7460   22.1260   21.7430 O   0  0  0  0  0
  -11.7440   25.1980   22.1100 C   0  0  0  0  0
  -11.2290   26.0870   23.2200 C   0  0  0  0  0
  -10.9230   25.2910   24.4910 C   0  0  0  0  0
  -10.6330   26.1770   25.6350 N   0  0  0  0  0
  -10.4700   25.7610   26.8920 C   0  0  0  0  0
  -10.5710   24.4650   27.2000 N   0  0  0  0  0
  -10.2150   26.6430   27.8500 N   0  0  0  0  0
  -12.0430   22.9360   20.0890 N   0  0  0  0  0
  -12.5990   21.6480   19.6950 C   0  0  0  0  0
  -11.5020   20.7000   19.2300 C   0  0  0  0  0
  -11.5140   19.5470   19.6310 O   0  0  0  0  0
  -13.6230   21.8190   18.5740 C   0  0  0  0  0
  -14.4220   20.5700   18.2570 C   0  0  0  0  0
  -15.1570   19.9270   19.2520 C   0  0  0  0  0
  -14.4680   20.0500   16.9660 C   0  0  0  0  0
  -15.8990   18.8040   18.9850 C   0  0  0  0  0
  -15.2220   18.8990   16.6880 C   0  0  0  0  0
  -15.9330   18.2860   17.7060 C   0  0  0  0  0
  -16.6860   17.1670   17.4340 O   0  0  0  0  0
  -10.5730   21.1900   18.3880 N   0  0  0  0  0
   -9.4450   20.3770   17.8850 C   0  0  0  0  0
   -8.5020   19.8890   19.0080 C   0  0  0  0  0
   -7.9320   18.7920   18.9280 O   0  0  0  0  0
   -8.6310   21.1470   16.8240 C   0  0  0  0  0
   -9.2750   21.3620   15.4500 C   0  0  0  0  0
   -8.4440   22.3640   14.6560 C   0  0  0  0  0
   -9.4150   20.0620   14.6590 C   0  0  0  0  0
   -8.3570   20.7170   20.0420 N   0  0  0  0  0
   -7.5710   20.3700   21.2250 C   0  0  0  0  0
   -8.2610   19.3620   22.1450 C   0  0  0  0  0
   -7.6090   18.4250   22.6200 O   0  0  0  0  0
   -7.2430   21.6240   22.0480 C   0  0  0  0  0
   -5.9830   22.4260   21.7380 C   0  0  0  0  0
   -5.9450   23.6030   22.7050 C   0  0  0  0  0
   -4.7150   21.6070   21.9110 C   0  0  0  0  0
   -9.5560   19.5810   22.4210 N   0  0  0  0  0
  -10.3350   18.7180   23.3290 C   0  0  0  0  0
  -10.5930   17.3270   22.7600 C   0  0  0  0  0
  -10.4870   16.3410   23.4950 O   0  0  0  0  0
  -11.6890   19.3540   23.6640 C   0  0  0  0  0
  -11.5530   20.6360   24.4360 C   0  0  0  0  0
  -12.4790   21.4550   24.3650 O   0  0  0  0  0
  -10.5120   20.8370   25.1030 O   0  0  0  0  0
  -10.9550   17.2700   21.4720 N   0  0  0  0  0
  -11.3430   16.0200   20.8110 C   0  0  0  0  0
  -10.1570   15.0780   20.7900 C   0  0  0  0  0
   -9.0920   15.4480   20.3040 O   0  0  0  0  0
  -11.8360   16.2700   19.3860 C   0  0  0  0  0
  -10.7480   16.7940   18.4410 C   0  0  0  0  0
  -11.3170   17.2290   17.1330 C   0  0  0  0  0
  -12.1920   16.2080   16.5670 N   0  0  0  0  0
  -12.8780   16.3510   15.4360 C   0  0  0  0  0
  -12.7910   17.4740   14.7280 N   0  0  0  0  0
  -13.6550   15.3600   15.0050 N   0  0  0  0  0
  -10.3380   13.8790   21.3430 N   0  0  0  0  0
   -9.2470   12.9150   21.5200 C   0  0  0  0  0
   -8.0800   13.4970   22.3630 C   0  0  0  0  0
   -7.4520   14.5030   21.9820 O   0  0  0  0  0
   -8.7460   12.4510   20.1520 C   0  0  0  0  0
   -9.8130   11.7750   19.3550 C   0  0  0  0  0
  -10.3150   10.7500   19.8440 O   0  0  0  0  0
  -10.1450   12.2650   18.2540 O   0  0  0  0  0
   -7.8050   12.8820   23.5120 N   0  0  0  0  0
   -6.6750   13.3040   24.3540 C   0  0  0  0  0
   -6.3400   12.2430   25.4310 C   0  0  0  0  0
   -5.5530   11.3220   25.2050 O   0  0  0  0  0
   -6.9630   14.6860   24.9790 C   0  0  0  0  0
   -8.2220   14.6910   25.8200 C   0  0  0  0  0
   -8.3460   13.8080   26.6950 O   0  0  0  0  0
   -9.0830   15.5760   25.6190 O   0  0  0  0  0
   -6.8480   12.2810   26.5530 O   0  0  0  0  0
  -13.2053   31.4905   18.6993 H   0  0  0  0  0
  -12.6573   31.6622   20.2636 H   0  0  0  0  0
  -11.8938   32.4671   19.0202 H   0  0  0  0  0
  -11.1740   30.4333   18.0395 H   0  0  0  0  0
   -9.6729   31.4906   19.6362 H   0  0  0  0  0
   -9.6035   29.6896   19.8533 H   0  0  0  0  0
  -10.1720   31.9800   23.0348 H   0  0  0  0  0
   -9.3963   32.4594   21.5216 H   0  0  0  0  0
  -13.9155   29.8054   18.6565 H   0  0  0  0  0
  -14.1022   27.6103   20.4812 H   0  0  0  0  0
  -16.0835   28.8154   19.7334 H   0  0  0  0  0
  -15.8372   28.2288   18.0702 H   0  0  0  0  0
  -16.2346   27.0786   19.3702 H   0  0  0  0  0
  -13.6102   27.6946   16.9339 H   0  0  0  0  0
  -13.6786   24.8929   16.5307 H   0  0  0  0  0
  -12.0629   26.9148   14.9635 H   0  0  0  0  0
  -13.8552   26.5781   14.7517 H   0  0  0  0  0
  -11.4808   24.8670   14.0909 H   0  0  0  0  0
  -13.0762   23.4159   15.2763 H   0  0  0  0  0
  -14.4042   23.9870   14.2364 H   0  0  0  0  0
  -13.0777   23.0252   13.5390 H   0  0  0  0  0
  -13.8326   25.8223   12.4385 H   0  0  0  0  0
  -12.1538   26.4088   12.3450 H   0  0  0  0  0
  -12.5406   24.7367   11.8700 H   0  0  0  0  0
  -10.8548   27.0078   17.2103 H   0  0  0  0  0
   -8.9063   24.9671   17.0930 H   0  0  0  0  0
   -8.8841   27.1923   19.1355 H   0  0  0  0  0
   -8.5154   27.4301   17.3465 H   0  0  0  0  0
   -6.9523   25.6679   19.2333 H   0  0  0  0  0
   -6.9032   25.0697   16.8627 H   0  0  0  0  0
   -6.4619   26.7444   16.4486 H   0  0  0  0  0
   -5.3388   25.7352   17.3926 H   0  0  0  0  0
   -6.3686   28.4581   18.2059 H   0  0  0  0  0
   -6.7621   28.0200   19.8864 H   0  0  0  0  0
   -5.2538   27.4338   19.1433 H   0  0  0  0  0
  -10.8534   26.0455   19.8670 H   0  0  0  0  0
   -9.7272   24.4414   21.8704 H   0  0  0  0  0
  -12.3580   24.4308   22.5816 H   0  0  0  0  0
  -12.2707   25.8450   21.4085 H   0  0  0  0  0
  -11.9982   26.8230   23.4539 H   0  0  0  0  0
  -10.3066   26.5585   22.8809 H   0  0  0  0  0
  -10.0450   24.6724   24.3052 H   0  0  0  0  0
  -11.7973   24.6883   24.7370 H   0  0  0  0  0
  -10.5515   27.1771   25.4519 H   0  0  0  0  0
  -10.4523   24.1596   28.1659 H   0  0  0  0  0
  -10.7668   23.7809   26.4692 H   0  0  0  0  0
  -10.1442   27.6352   27.6241 H   0  0  0  0  0
  -12.3580   23.7759   19.6035 H   0  0  0  0  0
  -13.0906   21.2231   20.5701 H   0  0  0  0  0
  -13.0688   22.0807   17.6726 H   0  0  0  0  0
  -14.3334   22.5772   18.9035 H   0  0  0  0  0
  -15.1419   20.3259   20.2663 H   0  0  0  0  0
  -13.9144   20.5404   16.1653 H   0  0  0  0  0
  -16.4620   18.3207   19.7835 H   0  0  0  0  0
  -15.2476   18.4906   15.6777 H   0  0  0  0  0
  -16.5988   16.9421   16.5048 H   0  0  0  0  0
  -10.6503   22.1608   18.0849 H   0  0  0  0  0
   -9.8957   19.4955   17.4290 H   0  0  0  0  0
   -7.7448   20.5399   16.6390 H   0  0  0  0  0
   -8.4842   22.1451   17.2367 H   0  0  0  0  0
  -10.2817   21.7467   15.6134 H   0  0  0  0  0
   -8.4067   23.3109   15.1947 H   0  0  0  0  0
   -7.4331   21.9764   14.5295 H   0  0  0  0  0
   -8.9002   22.5185   13.6782 H   0  0  0  0  0
   -8.4287   19.6250   14.5032 H   0  0  0  0  0
  -10.0390   19.3640   15.2171 H   0  0  0  0  0
   -9.8768   20.2730   13.6945 H   0  0  0  0  0
   -8.8124   21.6290   20.0068 H   0  0  0  0  0
   -6.6624   19.9071   20.8399 H   0  0  0  0  0
   -7.0901   21.2543   23.0619 H   0  0  0  0  0
   -8.0633   22.3109   21.8399 H   0  0  0  0  0
   -6.0196   22.7459   20.6966 H   0  0  0  0  0
   -6.8344   24.2170   22.5631 H   0  0  0  0  0
   -5.9192   23.2298   23.7288 H   0  0  0  0  0
   -5.0544   24.2012   22.5124 H   0  0  0  0  0
   -4.6468   21.2586   22.9416 H   0  0  0  0  0
   -4.7426   20.7504   21.2376 H   0  0  0  0  0
   -3.8491   22.2266   21.6776 H   0  0  0  0  0
  -10.0209   20.3772   21.9848 H   0  0  0  0  0
   -9.7243   18.6159   24.2260 H   0  0  0  0  0
  -12.2460   18.6492   24.2814 H   0  0  0  0  0
  -12.1934   19.5810   22.7248 H   0  0  0  0  0
   -9.9291   20.0787   25.0206 H   0  0  0  0  0
  -10.9611   18.1326   20.9277 H   0  0  0  0  0
  -12.1641   15.5736   21.3720 H   0  0  0  0  0
  -12.6155   17.0301   19.4392 H   0  0  0  0  0
  -12.1815   15.3158   18.9883 H   0  0  0  0  0
  -10.0369   15.9889   18.2557 H   0  0  0  0  0
  -10.2698   17.6536   18.9106 H   0  0  0  0  0
  -10.4949   17.4038   16.4389 H   0  0  0  0  0
  -11.9012   18.1350   17.2939 H   0  0  0  0  0
  -12.2839   15.3264   17.0716 H   0  0  0  0  0
  -12.1942   18.2355   15.0509 H   0  0  0  0  0
  -14.1795   15.4640   14.1364 H   0  0  0  0  0
  -13.7259   14.4965   15.5433 H   0  0  0  0  0
  -11.2739   13.6212   21.6560 H   0  0  0  0  0
   -9.6396   12.0619   22.0733 H   0  0  0  0  0
   -7.9400   11.7350   20.3128 H   0  0  0  0  0
   -8.4161   13.3296   19.5976 H   0  0  0  0  0
   -9.6228   13.0527   18.0851 H   0  0  0  0  0
   -8.3897   12.1027   23.8142 H   0  0  0  0  0
   -5.7915   13.3960   23.7223 H   0  0  0  0  0
   -5.2246   11.3965   24.3060 H   0  0  0  0  0
   -7.0980   15.4007   24.1672 H   0  0  0  0  0
   -6.1249   14.9434   25.6267 H   0  0  0  0  0
   -8.7910   16.1489   24.9062 H   0  0  0  0  0
  1  2  1  0  0  0
  2  3  1  0  0  0
  2  5  1  0  0  0
  3  4  2  0  0  0
  3  9  1  0  0  0
  5  6  1  0  0  0
  6  7  2  0  0  0
  6  8  1  0  0  0
  9 10  1  0  0  0
 10 11  1  0  0  0
 10 13  1  0  0  0
 11 12  2  0  0  0
 11 14  1  0  0  0
 14 15  1  0  0  0
 15 16  1  0  0  0
 15 18  1  0  0  0
 16 17  2  0  0  0
 16 22  1  0  0  0
 18 19  1  0  0  0
 19 20  1  0  0  0
 19 21  1  0  0  0
 22 23  1  0  0  0
 23 24  1  0  0  0
 23 26  1  0  0  0
 24 25  2  0  0  0
 24 30  1  0  0  0
 26 27  1  0  0  0
 27 28  1  0  0  0
 27 29  1  0  0  0
 30 31  1  0  0  0
 31 32  1  0  0  0
 31 34  1  0  0  0
 32 33  2  0  0  0
 32 41  1  0  0  0
 34 35  1  0  0  0
 35 36  1  0  0  0
 36 37  1  0  0  0
 37 38  1  0  0  0
 38 39  1  0  0  0
 38 40  2  0  0  0
 41 42  1  0  0  0
 42 43  1  0  0  0
 42 45  1  0  0  0
 43 44  2  0  0  0
 43 53  1  0  0  0
 45 46  1  0  0  0
 46 47  4  0  0  0
 46 48  4  0  0  0
 47 49  4  0  0  0
 48 50  4  0  0  0
 49 51  4  0  0  0
 50 51  4  0  0  0
 51 52  1  0  0  0
 53 54  1  0  0  0
 54 55  1  0  0  0
 54 57  1  0  0  0
 55 56  2  0  0  0
 55 61  1  0  0  0
 57 58  1  0  0  0
 58 59  1  0  0  0
 58 60  1  0  0  0
 61 62  1  0  0  0
 62 63  1  0  0  0
 62 65  1  0  0  0
 63 64  2  0  0  0
 63 69  1  0  0  0
 65 66  1  0  0  0
 66 67  1  0  0  0
 66 68  1  0  0  0
 69 70  1  0  0  0
 70 71  1  0  0  0
 70 73  1  0  0  0
 71 72  2  0  0  0
 71 77  1  0  0  0
 73 74  1  0  0  0
 74 75  2  0  0  0
 74 76  1  0  0  0
 77 78  1  0  0  0
 78 79  1  0  0  0
 78 81  1  0  0  0
 79 80  2  0  0  0
 79 88  1  0  0  0
 81 82  1  0  0  0
 82 83  1  0  0  0
 83 84  1  0  0  0
 84 85  1  0  0  0
 85 86  2  0  0  0
 85 87  1  0  0  0
 88 89  1  0  0  0
 89 90  1  0  0  0
 89 92  1  0  0  0
 90 91  2  0  0  0
 90 96  1  0  0  0
 92 93  1  0  0  0
 93 94  2  0  0  0
 93 95  1  0  0  0
 96 97  1  0  0  0
 97 98  1  0  0  0
 97100  1  0  0  0
 98 99  1  0  0  0
 98104  2  0  0  0
100101  1  0  0  0
101102  2  0  0  0
101103  1  0  0  0
  1105  1  0  0  0
  1106  1  0  0  0
  1107  1  0  0  0
  2108  1  0  0  0
  5109  1  0  0  0
  5110  1  0  0  0
  8111  1  0  0  0
  8112  1  0  0  0
  9113  1  0  0  0
 10114  1  0  0  0
 13115  1  0  0  0
 13116  1  0  0  0
 13117  1  0  0  0
 14118  1  0  0  0
 15119  1  0  0  0
 18120  1  0  0  0
 18121  1  0  0  0
 19122  1  0  0  0
 20123  1  0  0  0
 20124  1  0  0  0
 20125  1  0  0  0
 21126  1  0  0  0
 21127  1  0  0  0
 21128  1  0  0  0
 22129  1  0  0  0
 23130  1  0  0  0
 26131  1  0  0  0
 26132  1  0  0  0
 27133  1  0  0  0
 28134  1  0  0  0
 28135  1  0  0  0
 28136  1  0  0  0
 29137  1  0  0  0
 29138  1  0  0  0
 29139  1  0  0  0
 30140  1  0  0  0
 31141  1  0  0  0
 34142  1  0  0  0
 34143  1  0  0  0
 35144  1  0  0  0
 35145  1  0  0  0
 36146  1  0  0  0
 36147  1  0  0  0
 37148  1  0  0  0
 39149  1  0  0  0
 39150  1  0  0  0
 40151  1  0  0  0
 41152  1  0  0  0
 42153  1  0  0  0
 45154  1  0  0  0
 45155  1  0  0  0
 47156  1  0  0  0
 48157  1  0  0  0
 49158  1  0  0  0
 50159  1  0  0  0
 52160  1  0  0  0
 53161  1  0  0  0
 54162  1  0  0  0
 57163  1  0  0  0
 57164  1  0  0  0
 58165  1  0  0  0
 59166  1  0  0  0
 59167  1  0  0  0
 59168  1  0  0  0
 60169  1  0  0  0
 60170  1  0  0  0
 60171  1  0  0  0
 61172  1  0  0  0
 62173  1  0  0  0
 65174  1  0  0  0
 65175  1  0  0  0
 66176  1  0  0  0
 67177  1  0  0  0
 67178  1  0  0  0
 67179  1  0  0  0
 68180  1  0  0  0
 68181  1  0  0  0
 68182  1  0  0  0
 69183  1  0  0  0
 70184  1  0  0  0
 73185  1  0  0  0
 73186  1  0  0  0
 76187  1  0  0  0
 77188  1  0  0  0
 78189  1  0  0  0
 81190  1  0  0  0
 81191  1  0  0  0
 82192  1  0  0  0
 82193  1  0  0  0
 83194  1  0  0  0
 83195  1  0  0  0
 84196  1  0  0  0
 86197  1  0  0  0
 87198  1  0  0  0
 87199  1  0  0  0
 88200  1  0  0  0
 89201  1  0  0  0
 92202  1  0  0  0
 92203  1  0  0  0
 95204  1  0  0  0
 96205  1  0  0  0
 97206  1  0  0  0
 99207  1  0  0  0
100208  1  0  0  0
100209  1  0  0  0
103210  1  0  0  0
M  END
$$$$
