1v0p_ligand
  -I-interpret- 

 55 57  0  0  0  0  0  0  0  0999 V2000
   25.2760   -1.1690   35.1390 N   0  0  0  0  0
   22.6470    1.7330   38.7140 C   0  0  0  0  0
   23.4030    0.4990   38.3800 N   0  0  0  0  0
   23.9850    0.0940   37.2170 C   0  0  0  0  0
   23.9440    0.6800   35.8860 N   0  0  0  0  0
   24.6310    0.0420   34.8920 C   0  0  0  0  0
   25.3300   -1.7820   36.3630 C   0  0  0  0  0
   24.7030   -1.1680   37.4670 C   0  0  0  0  0
   24.5060   -1.4480   38.7840 N   0  0  0  0  0
   23.7470   -0.4480   39.3040 C   0  0  0  0  0
   25.9890   -2.9740   36.5700 N   0  0  0  0  0
   26.8160   -3.5670   35.6610 C   0  0  0  0  0
   28.1070   -3.9710   36.0580 C   0  0  0  0  0
   28.9820   -4.5320   35.1390 C   0  0  0  0  0
   28.5780   -4.6840   33.7990 C   0  0  0  0  0
   27.2240   -4.2230   33.3810 C   0  0  0  0  0
   26.7410   -4.3360   31.9420 Cl  0  0  0  0  0
   26.3940   -3.6880   34.3530 C   0  0  0  0  0
   29.5100   -5.2780   32.7970 C   0  0  0  0  0
   30.1350   -6.3150   33.0750 O   0  0  0  0  0
   29.6670   -4.7350   31.6930 O   0  0  0  0  0
   24.6340    0.5440   33.6180 N   0  0  0  0  0
   25.3470   -0.2440   32.6130 C   0  0  0  0  0
   26.2920    0.5610   31.6970 C   0  0  0  0  0
   26.4770    2.0350   32.1370 C   0  0  0  0  0
   26.0990    0.3400   30.2020 C   0  0  0  0  0
   24.5370   -1.3740   31.9510 C   0  0  0  0  0
   23.2040   -0.9450   31.8650 O   0  0  0  0  0
   23.4690    2.8820   38.1590 C   0  0  0  0  0
   21.2420    1.8350   38.1350 C   0  0  0  0  0
   22.5044    1.7407   39.7946 H   0  0  0  0  0
   23.4437   -0.4053   40.3501 H   0  0  0  0  0
   25.8492   -3.4454   37.4637 H   0  0  0  0  0
   28.4199   -3.8417   37.0941 H   0  0  0  0  0
   29.9755   -4.8529   35.4524 H   0  0  0  0  0
   25.3918   -3.3575   34.0800 H   0  0  0  0  0
   29.8993   -6.6017   33.9603 H   0  0  0  0  0
   24.1651    1.4188   33.3829 H   0  0  0  0  0
   26.0553   -0.8211   33.2075 H   0  0  0  0  0
   27.2714    0.1114   31.8606 H   0  0  0  0  0
   25.5104    2.5387   32.1311 H   0  0  0  0  0
   26.8964    2.0627   33.1427 H   0  0  0  0  0
   27.1539    2.5370   31.4457 H   0  0  0  0  0
   26.2632   -0.7117   29.9673 H   0  0  0  0  0
   25.0838    0.6218   29.9224 H   0  0  0  0  0
   26.8123    0.9524   29.6504 H   0  0  0  0  0
   24.6054   -2.2876   32.5416 H   0  0  0  0  0
   24.9309   -1.5936   30.9587 H   0  0  0  0  0
   22.6737   -1.6321   31.4547 H   0  0  0  0  0
   23.5036    2.8104   37.0719 H   0  0  0  0  0
   23.0105    3.8278   38.4477 H   0  0  0  0  0
   24.4811    2.8300   38.5602 H   0  0  0  0  0
   20.7997    2.7884   38.4239 H   0  0  0  0  0
   21.2928    1.7711   37.0481 H   0  0  0  0  0
   20.6315    1.0182   38.5201 H   0  0  0  0  0
  6  1  4  0  0  0
  1  7  4  0  0  0
  3  2  1  0  0  0
  2 29  1  0  0  0
  2 30  1  0  0  0
  4  3  4  0  0  0
  3 10  4  0  0  0
  5  4  4  0  0  0
  4  8  4  0  0  0
  5  6  4  0  0  0
  6 22  1  0  0  0
  7  8  4  0  0  0
  7 11  1  0  0  0
  8  9  4  0  0  0
  9 10  4  0  0  0
 11 12  1  0  0  0
 12 13  4  0  0  0
 12 18  4  0  0  0
 13 14  4  0  0  0
 14 15  4  0  0  0
 15 16  4  0  0  0
 15 19  1  0  0  0
 16 17  1  0  0  0
 16 18  4  0  0  0
 19 20  1  0  0  0
 19 21  2  0  0  0
 22 23  1  0  0  0
 23 24  1  0  0  0
 23 27  1  0  0  0
 24 25  1  0  0  0
 24 26  1  0  0  0
 27 28  1  0  0  0
  2 31  1  0  0  0
 10 32  1  0  0  0
 11 33  1  0  0  0
 13 34  1  0  0  0
 14 35  1  0  0  0
 18 36  1  0  0  0
 20 37  1  0  0  0
 22 38  1  0  0  0
 23 39  1  0  0  0
 24 40  1  0  0  0
 25 41  1  0  0  0
 25 42  1  0  0  0
 25 43  1  0  0  0
 26 44  1  0  0  0
 26 45  1  0  0  0
 26 46  1  0  0  0
 27 47  1  0  0  0
 27 48  1  0  0  0
 28 49  1  0  0  0
 29 50  1  0  0  0
 29 51  1  0  0  0
 29 52  1  0  0  0
 30 53  1  0  0  0
 30 54  1  0  0  0
 30 55  1  0  0  0
M  END
$$$$
