5zys_ligand
  -I-interpret- 

173175  0  0  0  0  0  0  0  0999 V2000
  -43.5540    0.4890  -13.4750 N   0  3  0  0  0
  -42.3780   -0.3420  -13.2570 C   0  0  0  0  0
  -41.1710    0.5110  -12.8670 C   0  0  0  0  0
  -41.0340    1.6410  -13.3390 O   0  0  0  0  0
  -42.0640   -1.1520  -14.5180 C   0  0  0  0  0
  -43.1040   -2.1770  -14.9820 C   0  0  0  0  0
  -42.8830   -2.5420  -16.4440 C   0  0  0  0  0
  -43.0620   -3.4210  -14.1100 C   0  0  0  0  0
  -40.2840   -0.0280  -12.0100 N   0  0  0  0  0
  -38.9940    0.6170  -11.7360 C   0  0  0  0  0
  -38.1470    0.6380  -13.0030 C   0  0  0  0  0
  -38.3260   -0.2750  -13.7880 O   0  0  0  0  0
  -38.3650   -0.2870  -10.6810 C   0  0  0  0  0
  -38.9730   -1.6180  -10.9290 C   0  0  0  0  0
  -40.3830   -1.3490  -11.3640 C   0  0  0  0  0
  -37.2460    1.6030  -13.1850 N   0  0  0  0  0
  -36.5660    1.7840  -14.4790 C   0  0  0  0  0
  -35.8570    0.5440  -15.0370 C   0  0  0  0  0
  -35.7300    0.4000  -16.2570 O   0  0  0  0  0
  -35.5480    2.9180  -14.3950 C   0  0  0  0  0
  -34.8010    3.1570  -15.6830 C   0  0  0  0  0
  -35.4010    3.8300  -16.7350 C   0  0  0  0  0
  -33.4960    2.7210  -15.8310 C   0  0  0  0  0
  -34.7100    4.0530  -17.9150 C   0  0  0  0  0
  -32.8020    2.9400  -17.0070 C   0  0  0  0  0
  -33.4090    3.6110  -18.0470 C   0  0  0  0  0
  -35.4550   -0.3570  -14.1880 N   0  0  0  0  0
  -34.7240   -1.5390  -14.6910 C   0  0  0  0  0
  -35.6740   -2.5580  -15.3120 C   0  0  0  0  0
  -35.1600   -3.4410  -15.9370 O   0  0  0  0  0
  -33.9140   -2.1930  -13.5810 C   0  0  0  0  0
  -32.9080   -1.2470  -12.9710 C   0  0  0  0  0
  -33.4970   -0.1570  -12.0890 C   0  0  0  0  0
  -34.6430   -0.3080  -11.6680 O   0  0  0  0  0
  -32.7790    0.8580  -11.8490 O   0  0  0  0  0
  -36.9700   -2.4320  -15.1440 N   0  0  0  0  0
  -37.9070   -3.4420  -15.6980 C   0  0  0  0  0
  -38.7690   -2.8360  -16.8030 C   0  0  0  0  0
  -39.5430   -3.5540  -17.3760 O   0  0  0  0  0
  -38.8030   -3.9790  -14.5820 C   0  0  0  0  0
  -38.1070   -4.8210  -13.5240 C   0  0  0  0  0
  -39.0870   -5.2670  -12.4530 C   0  0  0  0  0
  -37.4640   -6.0250  -14.1570 C   0  0  0  0  0
  -38.6520   -1.5570  -17.0210 N   0  0  0  0  0
  -39.5020   -0.8420  -17.9840 C   0  0  0  0  0
  -39.0850   -1.1970  -19.4160 C   0  0  0  0  0
  -37.9330   -1.3040  -19.6320 O   0  0  0  0  0
  -39.2370    0.6350  -17.6930 C   0  0  0  0  0
  -40.4650    1.5180  -17.6740 C   0  0  0  0  0
  -40.1410    2.9330  -17.2220 C   0  0  0  0  0
  -40.1530    3.0100  -15.7810 N   0  0  0  0  0
  -39.7110    4.0290  -15.0610 C   0  0  0  0  0
  -39.0480    5.0070  -15.6410 N   0  0  0  0  0
  -39.9300    4.0570  -13.7650 N   0  0  0  0  0
  -40.0040   -1.3700  -20.3340 N   0  0  0  0  0
  -39.6080   -1.6480  -21.7230 C   0  0  0  0  0
  -39.4250   -3.1220  -22.0170 C   0  0  0  0  0
  -39.5070   -3.9090  -21.0920 O   0  0  0  0  0
  -39.1150   -3.4230  -23.2350 N   0  0  0  0  0
  -38.9740   -4.8190  -23.6780 C   0  0  0  0  0
  -37.4950   -5.1790  -23.7590 C   0  0  0  0  0
  -36.7970   -4.4900  -24.4340 O   0  0  0  0  0
  -39.6340   -4.9420  -25.0430 C   0  0  0  0  0
  -39.7110   -6.3350  -25.5210 C   0  0  0  0  0
  -38.7300   -6.9070  -26.2640 N   0  0  0  0  0
  -40.6360   -7.2790  -25.3430 C   0  0  0  0  0
  -39.0510   -8.1450  -26.5250 C   0  0  0  0  0
  -40.2060   -8.3840  -25.9980 N   0  0  0  0  0
  -37.0870   -6.2370  -23.1010 N   0  0  0  0  0
  -35.6640   -6.6160  -23.1530 C   0  0  0  0  0
  -35.3680   -7.3320  -24.4730 C   0  0  0  0  0
  -36.0990   -8.1840  -24.8590 O   0  0  0  0  0
  -35.3110   -7.5070  -21.9620 C   0  0  0  0  0
  -33.8460   -7.8840  -21.8350 C   0  0  0  0  0
  -33.0130   -6.6790  -21.4990 C   0  0  0  0  0
  -33.6470   -8.9760  -20.8100 C   0  0  0  0  0
  -34.2940   -6.9350  -25.0930 N   0  0  0  0  0
  -33.8210   -7.5900  -26.3350 C   0  0  0  0  0
  -32.3560   -8.0010  -26.1210 C   0  0  0  0  0
  -31.8440   -8.6350  -26.9550 O   0  0  0  0  0
  -34.0090   -6.6860  -27.5640 C   0  0  0  0  0
  -35.4640   -6.3610  -27.8150 C   0  0  0  0  0
  -33.1840   -5.4290  -27.4550 C   0  0  0  0  0
  -31.8060   -7.6880  -25.0810 O   0  0  0  0  0
  -43.7530    1.0231  -12.6291 H   0  0  0  0  0
  -43.3777    1.1292  -14.2492 H   0  0  0  0  0
  -44.3521   -0.1054  -13.6988 H   0  0  0  0  0
  -42.5919   -1.0271  -12.4366 H   0  0  0  0  0
  -41.1710   -1.7296  -14.2793 H   0  0  0  0  0
  -41.9937   -0.4218  -15.3242 H   0  0  0  0  0
  -44.0914   -1.7257  -14.8854 H   0  0  0  0  0
  -41.9096   -3.0198  -16.5547 H   0  0  0  0  0
  -43.6651   -3.2286  -16.7680 H   0  0  0  0  0
  -42.9167   -1.6379  -17.0520 H   0  0  0  0  0
  -43.8448   -4.1108  -14.4254 H   0  0  0  0  0
  -42.0892   -3.9021  -14.2121 H   0  0  0  0  0
  -43.2219   -3.1392  -13.0693 H   0  0  0  0  0
  -39.0848    1.6514  -11.4047 H   0  0  0  0  0
  -38.5560    0.0692   -9.6687 H   0  0  0  0  0
  -37.2779   -0.3118  -10.7571 H   0  0  0  0  0
  -38.9461   -2.2391  -10.0337 H   0  0  0  0  0
  -38.4218   -2.1699  -11.6903 H   0  0  0  0  0
  -40.7732   -2.1175  -12.0313 H   0  0  0  0  0
  -41.0907   -1.3620  -10.5351 H   0  0  0  0  0
  -37.0226    2.2296  -12.4118 H   0  0  0  0  0
  -37.3767    2.0128  -15.1707 H   0  0  0  0  0
  -34.8137    2.6420  -13.6382 H   0  0  0  0  0
  -36.0952    3.8311  -14.1608 H   0  0  0  0  0
  -36.4258    4.1872  -16.6334 H   0  0  0  0  0
  -33.0081    2.1974  -15.0089 H   0  0  0  0  0
  -35.1937    4.5774  -18.7391 H   0  0  0  0  0
  -31.7775    2.5829  -17.1113 H   0  0  0  0  0
  -32.8623    3.7923  -18.9724 H   0  0  0  0  0
  -35.6416   -0.2490  -13.1910 H   0  0  0  0  0
  -34.0403   -1.1907  -15.4652 H   0  0  0  0  0
  -33.3697   -3.0340  -14.0105 H   0  0  0  0  0
  -34.6045   -2.5035  -12.7968 H   0  0  0  0  0
  -32.4088   -0.7440  -13.7992 H   0  0  0  0  0
  -32.2587   -1.8481  -12.3345 H   0  0  0  0  0
  -31.9272    0.7551  -12.2797 H   0  0  0  0  0
  -37.3369   -1.6324  -14.6278 H   0  0  0  0  0
  -37.3230   -4.2576  -16.1244 H   0  0  0  0  0
  -39.5356   -4.6289  -15.0605 H   0  0  0  0  0
  -39.2081   -3.1085  -14.0660 H   0  0  0  0  0
  -37.3381   -4.2062  -13.0560 H   0  0  0  0  0
  -39.5222   -4.3906  -11.9729 H   0  0  0  0  0
  -39.8772   -5.8622  -12.9106 H   0  0  0  0  0
  -38.5624   -5.8672  -11.7096 H   0  0  0  0  0
  -38.2284   -6.6279  -14.6472 H   0  0  0  0  0
  -36.7297   -5.6982  -14.8932 H   0  0  0  0  0
  -36.9698   -6.6181  -13.3875 H   0  0  0  0  0
  -37.9453   -1.0329  -16.5050 H   0  0  0  0  0
  -40.5575   -1.0981  -17.8927 H   0  0  0  0  0
  -38.5994    1.0029  -18.4969 H   0  0  0  0  0
  -38.8008    0.6841  -16.6953 H   0  0  0  0  0
  -41.1813    1.0912  -16.9719 H   0  0  0  0  0
  -40.8659    1.5666  -18.6864 H   0  0  0  0  0
  -40.8901    3.6161  -17.6224 H   0  0  0  0  0
  -39.1506    3.2062  -17.5860 H   0  0  0  0  0
  -40.5345    2.2113  -15.2742 H   0  0  0  0  0
  -38.7027    5.7892  -15.0848 H   0  0  0  0  0
  -38.8795    4.9827  -16.6467 H   0  0  0  0  0
  -40.4391    3.2950  -13.3172 H   0  0  0  0  0
  -40.9917   -1.3120  -20.0859 H   0  0  0  0  0
  -38.6490   -1.1589  -21.8938 H   0  0  0  0  0
  -40.4053   -1.2820  -22.3699 H   0  0  0  0  0
  -38.9638   -2.6717  -23.9081 H   0  0  0  0  0
  -39.4507   -5.5025  -22.9754 H   0  0  0  0  0
  -39.0315   -4.3787  -25.7556 H   0  0  0  0  0
  -40.6525   -4.5638  -24.9552 H   0  0  0  0  0
  -41.5626   -7.1801  -24.7775 H   0  0  0  0  0
  -38.4480   -8.8553  -27.0906 H   0  0  0  0  0
  -37.7483   -6.7925  -22.5583 H   0  0  0  0  0
  -35.0504   -5.7168  -23.0985 H   0  0  0  0  0
  -35.8592   -8.4390  -22.0999 H   0  0  0  0  0
  -35.5630   -6.9396  -21.0661 H   0  0  0  0  0
  -33.5169   -8.2699  -22.7998 H   0  0  0  0  0
  -33.1181   -5.9347  -22.2883 H   0  0  0  0  0
  -33.3516   -6.2572  -20.5527 H   0  0  0  0  0
  -31.9673   -6.9743  -21.4132 H   0  0  0  0  0
  -34.0022   -8.6304  -19.8392 H   0  0  0  0  0
  -34.2086   -9.8607  -21.1099 H   0  0  0  0  0
  -32.5872   -9.2219  -20.7441 H   0  0  0  0  0
  -33.7634   -6.1511  -24.7130 H   0  0  0  0  0
  -34.4174   -8.4785  -26.5424 H   0  0  0  0  0
  -33.6513   -7.2488  -28.4262 H   0  0  0  0  0
  -36.0172   -7.2847  -27.9849 H   0  0  0  0  0
  -35.8745   -5.8445  -26.9474 H   0  0  0  0  0
  -35.5456   -5.7204  -28.6931 H   0  0  0  0  0
  -33.4862   -4.8734  -26.5672 H   0  0  0  0  0
  -32.1294   -5.6936  -27.3781 H   0  0  0  0  0
  -33.3420   -4.8143  -28.3411 H   0  0  0  0  0
  -32.4100   -7.1697  -24.5443 H   0  0  0  0  0
  1  2  1  0  0  0
  2  3  1  0  0  0
  2  5  1  0  0  0
  3  4  2  0  0  0
  3  9  1  0  0  0
  5  6  1  0  0  0
  6  7  1  0  0  0
  6  8  1  0  0  0
  9 10  1  0  0  0
  9 15  1  0  0  0
 10 11  1  0  0  0
 10 13  1  0  0  0
 11 12  2  0  0  0
 11 16  1  0  0  0
 13 14  1  0  0  0
 14 15  1  0  0  0
 16 17  1  0  0  0
 17 18  1  0  0  0
 17 20  1  0  0  0
 18 19  2  0  0  0
 18 27  1  0  0  0
 20 21  1  0  0  0
 21 22  4  0  0  0
 21 23  4  0  0  0
 22 24  4  0  0  0
 23 25  4  0  0  0
 24 26  4  0  0  0
 25 26  4  0  0  0
 27 28  1  0  0  0
 28 29  1  0  0  0
 28 31  1  0  0  0
 29 30  2  0  0  0
 29 36  1  0  0  0
 31 32  1  0  0  0
 32 33  1  0  0  0
 33 34  2  0  0  0
 33 35  1  0  0  0
 36 37  1  0  0  0
 37 38  1  0  0  0
 37 40  1  0  0  0
 38 39  2  0  0  0
 38 44  1  0  0  0
 40 41  1  0  0  0
 41 42  1  0  0  0
 41 43  1  0  0  0
 44 45  1  0  0  0
 45 46  1  0  0  0
 45 48  1  0  0  0
 46 47  2  0  0  0
 46 55  1  0  0  0
 48 49  1  0  0  0
 49 50  1  0  0  0
 50 51  1  0  0  0
 51 52  1  0  0  0
 52 53  1  0  0  0
 52 54  2  0  0  0
 55 56  1  0  0  0
 56 57  1  0  0  0
 57 58  2  0  0  0
 57 59  1  0  0  0
 59 60  1  0  0  0
 60 61  1  0  0  0
 60 63  1  0  0  0
 61 62  2  0  0  0
 61 69  1  0  0  0
 63 64  1  0  0  0
 64 65  4  0  0  0
 64 66  4  0  0  0
 65 67  4  0  0  0
 66 68  4  0  0  0
 67 68  4  0  0  0
 69 70  1  0  0  0
 70 71  1  0  0  0
 70 73  1  0  0  0
 71 72  2  0  0  0
 71 77  1  0  0  0
 73 74  1  0  0  0
 74 75  1  0  0  0
 74 76  1  0  0  0
 77 78  1  0  0  0
 78 79  1  0  0  0
 78 81  1  0  0  0
 79 80  2  0  0  0
 79 84  1  0  0  0
 81 82  1  0  0  0
 81 83  1  0  0  0
  1 85  1  0  0  0
  1 86  1  0  0  0
  1 87  1  0  0  0
  2 88  1  0  0  0
  5 89  1  0  0  0
  5 90  1  0  0  0
  6 91  1  0  0  0
  7 92  1  0  0  0
  7 93  1  0  0  0
  7 94  1  0  0  0
  8 95  1  0  0  0
  8 96  1  0  0  0
  8 97  1  0  0  0
 10 98  1  0  0  0
 13 99  1  0  0  0
 13100  1  0  0  0
 14101  1  0  0  0
 14102  1  0  0  0
 15103  1  0  0  0
 15104  1  0  0  0
 16105  1  0  0  0
 17106  1  0  0  0
 20107  1  0  0  0
 20108  1  0  0  0
 22109  1  0  0  0
 23110  1  0  0  0
 24111  1  0  0  0
 25112  1  0  0  0
 26113  1  0  0  0
 27114  1  0  0  0
 28115  1  0  0  0
 31116  1  0  0  0
 31117  1  0  0  0
 32118  1  0  0  0
 32119  1  0  0  0
 35120  1  0  0  0
 36121  1  0  0  0
 37122  1  0  0  0
 40123  1  0  0  0
 40124  1  0  0  0
 41125  1  0  0  0
 42126  1  0  0  0
 42127  1  0  0  0
 42128  1  0  0  0
 43129  1  0  0  0
 43130  1  0  0  0
 43131  1  0  0  0
 44132  1  0  0  0
 45133  1  0  0  0
 48134  1  0  0  0
 48135  1  0  0  0
 49136  1  0  0  0
 49137  1  0  0  0
 50138  1  0  0  0
 50139  1  0  0  0
 51140  1  0  0  0
 53141  1  0  0  0
 53142  1  0  0  0
 54143  1  0  0  0
 55144  1  0  0  0
 56145  1  0  0  0
 56146  1  0  0  0
 59147  1  0  0  0
 60148  1  0  0  0
 63149  1  0  0  0
 63150  1  0  0  0
 66151  1  0  0  0
 67152  1  0  0  0
 69153  1  0  0  0
 70154  1  0  0  0
 73155  1  0  0  0
 73156  1  0  0  0
 74157  1  0  0  0
 75158  1  0  0  0
 75159  1  0  0  0
 75160  1  0  0  0
 76161  1  0  0  0
 76162  1  0  0  0
 76163  1  0  0  0
 77164  1  0  0  0
 78165  1  0  0  0
 81166  1  0  0  0
 82167  1  0  0  0
 82168  1  0  0  0
 82169  1  0  0  0
 83170  1  0  0  0
 83171  1  0  0  0
 83172  1  0  0  0
 84173  1  0  0  0
M  END
$$$$
