### 
### Created by X-TOOL on Mon Aug  2 16:12:31 2021
### 

@<TRIPOS>MOLECULE
5zys_ligand
  173   175     1     0     0
SMALL
GAST_HUCK


@<TRIPOS>ATOM
      1 N         -43.5540    0.4890  -13.4750 N.4       1 LEU         0.2379
      2 CA        -42.3780   -0.3420  -13.2570 C.3       1 LEU         0.0654
      3 C         -41.1710    0.5110  -12.8670 C.2       1 LEU         0.2292
      4 O         -41.0340    1.6410  -13.3390 O.2       1 LEU        -0.3905
      5 CB        -42.0640   -1.1520  -14.5180 C.3       1 LEU         0.0102
      6 CG        -43.1040   -2.1770  -14.9820 C.3       1 LEU        -0.0394
      7 CD1       -42.8830   -2.5420  -16.4440 C.3       1 LEU        -0.0623
      8 CD2       -43.0620   -3.4210  -14.1100 C.3       1 LEU        -0.0623
      9 N         -40.2840   -0.0280  -12.0100 N.am      1 LEU        -0.2471
     10 CA        -38.9940    0.6170  -11.7360 C.3       1 LEU         0.1339
     11 C         -38.1470    0.6380  -13.0030 C.2       1 LEU         0.2042
     12 O         -38.3260   -0.2750  -13.7880 O.2       1 LEU        -0.3944
     13 CB        -38.3650   -0.2870  -10.6810 C.3       1 LEU        -0.0104
     14 CG        -38.9730   -1.6180  -10.9290 C.3       1 LEU        -0.0281
     15 CD        -40.3830   -1.3490  -11.3640 C.3       1 LEU         0.0371
     16 N         -37.2460    1.6030  -13.1850 N.am      1 LEU        -0.2619
     17 CA        -36.5660    1.7840  -14.4790 C.3       1 LEU         0.1404
     18 C         -35.8570    0.5440  -15.0370 C.2       1 LEU         0.2060
     19 O         -35.7300    0.4000  -16.2570 O.2       1 LEU        -0.3942
     20 CB        -35.5480    2.9180  -14.3950 C.3       1 LEU         0.0214
     21 CG        -34.8010    3.1570  -15.6830 C.ar      1 LEU        -0.0386
     22 CD1       -35.4010    3.8300  -16.7350 C.ar      1 LEU        -0.0601
     23 CD2       -33.4960    2.7210  -15.8310 C.ar      1 LEU        -0.0601
     24 CE1       -34.7100    4.0530  -17.9150 C.ar      1 LEU        -0.0686
     25 CE2       -32.8020    2.9400  -17.0070 C.ar      1 LEU        -0.0686
     26 CZ        -33.4090    3.6110  -18.0470 C.ar      1 LEU        -0.0687
     27 N         -35.4550   -0.3570  -14.1880 N.am      1 LEU        -0.2635
     28 CA        -34.7240   -1.5390  -14.6910 C.3       1 LEU         0.1325
     29 C         -35.6740   -2.5580  -15.3120 C.2       1 LEU         0.2040
     30 O         -35.1600   -3.4410  -15.9370 O.2       1 LEU        -0.3944
     31 CB        -33.9140   -2.1930  -13.5810 C.3       1 LEU        -0.0008
     32 CG        -32.9080   -1.2470  -12.9710 C.3       1 LEU         0.0044
     33 CD        -33.4970   -0.1570  -12.0890 C.2       1 LEU         0.0350
     34 OE1       -34.6430   -0.3080  -11.6680 O.co2     1 LEU        -0.5690
     35 OE2       -32.7790    0.8580  -11.8490 O.co2     1 LEU        -0.5690
     36 N         -36.9700   -2.4320  -15.1440 N.am      1 LEU        -0.2637
     37 CA        -37.9070   -3.4420  -15.6980 C.3       1 LEU         0.1312
     38 C         -38.7690   -2.8360  -16.8030 C.2       1 LEU         0.2039
     39 O         -39.5430   -3.5540  -17.3760 O.2       1 LEU        -0.3944
     40 CB        -38.8030   -3.9790  -14.5820 C.3       1 LEU        -0.0101
     41 CG        -38.1070   -4.8210  -13.5240 C.3       1 LEU        -0.0425
     42 CD1       -39.0870   -5.2670  -12.4530 C.3       1 LEU        -0.0625
     43 CD2       -37.4640   -6.0250  -14.1570 C.3       1 LEU        -0.0625
     44 N         -38.6520   -1.5570  -17.0210 N.am      1 LEU        -0.2637
     45 CA        -39.5020   -0.8420  -17.9840 C.3       1 LEU         0.1311
     46 C         -39.0850   -1.1970  -19.4160 C.2       1 LEU         0.2037
     47 O         -37.9330   -1.3040  -19.6320 O.2       1 LEU        -0.3944
     48 CB        -39.2370    0.6350  -17.6930 C.3       1 LEU        -0.0092
     49 CG        -40.4650    1.5180  -17.6740 C.3       1 LEU        -0.0156
     50 CD        -40.1410    2.9330  -17.2220 C.3       1 LEU         0.0627
     51 NE        -40.1530    3.0100  -15.7810 N.pl3     1 LEU        -0.2723
     52 CZ        -39.7110    4.0290  -15.0610 C.cat     1 LEU         0.2882
     53 NH1       -39.0480    5.0070  -15.6410 N.pl3     1 LEU        -0.2849
     54 NH2       -39.9300    4.0570  -13.7650 N.pl3     1 LEU        -0.2849
     55 N         -40.0040   -1.3700  -20.3340 N.am      1 LEU        -0.2664
     56 CA        -39.6080   -1.6480  -21.7230 C.3       1 LEU         0.1201
     57 C         -39.4250   -3.1220  -22.0170 C.2       1 LEU         0.2008
     58 O         -39.5070   -3.9090  -21.0920 O.2       1 LEU        -0.3947
     59 N         -39.1150   -3.4230  -23.2350 N.am      1 LEU        -0.2627
     60 CA        -38.9740   -4.8190  -23.6780 C.3       1 LEU         0.1369
     61 C         -37.4950   -5.1790  -23.7590 C.2       1 LEU         0.2054
     62 O         -36.7970   -4.4900  -24.4340 O.2       1 LEU        -0.3942
     63 CB        -39.6340   -4.9420  -25.0430 C.3       1 LEU         0.0145
     64 CG        -39.7110   -6.3350  -25.5210 C.2       1 LEU        -0.0027
     65 ND1       -38.7300   -6.9070  -26.2640 N.2       1 LEU        -0.3252
     66 CD2       -40.6360   -7.2790  -25.3430 C.2       1 LEU         0.0291
     67 CE1       -39.0510   -8.1450  -26.5250 C.2       1 LEU         0.0907
     68 NE2       -40.2060   -8.3840  -25.9980 N.pl3     1 LEU        -0.2752
     69 N         -37.0870   -6.2370  -23.1010 N.am      1 LEU        -0.2636
     70 CA        -35.6640   -6.6160  -23.1530 C.3       1 LEU         0.1312
     71 C         -35.3680   -7.3320  -24.4730 C.2       1 LEU         0.2034
     72 O         -36.0990   -8.1840  -24.8590 O.2       1 LEU        -0.3944
     73 CB        -35.3110   -7.5070  -21.9620 C.3       1 LEU        -0.0101
     74 CG        -33.8460   -7.8840  -21.8350 C.3       1 LEU        -0.0425
     75 CD1       -33.0130   -6.6790  -21.4990 C.3       1 LEU        -0.0625
     76 CD2       -33.6470   -8.9760  -20.8100 C.3       1 LEU        -0.0625
     77 N         -34.2940   -6.9350  -25.0930 N.am      1 LEU        -0.2692
     78 CA        -33.8210   -7.5900  -26.3350 C.3       1 LEU         0.0967
     79 C         -32.3560   -8.0010  -26.1210 C.2       1 LEU         0.0603
     80 O         -31.8440   -8.6350  -26.9550 O.co2     1 LEU        -0.5666
     81 CB        -34.0090   -6.6860  -27.5640 C.3       1 LEU        -0.0118
     82 CG1       -35.4640   -6.3610  -27.8150 C.3       1 LEU        -0.0590
     83 CG2       -33.1840   -5.4290  -27.4550 C.3       1 LEU        -0.0590
     84 OXT       -31.8060   -7.6880  -25.0810 O.co2     1 LEU        -0.5666
     85 H1        -44.3351   -0.0946  -13.7305 H         1 LEU         0.2015
     86 H2        -43.3685    1.1458  -14.2168 H         1 LEU         0.2015
     87 H3        -43.7723    0.9910  -12.6286 H         1 LEU         0.2015
     88 H4        -42.5921   -1.0404  -12.4345 H         1 LEU         0.1098
     89 H5        -41.1257   -1.6959  -14.3342 H         1 LEU         0.0348
     90 H6        -41.9180   -0.4364  -15.3406 H         1 LEU         0.0348
     91 H7        -44.1013   -1.7228  -14.8866 H         1 LEU         0.0299
     92 H8        -43.6388   -3.2776  -16.7565 H         1 LEU         0.0232
     93 H9        -41.8787   -2.9736  -16.5664 H         1 LEU         0.0232
     94 H10       -42.9721   -1.6385  -17.0650 H         1 LEU         0.0232
     95 H11       -43.2233   -3.1379  -13.0594 H         1 LEU         0.0232
     96 H12       -42.0807   -3.9074  -14.2121 H         1 LEU         0.0232
     97 H13       -43.8516   -4.1180  -14.4272 H         1 LEU         0.0232
     98 H14       -39.1282    1.6405  -11.3561 H         1 LEU         0.0802
     99 H15       -38.6064    0.0691   -9.6686 H         1 LEU         0.0313
    100 H16       -37.2727   -0.3285  -10.8044 H         1 LEU         0.0313
    101 H17       -38.9645   -2.2204  -10.0087 H         1 LEU         0.0287
    102 H18       -38.4230   -2.1490  -11.7199 H         1 LEU         0.0287
    103 H19       -40.7295   -2.1124  -12.0761 H         1 LEU         0.0524
    104 H20       -41.0638   -1.3169  -10.5006 H         1 LEU         0.0524
    105 H21       -37.0269    2.2173  -12.4269 H         1 LEU         0.1885
    106 H22       -37.3402    2.0702  -15.2061 H         1 LEU         0.0823
    107 H23       -34.8176    2.6719  -13.6102 H         1 LEU         0.0474
    108 H24       -36.0792    3.8425  -14.1247 H         1 LEU         0.0474
    109 H25       -36.4201    4.1852  -16.6339 H         1 LEU         0.0557
    110 H26       -33.0108    2.2003  -15.0134 H         1 LEU         0.0557
    111 H27       -35.1910    4.5746  -18.7345 H         1 LEU         0.0599
    112 H28       -31.7831    2.5848  -17.1107 H         1 LEU         0.0599
    113 H29       -32.8653    3.7913  -18.9673 H         1 LEU         0.0559
    114 H30       -35.6379   -0.2511  -13.2106 H         1 LEU         0.1883
    115 H31       -34.0271   -1.1998  -15.4715 H         1 LEU         0.0801
    116 H32       -33.3780   -3.0586  -13.9974 H         1 LEU         0.0330
    117 H33       -34.6029   -2.5324  -12.7935 H         1 LEU         0.0330
    118 H34       -32.3571   -0.7615  -13.7900 H         1 LEU         0.0433
    119 H35       -32.2106   -1.8392  -12.3603 H         1 LEU         0.0433
    120 H36       -37.3297   -1.6481  -14.6379 H         1 LEU         0.1883
    121 H37       -37.3230   -4.2731  -16.1200 H         1 LEU         0.0800
    122 H38       -39.5855   -4.5979  -15.0453 H         1 LEU         0.0315
    123 H39       -39.2668   -3.1185  -14.0776 H         1 LEU         0.0315
    124 H40       -37.3242   -4.2099  -13.0509 H         1 LEU         0.0298
    125 H41       -38.5588   -5.8729  -11.7021 H         1 LEU         0.0232
    126 H42       -39.8850   -5.8679  -12.9135 H         1 LEU         0.0232
    127 H43       -39.5270   -4.3834  -11.9676 H         1 LEU         0.0232
    128 H44       -36.7553   -5.6973  -14.9318 H         1 LEU         0.0232
    129 H45       -38.2396   -6.6575  -14.6135 H         1 LEU         0.0232
    130 H46       -36.9270   -6.6004  -13.3886 H         1 LEU         0.0232
    131 H47       -37.9591   -1.0431  -16.5151 H         1 LEU         0.1883
    132 H48       -40.5636   -1.0878  -17.8337 H         1 LEU         0.0800
    133 H49       -38.5550    1.0173  -18.4667 H         1 LEU         0.0313
    134 H50       -38.7515    0.7061  -16.7085 H         1 LEU         0.0313
    135 H51       -41.2035    1.0848  -16.9834 H         1 LEU         0.0301
    136 H52       -40.8900    1.5575  -18.6878 H         1 LEU         0.0301
    137 H53       -40.8922    3.6257  -17.6293 H         1 LEU         0.0689
    138 H54       -39.1441    3.2138  -17.5927 H         1 LEU         0.0689
    139 H55       -40.5383    2.2034  -15.2692 H         1 LEU         0.2642
    140 H56       -38.7043    5.7997  -15.0802 H         1 LEU         0.2615
    141 H57       -38.8729    4.9797  -16.6556 H         1 LEU         0.2615
    142 H58       -40.4491    3.2903  -13.3137 H         1 LEU         0.2615
    143 H59       -39.5825    4.8456  -13.2009 H         1 LEU         0.2615
    144 H60       -40.9723   -1.3131  -20.0907 H         1 LEU         0.1881
    145 H61       -38.6571   -1.1327  -21.9234 H         1 LEU         0.0763
    146 H62       -40.3869   -1.2539  -22.3923 H         1 LEU         0.0763
    147 H63       -38.9668   -2.6864  -23.8949 H         1 LEU         0.1884
    148 H64       -39.4733   -5.4907  -22.9641 H         1 LEU         0.0817
    149 H65       -39.0523   -4.3540  -25.7682 H         1 LEU         0.0420
    150 H66       -40.6546   -4.5369  -24.9770 H         1 LEU         0.0420
    151 H67       -41.5617   -7.1802  -24.7780 H         1 LEU         0.0729
    152 H68       -38.4485   -8.8547  -27.0901 H         1 LEU         0.1199
    153 H69       -40.7191   -9.2745  -26.0653 H         1 LEU         0.2361
    154 H70       -37.7353   -6.7816  -22.5689 H         1 LEU         0.1883
    155 H71       -35.0519   -5.7035  -23.1019 H         1 LEU         0.0800
    156 H72       -35.8929   -8.4363  -22.0506 H         1 LEU         0.0315
    157 H73       -35.6045   -6.9766  -21.0441 H         1 LEU         0.0315
    158 H74       -33.5100   -8.2691  -22.8091 H         1 LEU         0.0298
    159 H75       -31.9573   -6.9757  -21.4121 H         1 LEU         0.0232
    160 H76       -33.3537   -6.2524  -20.5441 H         1 LEU         0.0232
    161 H77       -33.1182   -5.9270  -22.2949 H         1 LEU         0.0232
    162 H78       -34.2654   -9.8459  -21.0763 H         1 LEU         0.0232
    163 H79       -33.9432   -8.6057  -19.8175 H         1 LEU         0.0232
    164 H80       -32.5876   -9.2716  -20.7900 H         1 LEU         0.0232
    165 H81       -33.7738   -6.1665  -24.7204 H         1 LEU         0.1875
    166 H82       -34.4159   -8.5007  -26.4984 H         1 LEU         0.0729
    167 H83       -33.6435   -7.2449  -28.4381 H         1 LEU         0.0336
    168 H84       -35.5477   -5.7144  -28.7010 H         1 LEU         0.0234
    169 H85       -35.8795   -5.8396  -26.9401 H         1 LEU         0.0234
    170 H86       -36.0235   -7.2924  -27.9867 H         1 LEU         0.0234
    171 H87       -32.1324   -5.6953  -27.2729 H         1 LEU         0.0234
    172 H88       -33.5570   -4.8168  -26.6207 H         1 LEU         0.0234
    173 H89       -33.2606   -4.8577  -28.3919 H         1 LEU         0.0234
@<TRIPOS>BOND
     1    1    2 1  
     2    2    3 1  
     3    2    5 1  
     4    3    4 2  
     5    3    9 am 
     6    5    6 1  
     7    6    7 1  
     8    6    8 1  
     9    9   10 1  
    10    9   15 1  
    11   10   11 1  
    12   10   13 1  
    13   11   12 2  
    14   11   16 am 
    15   13   14 1  
    16   14   15 1  
    17   16   17 1  
    18   17   18 1  
    19   17   20 1  
    20   18   19 2  
    21   18   27 am 
    22   20   21 1  
    23   21   22 ar 
    24   21   23 ar 
    25   22   24 ar 
    26   23   25 ar 
    27   24   26 ar 
    28   25   26 ar 
    29   27   28 1  
    30   28   29 1  
    31   28   31 1  
    32   29   30 2  
    33   29   36 am 
    34   31   32 1  
    35   32   33 1  
    36   33   34 ar 
    37   33   35 ar 
    38   36   37 1  
    39   37   38 1  
    40   37   40 1  
    41   38   39 2  
    42   38   44 am 
    43   40   41 1  
    44   41   42 1  
    45   41   43 1  
    46   44   45 1  
    47   45   46 1  
    48   45   48 1  
    49   46   47 2  
    50   46   55 am 
    51   48   49 1  
    52   49   50 1  
    53   50   51 1  
    54   51   52 ar 
    55   52   53 ar 
    56   52   54 ar 
    57   55   56 1  
    58   56   57 1  
    59   57   58 2  
    60   57   59 am 
    61   59   60 1  
    62   60   61 1  
    63   60   63 1  
    64   61   62 2  
    65   61   69 am 
    66   63   64 1  
    67   64   65 1  
    68   64   66 2  
    69   65   67 2  
    70   66   68 1  
    71   67   68 1  
    72   69   70 1  
    73   70   71 1  
    74   70   73 1  
    75   71   72 2  
    76   71   77 am 
    77   73   74 1  
    78   74   75 1  
    79   74   76 1  
    80   77   78 1  
    81   78   79 1  
    82   78   81 1  
    83   79   80 ar 
    84   79   84 ar 
    85   81   82 1  
    86   81   83 1  
    87    1   85 1  
    88    1   86 1  
    89    1   87 1  
    90    2   88 1  
    91    5   89 1  
    92    5   90 1  
    93    6   91 1  
    94    7   92 1  
    95    7   93 1  
    96    7   94 1  
    97    8   95 1  
    98    8   96 1  
    99    8   97 1  
   100   10   98 1  
   101   13   99 1  
   102   13  100 1  
   103   14  101 1  
   104   14  102 1  
   105   15  103 1  
   106   15  104 1  
   107   16  105 1  
   108   17  106 1  
   109   20  107 1  
   110   20  108 1  
   111   22  109 1  
   112   23  110 1  
   113   24  111 1  
   114   25  112 1  
   115   26  113 1  
   116   27  114 1  
   117   28  115 1  
   118   31  116 1  
   119   31  117 1  
   120   32  118 1  
   121   32  119 1  
   122   36  120 1  
   123   37  121 1  
   124   40  122 1  
   125   40  123 1  
   126   41  124 1  
   127   42  125 1  
   128   42  126 1  
   129   42  127 1  
   130   43  128 1  
   131   43  129 1  
   132   43  130 1  
   133   44  131 1  
   134   45  132 1  
   135   48  133 1  
   136   48  134 1  
   137   49  135 1  
   138   49  136 1  
   139   50  137 1  
   140   50  138 1  
   141   51  139 1  
   142   53  140 1  
   143   53  141 1  
   144   54  142 1  
   145   54  143 1  
   146   55  144 1  
   147   56  145 1  
   148   56  146 1  
   149   59  147 1  
   150   60  148 1  
   151   63  149 1  
   152   63  150 1  
   153   66  151 1  
   154   67  152 1  
   155   68  153 1  
   156   69  154 1  
   157   70  155 1  
   158   73  156 1  
   159   73  157 1  
   160   74  158 1  
   161   75  159 1  
   162   75  160 1  
   163   75  161 1  
   164   76  162 1  
   165   76  163 1  
   166   76  164 1  
   167   77  165 1  
   168   78  166 1  
   169   81  167 1  
   170   82  168 1  
   171   82  169 1  
   172   82  170 1  
   173   83  171 1  
   174   83  172 1  
   175   83  173 1  
@<TRIPOS>SUBSTRUCTURE
     1 LEU         1

