3k0h_ligand
  -I-interpret- 

 69 70  0  0  0  0  0  0  0  0999 V2000
  -27.5940   54.7170    6.2350 N   0  3  0  0  0
  -26.2340   54.5760    5.6640 C   0  0  0  0  0
  -26.2340   53.5200    4.5790 C   0  0  0  0  0
  -26.3590   52.2540    5.1630 O   0  0  0  0  0
  -25.7600   55.8920    5.0790 C   0  0  0  0  0
  -26.5640   56.6960    4.6220 O   0  0  0  0  0
  -27.5890   51.5100    4.4900 P   0  0  0  0  0
  -27.2330   51.0480    2.9980 O   0  0  0  0  0
  -28.7530   52.6170    4.5700 O   0  0  0  0  0
  -27.9690   50.1700    5.2720 O   0  0  0  0  0
  -24.4460   56.1280    5.1060 N   0  0  0  0  0
  -23.9510   57.2970    4.4040 C   0  0  0  0  0
  -24.0330   57.0350    2.9160 C   0  0  0  0  0
  -23.8880   55.8920    2.4880 O   0  0  0  0  0
  -22.4910   57.3780    4.8530 C   0  0  0  0  0
  -22.4550   56.6000    6.1630 C   0  0  0  0  0
  -23.4040   55.4760    5.9150 C   0  0  0  0  0
  -24.2990   58.0740    2.1350 N   0  0  0  0  0
  -24.2380   57.9630    0.6880 C   0  0  0  0  0
  -23.0450   58.7790    0.2320 C   0  0  0  0  0
  -22.6130   59.7120    0.9190 O   0  0  0  0  0
  -25.4860   58.5450    0.0200 C   0  0  0  0  0
  -25.9510   59.6630    0.7860 O   0  0  0  0  0
  -26.6040   57.5060   -0.0810 C   0  0  0  0  0
  -22.5000   58.4170   -0.9220 N   0  0  0  0  0
  -21.3760   59.1370   -1.4930 C   0  0  0  0  0
  -21.7660   59.5680   -2.8950 C   0  0  0  0  0
  -21.7330   58.7710   -3.8460 O   0  0  0  0  0
  -20.1400   58.2360   -1.5290 C   0  0  0  0  0
  -19.8580   57.5590   -0.2230 C   0  0  0  0  0
  -20.5080   56.3790    0.1100 C   0  0  0  0  0
  -18.9630   58.1130    0.6780 C   0  0  0  0  0
  -20.2800   55.7620    1.3020 C   0  0  0  0  0
  -18.7180   57.4920    1.8950 C   0  0  0  0  0
  -19.3850   56.3140    2.2070 C   0  0  0  0  0
  -22.1610   60.8260   -3.0140 N   0  0  0  0  0
  -27.8932   53.8222    6.6224 H   0  0  0  0  0
  -27.5803   55.4209    6.9731 H   0  0  0  0  0
  -28.2414   55.0047    5.5012 H   0  0  0  0  0
  -25.5576   54.2791    6.4655 H   0  0  0  0  0
  -25.2998   53.5724    4.0198 H   0  0  0  0  0
  -27.0708   53.6931    3.9023 H   0  0  0  0  0
  -26.9943   51.8166    2.4746 H   0  0  0  0  0
  -28.4809   53.4013    4.0879 H   0  0  0  0  0
  -24.5044   58.2137    4.6079 H   0  0  0  0  0
  -22.1573   58.4080    4.9786 H   0  0  0  0  0
  -21.8101   56.9621    4.1104 H   0  0  0  0  0
  -22.7374   57.2082    7.0223 H   0  0  0  0  0
  -21.4534   56.2566    6.4218 H   0  0  0  0  0
  -22.9422   54.6229    5.4178 H   0  0  0  0  0
  -23.7873   55.0248    6.8302 H   0  0  0  0  0
  -24.5510   58.9671    2.5584 H   0  0  0  0  0
  -24.1637   56.9106    0.4142 H   0  0  0  0  0
  -25.2182   58.8565   -0.9896 H   0  0  0  0  0
  -26.7340   60.0310    0.3700 H   0  0  0  0  0
  -26.2584   56.6587   -0.6732 H   0  0  0  0  0
  -26.8739   57.1662    0.9189 H   0  0  0  0  0
  -27.4736   57.9554   -0.5605 H   0  0  0  0  0
  -22.8802   57.6126   -1.4207 H   0  0  0  0  0
  -21.1324   60.0107   -0.8886 H   0  0  0  0  0
  -19.2818   58.8654   -1.7645 H   0  0  0  0  0
  -20.3229   57.4574   -2.2696 H   0  0  0  0  0
  -21.2132   55.9386   -0.5949 H   0  0  0  0  0
  -18.4486   59.0414    0.4298 H   0  0  0  0  0
  -20.8000   54.8354    1.5450 H   0  0  0  0  0
  -18.0083   57.9250    2.5999 H   0  0  0  0  0
  -19.2051   55.8231    3.1634 H   0  0  0  0  0
  -22.4583   61.1835   -3.9219 H   0  0  0  0  0
  -22.1681   61.4377   -2.1978 H   0  0  0  0  0
  1  2  1  0  0  0
  2  3  1  0  0  0
  2  5  1  0  0  0
  3  4  1  0  0  0
  4  7  1  0  0  0
  5  6  2  0  0  0
  5 11  1  0  0  0
  7  8  1  0  0  0
  7  9  1  0  0  0
  7 10  2  0  0  0
 11 12  1  0  0  0
 11 17  1  0  0  0
 12 13  1  0  0  0
 12 15  1  0  0  0
 13 14  2  0  0  0
 13 18  1  0  0  0
 15 16  1  0  0  0
 16 17  1  0  0  0
 18 19  1  0  0  0
 19 20  1  0  0  0
 19 22  1  0  0  0
 20 21  2  0  0  0
 20 25  1  0  0  0
 22 23  1  0  0  0
 22 24  1  0  0  0
 25 26  1  0  0  0
 26 27  1  0  0  0
 26 29  1  0  0  0
 27 28  2  0  0  0
 27 36  1  0  0  0
 29 30  1  0  0  0
 30 31  4  0  0  0
 30 32  4  0  0  0
 31 33  4  0  0  0
 32 34  4  0  0  0
 33 35  4  0  0  0
 34 35  4  0  0  0
  1 37  1  0  0  0
  1 38  1  0  0  0
  1 39  1  0  0  0
  2 40  1  0  0  0
  3 41  1  0  0  0
  3 42  1  0  0  0
  8 43  1  0  0  0
  9 44  1  0  0  0
 12 45  1  0  0  0
 15 46  1  0  0  0
 15 47  1  0  0  0
 16 48  1  0  0  0
 16 49  1  0  0  0
 17 50  1  0  0  0
 17 51  1  0  0  0
 18 52  1  0  0  0
 19 53  1  0  0  0
 22 54  1  0  0  0
 23 55  1  0  0  0
 24 56  1  0  0  0
 24 57  1  0  0  0
 24 58  1  0  0  0
 25 59  1  0  0  0
 26 60  1  0  0  0
 29 61  1  0  0  0
 29 62  1  0  0  0
 31 63  1  0  0  0
 32 64  1  0  0  0
 33 65  1  0  0  0
 34 66  1  0  0  0
 35 67  1  0  0  0
 36 68  1  0  0  0
 36 69  1  0  0  0
M  END
$$$$
