### 
### Created by X-TOOL on Mon Sep 10 21:13:04 2018
### 

@<TRIPOS>MOLECULE
3k0h_ligand
   67    68     1     0     0
SMALL
GAST_HUCK


@<TRIPOS>ATOM
      1 N         -27.5940   54.7170    6.2350 N.4       1 SEP         0.2398
      2 CA        -26.2340   54.5760    5.6640 C.3       1 SEP         0.0934
      3 CB        -26.2340   53.5200    4.5790 C.3       1 SEP         0.1380
      4 OG        -26.3590   52.2540    5.1630 O.3       1 SEP        -0.2680
      5 C         -25.7600   55.8920    5.0790 C.2       1 SEP         0.2318
      6 O         -26.5640   56.6960    4.6220 O.2       1 SEP        -0.3904
      7 P         -27.5890   51.5100    4.4900 P.3       1 SEP         0.2012
      8 O1P       -27.2330   51.0480    2.9980 O.co2     1 SEP        -0.5537
      9 O2P       -28.7530   52.6170    4.5700 O.co2     1 SEP        -0.5537
     10 O3P       -27.9690   50.1700    5.2720 O.co2     1 SEP        -0.5537
     11 N         -24.4460   56.1280    5.1060 N.am      1 PRO        -0.2471
     12 CA        -23.9510   57.2970    4.4040 C.3       1 PRO         0.1339
     13 C         -24.0330   57.0350    2.9160 C.2       1 PRO         0.2042
     14 O         -23.8880   55.8920    2.4880 O.2       1 PRO        -0.3944
     15 CB        -22.4910   57.3780    4.8530 C.3       1 PRO        -0.0104
     16 CG        -22.4550   56.6000    6.1630 C.3       1 PRO        -0.0281
     17 CD        -23.4040   55.4760    5.9150 C.3       1 PRO         0.0371
     18 N         -24.2990   58.0740    2.1350 N.am      1 THR        -0.2613
     19 CA        -24.2380   57.9630    0.6880 C.3       1 THR         0.1565
     20 C         -23.0450   58.7790    0.2320 C.2       1 THR         0.2066
     21 O         -22.6130   59.7120    0.9190 O.2       1 THR        -0.3943
     22 CB        -25.4860   58.5450    0.0200 C.3       1 THR         0.0924
     23 OG1       -25.9510   59.6630    0.7860 O.3       1 THR        -0.3874
     24 CG2       -26.6040   57.5060   -0.0810 C.3       1 THR        -0.0346
     25 N         -22.5000   58.4170   -0.9220 N.am      1 PHE        -0.2619
     26 CA        -21.3760   59.1370   -1.4930 C.3       1 PHE         0.1401
     27 C         -21.7660   59.5680   -2.8950 C.2       1 PHE         0.2012
     28 O         -21.7330   58.7710   -3.8460 O.2       1 PHE        -0.3946
     29 CB        -20.1400   58.2360   -1.5290 C.3       1 PHE         0.0214
     30 CG        -19.8580   57.5590   -0.2230 C.ar      1 PHE        -0.0386
     31 CD1       -20.5080   56.3790    0.1100 C.ar      1 PHE        -0.0601
     32 CD2       -18.9630   58.1130    0.6780 C.ar      1 PHE        -0.0601
     33 CE1       -20.2800   55.7620    1.3020 C.ar      1 PHE        -0.0686
     34 CE2       -18.7180   57.4920    1.8950 C.ar      1 PHE        -0.0686
     35 CZ        -19.3850   56.3140    2.2070 C.ar      1 PHE        -0.0687
     36 N         -22.1610   60.8260   -3.0140 N.am      1 NH2        -0.2988
     37 H         -27.8932   53.8222    6.6224 H         1 SEP         0.2016
     38 H         -27.5803   55.4209    6.9731 H         1 SEP         0.2016
     39 H         -28.2414   55.0047    5.5012 H         1 SEP         0.2016
     40 H         -25.5576   54.2791    6.4655 H         1 SEP         0.1125
     41 H         -25.2998   53.5724    4.0198 H         1 SEP         0.0696
     42 H         -27.0708   53.6931    3.9023 H         1 SEP         0.0696
     43 H         -24.5044   58.2137    4.6079 H         1 PRO         0.0802
     44 H         -22.1573   58.4080    4.9786 H         1 PRO         0.0313
     45 H         -21.8101   56.9621    4.1104 H         1 PRO         0.0313
     46 H         -22.7374   57.2082    7.0223 H         1 PRO         0.0287
     47 H         -21.4534   56.2566    6.4218 H         1 PRO         0.0287
     48 H         -22.9422   54.6229    5.4178 H         1 PRO         0.0524
     49 H         -23.7873   55.0248    6.8302 H         1 PRO         0.0524
     50 H         -24.5510   58.9671    2.5584 H         1 THR         0.1884
     51 H         -24.1637   56.9106    0.4142 H         1 THR         0.0826
     52 H         -25.2182   58.8565   -0.9896 H         1 THR         0.0639
     53 H         -26.7340   60.0310    0.3700 H         1 THR         0.2101
     54 H         -26.2584   56.6587   -0.6732 H         1 THR         0.0257
     55 H         -26.8739   57.1662    0.9189 H         1 THR         0.0257
     56 H         -27.4736   57.9554   -0.5605 H         1 THR         0.0257
     57 H         -22.8802   57.6126   -1.4207 H         1 PHE         0.1885
     58 H         -21.1324   60.0107   -0.8886 H         1 PHE         0.0823
     59 H         -19.2818   58.8654   -1.7645 H         1 PHE         0.0474
     60 H         -20.3229   57.4574   -2.2696 H         1 PHE         0.0474
     61 H         -21.2132   55.9386   -0.5949 H         1 PHE         0.0557
     62 H         -18.4486   59.0414    0.4298 H         1 PHE         0.0557
     63 H         -20.8000   54.8354    1.5450 H         1 PHE         0.0599
     64 H         -18.0083   57.9250    2.5999 H         1 PHE         0.0599
     65 H         -19.2051   55.8231    3.1634 H         1 PHE         0.0559
     66 H         -22.4583   61.1835   -3.9219 H         1 NH2         0.1815
     67 H         -22.1681   61.4377   -2.1978 H         1 NH2         0.1815
@<TRIPOS>BOND
     1    1    2 1  
     2    2    3 1  
     3    2    5 1  
     4    3    4 1  
     5    4    7 1  
     6    5    6 2  
     7    5   11 am 
     8    7    8 ar 
     9    7    9 ar 
    10    7   10 ar 
    11   11   12 1  
    12   11   17 1  
    13   12   13 1  
    14   12   15 1  
    15   13   14 2  
    16   13   18 am 
    17   15   16 1  
    18   16   17 1  
    19   18   19 1  
    20   19   20 1  
    21   19   22 1  
    22   20   21 2  
    23   20   25 am 
    24   22   23 1  
    25   22   24 1  
    26   25   26 1  
    27   26   27 1  
    28   26   29 1  
    29   27   28 2  
    30   27   36 am 
    31   29   30 1  
    32   30   31 ar 
    33   30   32 ar 
    34   31   33 ar 
    35   32   34 ar 
    36   33   35 ar 
    37   34   35 ar 
    38    1   37 1  
    39    1   38 1  
    40    1   39 1  
    41    2   40 1  
    42    3   41 1  
    43    3   42 1  
    44   12   43 1  
    45   15   44 1  
    46   15   45 1  
    47   16   46 1  
    48   16   47 1  
    49   17   48 1  
    50   17   49 1  
    51   18   50 1  
    52   19   51 1  
    53   22   52 1  
    54   23   53 1  
    55   24   54 1  
    56   24   55 1  
    57   24   56 1  
    58   25   57 1  
    59   26   58 1  
    60   29   59 1  
    61   29   60 1  
    62   31   61 1  
    63   32   62 1  
    64   33   63 1  
    65   34   64 1  
    66   35   65 1  
    67   36   66 1  
    68   36   67 1  
@<TRIPOS>SUBSTRUCTURE
     1 SEP         1

