1xuo_ligand
  -I-interpret- 

 76 80  0  0  0  0  0  0  0  0999 V2000
    5.7540   48.6080   44.4640 O   0  0  0  0  0
    6.5260   48.8910   43.5580 C   0  0  0  0  0
    7.4750   49.8360   43.6580 N   0  0  0  0  0
    7.6380   50.6520   44.8480 C   0  0  0  0  0
    6.4900   48.1240   42.2530 C   0  0  0  0  0
    5.0530   47.9940   41.7180 C   0  0  0  0  0
    4.9090   47.1680   40.4530 C   0  0  0  0  0
    4.2490   45.9140   40.4730 C   0  0  0  0  0
    4.0880   45.1750   39.2970 C   0  0  0  0  0
    3.4390   43.9140   39.2930 C   0  0  0  0  0
    3.3160   43.2050   38.0900 C   0  0  0  0  0
    3.8350   43.7190   36.8900 C   0  0  0  0  0
    4.4940   44.9510   36.9110 C   0  0  0  0  0
    4.6170   45.6640   38.1080 C   0  0  0  0  0
    5.2720   46.8990   38.0990 C   0  0  0  0  0
    5.4200   47.6380   39.2680 C   0  0  0  0  0
    7.1120   46.8150   42.4690 N   0  0  0  0  0
    6.4510   45.8030   43.2780 C   0  0  0  0  0
    7.2330   45.5660   44.5800 C   0  0  0  0  0
    8.5560   44.8330   44.4840 C   0  0  0  0  0
    8.9430   44.3120   45.5260 O   0  0  0  0  0
    9.3430   44.7280   43.4140 N   0  0  0  0  0
    9.0340   45.2680   42.0890 C   0  0  0  0  0
    8.3260   44.1020   41.2930 C   0  0  0  0  0
    7.9100   44.3890   39.8340 C   0  0  0  0  0
    7.1500   43.1550   39.2660 C   0  0  0  0  0
    9.1280   44.7140   38.9730 C   0  0  0  0  0
    8.3280   46.5940   41.9450 C   0  0  0  0  0
    8.9410   47.4310   41.2770 O   0  0  0  0  0
   10.5780   43.9700   43.5720 C   0  0  0  0  0
   11.6790   44.8700   44.0280 C   0  0  0  0  0
   11.9400   45.0230   45.4460 C   0  0  0  0  0
   13.0710   45.9220   45.8690 C   0  0  0  0  0
   13.3550   46.0950   47.2300 C   0  0  0  0  0
   14.4100   46.9390   47.5940 C   0  0  0  0  0
   15.1660   47.6020   46.6190 C   0  0  0  0  0
   14.8790   47.4220   45.2630 C   0  0  0  0  0
   13.8200   46.5750   44.8980 C   0  0  0  0  0
   13.4960   46.3680   43.5150 N   0  0  0  0  0
   12.4060   45.4990   43.1220 C   0  0  0  0  0
    8.1042   49.9860   42.8693 H   0  0  0  0  0
    6.7211   51.2122   45.0312 H   0  0  0  0  0
    7.8490   50.0085   45.7021 H   0  0  0  0  0
    8.4658   51.3456   44.7008 H   0  0  0  0  0
    7.0492   48.6668   41.4909 H   0  0  0  0  0
    4.7165   49.0018   41.4746 H   0  0  0  0  0
    4.4751   47.4874   42.4910 H   0  0  0  0  0
    3.8632   45.5219   41.4140 H   0  0  0  0  0
    3.0389   43.4993   40.2182 H   0  0  0  0  0
    2.8097   42.2397   38.0856 H   0  0  0  0  0
    3.7254   43.1656   35.9574 H   0  0  0  0  0
    4.9138   45.3579   35.9911 H   0  0  0  0  0
    5.6723   47.2882   37.1628 H   0  0  0  0  0
    5.9435   48.5937   39.2435 H   0  0  0  0  0
    6.4064   44.8707   42.7150 H   0  0  0  0  0
    5.4457   46.1450   43.5240 H   0  0  0  0  0
    6.5925   44.9325   45.1936 H   0  0  0  0  0
    7.4765   46.5587   44.9587 H   0  0  0  0  0
    9.9925   45.5787   41.6733 H   0  0  0  0  0
    7.3988   43.9001   41.8293 H   0  0  0  0  0
    9.0583   43.2965   41.2373 H   0  0  0  0  0
    7.2527   45.2583   39.8158 H   0  0  0  0  0
    7.8027   42.2825   39.2960 H   0  0  0  0  0
    6.2622   42.9671   39.8699 H   0  0  0  0  0
    6.8548   43.3543   38.2358 H   0  0  0  0  0
    9.6304   45.5943   39.3740 H   0  0  0  0  0
    9.8140   43.8670   38.9818 H   0  0  0  0  0
    8.8062   44.9119   37.9506 H   0  0  0  0  0
   10.8513   43.5283   42.6137 H   0  0  0  0  0
   10.4246   43.1880   44.3156 H   0  0  0  0  0
   11.3334   44.5010   46.1861 H   0  0  0  0  0
   12.7658   45.5823   47.9903 H   0  0  0  0  0
   14.6462   47.0822   48.6484 H   0  0  0  0  0
   15.9811   48.2607   46.9188 H   0  0  0  0  0
   15.4682   47.9313   44.5004 H   0  0  0  0  0
   12.1825   45.3621   42.0640 H   0  0  0  0  0
  1  2  2  0  0  0
  2  3  1  0  0  0
  2  5  1  0  0  0
  3  4  1  0  0  0
  5  6  1  0  0  0
  5 17  1  0  0  0
  6  7  1  0  0  0
  7  8  4  0  0  0
  7 16  4  0  0  0
  8  9  4  0  0  0
  9 10  4  0  0  0
  9 14  4  0  0  0
 10 11  4  0  0  0
 11 12  4  0  0  0
 12 13  4  0  0  0
 13 14  4  0  0  0
 14 15  4  0  0  0
 15 16  4  0  0  0
 17 18  1  0  0  0
 17 28  1  0  0  0
 18 19  1  0  0  0
 19 20  1  0  0  0
 20 21  2  0  0  0
 20 22  1  0  0  0
 22 23  1  0  0  0
 22 30  1  0  0  0
 23 24  1  0  0  0
 23 28  1  0  0  0
 24 25  1  0  0  0
 25 26  1  0  0  0
 25 27  1  0  0  0
 28 29  2  0  0  0
 30 31  1  0  0  0
 31 32  4  0  0  0
 31 40  4  0  0  0
 32 33  4  0  0  0
 33 34  4  0  0  0
 33 38  4  0  0  0
 34 35  4  0  0  0
 35 36  4  0  0  0
 36 37  4  0  0  0
 37 38  4  0  0  0
 38 39  4  0  0  0
 39 40  4  0  0  0
  3 41  1  0  0  0
  4 42  1  0  0  0
  4 43  1  0  0  0
  4 44  1  0  0  0
  5 45  1  0  0  0
  6 46  1  0  0  0
  6 47  1  0  0  0
  8 48  1  0  0  0
 10 49  1  0  0  0
 11 50  1  0  0  0
 12 51  1  0  0  0
 13 52  1  0  0  0
 15 53  1  0  0  0
 16 54  1  0  0  0
 18 55  1  0  0  0
 18 56  1  0  0  0
 19 57  1  0  0  0
 19 58  1  0  0  0
 23 59  1  0  0  0
 24 60  1  0  0  0
 24 61  1  0  0  0
 25 62  1  0  0  0
 26 63  1  0  0  0
 26 64  1  0  0  0
 26 65  1  0  0  0
 27 66  1  0  0  0
 27 67  1  0  0  0
 27 68  1  0  0  0
 30 69  1  0  0  0
 30 70  1  0  0  0
 32 71  1  0  0  0
 34 72  1  0  0  0
 35 73  1  0  0  0
 36 74  1  0  0  0
 37 75  1  0  0  0
 40 76  1  0  0  0
M  END
$$$$
