3l7g_ligand
  -I-interpret- 

 28 27  0  0  0  0  0  0  0  0999 V2000
   17.2560   32.4750    7.6090 P   0  0  0  0  0
   15.1320   33.1470    6.2340 C   0  0  0  0  0
   16.0490   32.0450    6.5060 N   0  0  0  0  0
   17.0300   31.7010    8.8590 O   0  0  0  0  0
   13.9430   32.9730    7.1620 C   0  0  0  0  0
   18.7990   32.1350    6.9920 N   0  0  0  0  0
   17.1850   33.9430    7.9070 O   0  0  0  0  0
   14.6670   33.0990    4.7910 C   0  0  0  0  0
   19.1280   32.9400    5.8200 C   0  0  0  0  0
   18.9160   32.1040    4.5630 C   0  0  0  0  0
   20.5830   33.3700    5.9050 C   0  0  0  0  0
   15.6229   34.1064    6.3976 H   0  0  0  0  0
   15.9708   31.1216    6.0798 H   0  0  0  0  0
   13.2261   33.7751    6.9863 H   0  0  0  0  0
   13.4690   32.0111    6.9667 H   0  0  0  0  0
   14.2833   33.0084    8.1969 H   0  0  0  0  0
   19.4291   31.4424    7.3966 H   0  0  0  0  0
   17.3312   34.4399    7.0987 H   0  0  0  0  0
   14.1932   32.1371    4.5951 H   0  0  0  0  0
   13.9503   33.9011    4.6147 H   0  0  0  0  0
   15.5245   33.2244    4.1299 H   0  0  0  0  0
   18.4881   33.8216    5.7828 H   0  0  0  0  0
   19.1711   32.6983    3.6856 H   0  0  0  0  0
   19.5540   31.2212    4.6035 H   0  0  0  0  0
   17.8718   31.7968    4.5043 H   0  0  0  0  0
   21.2200   32.4864    5.9446 H   0  0  0  0  0
   20.8370   33.9635    5.0268 H   0  0  0  0  0
   20.7320   33.9675    6.8044 H   0  0  0  0  0
  1  3  1  0  0  0
  1  4  2  0  0  0
  1  6  1  0  0  0
  1  7  1  0  0  0
  3  2  1  0  0  0
  2  5  1  0  0  0
  2  8  1  0  0  0
  6  9  1  0  0  0
  9 10  1  0  0  0
  9 11  1  0  0  0
  2 12  1  0  0  0
  3 13  1  0  0  0
  5 14  1  0  0  0
  5 15  1  0  0  0
  5 16  1  0  0  0
  6 17  1  0  0  0
  7 18  1  0  0  0
  8 19  1  0  0  0
  8 20  1  0  0  0
  8 21  1  0  0  0
  9 22  1  0  0  0
 10 23  1  0  0  0
 10 24  1  0  0  0
 10 25  1  0  0  0
 11 26  1  0  0  0
 11 27  1  0  0  0
 11 28  1  0  0  0
M  END
$$$$
