### 
### Created by X-TOOL on Mon Sep 10 21:13:03 2018
### 

@<TRIPOS>MOLECULE
3l7g_ligand
   27    26     1     0     0
SMALL
GAST_HUCK


@<TRIPOS>ATOM
      1 P          17.2560   32.4750    7.6090 P.3       1 M44         0.1457
      2 C1         15.1320   33.1470    6.2340 C.3       1 M44         0.0297
      3 N1         16.0490   32.0450    6.5060 N.am      1 M44        -0.2812
      4 O1         17.0300   31.7010    8.8590 O.co2     1 M44        -0.5944
      5 C2         13.9430   32.9730    7.1620 C.3       1 M44        -0.0457
      6 N2         18.7990   32.1350    6.9920 N.am      1 M44        -0.2812
      7 O2         17.1850   33.9430    7.9070 O.co2     1 M44        -0.5944
      8 C3         14.6670   33.0990    4.7910 C.3       1 M44        -0.0457
      9 C4         19.1280   32.9400    5.8200 C.3       1 M44         0.0297
     10 C5         18.9160   32.1040    4.5630 C.3       1 M44        -0.0457
     11 C6         20.5830   33.3700    5.9050 C.3       1 M44        -0.0457
     12 H          15.6229   34.1064    6.3976 H         1 M44         0.0506
     13 H          15.9708   31.1216    6.0798 H         1 M44         0.1651
     14 H          13.2261   33.7751    6.9863 H         1 M44         0.0248
     15 H          13.4690   32.0111    6.9667 H         1 M44         0.0248
     16 H          14.2833   33.0084    8.1969 H         1 M44         0.0248
     17 H          19.4291   31.4424    7.3966 H         1 M44         0.1651
     18 H          14.1932   32.1371    4.5951 H         1 M44         0.0248
     19 H          13.9503   33.9011    4.6147 H         1 M44         0.0248
     20 H          15.5245   33.2244    4.1299 H         1 M44         0.0248
     21 H          18.4881   33.8216    5.7828 H         1 M44         0.0506
     22 H          19.1711   32.6983    3.6856 H         1 M44         0.0248
     23 H          19.5540   31.2212    4.6035 H         1 M44         0.0248
     24 H          17.8718   31.7968    4.5043 H         1 M44         0.0248
     25 H          21.2200   32.4864    5.9446 H         1 M44         0.0248
     26 H          20.8370   33.9635    5.0268 H         1 M44         0.0248
     27 H          20.7320   33.9675    6.8044 H         1 M44         0.0248
@<TRIPOS>BOND
     1    1    3 am 
     2    1    4 ar 
     3    1    6 am 
     4    1    7 ar 
     5    3    2 1  
     6    2    5 1  
     7    2    8 1  
     8    6    9 1  
     9    9   10 1  
    10    9   11 1  
    11    2   12 1  
    12    3   13 1  
    13    5   14 1  
    14    5   15 1  
    15    5   16 1  
    16    6   17 1  
    17    8   18 1  
    18    8   19 1  
    19    8   20 1  
    20    9   21 1  
    21   10   22 1  
    22   10   23 1  
    23   10   24 1  
    24   11   25 1  
    25   11   26 1  
    26   11   27 1  
@<TRIPOS>SUBSTRUCTURE
     1 M44         1

