5wdl_ligand
  -I-interpret- 

 36 35  0  0  0  0  0  0  0  0999 V2000
    6.6700   10.1890  -15.4240 C   0  0  0  0  0
    5.5140   11.0890  -15.8330 C   0  0  0  0  0
    6.8740    8.8540  -16.1370 C   0  0  0  0  0
    8.2080    8.8970  -16.8760 C   0  0  0  0  0
    8.6550    7.5240  -17.3650 C   0  0  0  0  0
    9.7950    7.6260  -18.3740 C   0  0  0  0  0
   10.6710    6.0900  -20.1630 C   0  0  0  0  0
    4.8020    7.6400  -16.9580 C   0  0  0  0  0
    3.7000    7.5120  -18.0100 C   0  0  0  0  0
   10.1640    6.2970  -18.8200 N   0  0  0  0  0
   11.0350    4.7510  -20.5940 N   0  0  0  0  0
   10.7920    7.0590  -20.9460 N   0  0  0  0  0
    5.8050    8.6800  -17.1030 N   0  0  0  0  0
    2.7830    6.4440  -17.6590 N   0  3  0  0  0
    7.3980   10.5390  -14.5590 O   0  0  0  0  0
    4.8360    6.8970  -16.0340 O   0  0  0  0  0
    4.8597   11.2499  -14.9762 H   0  0  0  0  0
    5.9049   12.0462  -16.1781 H   0  0  0  0  0
    4.9519   10.6136  -16.6368 H   0  0  0  0  0
    6.8696    8.0329  -15.4201 H   0  0  0  0  0
    8.9629    9.2670  -16.1822 H   0  0  0  0  0
    8.0866    9.5394  -17.7482 H   0  0  0  0  0
    7.8080    7.0412  -17.8524 H   0  0  0  0  0
    9.0072    6.9523  -16.5064 H   0  0  0  0  0
   10.6548    8.1040  -17.9045 H   0  0  0  0  0
    9.4722    8.2201  -19.2289 H   0  0  0  0  0
    4.1556    7.2847  -18.9738 H   0  0  0  0  0
    3.1477    8.4504  -18.0599 H   0  0  0  0  0
   10.0666    5.5037  -18.1863 H   0  0  0  0  0
   11.3906    4.5980  -21.5377 H   0  0  0  0  0
   10.9349    3.9640  -19.9529 H   0  0  0  0  0
   10.5338    7.9972  -20.6401 H   0  0  0  0  0
    5.7568    9.3061  -17.9068 H   0  0  0  0  0
    2.0561    6.3738  -18.3711 H   0  0  0  0  0
    3.2939    5.5628  -17.6050 H   0  0  0  0  0
    2.3565    6.6471  -16.7550 H   0  0  0  0  0
  1  2  1  0  0  0
  3  1  1  0  0  0
  1 15  2  0  0  0
  3  4  1  0  0  0
 13  3  1  0  0  0
  4  5  1  0  0  0
  5  6  1  0  0  0
  6 10  1  0  0  0
 10  7  1  0  0  0
  7 11  1  0  0  0
  7 12  2  0  0  0
  8  9  1  0  0  0
  8 13  1  0  0  0
  8 16  2  0  0  0
  9 14  1  0  0  0
  2 17  1  0  0  0
  2 18  1  0  0  0
  2 19  1  0  0  0
  3 20  1  0  0  0
  4 21  1  0  0  0
  4 22  1  0  0  0
  5 23  1  0  0  0
  5 24  1  0  0  0
  6 25  1  0  0  0
  6 26  1  0  0  0
  9 27  1  0  0  0
  9 28  1  0  0  0
 10 29  1  0  0  0
 11 30  1  0  0  0
 11 31  1  0  0  0
 12 32  1  0  0  0
 13 33  1  0  0  0
 14 34  1  0  0  0
 14 35  1  0  0  0
 14 36  1  0  0  0
M  END
$$$$
