### 
### Created by X-TOOL on Mon Sep 10 21:13:26 2018
### 

@<TRIPOS>MOLECULE
4zcw_ligand
   18    18     1     0     0
SMALL
GAST_HUCK


@<TRIPOS>ATOM
      1 CAA        76.4960  111.7880  -93.6810 C.2       1 4NG         0.2237
      2 CAC        76.1260  113.4460  -92.1400 C.3       1 4NG         0.1726
      3 CAD        74.8850  113.2840  -92.9890 C.3       1 4NG         0.0324
      4 CAE        75.1120  111.9520  -93.6760 C.3       1 4NG         0.1254
      5 NAB        77.1240  112.6030  -92.8340 N.am      1 4NG        -0.1197
      6 OAF        78.5290  112.6550  -92.6310 O.3       1 4NG        -0.2667
      7 OAG        77.0780  110.9720  -94.3950 O.2       1 4NG        -0.3948
      8 OAH        76.5500  114.8110  -92.1710 O.3       1 4NG        -0.3674
      9 OAJ        75.1320  110.6210  -91.2800 O.co2     1 4NG        -0.5604
     10 OAK        74.7770  109.2440  -93.4260 O.co2     1 4NG        -0.5604
     11 OAL        72.8790  110.7710  -92.5480 O.co2     1 4NG        -0.5604
     12 PAI        74.3440  110.6210  -92.6940 P.3       1 4NG         0.0809
     13 H1         75.9599  113.1154  -91.1041 H         1 4NG         0.0896
     14 H2         74.7998  114.0981  -93.7238 H         1 4NG         0.0353
     15 H3         73.9798  113.2574  -92.3647 H         1 4NG         0.0353
     16 H4         74.7063  111.9554  -94.6984 H         1 4NG         0.0729
     17 H5         78.9528  112.0168  -93.1927 H         1 4NG         0.2494
     18 H6         76.6324  115.0954  -93.0737 H         1 4NG         0.2123
@<TRIPOS>BOND
     1    1    4 1  
     2    5    1 am 
     3    1    7 2  
     4    2    3 1  
     5    2    5 1  
     6    2    8 1  
     7    3    4 1  
     8    4   12 1  
     9    5    6 1  
    10   12    9 ar 
    11   12   10 ar 
    12   12   11 ar 
    13    2   13 1  
    14    3   14 1  
    15    3   15 1  
    16    4   16 1  
    17    6   17 1  
    18    8   18 1  
@<TRIPOS>SUBSTRUCTURE
     1 4NG         1

