4zcw_ligand
  -I-interpret- 

 20 20  0  0  0  0  0  0  0  0999 V2000
   76.4960  111.7880  -93.6810 C   0  0  0  0  0
   76.1260  113.4460  -92.1400 C   0  0  0  0  0
   74.8850  113.2840  -92.9890 C   0  0  0  0  0
   75.1120  111.9520  -93.6760 C   0  0  0  0  0
   77.1240  112.6030  -92.8340 N   0  0  0  0  0
   78.5290  112.6550  -92.6310 O   0  0  0  0  0
   77.0780  110.9720  -94.3950 O   0  0  0  0  0
   76.5500  114.8110  -92.1710 O   0  0  0  0  0
   75.1320  110.6210  -91.2800 O   0  0  0  0  0
   74.7770  109.2440  -93.4260 O   0  0  0  0  0
   72.8790  110.7710  -92.5480 O   0  0  0  0  0
   74.3440  110.6210  -92.6940 P   0  0  0  0  0
   75.9766  113.1704  -91.0961 H   0  0  0  0  0
   74.7457  114.1039  -93.6936 H   0  0  0  0  0
   73.9666  113.3051  -92.4023 H   0  0  0  0  0
   74.6839  111.9204  -94.6779 H   0  0  0  0  0
   78.9573  112.0100  -93.1986 H   0  0  0  0  0
   75.9014  115.3567  -91.7203 H   0  0  0  0  0
   76.0734  110.5211  -91.4396 H   0  0  0  0  0
   75.7340  109.2047  -93.4910 H   0  0  0  0  0
  1  4  1  0  0  0
  5  1  1  0  0  0
  1  7  2  0  0  0
  2  3  1  0  0  0
  2  5  1  0  0  0
  2  8  1  0  0  0
  3  4  1  0  0  0
  4 12  1  0  0  0
  5  6  1  0  0  0
 12  9  1  0  0  0
 12 10  1  0  0  0
 12 11  2  0  0  0
  2 13  1  0  0  0
  3 14  1  0  0  0
  3 15  1  0  0  0
  4 16  1  0  0  0
  6 17  1  0  0  0
  8 18  1  0  0  0
  9 19  1  0  0  0
 10 20  1  0  0  0
M  END
$$$$
