3si3_ligand
  -I-interpret- 

 51 53  0  0  0  0  0  0  0  0999 V2000
   16.6920  -15.3670   23.3600 N   0  3  0  0  0
   17.9710  -14.6840   23.3400 C   0  0  0  0  0
   17.7590  -13.3150   22.7490 C   0  0  0  0  0
   16.8250  -12.6150   23.1350 O   0  0  0  0  0
   18.4740  -14.5870   24.7850 C   0  0  0  0  0
   19.8740  -14.0180   24.8370 C   0  0  0  0  0
   20.9500  -14.6840   24.2540 C   0  0  0  0  0
   20.0850  -12.8070   25.4680 C   0  0  0  0  0
   22.2250  -14.1270   24.3100 C   0  0  0  0  0
   21.3540  -12.2480   25.5180 C   0  0  0  0  0
   22.4350  -12.9120   24.9400 C   0  0  0  0  0
   18.6040  -12.9030   21.8160 N   0  0  0  0  0
   18.4090  -11.5830   21.2360 C   0  0  0  0  0
   17.0650  -11.4740   20.5700 C   0  0  0  0  0
   16.7190  -12.3280   19.7680 O   0  0  0  0  0
   19.5130  -11.4360   20.1920 C   0  0  0  0  0
   20.5110  -12.5460   20.4710 C   0  0  0  0  0
   19.7600  -13.6160   21.2560 C   0  0  0  0  0
   16.2730  -10.4460   20.8920 N   0  0  0  0  0
   14.9490  -10.2000   20.3250 C   0  0  0  0  0
   13.8650  -10.0880   21.3770 C   0  0  0  0  0
   13.8200   -9.0020   22.2450 C   0  0  0  0  0
   12.8120   -8.9290   23.1990 C   0  0  0  0  0
   11.8640   -9.9390   23.2620 C   0  0  0  0  0
   11.9440  -11.0030   22.3720 C   0  0  0  0  0
   12.9240  -11.0540   21.4610 N   0  0  0  0  0
   16.3345  -15.4448   22.4079 H   0  0  0  0  0
   16.8118  -16.2990   23.7567 H   0  0  0  0  0
   16.0332  -14.8359   23.9295 H   0  0  0  0  0
   18.7093  -15.2167   22.7407 H   0  0  0  0  0
   18.4878  -15.5875   25.2174 H   0  0  0  0  0
   17.8086  -13.9277   25.3424 H   0  0  0  0  0
   20.7939  -15.6402   23.7545 H   0  0  0  0  0
   19.2468  -12.2860   25.9308 H   0  0  0  0  0
   23.0646  -14.6518   23.8542 H   0  0  0  0  0
   21.5060  -11.2875   26.0103 H   0  0  0  0  0
   23.4345  -12.4794   24.9835 H   0  0  0  0  0
   18.4473  -10.8073   22.0008 H   0  0  0  0  0
   19.9867  -10.4565   20.2565 H   0  0  0  0  0
   19.1112  -11.5138   19.1818 H   0  0  0  0  0
   21.3629  -12.1714   21.0385 H   0  0  0  0  0
   20.9123  -12.9525   19.5427 H   0  0  0  0  0
   19.4621  -14.4555   20.6279 H   0  0  0  0  0
   20.3788  -14.0704   22.0298 H   0  0  0  0  0
   16.6192   -9.7834   21.5859 H   0  0  0  0  0
   14.7013  -11.0447   19.6822 H   0  0  0  0  0
   14.9891   -9.2524   19.7878 H   0  0  0  0  0
   14.5699   -8.2139   22.1774 H   0  0  0  0  0
   12.7671   -8.0872   23.8900 H   0  0  0  0  0
   11.0646   -9.8987   24.0018 H   0  0  0  0  0
   11.2037  -11.8019   22.4157 H   0  0  0  0  0
  1  2  1  0  0  0
  2  3  1  0  0  0
  2  5  1  0  0  0
  3  4  2  0  0  0
  3 12  1  0  0  0
  5  6  1  0  0  0
  6  7  4  0  0  0
  6  8  4  0  0  0
  7  9  4  0  0  0
  8 10  4  0  0  0
  9 11  4  0  0  0
 10 11  4  0  0  0
 12 13  1  0  0  0
 12 18  1  0  0  0
 13 14  1  0  0  0
 13 16  1  0  0  0
 14 15  2  0  0  0
 14 19  1  0  0  0
 16 17  1  0  0  0
 17 18  1  0  0  0
 19 20  1  0  0  0
 20 21  1  0  0  0
 21 22  4  0  0  0
 21 26  4  0  0  0
 22 23  4  0  0  0
 23 24  4  0  0  0
 24 25  4  0  0  0
 25 26  4  0  0  0
  1 27  1  0  0  0
  1 28  1  0  0  0
  1 29  1  0  0  0
  2 30  1  0  0  0
  5 31  1  0  0  0
  5 32  1  0  0  0
  7 33  1  0  0  0
  8 34  1  0  0  0
  9 35  1  0  0  0
 10 36  1  0  0  0
 11 37  1  0  0  0
 13 38  1  0  0  0
 16 39  1  0  0  0
 16 40  1  0  0  0
 17 41  1  0  0  0
 17 42  1  0  0  0
 18 43  1  0  0  0
 18 44  1  0  0  0
 19 45  1  0  0  0
 20 46  1  0  0  0
 20 47  1  0  0  0
 22 48  1  0  0  0
 23 49  1  0  0  0
 24 50  1  0  0  0
 25 51  1  0  0  0
M  END
$$$$
