3su2_ligand
  -I-interpret- 

 95100  0  0  0  0  0  0  0  0999 V2000
  -12.5500   -6.1330   17.1140 C   0  0  0  0  0
  -15.0240  -15.0310   18.1300 F   0  0  0  0  0
  -18.1880   -9.2590   14.6250 N   0  0  0  0  0
  -19.4590  -10.7010   15.9150 O   0  0  0  0  0
   -8.9060   -6.0180   13.6980 S   0  0  0  0  0
  -12.1720   -6.5750   15.7020 C   0  0  0  0  0
  -12.4470   -7.9540   15.3840 N   0  0  0  0  0
  -18.0590  -11.4960   14.2330 O   0  0  0  0  0
  -13.4600   -5.7630   15.9590 C   0  0  0  0  0
  -10.1680   -6.6840   14.3740 N   0  0  0  0  0
  -15.5660   -8.3300   15.2530 O   0  0  0  0  0
  -10.9510   -5.9240   15.1340 C   0  0  0  0  0
  -13.1280  -14.4440   14.2970 N   0  0  0  0  0
   -7.9750   -5.5380   14.6780 O   0  0  0  0  0
  -13.5290   -4.3120   15.5760 C   0  0  0  0  0
  -14.9110   -9.7280   13.6550 N   0  0  0  0  0
  -12.3530  -13.7190   12.3320 O   0  0  0  0  0
  -18.9330  -12.9260   16.7200 C   0  0  0  0  0
   -9.3340   -4.9840   12.7750 O   0  0  0  0  0
  -20.9650  -11.6530   17.4680 C   0  0  0  0  0
  -13.1770   -7.4780   13.3050 O   0  0  0  0  0
  -20.8110  -12.5240   15.1210 C   0  0  0  0  0
  -13.9710  -12.4930   13.4610 O   0  0  0  0  0
  -20.0290  -11.9550   16.3010 C   0  0  0  0  0
  -10.7150   -4.7610   15.3620 O   0  0  0  0  0
  -14.4580   -3.8240   14.7360 C   0  0  0  0  0
  -13.0010   -8.2850   14.2250 C   0  0  0  0  0
  -12.4280  -15.7370   14.2690 C   0  0  0  0  0
  -15.5430   -4.6560   14.0820 C   0  0  0  0  0
  -13.0480  -17.9870   17.2480 C   0  0  0  0  0
  -13.5100   -9.6910   14.1120 C   0  0  0  0  0
  -12.5260  -17.6030   16.0300 C   0  0  0  0  0
  -13.8960  -17.1420   17.9680 C   0  0  0  0  0
  -15.4290   -4.6610   12.5670 C   0  0  0  0  0
  -16.5660   -5.4610   11.9050 C   0  0  0  0  0
  -18.5100  -10.5260   14.8460 C   0  0  0  0  0
  -14.2180  -15.8770   17.4560 C   0  0  0  0  0
  -16.4690   -6.9710   12.1440 C   0  0  0  0  0
   -8.2260   -7.2280   12.7730 C   0  0  0  0  0
  -12.8670  -16.3420   15.5480 C   0  0  0  0  0
  -17.4720   -7.4440   13.1990 C   0  0  0  0  0
  -13.6900  -15.5200   16.2470 C   0  0  0  0  0
  -12.7900  -10.4650   13.0260 C   0  0  0  0  0
  -17.2090   -8.8750   13.6440 C   0  0  0  0  0
   -6.7950   -6.9930   12.3000 C   0  0  0  0  0
  -13.8100  -11.4430   12.5210 C   0  0  0  0  0
  -13.9060  -14.2250   15.5170 C   0  0  0  0  0
   -7.0630   -8.0170   13.3810 C   0  0  0  0  0
  -15.8260   -8.9670   14.2490 C   0  0  0  0  0
  -15.0990  -10.6680   12.5280 C   0  0  0  0  0
  -13.0810  -13.6040   13.3130 C   0  0  0  0  0
  -12.0757   -5.6380   17.9614 H   0  0  0  0  0
  -12.6400   -6.5785   18.1047 H   0  0  0  0  0
  -18.6507   -8.5313   15.1697 H   0  0  0  0  0
  -12.2130   -8.6833   16.0577 H   0  0  0  0  0
  -14.5088   -5.9111   15.7019 H   0  0  0  0  0
  -10.3773   -7.6720   14.2314 H   0  0  0  0  0
  -12.7944   -3.6257   15.9972 H   0  0  0  0  0
  -18.3519  -12.4879   17.5315 H   0  0  0  0  0
  -19.3851  -13.8586   17.0575 H   0  0  0  0  0
  -18.2803  -13.1240   15.8698 H   0  0  0  0  0
  -21.4282  -12.5787   17.8096 H   0  0  0  0  0
  -20.3950  -11.2080   18.2835 H   0  0  0  0  0
  -21.7380  -10.9574   17.1414 H   0  0  0  0  0
  -20.1343  -12.6842   14.2817 H   0  0  0  0  0
  -21.2639  -13.4723   15.4103 H   0  0  0  0  0
  -21.5915  -11.8206   14.8309 H   0  0  0  0  0
  -14.4291   -2.7581   14.5099 H   0  0  0  0  0
  -11.7618  -16.1431   13.5079 H   0  0  0  0  0
  -16.5078   -4.2239   14.3477 H   0  0  0  0  0
  -15.4403   -5.6829   14.4329 H   0  0  0  0  0
  -12.7946  -18.9658   17.6552 H   0  0  0  0  0
  -13.3678  -10.1115   15.1075 H   0  0  0  0  0
  -11.8692  -18.2640   15.4645 H   0  0  0  0  0
  -14.3061  -17.4651   18.9249 H   0  0  0  0  0
  -14.4820   -5.1290   12.2982 H   0  0  0  0  0
  -15.4894   -3.6303   12.2175 H   0  0  0  0  0
  -16.5013   -5.2944   10.8298 H   0  0  0  0  0
  -17.5046   -5.1195   12.3416 H   0  0  0  0  0
  -15.4641   -7.1981   12.5000 H   0  0  0  0  0
  -16.6906   -7.4815   11.2068 H   0  0  0  0  0
   -9.1722   -7.4952   12.3024 H   0  0  0  0  0
  -18.4690   -7.4038   12.7602 H   0  0  0  0  0
  -17.3777   -6.7959   14.0703 H   0  0  0  0  0
  -11.8978  -10.9643   13.4038 H   0  0  0  0  0
  -12.4235   -9.8120   12.2340 H   0  0  0  0  0
  -17.2753   -9.5419   12.7844 H   0  0  0  0  0
   -6.1242   -6.1519   12.1250 H   0  0  0  0  0
   -6.2501   -6.9285   11.3582 H   0  0  0  0  0
  -13.5292  -11.8550   11.5517 H   0  0  0  0  0
  -14.4879  -13.3534   15.8166 H   0  0  0  0  0
   -6.8082   -9.0527   13.6056 H   0  0  0  0  0
   -6.6830   -8.2806   14.3680 H   0  0  0  0  0
  -15.2949  -10.1625   11.5824 H   0  0  0  0  0
  -15.9757  -11.3044   12.6484 H   0  0  0  0  0
  6  1  1  0  0  0
  9  1  1  0  0  0
 37  2  1  0  0  0
  3 36  1  0  0  0
 44  3  1  0  0  0
  4 24  1  0  0  0
 36  4  1  0  0  0
 10  5  1  0  0  0
  5 14  2  0  0  0
  5 19  2  0  0  0
  5 39  1  0  0  0
  7  6  1  0  0  0
  6  9  1  0  0  0
  6 12  1  0  0  0
 27  7  1  0  0  0
 36  8  2  0  0  0
  9 15  1  0  0  0
 12 10  1  0  0  0
 49 11  2  0  0  0
 12 25  2  0  0  0
 13 28  4  0  0  0
 13 47  4  0  0  0
 51 13  1  0  0  0
 15 26  2  0  0  0
 31 16  1  0  0  0
 16 49  1  0  0  0
 16 50  1  0  0  0
 51 17  2  0  0  0
 24 18  1  0  0  0
 24 20  1  0  0  0
 27 21  2  0  0  0
 24 22  1  0  0  0
 46 23  1  0  0  0
 23 51  1  0  0  0
 26 29  1  0  0  0
 31 27  1  0  0  0
 28 40  4  0  0  0
 29 34  1  0  0  0
 32 30  4  0  0  0
 33 30  4  0  0  0
 43 31  1  0  0  0
 40 32  4  0  0  0
 37 33  4  0  0  0
 34 35  1  0  0  0
 35 38  1  0  0  0
 42 37  4  0  0  0
 38 41  1  0  0  0
 39 45  1  0  0  0
 39 48  1  0  0  0
 42 40  4  0  0  0
 41 44  1  0  0  0
 47 42  4  0  0  0
 43 46  1  0  0  0
 44 49  1  0  0  0
 45 48  1  0  0  0
 46 50  1  0  0  0
  1 52  1  0  0  0
  1 53  1  0  0  0
  3 54  1  0  0  0
  7 55  1  0  0  0
  9 56  1  0  0  0
 10 57  1  0  0  0
 15 58  1  0  0  0
 18 59  1  0  0  0
 18 60  1  0  0  0
 18 61  1  0  0  0
 20 62  1  0  0  0
 20 63  1  0  0  0
 20 64  1  0  0  0
 22 65  1  0  0  0
 22 66  1  0  0  0
 22 67  1  0  0  0
 26 68  1  0  0  0
 28 69  1  0  0  0
 29 70  1  0  0  0
 29 71  1  0  0  0
 30 72  1  0  0  0
 31 73  1  0  0  0
 32 74  1  0  0  0
 33 75  1  0  0  0
 34 76  1  0  0  0
 34 77  1  0  0  0
 35 78  1  0  0  0
 35 79  1  0  0  0
 38 80  1  0  0  0
 38 81  1  0  0  0
 39 82  1  0  0  0
 41 83  1  0  0  0
 41 84  1  0  0  0
 43 85  1  0  0  0
 43 86  1  0  0  0
 44 87  1  0  0  0
 45 88  1  0  0  0
 45 89  1  0  0  0
 46 90  1  0  0  0
 47 91  1  0  0  0
 48 92  1  0  0  0
 48 93  1  0  0  0
 50 94  1  0  0  0
 50 95  1  0  0  0
M  END
$$$$
