4pin_ligand
  -I-interpret- 

 26 26  0  0  0  0  0  0  0  0999 V2000
   10.0050   15.9850   16.6630 C   0  0  0  0  0
    9.0150   15.9010   15.5910 N   0  3  0  0  0
    9.4050   16.9010   14.5930 C   0  0  0  0  0
    9.0970   14.5950   14.9350 C   0  0  0  0  0
    8.0840   14.5050   13.7930 C   0  0  0  0  0
    6.9070   14.6720   14.1200 O   0  0  0  0  0
    8.4640   14.2560   12.6500 O   0  0  0  0  0
    8.8390   13.4460   15.9150 C   0  0  0  0  0
    8.9040   12.0910   15.2830 C   0  0  0  0  0
    8.0920   11.1030   15.6230 N   0  0  0  0  0
    8.3580   10.0210   14.9170 C   0  0  0  0  0
    9.3540   10.2990   14.1020 N   0  0  0  0  0
    9.7210   11.6050   14.3120 C   0  0  0  0  0
    9.8120   15.2019   17.3963 H   0  0  0  0  0
   11.0032   15.8550   16.2450 H   0  0  0  0  0
    9.9355   16.9605   17.1444 H   0  0  0  0  0
    8.0760   16.0442   15.9627 H   0  0  0  0  0
   10.4220   16.6993   14.2566 H   0  0  0  0  0
    8.7233   16.8502   13.7440 H   0  0  0  0  0
    9.3587   17.8946   15.0388 H   0  0  0  0  0
   10.1105   14.4997   14.5453 H   0  0  0  0  0
    6.8603   14.8532   15.0616 H   0  0  0  0  0
    7.8309   13.5739   16.3094 H   0  0  0  0  0
    9.6162   13.4875   16.6781 H   0  0  0  0  0
    7.8430    9.0635   14.9948 H   0  0  0  0  0
   10.5148   12.1476   13.7987 H   0  0  0  0  0
  1  2  1  0  0  0
  2  3  1  0  0  0
  2  4  1  0  0  0
  4  5  1  0  0  0
  4  8  1  0  0  0
  5  6  1  0  0  0
  5  7  2  0  0  0
  8  9  1  0  0  0
  9 10  4  0  0  0
  9 13  4  0  0  0
 10 11  4  0  0  0
 11 12  4  0  0  0
 12 13  4  0  0  0
  1 14  1  0  0  0
  1 15  1  0  0  0
  1 16  1  0  0  0
  2 17  1  0  0  0
  3 18  1  0  0  0
  3 19  1  0  0  0
  3 20  1  0  0  0
  4 21  1  0  0  0
  6 22  1  0  0  0
  8 23  1  0  0  0
  8 24  1  0  0  0
 11 25  1  0  0  0
 13 26  1  0  0  0
M  END
$$$$
