5gs4_ligand
  -I-interpret- 

166166  0  0  0  0  0  0  0  0999 V2000
  -26.4520   -2.6980   26.2880 N   0  3  0  0  0
  -26.9270   -3.8180   25.5210 C   0  0  0  0  0
  -25.7880   -4.8360   25.2750 C   0  0  0  0  0
  -24.6990   -4.6070   25.6770 O   0  0  0  0  0
  -27.4880   -3.3450   24.1560 C   0  0  0  0  0
  -26.5000   -2.4400   23.3860 C   0  0  0  0  0
  -26.6760   -2.5590   21.8420 C   0  0  0  0  0
  -28.0690   -2.7700   21.4370 N   0  0  0  0  0
  -28.6200   -2.1900   20.2100 C   0  0  0  0  0
  -29.8270   -2.4160   19.8980 N   0  0  0  0  0
  -27.9140   -1.4630   19.4600 N   0  0  0  0  0
  -26.0710   -6.0960   24.5250 N   0  0  0  0  0
  -25.0370   -7.1100   24.2480 C   0  0  0  0  0
  -24.0470   -6.5760   23.1950 C   0  0  0  0  0
  -24.4520   -6.2650   22.1270 O   0  0  0  0  0
  -25.7310   -8.3230   23.6530 C   0  0  0  0  0
  -24.7890   -9.5300   23.6930 C   0  0  0  0  0
  -24.0210   -9.6950   24.5750 O   0  0  0  0  0
  -24.8440  -10.4240   22.6770 N   0  0  0  0  0
  -23.9800  -11.6010   22.6340 C   0  0  0  0  0
  -22.5490  -11.2120   22.3580 C   0  0  0  0  0
  -21.5940  -11.6480   22.9470 O   0  0  0  0  0
  -24.5120  -12.6680   21.5930 C   0  0  0  0  0
  -25.8680  -13.3400   21.9840 C   0  0  0  0  0
  -23.4770  -13.7980   21.3020 C   0  0  0  0  0
  -26.5450  -14.1810   20.8810 C   0  0  0  0  0
  -22.3100  -10.1590   21.3370 N   0  0  0  0  0
  -21.0100   -9.6700   20.9620 C   0  0  0  0  0
  -20.2380   -9.1690   22.1920 C   0  0  0  0  0
  -19.1420   -9.5430   22.4690 O   0  0  0  0  0
  -21.2600   -8.4470   20.0730 C   0  0  0  0  0
  -20.2900   -8.2590   18.9070 C   0  0  0  0  0
  -20.3740   -6.8060   18.4270 C   0  0  0  0  0
  -18.8450   -8.6090   19.2830 C   0  0  0  0  0
  -20.9870   -8.1530   22.9360 N   0  0  0  0  0
  -20.5700   -7.4500   24.1320 C   0  0  0  0  0
  -21.8310   -6.7090   24.6620 C   0  0  0  0  0
  -22.5910   -6.3700   23.4220 N   0  0  0  0  0
  -20.0400   -8.5030   25.1380 C   0  0  0  0  0
  -18.9310   -8.4510   25.5660 O   0  0  0  0  0
  -21.0100   -9.6020   25.4930 N   0  0  0  0  0
  -20.6620  -10.6680   26.4240 C   0  0  0  0  0
  -19.4700  -11.4750   25.9160 C   0  0  0  0  0
  -18.5730  -11.7440   26.6300 O   0  0  0  0  0
  -21.8280  -11.6570   26.5590 C   0  0  0  0  0
  -21.7920  -12.2830   27.9920 C   0  0  0  0  0
  -22.2680  -13.7640   27.9870 C   0  0  0  0  0
  -23.5640  -13.8880   27.2740 N   0  0  0  0  0
  -23.7970  -14.7730   26.1360 C   0  0  0  0  0
  -24.9650  -14.7170   25.6380 N   0  0  0  0  0
  -22.7970  -15.3190   25.5820 N   0  0  0  0  0
  -19.4080  -11.9880   24.5100 N   0  0  0  0  0
  -18.2270  -12.7930   24.1670 C   0  0  0  0  0
  -16.9460  -11.9600   24.2110 C   0  0  0  0  0
  -15.9170  -12.4800   24.4980 O   0  0  0  0  0
  -18.3970  -13.3440   22.7770 C   0  0  0  0  0
  -19.2820  -14.5960   22.7180 C   0  0  0  0  0
  -20.0160  -14.9350   24.0050 C   0  0  0  0  0
  -20.3130  -14.3240   21.6420 C   0  0  0  0  0
  -17.0050  -10.5310   23.8920 N   0  0  0  0  0
  -15.7650   -9.7620   23.9430 C   0  0  0  0  0
  -15.2890   -9.6290   25.4010 C   0  0  0  0  0
  -14.1170   -9.7050   25.6430 O   0  0  0  0  0
  -16.0020   -8.3740   23.3560 C   0  0  0  0  0
  -16.1230   -8.4520   21.8330 C   0  0  0  0  0
  -16.4650   -7.0520   21.3010 C   0  0  0  0  0
  -14.7750   -8.8590   21.2480 C   0  0  0  0  0
  -16.2940   -9.4280   26.4730 N   0  0  0  0  0
  -15.8530   -9.2750   27.8680 C   0  0  0  0  0
  -15.2690  -10.5420   28.4700 C   0  0  0  0  0
  -14.3200  -10.4740   29.1660 O   0  0  0  0  0
  -17.0260   -8.8270   28.7670 C   0  0  0  0  0
  -17.1960   -7.3090   28.7950 C   0  0  0  0  0
  -18.6670   -7.0080   29.1140 C   0  0  0  0  0
  -19.4380   -6.7470   28.2530 O   0  0  0  0  0
  -19.1660   -7.0300   30.4820 N   0  0  0  0  0
  -16.0120  -11.7850   28.3670 N   0  0  0  0  0
  -26.0874   -3.0292   27.1812 H   0  0  0  0  0
  -25.7111   -2.2237   25.7718 H   0  0  0  0  0
  -27.2218   -2.0495   26.4531 H   0  0  0  0  0
  -27.7214   -4.2985   26.0921 H   0  0  0  0  0
  -28.3916   -2.7664   24.3480 H   0  0  0  0  0
  -27.6759   -4.2293   23.5470 H   0  0  0  0  0
  -25.4865   -2.7525   23.6374 H   0  0  0  0  0
  -26.6935   -1.4059   23.6713 H   0  0  0  0  0
  -26.0996   -3.4218   21.5083 H   0  0  0  0  0
  -26.3398   -1.6225   21.3970 H   0  0  0  0  0
  -28.6742   -3.3391   22.0288 H   0  0  0  0  0
  -30.2183   -2.0112   19.0474 H   0  0  0  0  0
  -30.4074   -3.0027   20.4974 H   0  0  0  0  0
  -26.9425   -1.2704   19.7039 H   0  0  0  0  0
  -27.0200   -6.2622   24.1901 H   0  0  0  0  0
  -24.5032   -7.3540   25.1665 H   0  0  0  0  0
  -26.0030   -8.1118   22.6188 H   0  0  0  0  0
  -26.6274   -8.5457   24.2317 H   0  0  0  0  0
  -25.5089  -10.2707   21.9189 H   0  0  0  0  0
  -24.0055  -12.0727   23.6163 H   0  0  0  0  0
  -24.6763  -12.0708   20.6961 H   0  0  0  0  0
  -26.5570  -12.5285   22.2182 H   0  0  0  0  0
  -25.6465  -14.0262   22.8014 H   0  0  0  0  0
  -22.5668  -13.3589   20.8935 H   0  0  0  0  0
  -23.2445  -14.3233   22.2283 H   0  0  0  0  0
  -23.8990  -14.4987   20.5815 H   0  0  0  0  0
  -26.7563  -13.5465   20.0203 H   0  0  0  0  0
  -25.8787  -14.9903   20.5825 H   0  0  0  0  0
  -27.4764  -14.5980   21.2640 H   0  0  0  0  0
  -23.1225   -9.7557   20.8706 H   0  0  0  0  0
  -20.4402  -10.4620   20.4760 H   0  0  0  0  0
  -21.1426   -7.5730   20.7136 H   0  0  0  0  0
  -22.2470   -8.5852   19.6316 H   0  0  0  0  0
  -20.5799   -8.9436   18.1099 H   0  0  0  0  0
  -21.3916   -6.5906   18.1011 H   0  0  0  0  0
  -20.1041   -6.1382   19.2451 H   0  0  0  0  0
  -19.6858   -6.6594   17.5945 H   0  0  0  0  0
  -18.5175   -7.9659   20.0999 H   0  0  0  0  0
  -18.7950   -9.6515   19.5972 H   0  0  0  0  0
  -18.1990   -8.4575   18.4182 H   0  0  0  0  0
  -21.9082   -7.9131   22.5696 H   0  0  0  0  0
  -19.7741   -6.7256   23.9592 H   0  0  0  0  0
  -21.5780   -5.8259   25.2487 H   0  0  0  0  0
  -22.4128   -7.3204   25.3518 H   0  0  0  0  0
  -22.0599   -5.9567   22.6555 H   0  0  0  0  0
  -21.9376   -9.5991   25.0687 H   0  0  0  0  0
  -20.4276  -10.1921   27.3762 H   0  0  0  0  0
  -21.7354  -12.4429   25.8094 H   0  0  0  0  0
  -22.7738  -11.1372   26.4059 H   0  0  0  0  0
  -22.4616  -11.7099   28.6333 H   0  0  0  0  0
  -20.7638  -12.2546   28.3527 H   0  0  0  0  0
  -22.3952  -14.0997   29.0162 H   0  0  0  0  0
  -21.5226  -14.3750   27.4779 H   0  0  0  0  0
  -24.3436  -13.3171   27.6006 H   0  0  0  0  0
  -25.1505  -15.1318   24.7248 H   0  0  0  0  0
  -25.7169  -14.2572   26.1515 H   0  0  0  0  0
  -21.8568  -15.1361   25.9326 H   0  0  0  0  0
  -20.1424  -11.7902   23.8304 H   0  0  0  0  0
  -18.1402  -13.5964   24.8986 H   0  0  0  0  0
  -17.4086  -13.6244   22.4129 H   0  0  0  0  0
  -18.8798  -12.5733   22.1762 H   0  0  0  0  0
  -18.6332  -15.4502   22.5246 H   0  0  0  0  0
  -19.2912  -15.1054   24.8011 H   0  0  0  0  0
  -20.6695  -14.1065   24.2781 H   0  0  0  0  0
  -20.6119  -15.8354   23.8556 H   0  0  0  0  0
  -20.8935  -13.4417   21.9115 H   0  0  0  0  0
  -19.8077  -14.1517   20.6917 H   0  0  0  0  0
  -20.9770  -15.1836   21.5513 H   0  0  0  0  0
  -17.8879  -10.0859   23.6413 H   0  0  0  0  0
  -15.0001  -10.2784   23.3630 H   0  0  0  0  0
  -15.1596   -7.7317   23.6126 H   0  0  0  0  0
  -16.9276   -7.9690   23.7652 H   0  0  0  0  0
  -16.8917   -9.1739   21.5573 H   0  0  0  0  0
  -17.4088   -6.7207   21.7340 H   0  0  0  0  0
  -15.6729   -6.3562   21.5774 H   0  0  0  0  0
  -16.5551   -7.0893   20.2154 H   0  0  0  0  0
  -14.0236   -8.1178   21.5201 H   0  0  0  0  0
  -14.4872   -9.8326   21.6448 H   0  0  0  0  0
  -14.8540   -8.9166   20.1624 H   0  0  0  0  0
  -17.2874   -9.3960   26.2438 H   0  0  0  0  0
  -15.0669   -8.5207   27.8330 H   0  0  0  0  0
  -16.8168   -9.1605   29.7834 H   0  0  0  0  0
  -17.9419   -9.2603   28.3651 H   0  0  0  0  0
  -16.9220   -6.8795   27.8314 H   0  0  0  0  0
  -16.5467   -6.8692   29.5521 H   0  0  0  0  0
  -20.1473   -6.8251   30.6703 H   0  0  0  0  0
  -18.5342   -7.2503   31.2519 H   0  0  0  0  0
  -15.7134  -12.6032   28.8979 H   0  0  0  0  0
  -16.8327  -11.8401   27.7638 H   0  0  0  0  0
  1  2  1  0  0  0
  2  3  1  0  0  0
  2  5  1  0  0  0
  3  4  2  0  0  0
  3 12  1  0  0  0
  5  6  1  0  0  0
  6  7  1  0  0  0
  7  8  1  0  0  0
  8  9  1  0  0  0
  9 10  1  0  0  0
  9 11  2  0  0  0
 12 13  1  0  0  0
 13 14  1  0  0  0
 13 16  1  0  0  0
 14 15  2  0  0  0
 14 38  1  0  0  0
 16 17  1  0  0  0
 17 18  2  0  0  0
 17 19  1  0  0  0
 19 20  1  0  0  0
 20 21  1  0  0  0
 20 23  1  0  0  0
 21 22  2  0  0  0
 21 27  1  0  0  0
 23 24  1  0  0  0
 23 25  1  0  0  0
 24 26  1  0  0  0
 27 28  1  0  0  0
 28 29  1  0  0  0
 28 31  1  0  0  0
 29 30  2  0  0  0
 29 35  1  0  0  0
 31 32  1  0  0  0
 32 33  1  0  0  0
 32 34  1  0  0  0
 35 36  1  0  0  0
 36 37  1  0  0  0
 36 39  1  0  0  0
 37 38  1  0  0  0
 39 40  2  0  0  0
 39 41  1  0  0  0
 41 42  1  0  0  0
 42 43  1  0  0  0
 42 45  1  0  0  0
 43 44  2  0  0  0
 43 52  1  0  0  0
 45 46  1  0  0  0
 46 47  1  0  0  0
 47 48  1  0  0  0
 48 49  1  0  0  0
 49 50  1  0  0  0
 49 51  2  0  0  0
 52 53  1  0  0  0
 53 54  1  0  0  0
 53 56  1  0  0  0
 54 55  2  0  0  0
 54 60  1  0  0  0
 56 57  1  0  0  0
 57 58  1  0  0  0
 57 59  1  0  0  0
 60 61  1  0  0  0
 61 62  1  0  0  0
 61 64  1  0  0  0
 62 63  2  0  0  0
 62 68  1  0  0  0
 64 65  1  0  0  0
 65 66  1  0  0  0
 65 67  1  0  0  0
 68 69  1  0  0  0
 69 70  1  0  0  0
 69 72  1  0  0  0
 70 71  2  0  0  0
 70 77  1  0  0  0
 72 73  1  0  0  0
 73 74  1  0  0  0
 74 75  2  0  0  0
 74 76  1  0  0  0
  1 78  1  0  0  0
  1 79  1  0  0  0
  1 80  1  0  0  0
  2 81  1  0  0  0
  5 82  1  0  0  0
  5 83  1  0  0  0
  6 84  1  0  0  0
  6 85  1  0  0  0
  7 86  1  0  0  0
  7 87  1  0  0  0
  8 88  1  0  0  0
 10 89  1  0  0  0
 10 90  1  0  0  0
 11 91  1  0  0  0
 12 92  1  0  0  0
 13 93  1  0  0  0
 16 94  1  0  0  0
 16 95  1  0  0  0
 19 96  1  0  0  0
 20 97  1  0  0  0
 23 98  1  0  0  0
 24 99  1  0  0  0
 24100  1  0  0  0
 25101  1  0  0  0
 25102  1  0  0  0
 25103  1  0  0  0
 26104  1  0  0  0
 26105  1  0  0  0
 26106  1  0  0  0
 27107  1  0  0  0
 28108  1  0  0  0
 31109  1  0  0  0
 31110  1  0  0  0
 32111  1  0  0  0
 33112  1  0  0  0
 33113  1  0  0  0
 33114  1  0  0  0
 34115  1  0  0  0
 34116  1  0  0  0
 34117  1  0  0  0
 35118  1  0  0  0
 36119  1  0  0  0
 37120  1  0  0  0
 37121  1  0  0  0
 38122  1  0  0  0
 41123  1  0  0  0
 42124  1  0  0  0
 45125  1  0  0  0
 45126  1  0  0  0
 46127  1  0  0  0
 46128  1  0  0  0
 47129  1  0  0  0
 47130  1  0  0  0
 48131  1  0  0  0
 50132  1  0  0  0
 50133  1  0  0  0
 51134  1  0  0  0
 52135  1  0  0  0
 53136  1  0  0  0
 56137  1  0  0  0
 56138  1  0  0  0
 57139  1  0  0  0
 58140  1  0  0  0
 58141  1  0  0  0
 58142  1  0  0  0
 59143  1  0  0  0
 59144  1  0  0  0
 59145  1  0  0  0
 60146  1  0  0  0
 61147  1  0  0  0
 64148  1  0  0  0
 64149  1  0  0  0
 65150  1  0  0  0
 66151  1  0  0  0
 66152  1  0  0  0
 66153  1  0  0  0
 67154  1  0  0  0
 67155  1  0  0  0
 67156  1  0  0  0
 68157  1  0  0  0
 69158  1  0  0  0
 72159  1  0  0  0
 72160  1  0  0  0
 73161  1  0  0  0
 73162  1  0  0  0
 76163  1  0  0  0
 76164  1  0  0  0
 77165  1  0  0  0
 77166  1  0  0  0
M  END
$$$$
