### 
### Created by X-TOOL on Mon Sep 10 21:13:34 2018
### 

@<TRIPOS>MOLECULE
5gs4_ligand
  168   168     1     0     0
SMALL
GAST_HUCK


@<TRIPOS>ATOM
      1 N         -26.4520   -2.6980   26.2880 N.4       1 ARG         0.2379
      2 CA        -26.9270   -3.8180   25.5210 C.3       1 ARG         0.0651
      3 C         -25.7880   -4.8360   25.2750 C.2       1 ARG         0.2268
      4 O         -24.6990   -4.6070   25.6770 O.2       1 ARG        -0.3907
      5 CB        -27.4880   -3.3450   24.1560 C.3       1 ARG         0.0110
      6 CG        -26.5000   -2.4400   23.3860 C.3       1 ARG        -0.0125
      7 CD        -26.6760   -2.5590   21.8420 C.3       1 ARG         0.0629
      8 NE        -28.0690   -2.7700   21.4370 N.pl3     1 ARG        -0.2723
      9 CZ        -28.6200   -2.1900   20.2100 C.cat     1 ARG         0.2882
     10 NH1       -29.8270   -2.4160   19.8980 N.pl3     1 ARG        -0.2849
     11 NH2       -27.9140   -1.4630   19.4600 N.pl3     1 ARG        -0.2849
     12 N         -26.0710   -6.0960   24.5250 N.am      1 IAS        -0.2589
     13 CA        -25.0370   -7.1100   24.2480 C.3       1 IAS         0.1476
     14 C         -24.0470   -6.5760   23.1950 C.2       1 IAS         0.2042
     15 O         -24.4520   -6.2650   22.1270 O.2       1 IAS        -0.3944
     16 CB        -25.7310   -8.3230   23.6530 C.3       1 IAS         0.0776
     17 CG        -24.7890   -9.5300   23.6930 C.2       1 IAS         0.1828
     18 OD1       -24.0210   -9.6950   24.5750 O.2       1 IAS        -0.3967
     19 N         -24.8440  -10.4240   22.6770 N.am      1 ILE        -0.2652
     20 CA        -23.9800  -11.6010   22.6340 C.3       1 ILE         0.1334
     21 C         -22.5490  -11.2120   22.3580 C.2       1 ILE         0.2042
     22 O         -21.5940  -11.6480   22.9470 O.2       1 ILE        -0.3944
     23 CB        -24.5120  -12.6680   21.5930 C.3       1 ILE        -0.0037
     24 CG1       -25.8680  -13.3400   21.9840 C.3       1 ILE        -0.0491
     25 CG2       -23.4770  -13.7980   21.3020 C.3       1 ILE        -0.0582
     26 CD1       -26.5450  -14.1810   20.8810 C.3       1 ILE        -0.0648
     27 N         -22.3100  -10.1590   21.3370 N.am      1 LEU        -0.2637
     28 CA        -21.0100   -9.6700   20.9620 C.3       1 LEU         0.1312
     29 C         -20.2380   -9.1690   22.1920 C.2       1 LEU         0.2040
     30 O         -19.1420   -9.5430   22.4690 O.2       1 LEU        -0.3944
     31 CB        -21.2600   -8.4470   20.0730 C.3       1 LEU        -0.0101
     32 CG        -20.2900   -8.2590   18.9070 C.3       1 LEU        -0.0425
     33 CD1       -20.3740   -6.8060   18.4270 C.3       1 LEU        -0.0625
     34 CD2       -18.8450   -8.6090   19.2830 C.3       1 LEU        -0.0625
     35 N         -20.9870   -8.1530   22.9360 N.am      1 DNP        -0.2618
     36 CA        -20.5700   -7.4500   24.1320 C.3       1 DNP         0.1509
     37 CB        -21.8310   -6.7090   24.6620 C.3       1 DNP         0.0711
     38 NG        -22.5910   -6.3700   23.4220 N.am      1 DNP        -0.2804
     39 C         -20.0400   -8.5030   25.1380 C.2       1 DNP         0.2059
     40 O         -18.9310   -8.4510   25.5660 O.2       1 DNP        -0.3943
     41 N         -21.0100   -9.6020   25.4930 N.am      1 ARG        -0.2637
     42 CA        -20.6620  -10.6680   26.4240 C.3       1 ARG         0.1311
     43 C         -19.4700  -11.4750   25.9160 C.2       1 ARG         0.2039
     44 O         -18.5730  -11.7440   26.6300 O.2       1 ARG        -0.3944
     45 CB        -21.8280  -11.6570   26.5590 C.3       1 ARG        -0.0092
     46 CG        -21.7920  -12.2830   27.9920 C.3       1 ARG        -0.0156
     47 CD        -22.2680  -13.7640   27.9870 C.3       1 ARG         0.0627
     48 NE        -23.5640  -13.8880   27.2740 N.pl3     1 ARG        -0.2723
     49 CZ        -23.7970  -14.7730   26.1360 C.cat     1 ARG         0.2882
     50 NH1       -24.9650  -14.7170   25.6380 N.pl3     1 ARG        -0.2849
     51 NH2       -22.7970  -15.3190   25.5820 N.pl3     1 ARG        -0.2849
     52 N         -19.4080  -11.9880   24.5100 N.am      1 LEU        -0.2637
     53 CA        -18.2270  -12.7930   24.1670 C.3       1 LEU         0.1312
     54 C         -16.9460  -11.9600   24.2110 C.2       1 LEU         0.2039
     55 O         -15.9170  -12.4800   24.4980 O.2       1 LEU        -0.3944
     56 CB        -18.3970  -13.3440   22.7770 C.3       1 LEU        -0.0101
     57 CG        -19.2820  -14.5960   22.7180 C.3       1 LEU        -0.0425
     58 CD1       -20.0160  -14.9350   24.0050 C.3       1 LEU        -0.0625
     59 CD2       -20.3130  -14.3240   21.6420 C.3       1 LEU        -0.0625
     60 N         -17.0050  -10.5310   23.8920 N.am      1 LEU        -0.2637
     61 CA        -15.7650   -9.7620   23.9430 C.3       1 LEU         0.1312
     62 C         -15.2890   -9.6290   25.4010 C.2       1 LEU         0.2039
     63 O         -14.1170   -9.7050   25.6430 O.2       1 LEU        -0.3944
     64 CB        -16.0020   -8.3740   23.3560 C.3       1 LEU        -0.0101
     65 CG        -16.1230   -8.4520   21.8330 C.3       1 LEU        -0.0425
     66 CD1       -16.4650   -7.0520   21.3010 C.3       1 LEU        -0.0625
     67 CD2       -14.7750   -8.8590   21.2480 C.3       1 LEU        -0.0625
     68 N         -16.2940   -9.4280   26.4730 N.am      1 GLN        -0.2636
     69 CA        -15.8530   -9.2750   27.8680 C.3       1 GLN         0.1327
     70 C         -15.2690  -10.5420   28.4700 C.2       1 GLN         0.1993
     71 O         -14.3200  -10.4740   29.1660 O.2       1 GLN        -0.3947
     72 CB        -17.0260   -8.8270   28.7670 C.3       1 GLN         0.0045
     73 CG        -17.1960   -7.3090   28.7950 C.3       1 GLN         0.0412
     74 CD        -18.6670   -7.0080   29.1140 C.2       1 GLN         0.1737
     75 OE1       -19.4380   -6.7470   28.2530 O.2       1 GLN        -0.3973
     76 NE2       -19.1660   -7.0300   30.4820 N.am      1 GLN        -0.3009
     77 N         -16.0120  -11.7850   28.3670 N.am      1 NH2        -0.2990
     78 H1        -27.2079   -2.0480   26.4369 H         1 ARG         0.2015
     79 H2        -25.7078   -2.2388   25.7866 H         1 ARG         0.2015
     80 H3        -26.1075   -3.0222   27.1781 H         1 ARG         0.2015
     81 H4        -27.7314   -4.3132   26.0847 H         1 ARG         0.1098
     82 H5        -28.4161   -2.7818   24.3331 H         1 ARG         0.0347
     83 H6        -27.7078   -4.2296   23.5403 H         1 ARG         0.0347
     84 H7        -25.4727   -2.7321   23.6492 H         1 ARG         0.0302
     85 H8        -26.6715   -1.3948   23.6828 H         1 ARG         0.0302
     86 H9        -26.0752   -3.4087   21.4855 H         1 ARG         0.0689
     87 H10       -26.3124   -1.6315   21.3756 H         1 ARG         0.0689
     88 H11       -28.6801   -3.3447   22.0346 H         1 ARG         0.2642
     89 H12       -30.2207   -2.0112   19.0366 H         1 ARG         0.2615
     90 H13       -30.4145   -3.0045   20.5058 H         1 ARG         0.2615
     91 H14       -26.9315   -1.2725   19.7037 H         1 ARG         0.2615
     92 H15       -28.3197   -1.0595   18.6035 H         1 ARG         0.2615
     93 H16       -27.0014   -6.2590   24.1967 H         1 IAS         0.1886
     94 H17       -24.5052   -7.3777   25.1729 H         1 IAS         0.0826
     95 H18       -26.0081   -8.1103   22.6100 H         1 IAS         0.0551
     96 H19       -26.6372   -8.5474   24.2348 H         1 IAS         0.0551
     97 H20       -25.4959  -10.2737   21.9337 H         1 ILE         0.1883
     98 H21       -24.0083  -12.0698   23.6287 H         1 ILE         0.0803
     99 H22       -24.6797  -12.1228   20.6525 H         1 ILE         0.0345
    100 H23       -26.5671  -12.5431   22.2773 H         1 ILE         0.0267
    101 H24       -25.6818  -13.9995   22.8444 H         1 ILE         0.0267
    102 H25       -22.5122  -13.3488   21.0239 H         1 ILE         0.0235
    103 H26       -23.8414  -14.4250   20.4749 H         1 ILE         0.0235
    104 H27       -23.3473  -14.4171   22.2019 H         1 ILE         0.0235
    105 H28       -27.4852  -14.6024   21.2663 H         1 ILE         0.0230
    106 H29       -25.8736  -14.9982   20.5789 H         1 ILE         0.0230
    107 H30       -26.7589  -13.5418   20.0117 H         1 ILE         0.0230
    108 H31       -23.1066   -9.7636   20.8797 H         1 LEU         0.1883
    109 H32       -20.4376  -10.4466   20.4336 H         1 LEU         0.0800
    110 H33       -21.2008   -7.5509   20.7083 H         1 LEU         0.0315
    111 H34       -22.2743   -8.5349   19.6565 H         1 LEU         0.0315
    112 H35       -20.6002   -8.9231   18.0868 H         1 LEU         0.0298
    113 H36       -19.6799   -6.6567   17.5868 H         1 LEU         0.0232
    114 H37       -20.1018   -6.1310   19.2518 H         1 LEU         0.0232
    115 H38       -21.4005   -6.5873   18.0978 H         1 LEU         0.0232
    116 H39       -18.7980   -9.6532   19.6255 H         1 LEU         0.0232
    117 H40       -18.5043   -7.9429   20.0894 H         1 LEU         0.0232
    118 H41       -18.1963   -8.4820   18.4038 H         1 LEU         0.0232
    119 H42       -21.8901   -7.9178   22.5768 H         1 DNP         0.1884
    120 H43       -19.7759   -6.7238   23.9037 H         1 DNP         0.0821
    121 H44       -21.5490   -5.7981   25.2103 H         1 DNP         0.0568
    122 H45       -22.4234   -7.3634   25.3183 H         1 DNP         0.0568
    123 H46       -22.0703   -5.9648   22.6705 H         1 DNP         0.1854
    124 H47       -21.9194   -9.5992   25.0770 H         1 ARG         0.1883
    125 H48       -20.4254  -10.2276   27.4038 H         1 ARG         0.0800
    126 H49       -21.7281  -12.4520   25.8053 H         1 ARG         0.0313
    127 H50       -22.7810  -11.1282   26.4101 H         1 ARG         0.0313
    128 H51       -22.4505  -11.6995   28.6522 H         1 ARG         0.0301
    129 H52       -20.7609  -12.2416   28.3729 H         1 ARG         0.0301
    130 H53       -22.3905  -14.1090   29.0243 H         1 ARG         0.0689
    131 H54       -21.5147  -14.3852   27.4805 H         1 ARG         0.0689
    132 H55       -24.3513  -13.3115   27.6038 H         1 ARG         0.2642
    133 H56       -25.2104  -15.3101   24.8324 H         1 ARG         0.2615
    134 H57       -25.6662  -14.0786   26.0400 H         1 ARG         0.2615
    135 H58       -21.8826  -15.3201   26.0560 H         1 ARG         0.2615
    136 H59       -22.8984  -15.7618   24.6576 H         1 ARG         0.2615
    137 H60       -20.1280  -11.7941   23.8437 H         1 LEU         0.1883
    138 H61       -18.1397  -13.6229   24.8836 H         1 LEU         0.0800
    139 H62       -17.4036  -13.6011   22.3806 H         1 LEU         0.0315
    140 H63       -18.8529  -12.5657   22.1474 H         1 LEU         0.0315
    141 H64       -18.6583  -15.4578   22.4382 H         1 LEU         0.0298
    142 H65       -20.6178  -15.8436   23.8555 H         1 LEU         0.0232
    143 H66       -20.6759  -14.0996   24.2817 H         1 LEU         0.0232
    144 H67       -19.2856  -15.1073   24.8092 H         1 LEU         0.0232
    145 H68       -19.8027  -14.0760   20.6996 H         1 LEU         0.0232
    146 H69       -20.9485  -13.4799   21.9480 H         1 LEU         0.0232
    147 H70       -20.9364  -15.2186   21.4969 H         1 LEU         0.0232
    148 H71       -17.8706  -10.0946   23.6462 H         1 LEU         0.1883
    149 H72       -14.9927  -10.2794   23.3549 H         1 LEU         0.0800
    150 H73       -15.1575   -7.7202   23.6193 H         1 LEU         0.0315
    151 H74       -16.9314   -7.9583   23.7725 H         1 LEU         0.0315
    152 H75       -16.9008   -9.1754   21.5471 H         1 LEU         0.0298
    153 H76       -16.5562   -7.0883   20.2054 H         1 LEU         0.0232
    154 H77       -15.6663   -6.3488   21.5793 H         1 LEU         0.0232
    155 H78       -17.4174   -6.7165   21.7373 H         1 LEU         0.0232
    156 H79       -14.5042   -9.8607   21.6132 H         1 LEU         0.0232
    157 H80       -14.0069   -8.1355   21.5587 H         1 LEU         0.0232
    158 H81       -14.8414   -8.8746   20.1501 H         1 LEU         0.0232
    159 H82       -17.2679   -9.3966   26.2483 H         1 GLN         0.1883
    160 H83       -15.0756   -8.4970   27.8866 H         1 GLN         0.0801
    161 H84       -16.8394   -9.1798   29.7920 H         1 GLN         0.0337
    162 H85       -17.9541   -9.2788   28.3869 H         1 GLN         0.0337
    163 H86       -16.9310   -6.8845   27.8154 H         1 GLN         0.0504
    164 H87       -16.5483   -6.8740   29.5704 H         1 GLN         0.0504
    165 H88       -20.1284   -6.8307   30.6664 H         1 GLN         0.1814
    166 H89       -18.5462   -7.2444   31.2369 H         1 GLN         0.1814
    167 H90       -15.6377  -12.6252   28.7594 H         1 NH2         0.1815
    168 H91       -16.8981  -11.8010   27.9037 H         1 NH2         0.1815
@<TRIPOS>BOND
     1    1    2 1  
     2    2    3 1  
     3    2    5 1  
     4    3    4 2  
     5    3   12 am 
     6    5    6 1  
     7    6    7 1  
     8    7    8 1  
     9    8    9 ar 
    10    9   10 ar 
    11    9   11 ar 
    12   12   13 1  
    13   13   14 1  
    14   13   16 1  
    15   14   15 2  
    16   14   38 am 
    17   16   17 1  
    18   17   18 2  
    19   17   19 am 
    20   19   20 1  
    21   20   21 1  
    22   20   23 1  
    23   21   22 2  
    24   21   27 am 
    25   23   24 1  
    26   23   25 1  
    27   24   26 1  
    28   27   28 1  
    29   28   29 1  
    30   28   31 1  
    31   29   30 2  
    32   29   35 am 
    33   31   32 1  
    34   32   33 1  
    35   32   34 1  
    36   35   36 1  
    37   36   37 1  
    38   36   39 1  
    39   37   38 1  
    40   39   40 2  
    41   39   41 am 
    42   41   42 1  
    43   42   43 1  
    44   42   45 1  
    45   43   44 2  
    46   43   52 am 
    47   45   46 1  
    48   46   47 1  
    49   47   48 1  
    50   48   49 ar 
    51   49   50 ar 
    52   49   51 ar 
    53   52   53 1  
    54   53   54 1  
    55   53   56 1  
    56   54   55 2  
    57   54   60 am 
    58   56   57 1  
    59   57   58 1  
    60   57   59 1  
    61   60   61 1  
    62   61   62 1  
    63   61   64 1  
    64   62   63 2  
    65   62   68 am 
    66   64   65 1  
    67   65   66 1  
    68   65   67 1  
    69   68   69 1  
    70   69   70 1  
    71   69   72 1  
    72   70   71 2  
    73   70   77 am 
    74   72   73 1  
    75   73   74 1  
    76   74   75 2  
    77   74   76 am 
    78    1   78 1  
    79    1   79 1  
    80    1   80 1  
    81    2   81 1  
    82    5   82 1  
    83    5   83 1  
    84    6   84 1  
    85    6   85 1  
    86    7   86 1  
    87    7   87 1  
    88    8   88 1  
    89   10   89 1  
    90   10   90 1  
    91   11   91 1  
    92   11   92 1  
    93   12   93 1  
    94   13   94 1  
    95   16   95 1  
    96   16   96 1  
    97   19   97 1  
    98   20   98 1  
    99   23   99 1  
   100   24  100 1  
   101   24  101 1  
   102   25  102 1  
   103   25  103 1  
   104   25  104 1  
   105   26  105 1  
   106   26  106 1  
   107   26  107 1  
   108   27  108 1  
   109   28  109 1  
   110   31  110 1  
   111   31  111 1  
   112   32  112 1  
   113   33  113 1  
   114   33  114 1  
   115   33  115 1  
   116   34  116 1  
   117   34  117 1  
   118   34  118 1  
   119   35  119 1  
   120   36  120 1  
   121   37  121 1  
   122   37  122 1  
   123   38  123 1  
   124   41  124 1  
   125   42  125 1  
   126   45  126 1  
   127   45  127 1  
   128   46  128 1  
   129   46  129 1  
   130   47  130 1  
   131   47  131 1  
   132   48  132 1  
   133   50  133 1  
   134   50  134 1  
   135   51  135 1  
   136   51  136 1  
   137   52  137 1  
   138   53  138 1  
   139   56  139 1  
   140   56  140 1  
   141   57  141 1  
   142   58  142 1  
   143   58  143 1  
   144   58  144 1  
   145   59  145 1  
   146   59  146 1  
   147   59  147 1  
   148   60  148 1  
   149   61  149 1  
   150   64  150 1  
   151   64  151 1  
   152   65  152 1  
   153   66  153 1  
   154   66  154 1  
   155   66  155 1  
   156   67  156 1  
   157   67  157 1  
   158   67  158 1  
   159   68  159 1  
   160   69  160 1  
   161   72  161 1  
   162   72  162 1  
   163   73  163 1  
   164   73  164 1  
   165   76  165 1  
   166   76  166 1  
   167   77  167 1  
   168   77  168 1  
@<TRIPOS>SUBSTRUCTURE
     1 ARG         1

