3t2p_ligand
  -I-interpret- 

 33 33  0  0  0  0  0  0  0  0999 V2000
  -14.2450  -28.2200  -26.3620 C   0  0  0  0  0
  -12.9980  -27.9940  -25.5100 C   0  0  0  0  0
  -13.1910  -26.8410  -24.6820 O   0  0  0  0  0
  -11.7560  -27.7990  -26.3900 C   0  0  0  0  0
  -10.5790  -27.8620  -25.5740 O   0  0  0  0  0
  -11.6490  -28.8220  -27.5240 C   0  0  0  0  0
  -11.2280  -30.0880  -26.9940 O   0  0  0  0  0
  -13.0010  -28.9390  -28.2340 C   0  0  0  0  0
  -13.9870  -29.2940  -27.2670 O   0  0  0  0  0
  -13.0800  -29.9470  -29.3780 C   0  0  0  0  0
  -11.9180  -29.9000  -30.2200 O   0  0  0  0  0
  -15.6310  -28.6300  -25.3530 S   0  0  0  0  0
  -17.0790  -28.2580  -26.3050 C   0  0  0  0  0
  -17.2620  -29.2510  -27.4540 C   0  0  0  0  0
  -18.3000  -28.2780  -25.3860 C   0  0  0  0  0
  -14.4760  -27.3039  -26.9057 H   0  0  0  0  0
  -12.8385  -28.8749  -24.8882 H   0  0  0  0  0
  -13.9689  -26.9685  -24.1340 H   0  0  0  0  0
  -11.8512  -26.8197  -26.8590 H   0  0  0  0  0
  -10.6486  -27.2198  -24.8639 H   0  0  0  0  0
  -10.9064  -28.4953  -28.2519 H   0  0  0  0  0
  -10.3801  -29.9842  -26.5559 H   0  0  0  0  0
  -13.1643  -27.9641  -28.6934 H   0  0  0  0  0
  -13.9510  -29.7034  -29.9864 H   0  0  0  0  0
  -13.1476  -30.9459  -28.9471 H   0  0  0  0  0
  -12.0078  -30.5467  -30.9238 H   0  0  0  0  0
  -16.9636  -27.2674  -26.7449 H   0  0  0  0  0
  -16.3941  -29.2073  -28.1120 H   0  0  0  0  0
  -17.3626  -30.2582  -27.0495 H   0  0  0  0  0
  -18.1593  -28.9926  -28.0164 H   0  0  0  0  0
  -18.3992  -29.2664  -24.9372 H   0  0  0  0  0
  -18.1747  -27.5321  -24.6011 H   0  0  0  0  0
  -19.1939  -28.0497  -25.9665 H   0  0  0  0  0
  1  2  1  0  0  0
  1  9  1  0  0  0
  1 12  1  0  0  0
  2  3  1  0  0  0
  2  4  1  0  0  0
  4  5  1  0  0  0
  4  6  1  0  0  0
  6  7  1  0  0  0
  6  8  1  0  0  0
  8  9  1  0  0  0
  8 10  1  0  0  0
 10 11  1  0  0  0
 12 13  1  0  0  0
 13 14  1  0  0  0
 13 15  1  0  0  0
  1 16  1  0  0  0
  2 17  1  0  0  0
  3 18  1  0  0  0
  4 19  1  0  0  0
  5 20  1  0  0  0
  6 21  1  0  0  0
  7 22  1  0  0  0
  8 23  1  0  0  0
 10 24  1  0  0  0
 10 25  1  0  0  0
 11 26  1  0  0  0
 13 27  1  0  0  0
 14 28  1  0  0  0
 14 29  1  0  0  0
 14 30  1  0  0  0
 15 31  1  0  0  0
 15 32  1  0  0  0
 15 33  1  0  0  0
M  END
$$$$
