3v5g_ligand
  -I-interpret- 

 24 24  0  0  0  0  0  0  0  0999 V2000
   -5.9660    0.9550   16.6740 S   0  0  0  0  0
   -7.4100    0.9390   16.5910 O   0  0  0  0  0
   -5.4340    1.0440   18.0080 O   0  0  0  0  0
   -5.3600   -0.3250   15.9530 N   0  0  0  0  0
   -3.5910    3.7050   14.7980 C   0  0  0  0  0
   -4.0120    2.5510   15.5040 C   0  0  0  0  0
   -5.3960    2.3900   15.7830 C   0  0  0  0  0
   -6.3390    3.3560   15.3630 C   0  0  0  0  0
   -5.9000    4.4930   14.6640 C   0  0  0  0  0
   -4.5400    4.6820   14.3770 C   0  0  0  0  0
   -4.1560    5.8690   13.6780 N   0  0  0  0  0
   -2.6930    6.1580   13.0370 S   0  0  0  0  0
   -1.7610    6.2470   14.1290 O   0  0  0  0  0
   -2.8580    7.3110   12.2090 O   0  0  0  0  0
   -2.3000    4.9240   12.1100 N   0  0  0  0  0
   -5.9812   -1.0083   15.5199 H   0  0  0  0  0
   -4.3498   -0.4632   15.9233 H   0  0  0  0  0
   -2.5335    3.8469   14.5751 H   0  0  0  0  0
   -3.2889    1.8019   15.8266 H   0  0  0  0  0
   -7.3985    3.2197   15.5798 H   0  0  0  0  0
   -6.6263    5.2385   14.3403 H   0  0  0  0  0
   -4.8626    6.5971   13.5731 H   0  0  0  0  0
   -1.4917    4.3475   12.3439 H   0  0  0  0  0
   -2.8566    4.7102   11.2825 H   0  0  0  0  0
  1  2  2  0  0  0
  1  3  2  0  0  0
  1  4  1  0  0  0
  7  1  1  0  0  0
  6  5  4  0  0  0
  5 10  4  0  0  0
  6  7  4  0  0  0
  7  8  4  0  0  0
  8  9  4  0  0  0
  9 10  4  0  0  0
 10 11  1  0  0  0
 11 12  1  0  0  0
 12 13  2  0  0  0
 12 14  2  0  0  0
 12 15  1  0  0  0
  4 16  1  0  0  0
  4 17  1  0  0  0
  5 18  1  0  0  0
  6 19  1  0  0  0
  8 20  1  0  0  0
  9 21  1  0  0  0
 11 22  1  0  0  0
 15 23  1  0  0  0
 15 24  1  0  0  0
M  END
$$$$
