4ngp_ligand
  -I-interpret- 

 80 80  0  0  0  0  0  0  0  0999 V2000
  -26.5320   -9.8700  -42.8420 O   0  0  0  0  0
  -26.3320  -10.7570  -41.9920 C   0  0  0  0  0
  -25.4950  -11.7860  -42.1600 N   0  0  0  0  0
  -24.7020  -11.9340  -43.3460 C   0  0  0  0  0
  -25.4430  -12.6730  -44.4270 C   0  0  0  0  0
  -25.5560  -14.0490  -44.0380 O   0  0  0  0  0
  -26.3020  -14.9420  -44.7650 C   0  0  0  0  0
  -27.0160  -14.5550  -45.9090 C   0  0  0  0  0
  -27.7600  -15.5230  -46.6120 C   0  0  0  0  0
  -27.7580  -16.8310  -46.1340 C   0  0  0  0  0
  -27.0560  -17.1950  -44.9890 C   0  0  0  0  0
  -26.3240  -16.2550  -44.2920 C   0  0  0  0  0
  -25.4900  -16.6560  -43.0790 C   0  0  0  0  0
  -24.3450  -17.2680  -43.3770 N   0  0  0  0  0
  -23.3760  -17.7620  -42.3860 C   0  0  0  0  0
  -23.1190  -19.2620  -42.4700 C   0  0  0  0  0
  -22.3470  -19.6400  -43.7480 C   0  0  0  0  0
  -20.8740  -19.4160  -43.5890 C   0  0  0  0  0
  -19.9890  -20.1080  -44.6390 C   0  0  0  0  0
  -18.6700  -19.8140  -44.1960 N   0  0  0  0  0
  -17.9360  -20.6110  -43.4270 C   0  0  0  0  0
  -18.4000  -21.6560  -42.9410 O   0  0  0  0  0
  -16.6850  -20.2330  -43.1240 N   0  0  0  0  0
  -16.0720  -20.7560  -41.9040 C   0  0  0  0  0
  -17.0100  -20.6330  -40.7160 C   0  0  0  0  0
  -16.8790  -21.3930  -39.7350 O   0  0  0  0  0
  -17.9460  -19.7240  -40.7230 O   0  0  0  0  0
  -14.7510  -20.0260  -41.5190 C   0  0  0  0  0
  -15.0310  -18.5050  -41.3610 C   0  0  0  0  0
  -13.8740  -17.7570  -40.7820 C   0  0  0  0  0
  -13.7520  -16.5250  -41.0100 O   0  0  0  0  0
  -13.0050  -18.3740  -40.0110 O   0  0  0  0  0
  -20.2010  -19.4910  -45.9990 C   0  0  0  0  0
  -19.5930  -18.3650  -46.3010 O   0  0  0  0  0
  -20.7850  -20.0640  -46.9060 O   0  0  0  0  0
  -25.7690  -16.3900  -41.8950 O   0  0  0  0  0
  -27.0470  -10.6630  -40.6650 C   0  0  0  0  0
  -28.4690  -10.1190  -40.8510 C   0  0  0  0  0
  -29.0340   -9.8040  -39.5680 O   0  0  0  0  0
  -30.4800   -9.7890  -39.4980 C   0  0  0  0  0
  -31.0130   -8.7360  -38.5170 C   0  0  0  0  0
  -30.1370   -7.6070  -38.4180 O   0  0  0  0  0
  -25.4181  -12.4867  -41.4228 H   0  0  0  0  0
  -23.8093  -12.5052  -43.0914 H   0  0  0  0  0
  -24.4553  -10.9399  -43.7187 H   0  0  0  0  0
  -24.9025  -12.5950  -45.3703 H   0  0  0  0  0
  -26.4344  -12.2408  -44.5624 H   0  0  0  0  0
  -26.9954  -13.5197  -46.2492 H   0  0  0  0  0
  -28.3224  -15.2552  -47.5065 H   0  0  0  0  0
  -28.3229  -17.5919  -46.6725 H   0  0  0  0  0
  -27.0843  -18.2275  -44.6408 H   0  0  0  0  0
  -24.1240  -17.4040  -44.3634 H   0  0  0  0  0
  -23.7894  -17.5583  -41.3982 H   0  0  0  0  0
  -22.4286  -17.2590  -42.5796 H   0  0  0  0  0
  -24.0812  -19.7738  -42.4873 H   0  0  0  0  0
  -22.5193  -19.5554  -41.6084 H   0  0  0  0  0
  -22.7046  -19.0128  -44.5646 H   0  0  0  0  0
  -22.5146  -20.6976  -43.9515 H   0  0  0  0  0
  -20.5966  -19.8343  -42.6214 H   0  0  0  0  0
  -20.7072  -18.3442  -43.6966 H   0  0  0  0  0
  -20.2003  -21.1733  -44.7317 H   0  0  0  0  0
  -18.2581  -18.9282  -44.4895 H   0  0  0  0  0
  -16.1723  -19.5942  -43.7319 H   0  0  0  0  0
  -15.8547  -21.8003  -42.1284 H   0  0  0  0  0
  -17.9059  -19.2314  -41.5460 H   0  0  0  0  0
  -14.0076  -20.1806  -42.3011 H   0  0  0  0  0
  -14.3736  -20.4270  -40.5783 H   0  0  0  0  0
  -15.8749  -18.3910  -40.6806 H   0  0  0  0  0
  -15.2273  -18.0981  -42.3530 H   0  0  0  0  0
  -13.2422  -19.3017  -39.9420 H   0  0  0  0  0
  -19.1725  -18.0089  -45.5149 H   0  0  0  0  0
  -26.4936   -9.9859  -40.0143 H   0  0  0  0  0
  -27.1059  -11.6588  -40.2258 H   0  0  0  0  0
  -29.0842  -10.8721  -41.3435 H   0  0  0  0  0
  -28.4357   -9.2183  -41.4640 H   0  0  0  0  0
  -30.8090  -10.7682  -39.1501 H   0  0  0  0  0
  -30.8611   -9.5464  -40.4900 H   0  0  0  0  0
  -31.0915   -9.1953  -37.5316 H   0  0  0  0  0
  -31.9797   -8.3879  -38.8809 H   0  0  0  0  0
  -30.5032   -6.9727  -37.7974 H   0  0  0  0  0
  1  2  2  0  0  0
  2  3  1  0  0  0
  2 37  1  0  0  0
  3  4  1  0  0  0
  4  5  1  0  0  0
  5  6  1  0  0  0
  6  7  1  0  0  0
  7  8  4  0  0  0
  7 12  4  0  0  0
  8  9  4  0  0  0
  9 10  4  0  0  0
 10 11  4  0  0  0
 11 12  4  0  0  0
 12 13  1  0  0  0
 13 14  1  0  0  0
 13 36  2  0  0  0
 14 15  1  0  0  0
 15 16  1  0  0  0
 16 17  1  0  0  0
 17 18  1  0  0  0
 18 19  1  0  0  0
 19 20  1  0  0  0
 19 33  1  0  0  0
 20 21  1  0  0  0
 21 22  2  0  0  0
 21 23  1  0  0  0
 23 24  1  0  0  0
 24 25  1  0  0  0
 24 28  1  0  0  0
 25 26  2  0  0  0
 25 27  1  0  0  0
 28 29  1  0  0  0
 29 30  1  0  0  0
 30 31  2  0  0  0
 30 32  1  0  0  0
 33 34  1  0  0  0
 33 35  2  0  0  0
 37 38  1  0  0  0
 38 39  1  0  0  0
 39 40  1  0  0  0
 40 41  1  0  0  0
 41 42  1  0  0  0
  3 43  1  0  0  0
  4 44  1  0  0  0
  4 45  1  0  0  0
  5 46  1  0  0  0
  5 47  1  0  0  0
  8 48  1  0  0  0
  9 49  1  0  0  0
 10 50  1  0  0  0
 11 51  1  0  0  0
 14 52  1  0  0  0
 15 53  1  0  0  0
 15 54  1  0  0  0
 16 55  1  0  0  0
 16 56  1  0  0  0
 17 57  1  0  0  0
 17 58  1  0  0  0
 18 59  1  0  0  0
 18 60  1  0  0  0
 19 61  1  0  0  0
 20 62  1  0  0  0
 23 63  1  0  0  0
 24 64  1  0  0  0
 27 65  1  0  0  0
 28 66  1  0  0  0
 28 67  1  0  0  0
 29 68  1  0  0  0
 29 69  1  0  0  0
 32 70  1  0  0  0
 34 71  1  0  0  0
 37 72  1  0  0  0
 37 73  1  0  0  0
 38 74  1  0  0  0
 38 75  1  0  0  0
 40 76  1  0  0  0
 40 77  1  0  0  0
 41 78  1  0  0  0
 41 79  1  0  0  0
 42 80  1  0  0  0
M  END
$$$$
