6c5f_ligand
  -I-interpret- 

 30 31  0  0  0  0  0  0  0  0999 V2000
  -26.8240  -14.2250    5.4910 O   0  0  0  0  0
  -26.4130  -15.4080    5.1000 C   0  0  0  0  0
  -25.6720  -16.0470    5.9110 O   0  0  0  0  0
  -26.6500  -15.8180    3.7570 C   0  0  0  0  0
  -27.5690  -15.1230    2.9800 C   0  0  0  0  0
  -26.0520  -16.9500    3.2430 C   0  0  0  0  0
  -26.2090  -17.3360    1.9190 C   0  0  0  0  0
  -27.1200  -16.6090    1.1440 C   0  0  0  0  0
  -27.7800  -15.4810    1.6540 C   0  0  0  0  0
  -28.7530  -14.7960    0.8070 C   0  0  0  0  0
  -30.0010  -14.4220    1.3770 C   0  0  0  0  0
  -31.0220  -13.8720    0.6430 C   0  0  0  0  0
  -32.2550  -13.4440    1.2740 C   0  0  0  0  0
  -32.3510  -13.2150    2.5030 O   0  0  0  0  0
  -33.2100  -13.0580    0.5760 O   0  0  0  0  0
  -30.8910  -13.7220   -0.7050 N   0  0  0  0  0
  -29.7070  -14.0560   -1.3120 C   0  0  0  0  0
  -28.5960  -14.5660   -0.5560 C   0  0  0  0  0
  -27.4050  -14.7340   -1.2860 C   0  0  0  0  0
  -26.3730  -14.2480   -0.7720 O   0  0  0  0  0
  -27.3130  -15.2290   -2.3900 O   0  0  0  0  0
  -27.3724  -13.8355    4.8061 H   0  0  0  0  0
  -28.1271  -14.2928    3.4129 H   0  0  0  0  0
  -25.4345  -17.5628    3.8997 H   0  0  0  0  0
  -25.6464  -18.1704    1.5003 H   0  0  0  0  0
  -27.3212  -16.9265    0.1209 H   0  0  0  0  0
  -30.1536  -14.5792    2.4448 H   0  0  0  0  0
  -31.5704  -13.5484    2.9514 H   0  0  0  0  0
  -29.6066  -13.9320   -2.3903 H   0  0  0  0  0
  -26.5851  -13.8928    0.0943 H   0  0  0  0  0
  1  2  1  0  0  0
  2  3  2  0  0  0
  2  4  1  0  0  0
  4  5  4  0  0  0
  4  6  4  0  0  0
  5  9  4  0  0  0
  6  7  4  0  0  0
  7  8  4  0  0  0
  8  9  4  0  0  0
  9 10  1  0  0  0
 10 11  4  0  0  0
 10 18  4  0  0  0
 11 12  4  0  0  0
 12 13  1  0  0  0
 12 16  4  0  0  0
 13 14  1  0  0  0
 13 15  2  0  0  0
 16 17  4  0  0  0
 17 18  4  0  0  0
 18 19  1  0  0  0
 19 20  1  0  0  0
 19 21  2  0  0  0
  1 22  1  0  0  0
  5 23  1  0  0  0
  6 24  1  0  0  0
  7 25  1  0  0  0
  8 26  1  0  0  0
 11 27  1  0  0  0
 14 28  1  0  0  0
 17 29  1  0  0  0
 20 30  1  0  0  0
M  END
$$$$
