3i3d_ligand
  -I-interpret- 

 33 33  0  0  0  0  0  0  0  0999 V2000
   14.7370   27.6950   75.4600 C   0  0  0  0  0
   13.4200   27.5970   76.2620 C   0  0  0  0  0
   13.5440   26.6020   77.2710 O   0  0  0  0  0
   12.2750   27.2380   75.3080 C   0  0  0  0  0
   11.0490   27.1300   76.0250 O   0  0  0  0  0
   12.1710   28.3290   74.2270 C   0  0  0  0  0
   11.8140   29.5930   74.8100 O   0  0  0  0  0
   13.5390   28.4120   73.4900 C   0  0  0  0  0
   14.6180   28.7030   74.4140 O   0  0  0  0  0
   13.4890   29.5040   72.4100 C   0  0  0  0  0
   12.4940   29.1830   71.4410 O   0  0  0  0  0
   16.1140   28.1260   76.5650 S   0  0  0  0  0
   17.5220   28.1000   75.4020 C   0  0  0  0  0
   18.8090   27.8670   76.1930 C   0  0  0  0  0
   17.6330   29.4170   74.6320 C   0  0  0  0  0
   14.9345   26.7260   75.0015 H   0  0  0  0  0
   13.2080   28.5547   76.7375 H   0  0  0  0  0
   14.2629   26.8357   77.8627 H   0  0  0  0  0
   12.4764   26.2754   74.8379 H   0  0  0  0  0
   11.1301   26.4466   76.6943 H   0  0  0  0  0
   11.3861   28.0770   73.5139 H   0  0  0  0  0
   10.9681   29.5107   75.2563 H   0  0  0  0  0
   13.7283   27.4426   73.0290 H   0  0  0  0  0
   14.4603   29.5694   71.9197 H   0  0  0  0  0
   13.2430   30.4586   72.8751 H   0  0  0  0  0
   12.4689   29.8694   70.7703 H   0  0  0  0  0
   17.3628   27.2987   74.6804 H   0  0  0  0  0
   18.9406   28.6723   76.9157 H   0  0  0  0  0
   18.7442   26.9136   76.7172 H   0  0  0  0  0
   19.6568   27.8496   75.5081 H   0  0  0  0  0
   16.7173   29.5829   74.0644 H   0  0  0  0  0
   17.7794   30.2365   75.3356 H   0  0  0  0  0
   18.4811   29.3668   73.9492 H   0  0  0  0  0
  1  2  1  0  0  0
  1  9  1  0  0  0
  1 12  1  0  0  0
  2  3  1  0  0  0
  2  4  1  0  0  0
  4  5  1  0  0  0
  4  6  1  0  0  0
  6  7  1  0  0  0
  6  8  1  0  0  0
  8  9  1  0  0  0
  8 10  1  0  0  0
 10 11  1  0  0  0
 12 13  1  0  0  0
 13 14  1  0  0  0
 13 15  1  0  0  0
  1 16  1  0  0  0
  2 17  1  0  0  0
  3 18  1  0  0  0
  4 19  1  0  0  0
  5 20  1  0  0  0
  6 21  1  0  0  0
  7 22  1  0  0  0
  8 23  1  0  0  0
 10 24  1  0  0  0
 10 25  1  0  0  0
 11 26  1  0  0  0
 13 27  1  0  0  0
 14 28  1  0  0  0
 14 29  1  0  0  0
 14 30  1  0  0  0
 15 31  1  0  0  0
 15 32  1  0  0  0
 15 33  1  0  0  0
M  END
$$$$
