6e91_ligand
  -I-interpret- 

 54 56  0  0  0  0  0  0  0  0999 V2000
   -4.2780   13.6760   10.9170 C   0  0  0  0  0
   -3.2530   13.6430   11.8700 O   0  0  0  0  0
   -3.1140   12.3690   12.4490 C   0  0  0  0  0
   -3.9930   11.3370   12.1210 C   0  0  0  0  0
   -2.0750   12.1470   13.3380 C   0  0  0  0  0
   -1.1810   13.1800   13.6670 O   0  0  0  0  0
    0.0780   13.0470   13.0760 C   0  0  0  0  0
   -1.9060   10.9040   13.9170 C   0  0  0  0  0
   -0.8110   10.7930   14.8080 O   0  0  0  0  0
   -0.5130    9.5440   15.3740 C   0  0  0  0  0
   -2.7950    9.8610   13.5890 C   0  0  0  0  0
   -3.8540   10.0630   12.6870 C   0  0  0  0  0
   -4.8890    8.9690   12.2870 C   0  0  0  0  0
   -4.8460    7.6960   13.0290 N   0  0  0  0  0
   -4.8110    6.4900   12.3410 C   0  0  0  0  0
   -4.8990    7.6420   14.4180 C   0  0  0  0  0
   -4.8590    6.4240   15.1260 C   0  0  0  0  0
   -4.8020    5.2960   14.4150 C   0  0  0  0  0
   -4.7530    4.0810   15.1360 C   0  0  0  0  0
   -4.7700    5.2960   13.0610 C   0  0  0  0  0
   -4.6970    4.0910   12.3330 C   0  0  0  0  0
   -4.6600    2.9050   13.0390 C   0  0  0  0  0
   -4.5770    1.6460   12.4020 O   0  0  0  0  0
   -4.9000    1.6220   11.0330 C   0  0  0  0  0
   -4.6800    2.9100   14.3980 C   0  0  0  0  0
   -4.5830    1.6430   14.9740 O   0  0  0  0  0
   -5.2120    1.2730   16.4490 S   0  0  0  0  0
   -6.7570    1.7460   16.4460 O   0  0  0  0  0
   -4.3140    1.9210   17.6270 O   0  0  0  0  0
   -5.0750   -0.4100   16.4690 N   0  0  0  0  0
   -4.0573   12.9625   10.1231 H   0  0  0  0  0
   -5.2228   13.4121   11.3922 H   0  0  0  0  0
   -4.3491   14.6790   10.4963 H   0  0  0  0  0
   -4.8006   11.5246   11.4134 H   0  0  0  0  0
    0.5324   12.1104   13.3990 H   0  0  0  0  0
   -0.0296   13.0451   11.9913 H   0  0  0  0  0
    0.7099   13.8821   13.3783 H   0  0  0  0  0
   -1.3694    9.1941   15.9504 H   0  0  0  0  0
   -0.2915    8.8304   14.5804 H   0  0  0  0  0
    0.3526    9.6407   16.0294 H   0  0  0  0  0
   -2.6590    8.8795   14.0431 H   0  0  0  0  0
   -4.6650    8.7149   11.2510 H   0  0  0  0  0
   -5.8688    9.3991   12.4946 H   0  0  0  0  0
   -3.8735    6.5130   11.7855 H   0  0  0  0  0
   -5.7531    6.4536   11.7940 H   0  0  0  0  0
   -4.9741    8.5740   14.9783 H   0  0  0  0  0
   -4.8741    6.4040   16.2157 H   0  0  0  0  0
   -4.7718    4.0657   16.2257 H   0  0  0  0  0
   -4.6705    4.0954   11.2433 H   0  0  0  0  0
   -5.9266    1.9622   10.8972 H   0  0  0  0  0
   -4.2227    2.2808   10.4896 H   0  0  0  0  0
   -4.8001    0.6044   10.6552 H   0  0  0  0  0
   -5.9141   -0.9899   16.4774 H   0  0  0  0  0
   -4.1532   -0.8466   16.4726 H   0  0  0  0  0
  1  2  1  0  0  0
  2  3  1  0  0  0
  3  4  4  0  0  0
  3  5  4  0  0  0
  4 12  4  0  0  0
  5  6  1  0  0  0
  5  8  4  0  0  0
  6  7  1  0  0  0
  8  9  1  0  0  0
  8 11  4  0  0  0
  9 10  1  0  0  0
 11 12  4  0  0  0
 12 13  1  0  0  0
 13 14  1  0  0  0
 14 15  1  0  0  0
 14 16  1  0  0  0
 15 20  1  0  0  0
 16 17  2  0  0  0
 17 18  1  0  0  0
 18 19  4  0  0  0
 18 20  4  0  0  0
 19 25  4  0  0  0
 20 21  4  0  0  0
 21 22  4  0  0  0
 22 23  1  0  0  0
 22 25  4  0  0  0
 23 24  1  0  0  0
 25 26  1  0  0  0
 26 27  1  0  0  0
 27 28  2  0  0  0
 27 29  2  0  0  0
 27 30  1  0  0  0
  1 31  1  0  0  0
  1 32  1  0  0  0
  1 33  1  0  0  0
  4 34  1  0  0  0
  7 35  1  0  0  0
  7 36  1  0  0  0
  7 37  1  0  0  0
 10 38  1  0  0  0
 10 39  1  0  0  0
 10 40  1  0  0  0
 11 41  1  0  0  0
 13 42  1  0  0  0
 13 43  1  0  0  0
 15 44  1  0  0  0
 15 45  1  0  0  0
 16 46  1  0  0  0
 17 47  1  0  0  0
 19 48  1  0  0  0
 21 49  1  0  0  0
 24 50  1  0  0  0
 24 51  1  0  0  0
 24 52  1  0  0  0
 30 53  1  0  0  0
 30 54  1  0  0  0
M  END
$$$$
