5o1e_ligand
  -I-interpret- 

 32 33  0  0  0  0  0  0  0  0999 V2000
   91.8220   89.5730  -48.2710 C   0  0  0  0  0
   93.9320   90.4470  -41.7560 C   0  0  0  0  0
   91.1440   93.9830  -45.5080 C   0  0  0  0  0
   91.6150   92.8090  -44.9050 C   0  0  0  0  0
   91.9210   92.8330  -43.5420 C   0  0  0  0  0
   91.7630   94.0180  -42.8050 C   0  0  0  0  0
   91.2940   95.1910  -43.4170 C   0  0  0  0  0
   90.9800   95.1740  -44.7780 C   0  0  0  0  0
   90.4720   96.3920  -45.4870 C   0  0  0  0  0
   91.2590   91.5740  -46.8910 C   0  0  0  0  0
   91.1110   90.1400  -47.2920 C   0  0  0  0  0
   91.7510   90.6680  -42.2910 C   0  0  0  0  0
   92.6530   89.8670  -41.6290 C   0  0  0  0  0
   93.7710   91.6010  -42.4890 C   0  0  0  0  0
   92.1910   94.1130  -40.7400 I   0  0  0  0  0
   92.4350   91.7290  -42.8390 N   0  0  0  0  0
   91.1360   96.3460  -42.6870 O   0  0  0  0  0
   90.3160   97.4280  -44.7780 O   0  0  0  0  0
   90.2450   96.2860  -46.7350 O   0  0  0  0  0
   91.7830   91.6280  -45.5620 O   0  0  0  0  0
   92.5549   90.1612  -48.8232 H   0  0  0  0  0
   91.6691   88.5223  -48.5174 H   0  0  0  0  0
   94.8665   90.0573  -41.3523 H   0  0  0  0  0
   90.8985   93.9729  -46.5699 H   0  0  0  0  0
   90.2889   92.0698  -46.9264 H   0  0  0  0  0
   91.9373   92.0816  -47.5768 H   0  0  0  0  0
   90.3857   89.5262  -46.7579 H   0  0  0  0  0
   90.6780   90.4922  -42.3682 H   0  0  0  0  0
   92.4193   88.9440  -41.0983 H   0  0  0  0  0
   94.5645   92.3006  -42.7517 H   0  0  0  0  0
   90.8094   97.0434  -43.2602 H   0  0  0  0  0
   90.4469   95.3921  -47.0210 H   0  0  0  0  0
 11  1  2  0  0  0
 13  2  4  0  0  0
  2 14  4  0  0  0
  4  3  4  0  0  0
  3  8  4  0  0  0
  5  4  4  0  0  0
  4 20  1  0  0  0
  5  6  4  0  0  0
 16  5  1  0  0  0
  6  7  4  0  0  0
  6 15  1  0  0  0
  7  8  4  0  0  0
  7 17  1  0  0  0
  8  9  1  0  0  0
  9 18  2  0  0  0
  9 19  1  0  0  0
 10 11  1  0  0  0
 20 10  1  0  0  0
 12 13  4  0  0  0
 12 16  4  0  0  0
 14 16  4  0  0  0
  1 21  1  0  0  0
  1 22  1  0  0  0
  2 23  1  0  0  0
  3 24  1  0  0  0
 10 25  1  0  0  0
 10 26  1  0  0  0
 11 27  1  0  0  0
 12 28  1  0  0  0
 13 29  1  0  0  0
 14 30  1  0  0  0
 17 31  1  0  0  0
 19 32  1  0  0  0
M  END
$$$$
