4qfo_ligand
  -I-interpret- 

 40 39  0  0  0  0  0  0  0  0999 V2000
   13.7890   -7.4530   13.0750 N   0  3  0  0  0
   13.1970   -6.2170   12.5750 C   0  0  0  0  0
   12.2500   -6.4470   11.4120 C   0  0  0  0  0
   12.5300   -7.2340   10.5100 O   0  0  0  0  0
   14.2920   -5.2450   12.1290 C   0  0  0  0  0
   14.8400   -4.4140   13.2730 C   0  0  0  0  0
   16.4230   -3.6130   12.8950 S   0  0  0  0  0
   16.3530   -3.4720   11.1130 C   0  0  0  0  0
   11.1330   -5.7360   11.4280 N   0  0  0  0  0
   10.2220   -5.7260   10.3000 C   0  0  0  0  0
   10.8400   -4.8400    9.2320 C   0  0  0  0  0
   11.5030   -3.8530    9.5750 O   0  0  0  0  0
    8.8770   -5.1440   10.7280 C   0  0  0  0  0
    7.7250   -6.0530   11.1570 C   0  0  0  0  0
    8.2130   -7.3620   11.7290 C   0  0  0  0  0
    6.7950   -5.3160   12.1270 C   0  0  0  0  0
   10.6950   -5.0720    8.0220 O   0  0  0  0  0
   13.0477   -8.0895   13.3679 H   0  0  0  0  0
   14.3399   -7.8883   12.3351 H   0  0  0  0  0
   14.3919   -7.2424   13.8704 H   0  0  0  0  0
   12.6229   -5.7969   13.4009 H   0  0  0  0  0
   13.8563   -4.5628   11.3991 H   0  0  0  0  0
   15.1136   -5.8324   11.7190 H   0  0  0  0  0
   15.0065   -5.0861   14.1148 H   0  0  0  0  0
   14.1162   -3.6259   13.4806 H   0  0  0  0  0
   16.2614   -4.4657   10.6745 H   0  0  0  0  0
   15.4904   -2.8682   10.8312 H   0  0  0  0  0
   17.2647   -2.9965   10.7513 H   0  0  0  0  0
   10.9079   -5.1817   12.2541 H   0  0  0  0  0
   10.0593   -6.7365    9.9251 H   0  0  0  0  0
    8.5044   -4.6520    9.8295 H   0  0  0  0  0
    9.1106   -4.5724   11.6262 H   0  0  0  0  0
    7.1519   -6.3070   10.2653 H   0  0  0  0  0
    8.7991   -7.8898   10.9766 H   0  0  0  0  0
    8.8337   -7.1661   12.6033 H   0  0  0  0  0
    7.3573   -7.9720   12.0186 H   0  0  0  0  0
    7.3582   -5.0150   13.0104 H   0  0  0  0  0
    6.3868   -4.4324   11.6363 H   0  0  0  0  0
    5.9809   -5.9782   12.4217 H   0  0  0  0  0
   10.1622   -5.8628    7.9105 H   0  0  0  0  0
  1  2  1  0  0  0
  2  3  1  0  0  0
  2  5  1  0  0  0
  3  4  2  0  0  0
  3  9  1  0  0  0
  5  6  1  0  0  0
  6  7  1  0  0  0
  7  8  1  0  0  0
  9 10  1  0  0  0
 10 11  1  0  0  0
 10 13  1  0  0  0
 11 12  2  0  0  0
 11 17  1  0  0  0
 13 14  1  0  0  0
 14 15  1  0  0  0
 14 16  1  0  0  0
  1 18  1  0  0  0
  1 19  1  0  0  0
  1 20  1  0  0  0
  2 21  1  0  0  0
  5 22  1  0  0  0
  5 23  1  0  0  0
  6 24  1  0  0  0
  6 25  1  0  0  0
  8 26  1  0  0  0
  8 27  1  0  0  0
  8 28  1  0  0  0
  9 29  1  0  0  0
 10 30  1  0  0  0
 13 31  1  0  0  0
 13 32  1  0  0  0
 14 33  1  0  0  0
 15 34  1  0  0  0
 15 35  1  0  0  0
 15 36  1  0  0  0
 16 37  1  0  0  0
 16 38  1  0  0  0
 16 39  1  0  0  0
 17 40  1  0  0  0
M  END
$$$$
