5yp6_ligand
  -I-interpret- 

 64 66  0  0  0  0  0  0  0  0999 V2000
   27.2640   -3.3820  -12.3050 N   0  0  0  0  0
   24.9840    1.6730  -12.3380 C   0  0  0  0  0
   25.5600    0.7150  -11.5090 C   0  0  0  0  0
   26.4760   -0.1940  -12.0350 C   0  0  0  0  0
   27.1070   -1.2640  -11.1450 C   0  0  0  0  0
   26.4730   -2.6060  -11.5530 C   0  0  0  0  0
   26.0310   -5.4460  -12.1430 C   0  0  0  0  0
   25.9660   -8.3740  -14.3690 C   0  0  0  0  0
   26.3700  -10.7510  -14.2220 C   0  0  0  0  0
   25.1110  -12.4630  -15.5240 C   0  0  0  0  0
   24.2410  -14.6510  -14.5900 C   0  0  0  0  0
   24.6690   -9.9270  -15.6930 C   0  0  0  0  0
   24.9570   -8.6110  -15.3030 C   0  0  0  0  0
   27.2220   -6.2590  -14.5550 C   0  0  0  0  0
   27.8880   -6.6570  -15.8850 C   0  0  0  0  0
   26.2270    0.8040  -14.2170 C   0  0  0  0  0
   24.3710  -13.1460  -14.3620 C   0  0  0  0  0
   23.0010  -12.5080  -14.1130 C   0  0  0  0  0
   25.3750  -11.0010  -15.1590 C   0  0  0  0  0
   23.6480  -10.2200  -16.6520 C   0  0  0  0  0
   22.8230  -10.3940  -17.4210 N   0  0  0  0  0
   26.6640   -9.4500  -13.8280 C   0  0  0  0  0
   26.3100   -7.1010  -13.9090 C   0  0  0  0  0
   27.5070   -5.0130  -13.9850 C   0  0  0  0  0
   26.9550   -6.7510  -16.8320 F   0  0  0  0  0
   28.5100   -7.8220  -15.7530 F   0  0  0  0  0
   28.7660   -5.7310  -16.2640 F   0  0  0  0  0
   25.7350   -6.6870  -12.7040 C   0  0  0  0  0
   26.9200   -4.5890  -12.7920 C   0  0  0  0  0
   25.3210   -2.8760  -11.2180 O   0  0  0  0  0
   26.8030   -0.1530  -13.3860 C   0  0  0  0  0
   25.3230    1.7220  -13.6910 C   0  0  0  0  0
   24.5830    2.9140  -14.7350 S   0  0  0  0  0
   24.4160    4.2120  -13.9970 O   0  0  0  0  0
   25.4170    3.1250  -15.9710 O   0  0  0  0  0
   22.9390    2.2750  -15.2220 C   0  0  0  0  0
   23.0470    0.8480  -15.7630 C   0  0  0  0  0
   28.1966   -3.0325  -12.5252 H   0  0  0  0  0
   24.2673    2.3858  -11.9302 H   0  0  0  0  0
   25.2957    0.6758  -10.4523 H   0  0  0  0  0
   26.9241   -1.0515  -10.0917 H   0  0  0  0  0
   28.1890   -1.2894  -11.2746 H   0  0  0  0  0
   25.5701   -5.1465  -11.2017 H   0  0  0  0  0
   26.9262  -11.5835  -13.7911 H   0  0  0  0  0
   24.5010  -12.5113  -16.4260 H   0  0  0  0  0
   26.0575  -12.9722  -15.7057 H   0  0  0  0  0
   23.6832  -14.8311  -15.5090 H   0  0  0  0  0
   25.2344  -15.0916  -14.6742 H   0  0  0  0  0
   23.7129  -15.1003  -13.7489 H   0  0  0  0  0
   24.3959   -7.7783  -15.7271 H   0  0  0  0  0
   26.4832    0.8341  -15.2760 H   0  0  0  0  0
   24.9727  -12.9958  -13.4656 H   0  0  0  0  0
   23.1317  -11.4543  -13.8664 H   0  0  0  0  0
   22.3905  -12.5992  -15.0114 H   0  0  0  0  0
   22.5093  -13.0180  -13.2847 H   0  0  0  0  0
   27.4465   -9.2717  -13.0904 H   0  0  0  0  0
   28.2111   -4.3515  -14.4898 H   0  0  0  0  0
   25.0387   -7.3504  -12.1910 H   0  0  0  0  0
   27.5123   -0.8722  -13.7955 H   0  0  0  0  0
   22.5307    2.9163  -16.0031 H   0  0  0  0  0
   22.2910    2.2697  -14.3455 H   0  0  0  0  0
   23.6996    0.8402  -16.6360 H   0  0  0  0  0
   23.4618    0.1989  -14.9919 H   0  0  0  0  0
   22.0562    0.4918  -16.0452 H   0  0  0  0  0
  1  6  1  0  0  0
 29  1  1  0  0  0
  3  2  4  0  0  0
  2 32  4  0  0  0
  4  3  4  0  0  0
  5  4  1  0  0  0
  4 31  4  0  0  0
  6  5  1  0  0  0
  6 30  2  0  0  0
 28  7  4  0  0  0
  7 29  4  0  0  0
  8 13  4  0  0  0
  8 22  4  0  0  0
 23  8  1  0  0  0
  9 19  4  0  0  0
 22  9  4  0  0  0
 10 17  1  0  0  0
 19 10  1  0  0  0
 17 11  1  0  0  0
 13 12  4  0  0  0
 12 19  4  0  0  0
 12 20  1  0  0  0
 14 15  1  0  0  0
 23 14  4  0  0  0
 14 24  4  0  0  0
 15 25  1  0  0  0
 15 26  1  0  0  0
 15 27  1  0  0  0
 31 16  4  0  0  0
 16 32  4  0  0  0
 17 18  1  0  0  0
 20 21  3  0  0  0
 23 28  4  0  0  0
 24 29  4  0  0  0
 32 33  1  0  0  0
 33 34  2  0  0  0
 33 35  2  0  0  0
 33 36  1  0  0  0
 36 37  1  0  0  0
  1 38  1  0  0  0
  2 39  1  0  0  0
  3 40  1  0  0  0
  5 41  1  0  0  0
  5 42  1  0  0  0
  7 43  1  0  0  0
  9 44  1  0  0  0
 10 45  1  0  0  0
 10 46  1  0  0  0
 11 47  1  0  0  0
 11 48  1  0  0  0
 11 49  1  0  0  0
 13 50  1  0  0  0
 16 51  1  0  0  0
 17 52  1  0  0  0
 18 53  1  0  0  0
 18 54  1  0  0  0
 18 55  1  0  0  0
 22 56  1  0  0  0
 24 57  1  0  0  0
 28 58  1  0  0  0
 31 59  1  0  0  0
 36 60  1  0  0  0
 36 61  1  0  0  0
 37 62  1  0  0  0
 37 63  1  0  0  0
 37 64  1  0  0  0
M  END
$$$$
