4etz_ligand
  -I-interpret- 

 70 76  0  0  0  0  0  0  0  0999 V2000
   14.3220   -1.9770   -7.3880 P   0  0  0  0  0
   13.3200   -1.5670   -8.4480 O   0  0  0  0  0
   13.9960   -3.1720   -6.5240 O   0  0  0  0  0
   14.6630   -0.8090   -6.3830 O   0  0  0  0  0
   15.0260    0.5130   -6.8030 C   0  0  0  0  0
   15.4940    1.3300   -5.5990 C   0  0  0  0  0
   14.4500    1.3880   -4.6400 O   0  0  0  0  0
   16.6400    0.6970   -4.8060 C   0  0  0  0  0
   17.9360    0.9830   -5.3050 O   0  0  0  0  0
   16.4800    1.2100   -3.3960 C   0  0  0  0  0
   17.1770    2.4450   -3.2150 O   0  0  0  0  0
   14.9810    1.3840   -3.2910 C   0  0  0  0  0
   14.4090    0.1840   -2.6110 N   0  0  0  0  0
   13.6570   -0.7290   -3.2360 C   0  0  0  0  0
   13.2250   -1.6870   -2.4140 N   0  0  0  0  0
   13.7370   -1.4060   -1.1900 C   0  0  0  0  0
   13.6950   -2.0160    0.1570 C   0  0  0  0  0
   13.0070   -3.1630    0.4290 O   0  0  0  0  0
   14.3630   -1.3820    1.1580 N   0  0  0  0  0
   15.0960   -0.2360    0.9770 C   0  0  0  0  0
   15.7260    0.3000    2.0410 N   0  0  0  0  0
   15.1650    0.3850   -0.2250 N   0  0  0  0  0
   14.5250   -0.1560   -1.3210 C   0  0  0  0  0
   19.1220   -0.0920   -5.1190 P   0  0  0  0  0
   20.3620    0.5770   -5.6550 O   0  0  0  0  0
   19.1670   -0.5890   -3.6950 O   0  0  0  0  0
   18.6920   -1.2560   -6.1080 O   0  0  0  0  0
   18.6840   -1.0690   -7.5080 C   0  0  0  0  0
   18.1610   -2.3540   -8.0980 C   0  0  0  0  0
   19.0310   -3.4010   -7.6760 O   0  0  0  0  0
   16.8270   -2.7700   -7.5240 C   0  0  0  0  0
   15.7060   -2.2160   -8.1830 O   0  0  0  0  0
   16.8260   -4.2670   -7.6830 C   0  0  0  0  0
   16.4850   -4.6730   -8.9990 O   0  0  0  0  0
   18.2760   -4.6040   -7.4540 C   0  0  0  0  0
   18.4130   -4.9940   -6.0410 N   0  0  0  0  0
   18.9180   -4.2080   -5.0690 C   0  0  0  0  0
   18.9100   -4.8600   -3.8770 N   0  0  0  0  0
   18.3650   -6.0690   -4.1010 C   0  0  0  0  0
   18.0700   -7.2390   -3.2640 C   0  0  0  0  0
   18.3850   -7.1790   -1.9590 O   0  0  0  0  0
   17.4840   -8.3110   -3.8000 N   0  0  0  0  0
   17.1910   -8.3390   -5.1310 C   0  0  0  0  0
   16.6160   -9.4520   -5.6430 N   0  0  0  0  0
   17.4520   -7.2890   -5.9550 N   0  0  0  0  0
   18.0290   -6.1550   -5.5070 C   0  0  0  0  0
   13.6510   -0.7992   -8.9198 H   0  0  0  0  0
   14.1597    0.9984   -7.2525 H   0  0  0  0  0
   15.8345    0.4500   -7.5314 H   0  0  0  0  0
   15.8025    2.2841   -6.0263 H   0  0  0  0  0
   16.5726   -0.3885   -4.8792 H   0  0  0  0  0
   16.8908    0.5494   -2.6325 H   0  0  0  0  0
   17.0590    2.7483   -2.3119 H   0  0  0  0  0
   14.7400    2.2977   -2.7478 H   0  0  0  0  0
   13.4229   -0.6941   -4.3000 H   0  0  0  0  0
   14.3165   -1.7807    2.0957 H   0  0  0  0  0
   16.2510    1.1685    1.9386 H   0  0  0  0  0
   15.6778   -0.1628    2.9487 H   0  0  0  0  0
   18.3251   -0.9925   -3.4714 H   0  0  0  0  0
   19.6827   -0.8420   -7.8809 H   0  0  0  0  0
   18.0572   -0.2226   -7.7889 H   0  0  0  0  0
   18.0861   -2.1951   -9.1738 H   0  0  0  0  0
   16.7307   -2.4172   -6.4972 H   0  0  0  0  0
   16.1084   -4.7478   -7.0182 H   0  0  0  0  0
   16.4979   -5.6315   -9.0504 H   0  0  0  0  0
   18.6218   -5.4029   -8.1099 H   0  0  0  0  0
   19.2819   -3.1915   -5.2185 H   0  0  0  0  0
   17.2545   -9.1122   -3.2120 H   0  0  0  0  0
   16.3840   -9.4958   -6.6353 H   0  0  0  0  0
   16.4146  -10.2470   -5.0366 H   0  0  0  0  0
  1  2  1  0  0  0
  1  3  2  0  0  0
  1  4  1  0  0  0
  1 32  1  0  0  0
  4  5  1  0  0  0
  5  6  1  0  0  0
  6  7  1  0  0  0
  6  8  1  0  0  0
  7 12  1  0  0  0
  8  9  1  0  0  0
  8 10  1  0  0  0
  9 24  1  0  0  0
 10 11  1  0  0  0
 10 12  1  0  0  0
 12 13  1  0  0  0
 13 14  4  0  0  0
 13 23  4  0  0  0
 14 15  4  0  0  0
 15 16  4  0  0  0
 16 17  1  0  0  0
 16 23  4  0  0  0
 17 18  2  0  0  0
 17 19  1  0  0  0
 19 20  1  0  0  0
 20 21  1  0  0  0
 20 22  2  0  0  0
 22 23  1  0  0  0
 24 25  2  0  0  0
 24 26  1  0  0  0
 24 27  1  0  0  0
 27 28  1  0  0  0
 28 29  1  0  0  0
 29 30  1  0  0  0
 29 31  1  0  0  0
 30 35  1  0  0  0
 31 32  1  0  0  0
 31 33  1  0  0  0
 33 34  1  0  0  0
 33 35  1  0  0  0
 35 36  1  0  0  0
 36 37  4  0  0  0
 36 46  4  0  0  0
 37 38  4  0  0  0
 38 39  4  0  0  0
 39 40  1  0  0  0
 39 46  4  0  0  0
 40 41  2  0  0  0
 40 42  1  0  0  0
 42 43  1  0  0  0
 43 44  1  0  0  0
 43 45  2  0  0  0
 45 46  1  0  0  0
  2 47  1  0  0  0
  5 48  1  0  0  0
  5 49  1  0  0  0
  6 50  1  0  0  0
  8 51  1  0  0  0
 10 52  1  0  0  0
 11 53  1  0  0  0
 12 54  1  0  0  0
 14 55  1  0  0  0
 19 56  1  0  0  0
 21 57  1  0  0  0
 21 58  1  0  0  0
 26 59  1  0  0  0
 28 60  1  0  0  0
 28 61  1  0  0  0
 29 62  1  0  0  0
 31 63  1  0  0  0
 33 64  1  0  0  0
 34 65  1  0  0  0
 35 66  1  0  0  0
 37 67  1  0  0  0
 42 68  1  0  0  0
 44 69  1  0  0  0
 44 70  1  0  0  0
M  END
$$$$
