3mjl_ligand
  -I-interpret- 

 10 10  0  0  0  0  0  0  0  0999 V2000
   -3.4140  -24.2900   -4.8630 C   0  0  0  0  0
   -2.1770  -24.7370   -4.5510 C   0  0  0  0  0
   -1.3180  -24.0180   -5.3340 N   0  0  0  0  0
   -1.9830  -23.1690   -6.0880 C   0  0  0  0  0
   -3.2740  -23.3280   -5.8340 N   0  0  0  0  0
   -1.3620  -22.2890   -6.9900 N   0  0  0  0  0
   -4.3518  -24.6307   -4.4242 H   0  0  0  0  0
   -1.9187  -25.5093   -3.8265 H   0  0  0  0  0
   -0.3464  -22.2881   -7.0842 H   0  0  0  0  0
   -1.9268  -21.6510   -7.5507 H   0  0  0  0  0
  1  2  4  0  0  0
  1  5  4  0  0  0
  2  3  4  0  0  0
  3  4  4  0  0  0
  4  5  4  0  0  0
  4  6  1  0  0  0
  1  7  1  0  0  0
  2  8  1  0  0  0
  6  9  1  0  0  0
  6 10  1  0  0  0
M  END
$$$$
