### 
### Created by X-TOOL on Mon Sep 10 21:13:06 2018
### 

@<TRIPOS>MOLECULE
3qt7_ligand
   28    27     1     0     0
SMALL
GAST_HUCK


@<TRIPOS>ATOM
      1 OAA        16.7630  -23.6440  -18.3890 O.co2     1 FM0        -0.5689
      2 OAB        15.9520  -14.5410  -20.0410 O.co2     1 FM0        -0.5891
      3 OAC        17.9760  -18.6900  -19.5180 O.co2     1 FM0        -0.5556
      4 OAD        15.8770  -23.2580  -16.4250 O.co2     1 FM0        -0.5689
      5 OAE        15.0760  -23.1430  -20.5210 O.3       1 FM0        -0.3842
      6 OAF        17.4640  -15.5300  -18.4030 O.co2     1 FM0        -0.5891
      7 OAG        18.0800  -15.6950  -20.8110 O.co2     1 FM0        -0.5891
      8 OAH        16.7890  -18.5750  -21.7230 O.co2     1 FM0        -0.5556
      9 FAI        12.5020  -22.7510  -21.4000 F         1 FM0        -0.2460
     10 CAJ        12.8150  -23.2140  -20.1750 C.3       1 FM0         0.1204
     11 CAK        15.5000  -20.6620  -19.7490 C.3       1 FM0         0.0872
     12 CAL        14.1600  -21.3100  -19.4600 C.3       1 FM0         0.0087
     13 CAM        14.3400  -23.4040  -18.2220 C.3       1 FM0         0.0316
     14 OAN        15.5530  -19.3010  -19.5710 O.3       1 FM0        -0.2462
     15 OAO        16.1140  -16.9620  -19.8450 O.3       1 FM0        -0.1548
     16 CAP        15.7370  -23.4360  -17.6580 C.2       1 FM0         0.0376
     17 CAQ        14.1090  -22.7790  -19.5890 C.3       1 FM0         0.1077
     18 PAR        16.9380  -15.6560  -19.8100 P.3       1 FM0         0.2069
     19 PAS        16.6630  -18.3750  -20.2240 P.3       1 FM0         0.3275
     20 H          15.9428  -22.8865  -20.1979 H         1 FM0         0.2104
     21 H          12.8889  -24.2964  -20.2799 H         1 FM0         0.0645
     22 H          12.0451  -22.8256  -19.5084 H         1 FM0         0.0645
     23 H          15.7107  -20.8443  -20.8028 H         1 FM0         0.0622
     24 H          16.2106  -21.0938  -19.0442 H         1 FM0         0.0622
     25 H          13.4634  -20.9140  -20.1989 H         1 FM0         0.0321
     26 H          13.9310  -21.0866  -18.4180 H         1 FM0         0.0321
     27 H          13.7727  -22.7816  -17.5299 H         1 FM0         0.0459
     28 H          14.0624  -24.4512  -18.3422 H         1 FM0         0.0459
@<TRIPOS>BOND
     1   16    1 ar 
     2   18    2 ar 
     3   19    3 ar 
     4   16    4 ar 
     5   17    5 1  
     6   18    6 ar 
     7   18    7 ar 
     8   19    8 ar 
     9   10    9 1  
    10   17   10 1  
    11   11   12 1  
    12   14   11 1  
    13   12   17 1  
    14   13   16 1  
    15   17   13 1  
    16   19   14 1  
    17   15   18 1  
    18   15   19 1  
    19    5   20 1  
    20   10   21 1  
    21   10   22 1  
    22   11   23 1  
    23   11   24 1  
    24   12   25 1  
    25   12   26 1  
    26   13   27 1  
    27   13   28 1  
@<TRIPOS>SUBSTRUCTURE
     1 FM0         1

