3qt7_ligand
  -I-interpret- 

 32 31  0  0  0  0  0  0  0  0999 V2000
   16.7630  -23.6440  -18.3890 O   0  0  0  0  0
   15.9520  -14.5410  -20.0410 O   0  0  0  0  0
   17.9760  -18.6900  -19.5180 O   0  0  0  0  0
   15.8770  -23.2580  -16.4250 O   0  0  0  0  0
   15.0760  -23.1430  -20.5210 O   0  0  0  0  0
   17.4640  -15.5300  -18.4030 O   0  0  0  0  0
   18.0800  -15.6950  -20.8110 O   0  0  0  0  0
   16.7890  -18.5750  -21.7230 O   0  0  0  0  0
   12.5020  -22.7510  -21.4000 F   0  0  0  0  0
   12.8150  -23.2140  -20.1750 C   0  0  0  0  0
   15.5000  -20.6620  -19.7490 C   0  0  0  0  0
   14.1600  -21.3100  -19.4600 C   0  0  0  0  0
   14.3400  -23.4040  -18.2220 C   0  0  0  0  0
   15.5530  -19.3010  -19.5710 O   0  0  0  0  0
   16.1140  -16.9620  -19.8450 O   0  0  0  0  0
   15.7370  -23.4360  -17.6580 C   0  0  0  0  0
   14.1090  -22.7790  -19.5890 C   0  0  0  0  0
   16.9380  -15.6560  -19.8100 P   0  0  0  0  0
   16.6630  -18.3750  -20.2240 P   0  0  0  0  0
   16.4866  -23.7597  -19.3010 H   0  0  0  0  0
   17.8702  -18.5561  -18.5733 H   0  0  0  0  0
   15.9428  -22.8865  -20.1979 H   0  0  0  0  0
   18.0957  -16.2329  -18.2346 H   0  0  0  0  0
   18.6636  -16.4277  -20.6006 H   0  0  0  0  0
   12.8889  -24.2964  -20.2799 H   0  0  0  0  0
   12.0451  -22.8256  -19.5084 H   0  0  0  0  0
   15.7107  -20.8443  -20.8028 H   0  0  0  0  0
   16.2106  -21.0938  -19.0442 H   0  0  0  0  0
   13.4634  -20.9140  -20.1989 H   0  0  0  0  0
   13.9310  -21.0866  -18.4180 H   0  0  0  0  0
   13.7727  -22.7816  -17.5299 H   0  0  0  0  0
   14.0624  -24.4512  -18.3422 H   0  0  0  0  0
 16  1  1  0  0  0
 18  2  2  0  0  0
 19  3  1  0  0  0
 16  4  2  0  0  0
 17  5  1  0  0  0
 18  6  1  0  0  0
 18  7  1  0  0  0
 19  8  2  0  0  0
 10  9  1  0  0  0
 17 10  1  0  0  0
 11 12  1  0  0  0
 14 11  1  0  0  0
 12 17  1  0  0  0
 13 16  1  0  0  0
 17 13  1  0  0  0
 19 14  1  0  0  0
 15 18  1  0  0  0
 15 19  1  0  0  0
  1 20  1  0  0  0
  3 21  1  0  0  0
  5 22  1  0  0  0
  6 23  1  0  0  0
  7 24  1  0  0  0
 10 25  1  0  0  0
 10 26  1  0  0  0
 11 27  1  0  0  0
 11 28  1  0  0  0
 12 29  1  0  0  0
 12 30  1  0  0  0
 13 31  1  0  0  0
 13 32  1  0  0  0
M  END
$$$$
