6pu3_ligand
  -I-interpret- 

 50 49  0  0  0  0  0  0  0  0999 V2000
   64.0270    3.6070   15.8860 N   0  3  0  0  0
   64.3720    3.6260   14.4410 C   0  0  0  0  0
   63.5940    2.5100   13.7520 C   0  0  0  0  0
   63.2940    1.4640   14.3230 O   0  0  0  0  0
   65.8950    3.5100   14.2070 C   0  0  0  0  0
   66.3610    2.3550   14.9110 O   0  0  0  0  0
   63.2320    2.7660   12.4990 N   0  0  0  0  0
   62.5530    1.7950   11.6810 C   0  0  0  0  0
   63.4540    0.6010   11.3340 C   0  0  0  0  0
   64.6200    0.7890   10.9610 O   0  0  0  0  0
   62.1790    2.4530   10.3440 C   0  0  0  0  0
   61.5280    3.6980   10.6060 O   0  0  0  0  0
   61.2420    1.6200    9.5790 C   0  0  0  0  0
   62.8940   -0.5980   11.4760 N   0  0  0  0  0
   63.5910   -1.8730   11.2380 C   0  0  0  0  0
   62.7320   -2.7970   10.3770 C   0  0  0  0  0
   61.5040   -2.7210   10.4300 O   0  0  0  0  0
   63.7540   -2.7070   12.5220 C   0  0  0  0  0
   64.4180   -1.9400   13.4870 O   0  0  0  0  0
   63.4090   -3.6810    9.6480 N   0  0  0  0  0
   62.8220   -4.5600    8.6290 C   0  0  0  0  0
   62.7990   -5.9440    9.2430 C   0  0  0  0  0
   62.0840   -6.4120   10.1240 O   0  0  0  0  0
   63.6950   -4.5830    7.3640 C   0  0  0  0  0
   63.7270   -6.5880    8.7740 O   0  0  0  0  0
   63.0158    3.6856   15.9940 H   0  0  0  0  0
   64.3472    2.7312   16.2993 H   0  0  0  0  0
   64.4820    4.3912   16.3533 H   0  0  0  0  0
   64.0874    4.5853   14.0088 H   0  0  0  0  0
   66.4020    4.4038   14.5704 H   0  0  0  0  0
   66.1072    3.4143   13.1422 H   0  0  0  0  0
   67.3075    2.2621   14.7800 H   0  0  0  0  0
   63.4425    3.6822   12.1032 H   0  0  0  0  0
   61.6856    1.4490   12.2431 H   0  0  0  0  0
   63.0956    2.5870    9.7696 H   0  0  0  0  0
   61.2912    4.1152    9.7745 H   0  0  0  0  0
   60.3365    1.4621   10.1649 H   0  0  0  0  0
   60.9892    2.1231    8.6457 H   0  0  0  0  0
   61.7073    0.6588    9.3607 H   0  0  0  0  0
   61.9177   -0.6362   11.7690 H   0  0  0  0  0
   64.5445   -1.5852   10.7952 H   0  0  0  0  0
   64.3339   -3.6040   12.3048 H   0  0  0  0  0
   62.7726   -2.9975   12.8969 H   0  0  0  0  0
   64.5215   -2.4569   14.2893 H   0  0  0  0  0
   64.4135   -3.7535    9.8097 H   0  0  0  0  0
   61.8288   -4.2157    8.3406 H   0  0  0  0  0
   61.4141   -5.7685   10.3663 H   0  0  0  0  0
   63.7715   -3.5741    6.9585 H   0  0  0  0  0
   64.6895   -4.9506    7.6170 H   0  0  0  0  0
   63.2409   -5.2405    6.6226 H   0  0  0  0  0
  1  2  1  0  0  0
  2  3  1  0  0  0
  2  5  1  0  0  0
  3  4  2  0  0  0
  3  7  1  0  0  0
  5  6  1  0  0  0
  7  8  1  0  0  0
  8  9  1  0  0  0
  8 11  1  0  0  0
  9 10  2  0  0  0
  9 14  1  0  0  0
 11 12  1  0  0  0
 11 13  1  0  0  0
 14 15  1  0  0  0
 15 16  1  0  0  0
 15 18  1  0  0  0
 16 17  2  0  0  0
 16 20  1  0  0  0
 18 19  1  0  0  0
 20 21  1  0  0  0
 21 22  1  0  0  0
 21 24  1  0  0  0
 22 23  1  0  0  0
 22 25  2  0  0  0
  1 26  1  0  0  0
  1 27  1  0  0  0
  1 28  1  0  0  0
  2 29  1  0  0  0
  5 30  1  0  0  0
  5 31  1  0  0  0
  6 32  1  0  0  0
  7 33  1  0  0  0
  8 34  1  0  0  0
 11 35  1  0  0  0
 12 36  1  0  0  0
 13 37  1  0  0  0
 13 38  1  0  0  0
 13 39  1  0  0  0
 14 40  1  0  0  0
 15 41  1  0  0  0
 18 42  1  0  0  0
 18 43  1  0  0  0
 19 44  1  0  0  0
 20 45  1  0  0  0
 21 46  1  0  0  0
 23 47  1  0  0  0
 24 48  1  0  0  0
 24 49  1  0  0  0
 24 50  1  0  0  0
M  END
$$$$
