5cs5_ligand
  -I-interpret- 

 38 38  0  0  0  0  0  0  0  0999 V2000
   -5.7280   29.6210  -13.0170 C   0  0  0  0  0
   -5.2890   29.4700  -11.5630 C   0  0  0  0  0
   -4.2700   28.4300  -11.5250 N   0  3  0  0  0
   -4.4630   27.1670  -12.2420 C   0  0  0  0  0
   -3.0650   28.6750  -10.7430 C   0  0  0  0  0
   -1.3250   24.8810   -9.8040 C   0  0  0  0  0
   -1.3190   25.4410  -11.2260 C   0  0  0  0  0
   -2.3630   26.4570  -11.3110 N   0  3  0  0  0
   -2.6700   27.3190  -10.1670 C   0  0  0  0  0
   -3.0830   26.5990  -12.5760 C   0  0  0  0  0
   -5.5700   31.1950  -13.5270 S   0  0  0  0  0
    0.1660   25.0850   -9.0950 S   0  0  0  0  0
   -4.1540   31.6190  -13.4420 O   0  0  0  0  0
   -5.9980   31.2750  -14.9430 O   0  0  0  0  0
   -6.4230   32.0740  -12.6960 O   0  0  0  0  0
    1.2060   24.4550   -9.9420 O   0  0  0  0  0
    0.4520   26.5320   -8.9700 O   0  0  0  0  0
    0.1770   24.4660   -7.7460 O   0  0  0  0  0
   -6.7756   29.3309  -13.0978 H   0  0  0  0  0
   -5.0975   28.9867  -13.6401 H   0  0  0  0  0
   -6.1363   29.1996  -10.9329 H   0  0  0  0  0
   -4.8908   30.4109  -11.1832 H   0  0  0  0  0
   -4.1162   27.7353  -12.2558 H   0  0  0  0  0
   -5.0326   27.3355  -13.1559 H   0  0  0  0  0
   -5.0206   26.4637  -11.6235 H   0  0  0  0  0
   -3.2422   29.4072   -9.9552 H   0  0  0  0  0
   -2.2687   29.0951  -11.3575 H   0  0  0  0  0
   -1.5576   23.8168   -9.8422 H   0  0  0  0  0
   -2.0736   25.4121   -9.2161 H   0  0  0  0  0
   -1.5068   24.6449  -11.9465 H   0  0  0  0  0
   -0.3471   25.8776  -11.4562 H   0  0  0  0  0
   -2.8079   26.8093  -10.4634 H   0  0  0  0  0
   -3.4770   26.8992   -9.5665 H   0  0  0  0  0
   -1.8092   27.4112   -9.5047 H   0  0  0  0  0
   -2.5459   27.2626  -13.2537 H   0  0  0  0  0
   -3.1731   25.6363  -13.0792 H   0  0  0  0  0
   -6.9158   31.0027  -15.0146 H   0  0  0  0  0
   -0.4980   24.8771   -7.2010 H   0  0  0  0  0
  2  1  1  0  0  0
  1 11  1  0  0  0
  3  2  1  0  0  0
  3  4  1  0  0  0
  5  3  1  0  0  0
  4 10  1  0  0  0
  9  5  1  0  0  0
  7  6  1  0  0  0
  6 12  1  0  0  0
  8  7  1  0  0  0
  8  9  1  0  0  0
  8 10  1  0  0  0
 11 13  2  0  0  0
 11 14  1  0  0  0
 11 15  2  0  0  0
 12 16  2  0  0  0
 12 17  2  0  0  0
 12 18  1  0  0  0
  1 19  1  0  0  0
  1 20  1  0  0  0
  2 21  1  0  0  0
  2 22  1  0  0  0
  3 23  1  0  0  0
  4 24  1  0  0  0
  4 25  1  0  0  0
  5 26  1  0  0  0
  5 27  1  0  0  0
  6 28  1  0  0  0
  6 29  1  0  0  0
  7 30  1  0  0  0
  7 31  1  0  0  0
  8 32  1  0  0  0
  9 33  1  0  0  0
  9 34  1  0  0  0
 10 35  1  0  0  0
 10 36  1  0  0  0
 14 37  1  0  0  0
 18 38  1  0  0  0
M  END
$$$$
