4d9p_ligand
  -I-interpret- 

 34 35  0  0  0  0  0  0  0  0999 V2000
  -11.8640   26.7250    9.5380 C   0  0  0  0  0
  -13.2480   26.6130   10.1000 C   0  0  0  0  0
  -13.2860   27.2900    5.9880 C   0  0  0  0  0
  -16.6900   24.3970    2.3710 N   0  0  0  0  0
  -15.5880   26.5570    3.0140 N   0  0  0  0  0
  -14.1450   23.2880    6.5820 C   0  0  0  0  0
  -12.7260   26.5460    7.1400 C   0  0  0  0  0
  -10.3880   27.0790    7.6910 C   0  0  0  0  0
  -12.9960   28.6130    5.8320 O   0  0  0  0  0
  -13.0380   25.2870    7.2560 N   0  0  0  0  0
  -13.6240   25.4770   10.5140 O   0  0  0  0  0
  -15.8560   25.1520    3.2490 C   0  0  0  0  0
  -14.5190   28.5930    3.6090 O   0  0  0  0  0
  -15.2800   24.5620    4.3600 N   0  0  0  0  0
  -14.0190   27.6220   10.1270 O   0  0  0  0  0
  -14.4650   25.2800    5.2040 C   0  0  0  0  0
  -14.1750   26.6140    5.0040 C   0  0  0  0  0
  -13.8570   24.6730    6.3600 N   0  0  0  0  0
  -14.7590   27.2720    3.8670 C   0  0  0  0  0
  -11.8140   27.2400    8.1270 C   0  0  0  0  0
  -11.4371   25.7221    9.5304 H   0  0  0  0  0
  -11.3201   27.4359   10.1600 H   0  0  0  0  0
  -16.8675   23.4103    2.5591 H   0  0  0  0  0
  -17.1086   24.8440    1.5553 H   0  0  0  0  0
  -16.0130   27.0250    2.2135 H   0  0  0  0  0
  -13.2159   22.7182    6.5676 H   0  0  0  0  0
  -14.6302   23.1699    7.5509 H   0  0  0  0  0
  -14.8073   22.9254    5.7959 H   0  0  0  0  0
  -10.1394   26.0185    7.6501 H   0  0  0  0  0
  -10.2591   27.5220    6.7035 H   0  0  0  0  0
   -9.7328   27.5798    8.4037 H   0  0  0  0  0
  -13.4324   28.9443    5.0437 H   0  0  0  0  0
  -13.5570   28.3859    9.7739 H   0  0  0  0  0
  -12.1705   28.2701    8.1320 H   0  0  0  0  0
  1  2  1  0  0  0
 20  1  1  0  0  0
  2 11  2  0  0  0
  2 15  1  0  0  0
  3  7  4  0  0  0
  3  9  1  0  0  0
 17  3  4  0  0  0
 12  4  1  0  0  0
 12  5  1  0  0  0
  5 19  1  0  0  0
 18  6  1  0  0  0
  7 10  4  0  0  0
  7 20  1  0  0  0
 20  8  1  0  0  0
 10 18  4  0  0  0
 14 12  2  0  0  0
 19 13  2  0  0  0
 16 14  1  0  0  0
 16 17  4  0  0  0
 16 18  4  0  0  0
 17 19  1  0  0  0
  1 21  1  0  0  0
  1 22  1  0  0  0
  4 23  1  0  0  0
  4 24  1  0  0  0
  5 25  1  0  0  0
  6 26  1  0  0  0
  6 27  1  0  0  0
  6 28  1  0  0  0
  8 29  1  0  0  0
  8 30  1  0  0  0
  8 31  1  0  0  0
  9 32  1  0  0  0
 15 33  1  0  0  0
 20 34  1  0  0  0
M  END
$$$$
