4u5l_ligand
  -I-interpret- 

 49 50  0  0  0  0  0  0  0  0999 V2000
    2.2370   37.7880   11.4050 C   0  0  0  0  0
    1.3280   34.4980   13.1450 C   0  0  0  0  0
   -0.0130   32.4690   12.3490 C   0  0  0  0  0
    0.1580   30.2220   13.1320 C   0  0  0  0  0
   -1.2770   32.1810   11.8380 C   0  0  0  0  0
    0.3770   34.4880   10.9270 C   0  0  0  0  0
    0.9110   35.7430   10.7120 C   0  0  0  0  0
    3.2580   40.3310    7.9050 N   0  0  0  0  0
    3.4260   39.7190    9.2210 C   0  0  0  0  0
    3.5650   38.1820    9.3440 C   0  0  0  0  0
    2.5030   37.4750    8.4770 C   0  0  0  0  0
    2.9900   36.8480    7.1600 C   0  0  0  0  0
    1.9700   37.0190    6.0210 C   0  0  0  0  0
    1.9430   38.4500    5.4430 C   0  0  0  0  0
    0.9850   38.6300    4.3500 N   0  3  0  0  0
    3.5440   37.7100   10.7440 N   0  3  0  0  0
    1.6570   36.3910   11.6980 C   0  0  0  0  0
    1.8630   35.7660   12.9270 C   0  0  0  0  0
    0.5810   33.8650   12.1520 C   0  0  0  0  0
    0.7360   31.4830   12.9960 C   0  0  0  0  0
   -1.1150   30.0000   12.6120 C   0  0  0  0  0
   -1.7790   30.9690   11.9940 N   0  0  0  0  0
    3.4570   40.4270   10.1810 O   0  0  0  0  0
    1.5489   38.3113   10.7411 H   0  0  0  0  0
    2.3641   38.3110   12.3529 H   0  0  0  0  0
    1.4946   33.9972   14.0987 H   0  0  0  0  0
    0.6951   29.4201   13.6386 H   0  0  0  0  0
   -1.8464   32.9488   11.3143 H   0  0  0  0  0
   -0.1978   33.9919   10.1450 H   0  0  0  0  0
    0.7470   36.2371    9.7543 H   0  0  0  0  0
    3.1701   41.3437    7.8210 H   0  0  0  0  0
    3.2287   39.7455    7.0703 H   0  0  0  0  0
    4.5508   37.9146    8.9634 H   0  0  0  0  0
    1.7854   38.2454    8.1948 H   0  0  0  0  0
    2.1250   36.6495    9.0801 H   0  0  0  0  0
    3.1357   35.7807    7.3266 H   0  0  0  0  0
    3.9122   37.3497    6.8668 H   0  0  0  0  0
    0.9810   36.8069    6.4272 H   0  0  0  0  0
    2.2554   36.3417    5.2160 H   0  0  0  0  0
    2.9353   38.6566    5.0419 H   0  0  0  0  0
    1.6447   39.1200    6.2494 H   0  0  0  0  0
    1.0236   39.5947    4.0211 H   0  0  0  0  0
    1.2218   37.9988    3.5846 H   0  0  0  0  0
    0.0447   38.4214    4.6858 H   0  0  0  0  0
    3.8067   36.7246   10.7265 H   0  0  0  0  0
    4.1757   38.3154   11.2683 H   0  0  0  0  0
    2.4364   36.2639   13.7090 H   0  0  0  0  0
    1.7345   31.6919   13.3799 H   0  0  0  0  0
   -1.5726   29.0160   12.7141 H   0  0  0  0  0
 16  1  1  0  0  0
  1 17  1  0  0  0
  2 18  4  0  0  0
 19  2  4  0  0  0
  3  5  4  0  0  0
 19  3  1  0  0  0
  3 20  4  0  0  0
 20  4  4  0  0  0
  4 21  4  0  0  0
  5 22  4  0  0  0
  7  6  4  0  0  0
  6 19  4  0  0  0
 17  7  4  0  0  0
  9  8  1  0  0  0
 10  9  1  0  0  0
  9 23  2  0  0  0
 10 11  1  0  0  0
 10 16  1  0  0  0
 11 12  1  0  0  0
 12 13  1  0  0  0
 13 14  1  0  0  0
 14 15  1  0  0  0
 17 18  4  0  0  0
 21 22  4  0  0  0
  1 24  1  0  0  0
  1 25  1  0  0  0
  2 26  1  0  0  0
  4 27  1  0  0  0
  5 28  1  0  0  0
  6 29  1  0  0  0
  7 30  1  0  0  0
  8 31  1  0  0  0
  8 32  1  0  0  0
 10 33  1  0  0  0
 11 34  1  0  0  0
 11 35  1  0  0  0
 12 36  1  0  0  0
 12 37  1  0  0  0
 13 38  1  0  0  0
 13 39  1  0  0  0
 14 40  1  0  0  0
 14 41  1  0  0  0
 15 42  1  0  0  0
 15 43  1  0  0  0
 15 44  1  0  0  0
 16 45  1  0  0  0
 16 46  1  0  0  0
 18 47  1  0  0  0
 20 48  1  0  0  0
 21 49  1  0  0  0
M  END
$$$$
