2vrj_ligand
  -I-interpret- 

 50 51  0  0  0  0  0  0  0  0999 V2000
    0.2420    7.8640   11.4280 S   0  0  0  0  0
   -0.6110    7.9650   10.0870 C   0  0  0  0  0
   -1.2620    9.0930    9.7300 N   0  0  0  0  0
   -2.0640    9.2390    8.5310 C   0  0  0  0  0
   -1.1450   10.0620    7.6440 C   0  0  0  0  0
   -1.9100   10.3860    6.4730 O   0  0  0  0  0
   -0.5970   11.3480    8.3160 C   0  0  0  0  0
    0.5910   11.8390    7.6950 O   0  0  0  0  0
   -0.2190   11.1670    9.7920 C   0  0  0  0  0
    0.0160   12.4530   10.4040 O   0  0  0  0  0
   -3.1740   10.1240    9.0590 C   0  0  0  0  0
   -2.6060   10.8130   10.1920 O   0  0  0  0  0
   -1.2890   10.3230   10.4910 C   0  0  0  0  0
   -0.6770    6.8830    9.3030 N   0  0  0  0  0
    0.3010    5.8010    9.3510 C   0  0  0  0  0
   -0.2490    4.5530    8.6730 C   0  0  0  0  0
   -0.8990    4.8970    7.3310 C   0  0  0  0  0
   -0.3780    4.0570    6.1870 C   0  0  0  0  0
    1.1570    4.2110    6.1560 C   0  0  0  0  0
    1.7700    2.9700    6.5910 C   0  0  0  0  0
    0.6890    1.8730    6.4360 C   0  0  0  0  0
    1.0310    0.7550    7.3610 C   0  0  0  0  0
   -2.4324    8.3505    8.0182 H   0  0  0  0  0
   -0.2532    9.4786    7.4150 H   0  0  0  0  0
   -2.2391    9.5776    6.0734 H   0  0  0  0  0
   -1.4309   12.0416    8.2082 H   0  0  0  0  0
    0.4278   11.9773    6.7591 H   0  0  0  0  0
    0.7179   10.6186    9.8898 H   0  0  0  0  0
    0.2516   12.3289   11.3263 H   0  0  0  0  0
   -4.0508    9.5416    9.3422 H   0  0  0  0  0
   -3.5252   10.8227    8.2997 H   0  0  0  0  0
   -1.1090   10.2852   11.5654 H   0  0  0  0  0
   -1.4483    6.8108    8.6395 H   0  0  0  0  0
    0.5215    5.5694   10.3930 H   0  0  0  0  0
    1.2046    6.1175    8.8300 H   0  0  0  0  0
   -1.0028    4.1068    9.3217 H   0  0  0  0  0
    0.5741    3.8610    8.4949 H   0  0  0  0  0
   -0.6684    5.9389    7.1087 H   0  0  0  0  0
   -1.9682    4.7058    7.4222 H   0  0  0  0  0
   -0.8124    4.3881    5.2437 H   0  0  0  0  0
   -0.6524    3.0115    6.3274 H   0  0  0  0  0
    1.4569    5.0202    6.8219 H   0  0  0  0  0
    1.4809    4.4429    5.1414 H   0  0  0  0  0
    2.1099    3.0420    7.6242 H   0  0  0  0  0
    2.6519    2.7382    5.9938 H   0  0  0  0  0
    0.6608    1.5150    5.4069 H   0  0  0  0  0
   -0.2940    2.2760    6.6797 H   0  0  0  0  0
    2.0119    0.3571    7.1009 H   0  0  0  0  0
    1.0479    1.1254    8.3860 H   0  0  0  0  0
    0.2824   -0.0320    7.2700 H   0  0  0  0  0
  1  2  2  0  0  0
  2  3  1  0  0  0
  2 14  1  0  0  0
  3  4  1  0  0  0
  3 13  1  0  0  0
  4  5  1  0  0  0
  4 11  1  0  0  0
  5  6  1  0  0  0
  5  7  1  0  0  0
  7  8  1  0  0  0
  7  9  1  0  0  0
  9 10  1  0  0  0
  9 13  1  0  0  0
 11 12  1  0  0  0
 12 13  1  0  0  0
 14 15  1  0  0  0
 15 16  1  0  0  0
 16 17  1  0  0  0
 17 18  1  0  0  0
 18 19  1  0  0  0
 19 20  1  0  0  0
 20 21  1  0  0  0
 21 22  1  0  0  0
  4 23  1  0  0  0
  5 24  1  0  0  0
  6 25  1  0  0  0
  7 26  1  0  0  0
  8 27  1  0  0  0
  9 28  1  0  0  0
 10 29  1  0  0  0
 11 30  1  0  0  0
 11 31  1  0  0  0
 13 32  1  0  0  0
 14 33  1  0  0  0
 15 34  1  0  0  0
 15 35  1  0  0  0
 16 36  1  0  0  0
 16 37  1  0  0  0
 17 38  1  0  0  0
 17 39  1  0  0  0
 18 40  1  0  0  0
 18 41  1  0  0  0
 19 42  1  0  0  0
 19 43  1  0  0  0
 20 44  1  0  0  0
 20 45  1  0  0  0
 21 46  1  0  0  0
 21 47  1  0  0  0
 22 48  1  0  0  0
 22 49  1  0  0  0
 22 50  1  0  0  0
M  END
$$$$
