2vwv_ligand
  -I-interpret- 

 49 51  0  0  0  0  0  0  0  0999 V2000
    4.6200    7.5380   10.2290 C   0  0  0  0  0
    5.8290    8.1920   10.6290 O   0  0  0  0  0
    6.7650    7.2030   10.9290 C   0  0  0  0  0
    6.5140    5.8460   10.7380 C   0  0  0  0  0
    7.4760    4.9000   11.0700 C   0  0  0  0  0
    8.6950    5.2970   11.5850 C   0  0  0  0  0
    9.5950    4.2720   11.9100 N   0  0  0  0  0
   10.9570    4.4250   12.0500 C   0  0  0  0  0
   11.6580    3.3300   12.4550 N   0  0  0  0  0
   12.9590    3.3990   12.6130 C   0  0  0  0  0
   13.5870    4.5480   12.3580 N   0  0  0  0  0
   12.9070    5.6320   11.9420 C   0  0  0  0  0
   13.6330    6.7920   11.6920 N   0  0  0  0  0
   13.0710    7.9500   11.1280 C   0  0  0  0  0
   11.9330    7.9350   10.2940 C   0  0  0  0  0
   11.4880    9.1630    9.7780 C   0  0  0  0  0
   10.3910    9.3030    8.9750 O   0  0  0  0  0
    9.9090    8.1080    8.3260 C   0  0  0  0  0
   12.1810   10.3510   10.0890 C   0  0  0  0  0
   11.8010   11.5740    9.5990 O   0  0  0  0  0
   10.7570   12.0560   10.4620 C   0  0  0  0  0
   13.3130   10.3510   10.8950 C   0  0  0  0  0
   13.9200   11.5750   11.1290 O   0  0  0  0  0
   15.0100   11.5310   12.0760 C   0  0  0  0  0
   13.7450    9.1440   11.3970 C   0  0  0  0  0
   11.5710    5.5910   11.7770 N   0  0  0  0  0
    8.9680    6.6560   11.7840 C   0  0  0  0  0
    7.9880    7.5750   11.4510 C   0  0  0  0  0
    8.2690    9.2510   11.6370 Cl  0  0  0  0  0
    4.8153    6.9208    9.3521 H   0  0  0  0  0
    4.2613    6.9099   11.0444 H   0  0  0  0  0
    3.8661    8.2871    9.9871 H   0  0  0  0  0
    5.5575    5.5246   10.3258 H   0  0  0  0  0
    7.2680    3.8401   10.9235 H   0  0  0  0  0
    9.2105    3.3383   12.0543 H   0  0  0  0  0
   13.5203    2.5271   12.9489 H   0  0  0  0  0
   14.6247    6.8026   11.9304 H   0  0  0  0  0
   11.4178    7.0037   10.0587 H   0  0  0  0  0
   10.6939    7.7002    7.6891 H   0  0  0  0  0
    9.6331    7.3720    9.0812 H   0  0  0  0  0
    9.0371    8.3522    7.7191 H   0  0  0  0  0
    9.9227   11.3547   10.4476 H   0  0  0  0  0
   11.1402   12.1460   11.4785 H   0  0  0  0  0
   10.4194   13.0315   10.1119 H   0  0  0  0  0
   14.6411   11.1703   13.0362 H   0  0  0  0  0
   15.7837   10.8579   11.7065 H   0  0  0  0  0
   15.4248   12.5317   12.1973 H   0  0  0  0  0
   14.6378    9.1192   12.0218 H   0  0  0  0  0
    9.9259    6.9812   12.1900 H   0  0  0  0  0
  1  2  1  0  0  0
  2  3  1  0  0  0
  3  4  4  0  0  0
  3 28  4  0  0  0
  4  5  4  0  0  0
  5  6  4  0  0  0
  6  7  1  0  0  0
  6 27  4  0  0  0
  7  8  1  0  0  0
  8  9  4  0  0  0
  8 26  4  0  0  0
  9 10  4  0  0  0
 10 11  4  0  0  0
 11 12  4  0  0  0
 12 13  1  0  0  0
 12 26  4  0  0  0
 13 14  1  0  0  0
 14 15  4  0  0  0
 14 25  4  0  0  0
 15 16  4  0  0  0
 16 17  1  0  0  0
 16 19  4  0  0  0
 17 18  1  0  0  0
 19 20  1  0  0  0
 19 22  4  0  0  0
 20 21  1  0  0  0
 22 23  1  0  0  0
 22 25  4  0  0  0
 23 24  1  0  0  0
 27 28  4  0  0  0
 28 29  1  0  0  0
  1 30  1  0  0  0
  1 31  1  0  0  0
  1 32  1  0  0  0
  4 33  1  0  0  0
  5 34  1  0  0  0
  7 35  1  0  0  0
 10 36  1  0  0  0
 13 37  1  0  0  0
 15 38  1  0  0  0
 18 39  1  0  0  0
 18 40  1  0  0  0
 18 41  1  0  0  0
 21 42  1  0  0  0
 21 43  1  0  0  0
 21 44  1  0  0  0
 24 45  1  0  0  0
 24 46  1  0  0  0
 24 47  1  0  0  0
 25 48  1  0  0  0
 27 49  1  0  0  0
M  END
$$$$
