### 
### Created by X-TOOL on Wed Jan  1 15:39:36 2020
### 

@<TRIPOS>MOLECULE
6atv_ligand
  243   247     1     0     0
SMALL
GAST_HUCK


@<TRIPOS>ATOM
      1 C           4.5430   29.1570    5.3220 C.2       1 ACE         0.1752
      2 O           5.5840   29.3530    4.7000 O.2       1 ACE        -0.3972
      3 CH3         4.0550   30.0860    6.3910 C.3       1 ACE         0.0258
      4 N           3.7620   28.1110    5.0950 N.am      1 TYR        -0.2643
      5 CA          4.1120   27.1150    4.0900 C.3       1 TYR         0.1389
      6 C           4.0010   27.6250    2.6560 C.2       1 TYR         0.2055
      7 O           4.7110   27.1410    1.7730 O.2       1 TYR        -0.3942
      8 CB          3.2340   25.8730    4.2610 C.3       1 TYR         0.0163
      9 CG          3.6120   24.7120    3.3630 C.ar      1 TYR        -0.0493
     10 CD1         4.8550   24.0940    3.4720 C.ar      1 TYR        -0.0685
     11 CD2         2.7220   24.2240    2.4230 C.ar      1 TYR        -0.0685
     12 CE1         5.2030   23.0210    2.6530 C.ar      1 TYR        -0.0398
     13 CE2         3.0570   23.1550    1.6050 C.ar      1 TYR        -0.0398
     14 CZ          4.2990   22.5580    1.7260 C.ar      1 TYR         0.0805
     15 OH          4.6470   21.4990    0.9110 O.3       1 TYR        -0.3376
     16 N           3.1110   28.5940    2.4260 N.am      1 GLY        -0.2663
     17 CA          2.8790   29.0650    1.0680 C.3       1 GLY         0.1201
     18 C           2.2410   27.9750    0.2170 C.2       1 GLY         0.2007
     19 O           1.5640   27.0750    0.7230 O.2       1 GLY        -0.3947
     20 N           2.4660   28.0530   -1.0970 N.am      1 ARG        -0.2640
     21 CA          2.0270   27.0070   -2.0230 C.3       1 ARG         0.1313
     22 C           3.2380   26.3940   -2.7100 C.2       1 ARG         0.2064
     23 O           4.0170   27.1200   -3.3540 O.2       1 ARG        -0.3942
     24 CB          1.0390   27.5240   -3.0750 C.3       1 ARG        -0.0092
     25 CG          0.5300   26.3880   -3.9750 C.3       1 ARG        -0.0156
     26 CD         -0.6120   26.7890   -4.8800 C.3       1 ARG         0.0627
     27 NE         -0.1670   27.5960   -6.0090 N.pl3     1 ARG        -0.2723
     28 CZ         -0.3060   28.9130   -6.0720 C.cat     1 ARG         0.2882
     29 NH1        -0.8900   29.5610   -5.0730 N.pl3     1 ARG        -0.2849
     30 NH2         0.1270   29.5850   -7.1330 N.pl3     1 ARG        -0.2849
     31 N           3.4280   25.0830   -2.6200 N.am      1 PRO        -0.2498
     32 CA          4.5860   24.4450   -3.2430 C.3       1 PRO         0.1340
     33 C           4.4410   24.4270   -4.7540 C.2       1 PRO         0.2066
     34 O           3.3170   24.4770   -5.2800 O.2       1 PRO        -0.3942
     35 CB          4.5490   23.0220   -2.6670 C.3       1 PRO        -0.0104
     36 CG          3.0900   22.7780   -2.4520 C.3       1 PRO        -0.0281
     37 CD          2.5360   24.1030   -1.9730 C.3       1 PRO         0.0369
     38 N           5.5520   24.3380   -5.4850 N.am      1 PRO        -0.2498
     39 CA          5.4610   24.2410   -6.9470 C.3       1 PRO         0.1338
     40 C           4.7410   22.9670   -7.3600 C.2       1 PRO         0.2041
     41 O           4.7730   21.9530   -6.6600 O.2       1 PRO        -0.3944
     42 CB          6.9300   24.2180   -7.4000 C.3       1 PRO        -0.0104
     43 CG          7.7140   24.8070   -6.2510 C.3       1 PRO        -0.0281
     44 CD          6.9420   24.4420   -5.0060 C.3       1 PRO         0.0369
     45 N           4.1150   23.0210   -8.5280 N.am      1 LEU        -0.2637
     46 CA          3.4560   21.8410   -9.0740 C.3       1 LEU         0.1314
     47 C           4.5140   20.8120   -9.4510 C.2       1 LEU         0.2064
     48 O           5.5060   21.1720  -10.0970 O.2       1 LEU        -0.3942
     49 CB          2.6290   22.2320  -10.2940 C.3       1 LEU        -0.0101
     50 CG          1.6940   21.1960  -10.9130 C.3       1 LEU        -0.0425
     51 CD1         0.4830   20.9790   -9.9880 C.3       1 LEU        -0.0625
     52 CD2         1.2640   21.6670  -12.2890 C.3       1 LEU        -0.0625
     53 N           4.3440   19.5370   -9.0980 N.am      1 PRO        -0.2498
     54 CA          5.4140   18.5590   -9.3210 C.3       1 PRO         0.1340
     55 C           5.5150   18.1410  -10.7770 C.2       1 PRO         0.2066
     56 O           4.5010   18.0850  -11.4890 O.2       1 PRO        -0.3942
     57 CB          4.9940   17.3700   -8.4490 C.3       1 PRO        -0.0104
     58 CG          3.5260   17.4630   -8.3710 C.3       1 PRO        -0.0281
     59 CD          3.2290   18.9510   -8.3280 C.3       1 PRO         0.0369
     60 N           6.7190   17.7860  -11.2240 N.am      1 PRO        -0.2498
     61 CA          6.8720   17.1720  -12.5450 C.3       1 PRO         0.1338
     62 C           6.2330   15.7940  -12.5780 C.2       1 PRO         0.2041
     63 O           6.0930   15.1150  -11.5590 O.2       1 PRO        -0.3944
     64 CB          8.3930   17.0820  -12.7180 C.3       1 PRO        -0.0104
     65 CG          8.9180   16.9990  -11.3200 C.3       1 PRO        -0.0281
     66 CD          7.9940   17.8470  -10.4890 C.3       1 PRO         0.0369
     67 N           5.8390   15.3760  -13.7770 N.am      1 LYS        -0.2637
     68 CA          5.3330   14.0250  -13.9740 C.3       1 LYS         0.1310
     69 C           6.4760   13.1100  -14.3990 C.2       1 LYS         0.2039
     70 O           7.2510   13.4550  -15.2980 O.2       1 LYS        -0.3944
     71 CB          4.2090   14.0220  -15.0110 C.3       1 LYS        -0.0122
     72 CG          2.9770   14.7180  -14.4840 C.3       1 LYS        -0.0440
     73 CD          1.8070   14.6660  -15.4450 C.3       1 LYS        -0.0124
     74 CE          0.5390   15.1510  -14.7410 C.3       1 LYS        -0.0354
     75 NZ         -0.6300   15.0910  -15.6550 N.4       1 LYS         0.2185
     76 N           6.5850   11.9530  -13.7510 N.am      1 GLN        -0.2636
     77 CA          7.6920   11.0290  -13.9810 C.3       1 GLN         0.1330
     78 C           7.1760    9.6520  -14.4060 C.2       1 GLN         0.2040
     79 O           5.9690    9.4040  -14.4810 O.2       1 GLN        -0.3944
     80 CB          8.5670   10.9300  -12.7290 C.3       1 GLN         0.0045
     81 CG          8.8840   12.2860  -12.1240 C.3       1 GLN         0.0412
     82 CD         10.2380   12.3350  -11.4550 C.2       1 GLN         0.1737
     83 OE1        10.3480   12.6700  -10.2750 O.2       1 GLN        -0.3973
     84 NE2        11.2830   12.0060  -12.2080 N.am      1 GLN        -0.3009
     85 N           8.1190    8.7540  -14.7030 N.am      1 LYS        -0.2637
     86 CA          7.7780    7.3900  -15.0970 C.3       1 LYS         0.1310
     87 C           6.9680    6.6960  -14.0060 C.2       1 LYS         0.2039
     88 O           7.2780    6.7950  -12.8150 O.2       1 LYS        -0.3944
     89 CB          9.0510    6.5910  -15.3930 C.3       1 LYS        -0.0122
     90 CG          8.8000    5.1960  -15.9220 C.3       1 LYS        -0.0440
     91 CD         10.1040    4.4320  -16.1100 C.3       1 LYS        -0.0124
     92 CE          9.8550    3.0290  -16.6530 C.3       1 LYS        -0.0354
     93 NZ         11.1030    2.2130  -16.7100 N.4       1 LYS         0.2185
     94 N           5.9250    5.9860  -14.4180 N.am      1 ARG        -0.2637
     95 CA          4.9720    5.4140  -13.4790 C.3       1 ARG         0.1311
     96 C           5.1780    3.9120  -13.3000 C.2       1 ARG         0.2039
     97 O           5.8070    3.2330  -14.1170 O.2       1 ARG        -0.3944
     98 CB          3.5390    5.7110  -13.9310 C.3       1 ARG        -0.0092
     99 CG          3.1390    7.1410  -13.6040 C.3       1 ARG        -0.0156
    100 CD          1.8170    7.5750  -14.2100 C.3       1 ARG         0.0627
    101 NE          1.5580    8.9780  -13.8800 N.pl3     1 ARG        -0.2723
    102 CZ          0.5800    9.7080  -14.4100 C.cat     1 ARG         0.2882
    103 NH1         0.4260   10.9780  -14.0490 N.pl3     1 ARG        -0.2849
    104 NH2        -0.2420    9.1680  -15.3030 N.pl3     1 ARG        -0.2849
    105 N           4.6460    3.4070  -12.1920 N.am      1 LYS        -0.2637
    106 CA          4.6940    1.9840  -11.9000 C.3       1 LYS         0.1306
    107 C           3.5830    1.2670  -12.6520 C.2       1 LYS         0.1992
    108 O           2.4310    1.7060  -12.6410 O.2       1 LYS        -0.3947
    109 CB          4.5720    1.7340  -10.3970 C.3       1 LYS        -0.0122
    110 CG          5.8480    1.2180   -9.7590 C.3       1 LYS        -0.0440
    111 CD          6.2770   -0.0980  -10.3930 C.3       1 LYS        -0.0124
    112 CE          7.6250   -0.5620   -9.8670 C.3       1 LYS        -0.0354
    113 NZ          7.6060   -0.7540   -8.3930 N.4       1 LYS         0.2185
    114 N           3.9360    0.1680  -13.3090 N.am      1 NH2        -0.2990
    115 H1          3.1085   29.7060    6.8029 H         1 ACE         0.0467
    116 H2          3.8930   31.0858    5.9620 H         1 ACE         0.0467
    117 H3          4.8051   30.1483    7.1931 H         1 ACE         0.0467
    118 H4          2.9188   28.0031    5.6217 H         1 TYR         0.1884
    119 H5          5.1595   26.8256    4.2603 H         1 TYR         0.0821
    120 H6          2.1935   26.1539    4.0408 H         1 TYR         0.0453
    121 H7          3.3102   25.5387    5.3062 H         1 TYR         0.0453
    122 H8          5.5653   24.4540    4.2075 H         1 TYR         0.0530
    123 H9          1.7459   24.6850    2.3240 H         1 TYR         0.0530
    124 H10         6.1776   22.5557    2.7461 H         1 TYR         0.0525
    125 H11         2.3471   22.7882    0.8725 H         1 TYR         0.0525
    126 H12         4.0370   20.7833    1.0459 H         1 TYR         0.2458
    127 H13         2.6032   28.9966    3.1877 H         1 GLY         0.1881
    128 H14         3.8398   29.3567    0.6187 H         1 GLY         0.0763
    129 H15         2.2088   29.9367    1.0986 H         1 GLY         0.0763
    130 H16         2.9490   28.8500   -1.4597 H         1 ARG         0.1883
    131 H17         1.5216   26.2245   -1.4381 H         1 ARG         0.0800
    132 H18         1.5429   28.2764   -3.6995 H         1 ARG         0.0313
    133 H19         0.1818   27.9864   -2.5637 H         1 ARG         0.0313
    134 H20         0.1892   25.5630   -3.3322 H         1 ARG         0.0301
    135 H21         1.3647   26.0430   -4.6028 H         1 ARG         0.0301
    136 H22        -1.3395   27.3705   -4.2948 H         1 ARG         0.0689
    137 H23        -1.0948   25.8786   -5.2647 H         1 ARG         0.0689
    138 H24         0.2808   27.1161   -6.8028 H         1 ARG         0.2642
    139 H25        -1.0003   30.5841   -5.1174 H         1 ARG         0.2615
    140 H26        -1.2333   29.0411   -4.2528 H         1 ARG         0.2615
    141 H27         0.5808   29.0838   -7.9100 H         1 ARG         0.2615
    142 H28         0.0089   30.6072   -7.1786 H         1 ARG         0.2615
    143 H29         5.5188   24.9592   -2.9682 H         1 PRO         0.0802
    144 H30         5.1022   22.9662   -1.7179 H         1 PRO         0.0313
    145 H31         4.9692   22.2970   -3.3796 H         1 PRO         0.0313
    146 H32         2.9366   21.9977   -1.6920 H         1 PRO         0.0287
    147 H33         2.6064   22.4743   -3.3921 H         1 PRO         0.0287
    148 H34         1.4946   24.2386   -2.3002 H         1 PRO         0.0524
    149 H35         2.5892   24.1818   -0.8771 H         1 PRO         0.0524
    150 H36         4.9352   25.1113   -7.3666 H         1 PRO         0.0802
    151 H37         7.0624   24.8254   -8.3075 H         1 PRO         0.0313
    152 H38         7.2553   23.1862   -7.5987 H         1 PRO         0.0313
    153 H39         7.7835   25.9000   -6.3534 H         1 PRO         0.0287
    154 H40         8.7258   24.3769   -6.2157 H         1 PRO         0.0287
    155 H41         7.2894   23.4829   -4.5944 H         1 PRO         0.0524
    156 H42         7.0369   25.2257   -4.2400 H         1 PRO         0.0524
    157 H43         4.0949   23.8801   -9.0394 H         1 LEU         0.1883
    158 H44         2.7894   21.4108   -8.3121 H         1 LEU         0.0800
    159 H45         3.3361   22.5387  -11.0788 H         1 LEU         0.0315
    160 H46         2.0094   23.0927  -10.0019 H         1 LEU         0.0315
    161 H47         2.2322   20.2425  -11.0185 H         1 LEU         0.0298
    162 H48        -0.1903   20.2325  -10.4345 H         1 LEU         0.0232
    163 H49        -0.0561   21.9293   -9.8607 H         1 LEU         0.0232
    164 H50         0.8299   20.6200   -9.0078 H         1 LEU         0.0232
    165 H51         2.1524   21.8113  -12.9213 H         1 LEU         0.0232
    166 H52         0.7206   22.6190  -12.1975 H         1 LEU         0.0232
    167 H53         0.6072   20.9123  -12.7462 H         1 LEU         0.0232
    168 H54         6.3827   18.9641   -8.9932 H         1 PRO         0.0802
    169 H55         5.4412   17.4468   -7.4470 H         1 PRO         0.0313
    170 H56         5.2982   16.4210   -8.9146 H         1 PRO         0.0313
    171 H57         3.1549   16.9682   -7.4614 H         1 PRO         0.0287
    172 H58         3.0617   17.0014   -9.2549 H         1 PRO         0.0287
    173 H59         2.2616   19.1744   -8.8015 H         1 PRO         0.0524
    174 H60         3.2253   19.3232   -7.2929 H         1 PRO         0.0524
    175 H61         6.4240   17.8024  -13.3273 H         1 PRO         0.0802
    176 H62         8.7811   17.9761  -13.2278 H         1 PRO         0.0313
    177 H63         8.6678   16.1845  -13.2916 H         1 PRO         0.0313
    178 H64         9.9450   17.3900  -11.2718 H         1 PRO         0.0287
    179 H65         8.9051   15.9575  -10.9663 H         1 PRO         0.0287
    180 H66         7.8843   17.4326   -9.4760 H         1 PRO         0.0524
    181 H67         8.3616   18.8817  -10.4241 H         1 PRO         0.0524
    182 H68         5.8910   16.0000  -14.5567 H         1 LYS         0.1883
    183 H69         4.9263   13.6577  -13.0202 H         1 LYS         0.0800
    184 H70         3.9540   12.9815  -15.2605 H         1 LYS         0.0312
    185 H71         4.5550   14.5420  -15.9165 H         1 LYS         0.0312
    186 H72         3.2257   15.7722  -14.2923 H         1 LYS         0.0269
    187 H73         2.6779   14.2347  -13.5422 H         1 LYS         0.0269
    188 H74         1.6615   13.6311  -15.7881 H         1 LYS         0.0317
    189 H75         2.0152   15.3131  -16.3098 H         1 LYS         0.0317
    190 H76         0.6852   16.1901  -14.4110 H         1 LYS         0.0813
    191 H77         0.3457   14.5123  -13.8666 H         1 LYS         0.0813
    192 H78        -1.4524   15.4147  -15.1703 H         1 LYS         0.1994
    193 H79        -0.7711   14.1401  -15.9581 H         1 LYS         0.1994
    194 H80        -0.4600   15.6776  -16.4569 H         1 LYS         0.1994
    195 H81         5.8833   11.7073  -13.0822 H         1 GLN         0.1883
    196 H82         8.3088   11.4286  -14.7995 H         1 GLN         0.0801
    197 H83         9.5121   10.4360  -12.9988 H         1 GLN         0.0337
    198 H84         8.0384   10.3249  -11.9777 H         1 GLN         0.0337
    199 H85         8.1146   12.5235  -11.3746 H         1 GLN         0.0504
    200 H86         8.8616   13.0403  -12.9243 H         1 GLN         0.0504
    201 H87        12.2040   12.0203  -11.8188 H         1 GLN         0.1814
    202 H88        11.1480   11.7442  -13.1636 H         1 GLN         0.1814
    203 H89         9.0812    9.0221  -14.6544 H         1 LYS         0.1883
    204 H90         7.1684    7.4328  -16.0116 H         1 LYS         0.0800
    205 H91         9.6300    6.5074  -14.4615 H         1 LYS         0.0312
    206 H92         9.6383    7.1430  -16.1415 H         1 LYS         0.0312
    207 H93         8.2840    5.2677  -16.8908 H         1 LYS         0.0269
    208 H94         8.1653    4.6509  -15.2079 H         1 LYS         0.0269
    209 H95        10.6161    4.3542  -15.1396 H         1 LYS         0.0317
    210 H96        10.7416    4.9816  -16.8181 H         1 LYS         0.0317
    211 H97         9.4398    3.1113  -17.6683 H         1 LYS         0.0813
    212 H98         9.1299    2.5208  -16.0004 H         1 LYS         0.0813
    213 H99        10.8895    1.2975  -17.0738 H         1 LYS         0.1994
    214 H100       11.4893    2.1245  -15.7832 H         1 LYS         0.1994
    215 H101       11.7733    2.6657  -17.3116 H         1 LYS         0.1994
    216 H102        5.7908    5.8406  -15.3982 H         1 ARG         0.1883
    217 H103        5.1300    5.8944  -12.5022 H         1 ARG         0.0800
    218 H104        2.8520    5.0213  -13.4188 H         1 ARG         0.0313
    219 H105        3.4680    5.5593  -15.0182 H         1 ARG         0.0313
    220 H106        3.9259    7.8126  -13.9776 H         1 ARG         0.0301
    221 H107        3.0643    7.2362  -12.5107 H         1 ARG         0.0301
    222 H108        1.0072    6.9493  -13.8066 H         1 ARG         0.0689
    223 H109        1.8604    7.4588  -15.3030 H         1 ARG         0.0689
    224 H110        2.1750    9.4306  -13.1906 H         1 ARG         0.2642
    225 H111       -0.3315   11.5420  -14.4601 H         1 ARG         0.2615
    226 H112        1.0642   11.3981  -13.3582 H         1 ARG         0.2615
    227 H113       -0.1234    8.1840  -15.5833 H         1 ARG         0.2615
    228 H114       -0.9980    9.7333  -15.7151 H         1 ARG         0.2615
    229 H115        4.2007    4.0225  -11.5417 H         1 LYS         0.1883
    230 H116        5.6620    1.5883  -12.2411 H         1 LYS         0.0800
    231 H117        3.7766    0.9923  -10.2317 H         1 LYS         0.0312
    232 H118        4.2978    2.6807   -9.9086 H         1 LYS         0.0312
    233 H119        5.6755    1.0608   -8.6841 H         1 LYS         0.0269
    234 H120        6.6465    1.9618   -9.8973 H         1 LYS         0.0269
    235 H121        6.3468    0.0371  -11.4824 H         1 LYS         0.0317
    236 H122        5.5225   -0.8656  -10.1663 H         1 LYS         0.0317
    237 H123        8.3843    0.1933  -10.1179 H         1 LYS         0.0813
    238 H124        7.8850   -1.5169  -10.3471 H         1 LYS         0.0813
    239 H125        8.5145   -1.0608   -8.0824 H         1 LYS         0.1994
    240 H126        6.9166   -1.4493   -8.1536 H         1 LYS         0.1994
    241 H127        7.3741    0.1179   -7.9435 H         1 LYS         0.1994
    242 H128        3.2514   -0.3488  -13.8230 H         1 NH2         0.1815
    243 H129        4.8863   -0.1426  -13.2896 H         1 NH2         0.1815
@<TRIPOS>BOND
     1    1    2 2  
     2    1    3 1  
     3    1    4 am 
     4    4    5 1  
     5    5    6 1  
     6    5    8 1  
     7    6    7 2  
     8    6   16 am 
     9    8    9 1  
    10    9   10 ar 
    11    9   11 ar 
    12   10   12 ar 
    13   11   13 ar 
    14   12   14 ar 
    15   13   14 ar 
    16   14   15 1  
    17   16   17 1  
    18   17   18 1  
    19   18   19 2  
    20   18   20 am 
    21   20   21 1  
    22   21   22 1  
    23   21   24 1  
    24   22   23 2  
    25   22   31 am 
    26   24   25 1  
    27   25   26 1  
    28   26   27 1  
    29   27   28 ar 
    30   28   29 ar 
    31   28   30 ar 
    32   31   32 1  
    33   31   37 1  
    34   32   33 1  
    35   32   35 1  
    36   33   34 2  
    37   33   38 am 
    38   35   36 1  
    39   36   37 1  
    40   38   39 1  
    41   38   44 1  
    42   39   40 1  
    43   39   42 1  
    44   40   41 2  
    45   40   45 am 
    46   42   43 1  
    47   43   44 1  
    48   45   46 1  
    49   46   47 1  
    50   46   49 1  
    51   47   48 2  
    52   47   53 am 
    53   49   50 1  
    54   50   51 1  
    55   50   52 1  
    56   53   54 1  
    57   53   59 1  
    58   54   55 1  
    59   54   57 1  
    60   55   56 2  
    61   55   60 am 
    62   57   58 1  
    63   58   59 1  
    64   60   61 1  
    65   60   66 1  
    66   61   62 1  
    67   61   64 1  
    68   62   63 2  
    69   62   67 am 
    70   64   65 1  
    71   65   66 1  
    72   67   68 1  
    73   68   69 1  
    74   68   71 1  
    75   69   70 2  
    76   69   76 am 
    77   71   72 1  
    78   72   73 1  
    79   73   74 1  
    80   74   75 1  
    81   76   77 1  
    82   77   78 1  
    83   77   80 1  
    84   78   79 2  
    85   78   85 am 
    86   80   81 1  
    87   81   82 1  
    88   82   83 2  
    89   82   84 am 
    90   85   86 1  
    91   86   87 1  
    92   86   89 1  
    93   87   88 2  
    94   87   94 am 
    95   89   90 1  
    96   90   91 1  
    97   91   92 1  
    98   92   93 1  
    99   94   95 1  
   100   95   96 1  
   101   95   98 1  
   102   96   97 2  
   103   96  105 am 
   104   98   99 1  
   105   99  100 1  
   106  100  101 1  
   107  101  102 ar 
   108  102  103 ar 
   109  102  104 ar 
   110  105  106 1  
   111  106  107 1  
   112  106  109 1  
   113  107  108 2  
   114  107  114 am 
   115  109  110 1  
   116  110  111 1  
   117  111  112 1  
   118  112  113 1  
   119    3  115 1  
   120    3  116 1  
   121    3  117 1  
   122    4  118 1  
   123    5  119 1  
   124    8  120 1  
   125    8  121 1  
   126   10  122 1  
   127   11  123 1  
   128   12  124 1  
   129   13  125 1  
   130   15  126 1  
   131   16  127 1  
   132   17  128 1  
   133   17  129 1  
   134   20  130 1  
   135   21  131 1  
   136   24  132 1  
   137   24  133 1  
   138   25  134 1  
   139   25  135 1  
   140   26  136 1  
   141   26  137 1  
   142   27  138 1  
   143   29  139 1  
   144   29  140 1  
   145   30  141 1  
   146   30  142 1  
   147   32  143 1  
   148   35  144 1  
   149   35  145 1  
   150   36  146 1  
   151   36  147 1  
   152   37  148 1  
   153   37  149 1  
   154   39  150 1  
   155   42  151 1  
   156   42  152 1  
   157   43  153 1  
   158   43  154 1  
   159   44  155 1  
   160   44  156 1  
   161   45  157 1  
   162   46  158 1  
   163   49  159 1  
   164   49  160 1  
   165   50  161 1  
   166   51  162 1  
   167   51  163 1  
   168   51  164 1  
   169   52  165 1  
   170   52  166 1  
   171   52  167 1  
   172   54  168 1  
   173   57  169 1  
   174   57  170 1  
   175   58  171 1  
   176   58  172 1  
   177   59  173 1  
   178   59  174 1  
   179   61  175 1  
   180   64  176 1  
   181   64  177 1  
   182   65  178 1  
   183   65  179 1  
   184   66  180 1  
   185   66  181 1  
   186   67  182 1  
   187   68  183 1  
   188   71  184 1  
   189   71  185 1  
   190   72  186 1  
   191   72  187 1  
   192   73  188 1  
   193   73  189 1  
   194   74  190 1  
   195   74  191 1  
   196   75  192 1  
   197   75  193 1  
   198   75  194 1  
   199   76  195 1  
   200   77  196 1  
   201   80  197 1  
   202   80  198 1  
   203   81  199 1  
   204   81  200 1  
   205   84  201 1  
   206   84  202 1  
   207   85  203 1  
   208   86  204 1  
   209   89  205 1  
   210   89  206 1  
   211   90  207 1  
   212   90  208 1  
   213   91  209 1  
   214   91  210 1  
   215   92  211 1  
   216   92  212 1  
   217   93  213 1  
   218   93  214 1  
   219   93  215 1  
   220   94  216 1  
   221   95  217 1  
   222   98  218 1  
   223   98  219 1  
   224   99  220 1  
   225   99  221 1  
   226  100  222 1  
   227  100  223 1  
   228  101  224 1  
   229  103  225 1  
   230  103  226 1  
   231  104  227 1  
   232  104  228 1  
   233  105  229 1  
   234  106  230 1  
   235  109  231 1  
   236  109  232 1  
   237  110  233 1  
   238  110  234 1  
   239  111  235 1  
   240  111  236 1  
   241  112  237 1  
   242  112  238 1  
   243  113  239 1  
   244  113  240 1  
   245  113  241 1  
   246  114  242 1  
   247  114  243 1  
@<TRIPOS>SUBSTRUCTURE
     1 ACE         1

