6atv_ligand
  -I-interpret- 

241245  0  0  0  0  0  0  0  0999 V2000
    4.5430   29.1570    5.3220 C   0  0  0  0  0
    5.5840   29.3530    4.7000 O   0  0  0  0  0
    4.0550   30.0860    6.3910 C   0  0  0  0  0
    3.7620   28.1110    5.0950 N   0  0  0  0  0
    4.1120   27.1150    4.0900 C   0  0  0  0  0
    4.0010   27.6250    2.6560 C   0  0  0  0  0
    4.7110   27.1410    1.7730 O   0  0  0  0  0
    3.2340   25.8730    4.2610 C   0  0  0  0  0
    3.6120   24.7120    3.3630 C   0  0  0  0  0
    4.8550   24.0940    3.4720 C   0  0  0  0  0
    2.7220   24.2240    2.4230 C   0  0  0  0  0
    5.2030   23.0210    2.6530 C   0  0  0  0  0
    3.0570   23.1550    1.6050 C   0  0  0  0  0
    4.2990   22.5580    1.7260 C   0  0  0  0  0
    4.6470   21.4990    0.9110 O   0  0  0  0  0
    3.1110   28.5940    2.4260 N   0  0  0  0  0
    2.8790   29.0650    1.0680 C   0  0  0  0  0
    2.2410   27.9750    0.2170 C   0  0  0  0  0
    1.5640   27.0750    0.7230 O   0  0  0  0  0
    2.4660   28.0530   -1.0970 N   0  0  0  0  0
    2.0270   27.0070   -2.0230 C   0  0  0  0  0
    3.2380   26.3940   -2.7100 C   0  0  0  0  0
    4.0170   27.1200   -3.3540 O   0  0  0  0  0
    1.0390   27.5240   -3.0750 C   0  0  0  0  0
    0.5300   26.3880   -3.9750 C   0  0  0  0  0
   -0.6120   26.7890   -4.8800 C   0  0  0  0  0
   -0.1670   27.5960   -6.0090 N   0  0  0  0  0
   -0.3060   28.9130   -6.0720 C   0  0  0  0  0
   -0.8900   29.5610   -5.0730 N   0  0  0  0  0
    0.1270   29.5850   -7.1330 N   0  0  0  0  0
    3.4280   25.0830   -2.6200 N   0  0  0  0  0
    4.5860   24.4450   -3.2430 C   0  0  0  0  0
    4.4410   24.4270   -4.7540 C   0  0  0  0  0
    3.3170   24.4770   -5.2800 O   0  0  0  0  0
    4.5490   23.0220   -2.6670 C   0  0  0  0  0
    3.0900   22.7780   -2.4520 C   0  0  0  0  0
    2.5360   24.1030   -1.9730 C   0  0  0  0  0
    5.5520   24.3380   -5.4850 N   0  0  0  0  0
    5.4610   24.2410   -6.9470 C   0  0  0  0  0
    4.7410   22.9670   -7.3600 C   0  0  0  0  0
    4.7730   21.9530   -6.6600 O   0  0  0  0  0
    6.9300   24.2180   -7.4000 C   0  0  0  0  0
    7.7140   24.8070   -6.2510 C   0  0  0  0  0
    6.9420   24.4420   -5.0060 C   0  0  0  0  0
    4.1150   23.0210   -8.5280 N   0  0  0  0  0
    3.4560   21.8410   -9.0740 C   0  0  0  0  0
    4.5140   20.8120   -9.4510 C   0  0  0  0  0
    5.5060   21.1720  -10.0970 O   0  0  0  0  0
    2.6290   22.2320  -10.2940 C   0  0  0  0  0
    1.6940   21.1960  -10.9130 C   0  0  0  0  0
    0.4830   20.9790   -9.9880 C   0  0  0  0  0
    1.2640   21.6670  -12.2890 C   0  0  0  0  0
    4.3440   19.5370   -9.0980 N   0  0  0  0  0
    5.4140   18.5590   -9.3210 C   0  0  0  0  0
    5.5150   18.1410  -10.7770 C   0  0  0  0  0
    4.5010   18.0850  -11.4890 O   0  0  0  0  0
    4.9940   17.3700   -8.4490 C   0  0  0  0  0
    3.5260   17.4630   -8.3710 C   0  0  0  0  0
    3.2290   18.9510   -8.3280 C   0  0  0  0  0
    6.7190   17.7860  -11.2240 N   0  0  0  0  0
    6.8720   17.1720  -12.5450 C   0  0  0  0  0
    6.2330   15.7940  -12.5780 C   0  0  0  0  0
    6.0930   15.1150  -11.5590 O   0  0  0  0  0
    8.3930   17.0820  -12.7180 C   0  0  0  0  0
    8.9180   16.9990  -11.3200 C   0  0  0  0  0
    7.9940   17.8470  -10.4890 C   0  0  0  0  0
    5.8390   15.3760  -13.7770 N   0  0  0  0  0
    5.3330   14.0250  -13.9740 C   0  0  0  0  0
    6.4760   13.1100  -14.3990 C   0  0  0  0  0
    7.2510   13.4550  -15.2980 O   0  0  0  0  0
    4.2090   14.0220  -15.0110 C   0  0  0  0  0
    2.9770   14.7180  -14.4840 C   0  0  0  0  0
    1.8070   14.6660  -15.4450 C   0  0  0  0  0
    0.5390   15.1510  -14.7410 C   0  0  0  0  0
   -0.6300   15.0910  -15.6550 N   0  3  0  0  0
    6.5850   11.9530  -13.7510 N   0  0  0  0  0
    7.6920   11.0290  -13.9810 C   0  0  0  0  0
    7.1760    9.6520  -14.4060 C   0  0  0  0  0
    5.9690    9.4040  -14.4810 O   0  0  0  0  0
    8.5670   10.9300  -12.7290 C   0  0  0  0  0
    8.8840   12.2860  -12.1240 C   0  0  0  0  0
   10.2380   12.3350  -11.4550 C   0  0  0  0  0
   10.3480   12.6700  -10.2750 O   0  0  0  0  0
   11.2830   12.0060  -12.2080 N   0  0  0  0  0
    8.1190    8.7540  -14.7030 N   0  0  0  0  0
    7.7780    7.3900  -15.0970 C   0  0  0  0  0
    6.9680    6.6960  -14.0060 C   0  0  0  0  0
    7.2780    6.7950  -12.8150 O   0  0  0  0  0
    9.0510    6.5910  -15.3930 C   0  0  0  0  0
    8.8000    5.1960  -15.9220 C   0  0  0  0  0
   10.1040    4.4320  -16.1100 C   0  0  0  0  0
    9.8550    3.0290  -16.6530 C   0  0  0  0  0
   11.1030    2.2130  -16.7100 N   0  3  0  0  0
    5.9250    5.9860  -14.4180 N   0  0  0  0  0
    4.9720    5.4140  -13.4790 C   0  0  0  0  0
    5.1780    3.9120  -13.3000 C   0  0  0  0  0
    5.8070    3.2330  -14.1170 O   0  0  0  0  0
    3.5390    5.7110  -13.9310 C   0  0  0  0  0
    3.1390    7.1410  -13.6040 C   0  0  0  0  0
    1.8170    7.5750  -14.2100 C   0  0  0  0  0
    1.5580    8.9780  -13.8800 N   0  0  0  0  0
    0.5800    9.7080  -14.4100 C   0  0  0  0  0
    0.4260   10.9780  -14.0490 N   0  0  0  0  0
   -0.2420    9.1680  -15.3030 N   0  0  0  0  0
    4.6460    3.4070  -12.1920 N   0  0  0  0  0
    4.6940    1.9840  -11.9000 C   0  0  0  0  0
    3.5830    1.2670  -12.6520 C   0  0  0  0  0
    2.4310    1.7060  -12.6410 O   0  0  0  0  0
    4.5720    1.7340  -10.3970 C   0  0  0  0  0
    5.8480    1.2180   -9.7590 C   0  0  0  0  0
    6.2770   -0.0980  -10.3930 C   0  0  0  0  0
    7.6250   -0.5620   -9.8670 C   0  0  0  0  0
    7.6060   -0.7540   -8.3930 N   0  3  0  0  0
    3.9360    0.1680  -13.3090 N   0  0  0  0  0
    4.7991   30.1469    7.1851 H   0  0  0  0  0
    3.8949   31.0763    5.9647 H   0  0  0  0  0
    3.1171   29.7084    6.7983 H   0  0  0  0  0
    2.9019   28.0010    5.6322 H   0  0  0  0  0
    5.1616   26.8710    4.2539 H   0  0  0  0  0
    2.2160   26.1619    3.9995 H   0  0  0  0  0
    3.3549   25.5345    5.2900 H   0  0  0  0  0
    5.5692   24.4560    4.2115 H   0  0  0  0  0
    1.7405   24.6876    2.3234 H   0  0  0  0  0
    6.1830   22.5531    2.7466 H   0  0  0  0  0
    2.3431   22.7862    0.8685 H   0  0  0  0  0
    3.9159   21.2954    0.3231 H   0  0  0  0  0
    2.5931   29.0046    3.2029 H   0  0  0  0  0
    3.8355   29.3415    0.6244 H   0  0  0  0  0
    2.2054   29.9212    1.1040 H   0  0  0  0  0
    2.9587   28.8659   -1.4669 H   0  0  0  0  0
    1.5025   26.2533   -1.4356 H   0  0  0  0  0
    1.5510   28.2563   -3.6993 H   0  0  0  0  0
    0.1857   27.9654   -2.5601 H   0  0  0  0  0
    0.1634   25.5962   -3.3217 H   0  0  0  0  0
    1.3591   26.0845   -4.6142 H   0  0  0  0  0
   -1.3136   27.3839   -4.2952 H   0  0  0  0  0
   -1.0669   25.8798   -5.2731 H   0  0  0  0  0
    0.2764   27.1208   -6.7951 H   0  0  0  0  0
   -1.2300   29.0462   -4.2607 H   0  0  0  0  0
    0.0100   30.5973   -7.1782 H   0  0  0  0  0
    0.5764   29.0887   -7.9025 H   0  0  0  0  0
    5.5247   24.9618   -3.0433 H   0  0  0  0  0
    5.1311   22.9242   -1.7506 H   0  0  0  0  0
    5.0046   22.2877   -3.3313 H   0  0  0  0  0
    2.9165   21.9825   -1.7273 H   0  0  0  0  0
    2.5984   22.4416   -3.3648 H   0  0  0  0  0
    1.4878   24.2447   -2.2363 H   0  0  0  0  0
    2.5260   24.1909   -0.8866 H   0  0  0  0  0
    4.8955   25.0589   -7.3936 H   0  0  0  0  0
    7.0748   24.7887   -8.3173 H   0  0  0  0  0
    7.2610   23.2059   -7.6330 H   0  0  0  0  0
    7.8203   25.8870   -6.3524 H   0  0  0  0  0
    8.7308   24.4155   -6.2193 H   0  0  0  0  0
    7.2975   23.5189   -4.5482 H   0  0  0  0  0
    7.0571   25.1785   -4.2107 H   0  0  0  0  0
    4.0945   23.8973   -9.0496 H   0  0  0  0  0
    2.7874   21.4090   -8.3294 H   0  0  0  0  0
    3.3603   22.4522  -11.0717 H   0  0  0  0  0
    1.9741   23.0310   -9.9465 H   0  0  0  0  0
    2.2090   20.2418  -11.0245 H   0  0  0  0  0
    0.8281   20.6234   -9.0171 H   0  0  0  0  0
   -0.0503   21.9213   -9.8626 H   0  0  0  0  0
   -0.1834   20.2391  -10.4315 H   0  0  0  0  0
    0.7442   22.6208  -12.1991 H   0  0  0  0  0
    2.1436   21.7892  -12.9211 H   0  0  0  0  0
    0.5963   20.9282  -12.7323 H   0  0  0  0  0
    6.3958   18.9614   -9.0714 H   0  0  0  0  0
    5.4565   17.4059   -7.4627 H   0  0  0  0  0
    5.3191   16.4200   -8.8731 H   0  0  0  0  0
    3.1343   16.9472   -7.4943 H   0  0  0  0  0
    3.0446   16.9792   -9.2209 H   0  0  0  0  0
    2.2528   19.1982   -8.7452 H   0  0  0  0  0
    3.1687   19.3396   -7.3114 H   0  0  0  0  0
    6.3880   17.7386  -13.3405 H   0  0  0  0  0
    8.7965   17.9383  -13.2583 H   0  0  0  0  0
    8.6880   16.2222  -13.3195 H   0  0  0  0  0
    9.9468   17.3541  -11.2593 H   0  0  0  0  0
    8.9413   15.9691  -10.9639 H   0  0  0  0  0
    7.9037   17.4864   -9.4643 H   0  0  0  0  0
    8.3584   18.8671  -10.3677 H   0  0  0  0  0
    5.8921   16.0125  -14.5723 H   0  0  0  0  0
    4.9196   13.6533  -13.0364 H   0  0  0  0  0
    3.9521   12.9883  -15.2423 H   0  0  0  0  0
    4.5541   14.5512  -15.8992 H   0  0  0  0  0
    3.2306   15.7665  -14.3279 H   0  0  0  0  0
    2.6758   14.2093  -13.5682 H   0  0  0  0  0
    1.6625   13.6398  -15.7827 H   0  0  0  0  0
    2.0135   15.3091  -16.3005 H   0  0  0  0  0
    0.6858   16.1843  -14.4267 H   0  0  0  0  0
    0.3464   14.5074  -13.8826 H   0  0  0  0  0
   -1.4615   15.4187  -15.1635 H   0  0  0  0  0
   -0.4568   15.6848  -16.4660 H   0  0  0  0  0
   -0.7718   14.1284  -15.9610 H   0  0  0  0  0
    5.8693   11.7024  -13.0688 H   0  0  0  0  0
    8.3035   11.4162  -14.7960 H   0  0  0  0  0
    9.5096   10.4642  -13.0165 H   0  0  0  0  0
    8.0199   10.3519  -11.9843 H   0  0  0  0  0
    8.1312   12.4934  -11.3635 H   0  0  0  0  0
    8.8877   13.0167  -12.9328 H   0  0  0  0  0
   12.2229   12.0250  -11.8123 H   0  0  0  0  0
   11.1449   11.7345  -13.1815 H   0  0  0  0  0
    9.1004    9.0275  -14.6534 H   0  0  0  0  0
    7.1693    7.4382  -15.9999 H   0  0  0  0  0
    9.5901    6.4853  -14.4516 H   0  0  0  0  0
    9.5986    7.1332  -16.1639 H   0  0  0  0  0
    8.3024    5.2759  -16.8885 H   0  0  0  0  0
    8.1834    4.6578  -15.2021 H   0  0  0  0  0
   10.5967    4.3455  -15.1416 H   0  0  0  0  0
   10.7226    4.9746  -16.8249 H   0  0  0  0  0
    9.4664    3.1233  -17.6670 H   0  0  0  0  0
    9.1540    2.5279  -15.9855 H   0  0  0  0  0
   10.8858    1.2869  -17.0782 H   0  0  0  0  0
   11.7804    2.6720  -17.3189 H   0  0  0  0  0
   11.4929    2.1242  -15.7717 H   0  0  0  0  0
    5.7881    5.8377  -15.4178 H   0  0  0  0  0
    5.1436    5.8815  -12.5094 H   0  0  0  0  0
    2.8637    5.0344  -13.4073 H   0  0  0  0  0
    3.4813    5.5738  -15.0108 H   0  0  0  0  0
    3.9097    7.7917  -14.0172 H   0  0  0  0  0
    3.0310    7.2038  -12.5212 H   0  0  0  0  0
    1.0152    6.9558  -13.8077 H   0  0  0  0  0
    1.8621    7.4616  -15.2931 H   0  0  0  0  0
    2.1690    9.4262  -13.1972 H   0  0  0  0  0
   -0.3229   11.5371  -14.4576 H   0  0  0  0  0
    1.0567   11.3934  -13.3634 H   0  0  0  0  0
   -0.1233    8.1941  -15.5821 H   0  0  0  0  0
    4.1918    4.0348  -11.5287 H   0  0  0  0  0
    5.6562    1.5913  -12.2287 H   0  0  0  0  0
    3.8053    0.9724  -10.2545 H   0  0  0  0  0
    4.3349    2.6880   -9.9261 H   0  0  0  0  0
    5.6677    1.0535   -8.6967 H   0  0  0  0  0
    6.6380    1.9539   -9.9090 H   0  0  0  0  0
    6.3611    0.0507  -11.4695 H   0  0  0  0  0
    5.5332   -0.8560  -10.1477 H   0  0  0  0  0
    8.3663    0.2013  -10.1036 H   0  0  0  0  0
    7.8646   -1.5174  -10.3339 H   0  0  0  0  0
    8.5258   -1.0645   -8.0799 H   0  0  0  0  0
    7.3712    0.1289   -7.9393 H   0  0  0  0  0
    6.9080   -1.4577   -8.1520 H   0  0  0  0  0
    3.2388   -0.3562  -13.8377 H   0  0  0  0  0
    4.9043   -0.1518  -13.2849 H   0  0  0  0  0
  1  2  2  0  0  0
  1  3  1  0  0  0
  1  4  1  0  0  0
  4  5  1  0  0  0
  5  6  1  0  0  0
  5  8  1  0  0  0
  6  7  2  0  0  0
  6 16  1  0  0  0
  8  9  1  0  0  0
  9 10  4  0  0  0
  9 11  4  0  0  0
 10 12  4  0  0  0
 11 13  4  0  0  0
 12 14  4  0  0  0
 13 14  4  0  0  0
 14 15  1  0  0  0
 16 17  1  0  0  0
 17 18  1  0  0  0
 18 19  2  0  0  0
 18 20  1  0  0  0
 20 21  1  0  0  0
 21 22  1  0  0  0
 21 24  1  0  0  0
 22 23  2  0  0  0
 22 31  1  0  0  0
 24 25  1  0  0  0
 25 26  1  0  0  0
 26 27  1  0  0  0
 27 28  1  0  0  0
 28 29  2  0  0  0
 28 30  1  0  0  0
 31 32  1  0  0  0
 31 37  1  0  0  0
 32 33  1  0  0  0
 32 35  1  0  0  0
 33 34  2  0  0  0
 33 38  1  0  0  0
 35 36  1  0  0  0
 36 37  1  0  0  0
 38 39  1  0  0  0
 38 44  1  0  0  0
 39 40  1  0  0  0
 39 42  1  0  0  0
 40 41  2  0  0  0
 40 45  1  0  0  0
 42 43  1  0  0  0
 43 44  1  0  0  0
 45 46  1  0  0  0
 46 47  1  0  0  0
 46 49  1  0  0  0
 47 48  2  0  0  0
 47 53  1  0  0  0
 49 50  1  0  0  0
 50 51  1  0  0  0
 50 52  1  0  0  0
 53 54  1  0  0  0
 53 59  1  0  0  0
 54 55  1  0  0  0
 54 57  1  0  0  0
 55 56  2  0  0  0
 55 60  1  0  0  0
 57 58  1  0  0  0
 58 59  1  0  0  0
 60 61  1  0  0  0
 60 66  1  0  0  0
 61 62  1  0  0  0
 61 64  1  0  0  0
 62 63  2  0  0  0
 62 67  1  0  0  0
 64 65  1  0  0  0
 65 66  1  0  0  0
 67 68  1  0  0  0
 68 69  1  0  0  0
 68 71  1  0  0  0
 69 70  2  0  0  0
 69 76  1  0  0  0
 71 72  1  0  0  0
 72 73  1  0  0  0
 73 74  1  0  0  0
 74 75  1  0  0  0
 76 77  1  0  0  0
 77 78  1  0  0  0
 77 80  1  0  0  0
 78 79  2  0  0  0
 78 85  1  0  0  0
 80 81  1  0  0  0
 81 82  1  0  0  0
 82 83  2  0  0  0
 82 84  1  0  0  0
 85 86  1  0  0  0
 86 87  1  0  0  0
 86 89  1  0  0  0
 87 88  2  0  0  0
 87 94  1  0  0  0
 89 90  1  0  0  0
 90 91  1  0  0  0
 91 92  1  0  0  0
 92 93  1  0  0  0
 94 95  1  0  0  0
 95 96  1  0  0  0
 95 98  1  0  0  0
 96 97  2  0  0  0
 96105  1  0  0  0
 98 99  1  0  0  0
 99100  1  0  0  0
100101  1  0  0  0
101102  1  0  0  0
102103  1  0  0  0
102104  2  0  0  0
105106  1  0  0  0
106107  1  0  0  0
106109  1  0  0  0
107108  2  0  0  0
107114  1  0  0  0
109110  1  0  0  0
110111  1  0  0  0
111112  1  0  0  0
112113  1  0  0  0
  3115  1  0  0  0
  3116  1  0  0  0
  3117  1  0  0  0
  4118  1  0  0  0
  5119  1  0  0  0
  8120  1  0  0  0
  8121  1  0  0  0
 10122  1  0  0  0
 11123  1  0  0  0
 12124  1  0  0  0
 13125  1  0  0  0
 15126  1  0  0  0
 16127  1  0  0  0
 17128  1  0  0  0
 17129  1  0  0  0
 20130  1  0  0  0
 21131  1  0  0  0
 24132  1  0  0  0
 24133  1  0  0  0
 25134  1  0  0  0
 25135  1  0  0  0
 26136  1  0  0  0
 26137  1  0  0  0
 27138  1  0  0  0
 29139  1  0  0  0
 30140  1  0  0  0
 30141  1  0  0  0
 32142  1  0  0  0
 35143  1  0  0  0
 35144  1  0  0  0
 36145  1  0  0  0
 36146  1  0  0  0
 37147  1  0  0  0
 37148  1  0  0  0
 39149  1  0  0  0
 42150  1  0  0  0
 42151  1  0  0  0
 43152  1  0  0  0
 43153  1  0  0  0
 44154  1  0  0  0
 44155  1  0  0  0
 45156  1  0  0  0
 46157  1  0  0  0
 49158  1  0  0  0
 49159  1  0  0  0
 50160  1  0  0  0
 51161  1  0  0  0
 51162  1  0  0  0
 51163  1  0  0  0
 52164  1  0  0  0
 52165  1  0  0  0
 52166  1  0  0  0
 54167  1  0  0  0
 57168  1  0  0  0
 57169  1  0  0  0
 58170  1  0  0  0
 58171  1  0  0  0
 59172  1  0  0  0
 59173  1  0  0  0
 61174  1  0  0  0
 64175  1  0  0  0
 64176  1  0  0  0
 65177  1  0  0  0
 65178  1  0  0  0
 66179  1  0  0  0
 66180  1  0  0  0
 67181  1  0  0  0
 68182  1  0  0  0
 71183  1  0  0  0
 71184  1  0  0  0
 72185  1  0  0  0
 72186  1  0  0  0
 73187  1  0  0  0
 73188  1  0  0  0
 74189  1  0  0  0
 74190  1  0  0  0
 75191  1  0  0  0
 75192  1  0  0  0
 75193  1  0  0  0
 76194  1  0  0  0
 77195  1  0  0  0
 80196  1  0  0  0
 80197  1  0  0  0
 81198  1  0  0  0
 81199  1  0  0  0
 84200  1  0  0  0
 84201  1  0  0  0
 85202  1  0  0  0
 86203  1  0  0  0
 89204  1  0  0  0
 89205  1  0  0  0
 90206  1  0  0  0
 90207  1  0  0  0
 91208  1  0  0  0
 91209  1  0  0  0
 92210  1  0  0  0
 92211  1  0  0  0
 93212  1  0  0  0
 93213  1  0  0  0
 93214  1  0  0  0
 94215  1  0  0  0
 95216  1  0  0  0
 98217  1  0  0  0
 98218  1  0  0  0
 99219  1  0  0  0
 99220  1  0  0  0
100221  1  0  0  0
100222  1  0  0  0
101223  1  0  0  0
103224  1  0  0  0
103225  1  0  0  0
104226  1  0  0  0
105227  1  0  0  0
106228  1  0  0  0
109229  1  0  0  0
109230  1  0  0  0
110231  1  0  0  0
110232  1  0  0  0
111233  1  0  0  0
111234  1  0  0  0
112235  1  0  0  0
112236  1  0  0  0
113237  1  0  0  0
113238  1  0  0  0
113239  1  0  0  0
114240  1  0  0  0
114241  1  0  0  0
M  END
$$$$
