1m0n_ligand
  -I-interpret- 

 45 46  0  0  0  0  0  0  0  0999 V2000
   16.1080   52.4800   15.5960 C   0  0  0  0  0
   16.4090   53.0110   14.3860 C   0  0  0  0  0
   17.6200   52.7000   13.6980 N   0  0  0  0  0
   18.4520   51.8650   14.2100 C   0  0  0  0  0
   17.0520   51.5670   16.2130 C   0  0  0  0  0
   16.8020   51.0670   17.5960 C   0  0  0  0  0
   15.7470   51.3570   18.2990 N   0  0  0  0  0
   15.7860   51.1360   19.7400 C   0  0  0  0  0
   16.6950   49.9350   20.1900 C   0  0  0  0  0
   16.6850   50.1460   21.7080 C   0  0  0  0  0
   16.5900   51.7520   21.8870 C   0  0  0  0  0
   16.5530   52.3040   20.4530 C   0  0  0  0  0
   14.0120   51.1120   20.1730 P   0  0  0  0  0
   13.5670   51.0160   21.6810 O   0  0  0  0  0
   13.3670   52.4130   19.5680 O   0  0  0  0  0
   13.3410   49.8750   19.4790 O   0  0  0  0  0
   14.8830   52.8570   16.2400 O   0  0  0  0  0
   15.4410   54.0000   13.7780 C   0  0  0  0  0
   18.1740   51.2710   15.5340 C   0  0  0  0  0
   19.2010   50.3520   16.0600 C   0  0  0  0  0
   19.0770   49.0580   15.6090 O   0  0  0  0  0
   19.8850   48.2040   16.5640 P   0  0  0  0  0
   20.1780   48.8760   17.9120 O   0  0  0  0  0
   19.4080   46.7580   16.6610 O   0  0  0  0  0
   21.2540   48.2020   15.9010 O   0  0  0  0  0
   19.3595   51.5960   13.6695 H   0  0  0  0  0
   17.5519   50.4167   18.0464 H   0  0  0  0  0
   17.6891   49.9310   19.7429 H   0  0  0  0  0
   16.3383   48.9561   19.8695 H   0  0  0  0  0
   17.5724   49.7313   22.1861 H   0  0  0  0  0
   15.8544   49.6293   22.1890 H   0  0  0  0  0
   17.4329   52.1482   22.4532 H   0  0  0  0  0
   15.7094   52.0457   22.4582 H   0  0  0  0  0
   16.0813   53.2818   20.3558 H   0  0  0  0  0
   17.5314   52.5292   20.0287 H   0  0  0  0  0
   13.9447   51.7493   22.1722 H   0  0  0  0  0
   13.7626   53.1855   19.9783 H   0  0  0  0  0
   14.3994   53.4640   15.6749 H   0  0  0  0  0
   14.4715   53.5207   13.6418 H   0  0  0  0  0
   15.3338   54.8571   14.4428 H   0  0  0  0  0
   15.8221   54.3328   12.8125 H   0  0  0  0  0
   19.0899   50.3289   17.1441 H   0  0  0  0  0
   20.1693   50.7211   15.7219 H   0  0  0  0  0
   19.3676   48.9310   18.4237 H   0  0  0  0  0
   18.5434   46.7347   17.0775 H   0  0  0  0  0
  1 17  1  0  0  0
  1  5  4  0  0  0
  1  2  4  0  0  0
  2 18  1  0  0  0
  2  3  4  0  0  0
  3  4  4  0  0  0
  4 19  4  0  0  0
 19 20  1  0  0  0
 19  5  4  0  0  0
  5  6  1  0  0  0
  6  7  2  0  0  0
  7  8  1  0  0  0
  8 13  1  0  0  0
  8 12  1  0  0  0
  8  9  1  0  0  0
  9 10  1  0  0  0
 10 11  1  0  0  0
 11 12  1  0  0  0
 13 16  2  0  0  0
 13 15  1  0  0  0
 13 14  1  0  0  0
 20 21  1  0  0  0
 21 22  1  0  0  0
 22 25  2  0  0  0
 22 24  1  0  0  0
 22 23  1  0  0  0
  4 26  1  0  0  0
  6 27  1  0  0  0
  9 28  1  0  0  0
  9 29  1  0  0  0
 10 30  1  0  0  0
 10 31  1  0  0  0
 11 32  1  0  0  0
 11 33  1  0  0  0
 12 34  1  0  0  0
 12 35  1  0  0  0
 14 36  1  0  0  0
 15 37  1  0  0  0
 17 38  1  0  0  0
 18 39  1  0  0  0
 18 40  1  0  0  0
 18 41  1  0  0  0
 20 42  1  0  0  0
 20 43  1  0  0  0
 23 44  1  0  0  0
 24 45  1  0  0  0
M  END
$$$$
