1rhq_ligand
  -I-interpret- 

 36 35  0  0  0  0  0  0  0  0999 V2000
   50.0410   29.2620   95.7490 C   0  0  0  0  0
   50.9980   28.7110   96.2680 O   0  0  0  0  0
   49.7010   30.6990   96.1230 C   0  0  0  0  0
   49.2650   28.6590   94.8450 N   0  0  0  0  0
   49.4730   27.2670   94.4230 C   0  0  0  0  0
   49.9000   27.0700   92.9560 C   0  0  0  0  0
   49.7400   27.9660   92.1180 O   0  0  0  0  0
   48.1880   26.4470   94.6150 C   0  0  0  0  0
   47.8250   26.3740   96.0680 C   0  0  0  0  0
   47.0640   27.0760   93.8160 C   0  0  0  0  0
   50.4320   25.8820   92.6600 N   0  0  0  0  0
   50.8500   25.5250   91.3040 C   0  0  0  0  0
   49.8620   24.5120   90.6770 C   0  0  0  0  0
   50.4120   24.0590   89.4260 O   0  0  0  0  0
   52.2580   24.9390   91.3230 C   0  0  0  0  0
   53.3190   26.0000   91.2880 C   0  0  0  0  0
   53.8240   26.3050   90.2000 O   0  0  0  0  0
   53.6430   26.5420   92.3470 O   0  0  0  0  0
   49.4937   30.7556   97.1916 H   0  0  0  0  0
   50.5444   31.3455   95.8804 H   0  0  0  0  0
   48.8225   31.0205   95.5636 H   0  0  0  0  0
   48.4965   29.1862   94.4305 H   0  0  0  0  0
   50.2945   26.9320   95.0562 H   0  0  0  0  0
   48.3543   25.4309   94.2572 H   0  0  0  0  0
   47.6415   27.3796   96.4463 H   0  0  0  0  0
   46.9254   25.7700   96.1865 H   0  0  0  0  0
   48.6452   25.9194   96.6237 H   0  0  0  0  0
   46.1614   26.4748   93.9256 H   0  0  0  0  0
   46.8775   28.0844   94.1854 H   0  0  0  0  0
   47.3476   27.1195   92.7644 H   0  0  0  0  0
   50.5516   25.1977   93.4069 H   0  0  0  0  0
   50.8510   26.4297   90.6960 H   0  0  0  0  0
   48.9124   24.1957   91.1086 H   0  0  0  0  0
   52.3757   24.3146   90.4373 H   0  0  0  0  0
   52.3760   24.3740   92.2477 H   0  0  0  0  0
   53.4348   25.7679   89.5060 H   0  0  0  0  0
  1  2  2  0  0  0
  1  3  1  0  0  0
  5  4  1  0  0  0
  5  8  1  0  0  0
  6  5  1  0  0  0
  6  7  2  0  0  0
  8 10  1  0  0  0
  8  9  1  0  0  0
  4  1  1  0  0  0
 11 12  1  0  0  0
 12 15  1  0  0  0
 12 13  1  0  0  0
 13 14  2  0  0  0
 15 16  1  0  0  0
 16 18  2  0  0  0
 16 17  1  0  0  0
  6 11  1  0  0  0
  3 19  1  0  0  0
  3 20  1  0  0  0
  3 21  1  0  0  0
  4 22  1  0  0  0
  5 23  1  0  0  0
  8 24  1  0  0  0
  9 25  1  0  0  0
  9 26  1  0  0  0
  9 27  1  0  0  0
 10 28  1  0  0  0
 10 29  1  0  0  0
 10 30  1  0  0  0
 11 31  1  0  0  0
 12 32  1  0  0  0
 13 33  1  0  0  0
 15 34  1  0  0  0
 15 35  1  0  0  0
 17 36  1  0  0  0
M  END
$$$$
