2c9b_ligand
  -I-interpret- 

 35 36  0  0  0  0  0  0  0  0999 V2000
  -19.5360   -2.4110    4.9140 O   0  0  0  0  0
  -19.7090   -1.7590    3.8630 C   0  0  0  0  0
  -19.9330   -2.4290    2.7120 N   0  0  0  0  0
  -20.1210   -1.7670    1.5520 C   0  0  0  0  0
  -20.3290   -2.4070    0.4980 O   0  0  0  0  0
  -19.6720   -0.4020    3.8990 N   0  0  0  0  0
  -19.8500    0.3630    2.7900 C   0  0  0  0  0
  -20.0810   -0.2770    1.5660 C   0  0  0  0  0
  -20.2270    0.6640    0.6050 N   0  0  0  0  0
  -19.8460    1.6950    2.5800 N   0  0  0  0  0
  -20.0810    1.8210    1.2730 C   0  0  0  0  0
  -20.1590    2.9660    0.6830 O   0  0  0  0  0
  -19.6610    2.7980    3.5360 C   0  0  0  0  0
  -18.5680    2.5670    4.5840 C   0  0  0  0  0
  -17.4110    1.9730    3.9820 O   0  0  0  0  0
  -18.1550    3.8290    5.3560 C   0  0  0  0  0
  -18.9030    3.8660    6.5810 O   0  0  0  0  0
  -18.3300    5.1530    4.5960 C   0  0  0  0  0
  -17.4490    5.2170    3.4690 O   0  0  0  0  0
  -18.0790    6.3720    5.4840 C   0  0  0  0  0
  -16.7020    6.4600    5.8780 O   0  0  0  0  0
  -19.9604   -3.4486    2.7200 H   0  0  0  0  0
  -19.5042    0.0607    4.7924 H   0  0  0  0  0
  -20.4055    0.5277   -0.3900 H   0  0  0  0  0
  -20.6003    2.9062    4.0784 H   0  0  0  0  0
  -19.3625    3.6713    2.9561 H   0  0  0  0  0
  -19.0086    1.8891    5.3150 H   0  0  0  0  0
  -16.7377    1.8358    4.6524 H   0  0  0  0  0
  -17.0814    3.7509    5.5271 H   0  0  0  0  0
  -18.6593    4.6491    7.0799 H   0  0  0  0  0
  -19.3671    5.1758    4.2612 H   0  0  0  0  0
  -17.5766    6.0512    3.0114 H   0  0  0  0  0
  -18.6899    6.2773    6.3817 H   0  0  0  0  0
  -18.3351    7.2690    4.9201 H   0  0  0  0  0
  -16.5779    7.2335    6.4329 H   0  0  0  0  0
  1  2  2  0  0  0
  2  3  1  0  0  0
  2  6  1  0  0  0
  3  4  1  0  0  0
  4  5  2  0  0  0
  4  8  1  0  0  0
  6  7  1  0  0  0
  7  8  2  0  0  0
  7 10  1  0  0  0
  8  9  1  0  0  0
  9 11  1  0  0  0
 10 11  1  0  0  0
 10 13  1  0  0  0
 11 12  2  0  0  0
 13 14  1  0  0  0
 14 15  1  0  0  0
 14 16  1  0  0  0
 16 17  1  0  0  0
 16 18  1  0  0  0
 18 19  1  0  0  0
 18 20  1  0  0  0
 20 21  1  0  0  0
  3 22  1  0  0  0
  6 23  1  0  0  0
  9 24  1  0  0  0
 13 25  1  0  0  0
 13 26  1  0  0  0
 14 27  1  0  0  0
 15 28  1  0  0  0
 16 29  1  0  0  0
 17 30  1  0  0  0
 18 31  1  0  0  0
 19 32  1  0  0  0
 20 33  1  0  0  0
 20 34  1  0  0  0
 21 35  1  0  0  0
M  END
$$$$
