4rrf_ligand
  -I-interpret- 

 45 47  0  0  0  0  0  0  0  0999 V2000
    9.1110   -2.9260    8.5920 O   0  0  0  0  0
    9.0740   -4.2610    8.0790 C   0  0  0  0  0
    9.7990   -4.3240    6.7820 C   0  0  0  0  0
    9.1590   -3.3630    6.0490 O   0  0  0  0  0
   10.1810   -2.5780    5.3500 C   0  0  0  0  0
   10.0100   -1.1430    5.6860 N   0  0  0  0  0
   10.8330   -0.1590    5.3750 C   0  0  0  0  0
   12.1230   -0.1130    4.9270 N   0  0  0  0  0
   12.7150    1.0860    4.7330 C   0  0  0  0  0
   12.1400    2.2630    5.0090 N   0  0  0  0  0
   10.8350    2.2390    5.4550 C   0  0  0  0  0
   10.2410    3.4070    5.7170 N   0  0  0  0  0
   10.1770    1.0260    5.6870 C   0  0  0  0  0
    8.8820    0.6950    6.1110 N   0  0  0  0  0
    8.7850   -0.6460    6.0780 C   0  0  0  0  0
   11.5000   -3.2430    5.5180 C   0  0  0  0  0
   11.6180   -4.2450    4.4880 O   0  0  0  0  0
   11.2590   -3.8120    6.9450 C   0  0  0  0  0
   12.1520   -4.9360    7.1330 N   0  0  0  0  0
   15.7330   -5.6500    7.7290 N   0  3  0  0  0
   14.3200   -6.0330    7.4930 C   0  0  0  0  0
   13.9240   -7.0190    8.6120 C   0  0  0  0  0
   14.7060   -8.2030    8.3800 O   0  0  0  0  0
   13.4210   -4.7770    7.4790 C   0  0  0  0  0
   13.9670   -3.5540    7.7000 O   0  0  0  0  0
    8.6415   -2.8928    9.4287 H   0  0  0  0  0
    8.0368   -4.5593    7.9264 H   0  0  0  0  0
    9.5517   -4.9337    8.7914 H   0  0  0  0  0
    9.8149   -5.3322    6.3681 H   0  0  0  0  0
   10.0815   -2.5573    4.2648 H   0  0  0  0  0
   13.7259    1.0955    4.3255 H   0  0  0  0  0
   10.7521    4.2799    5.5855 H   0  0  0  0  0
    9.2765    3.4256    6.0484 H   0  0  0  0  0
    7.8987   -1.2335    6.3177 H   0  0  0  0  0
   12.4157   -2.6580    5.4319 H   0  0  0  0  0
   11.7646   -3.8165    3.6415 H   0  0  0  0  0
   11.4142   -3.1237    7.7758 H   0  0  0  0  0
   11.7927   -5.8805    6.9946 H   0  0  0  0  0
   16.0320   -4.9958    7.0058 H   0  0  0  0  0
   15.8158   -5.2079    8.6445 H   0  0  0  0  0
   16.3197   -6.4838    7.6985 H   0  0  0  0  0
   14.1933   -6.5126    6.5224 H   0  0  0  0  0
   12.8562   -7.2368    8.5911 H   0  0  0  0  0
   14.1192   -6.6001    9.5992 H   0  0  0  0  0
   14.5002   -8.8577    9.0513 H   0  0  0  0  0
  2  1  1  0  0  0
  3  2  1  0  0  0
  3  4  1  0  0  0
 18  3  1  0  0  0
  5  4  1  0  0  0
  5  6  1  0  0  0
 16  5  1  0  0  0
  6  7  4  0  0  0
  6 15  4  0  0  0
  7  8  4  0  0  0
  7 13  4  0  0  0
  8  9  4  0  0  0
  9 10  4  0  0  0
 11 10  4  0  0  0
 11 12  1  0  0  0
 13 11  4  0  0  0
 14 13  4  0  0  0
 15 14  4  0  0  0
 16 17  1  0  0  0
 18 16  1  0  0  0
 19 18  1  0  0  0
 24 19  1  0  0  0
 21 20  1  0  0  0
 21 22  1  0  0  0
 21 24  1  0  0  0
 22 23  1  0  0  0
 24 25  2  0  0  0
  1 26  1  0  0  0
  2 27  1  0  0  0
  2 28  1  0  0  0
  3 29  1  0  0  0
  5 30  1  0  0  0
  9 31  1  0  0  0
 12 32  1  0  0  0
 12 33  1  0  0  0
 15 34  1  0  0  0
 16 35  1  0  0  0
 17 36  1  0  0  0
 18 37  1  0  0  0
 19 38  1  0  0  0
 20 39  1  0  0  0
 20 40  1  0  0  0
 20 41  1  0  0  0
 21 42  1  0  0  0
 22 43  1  0  0  0
 22 44  1  0  0  0
 23 45  1  0  0  0
M  END
$$$$
