4lke_ligand
  -I-interpret- 

 68 71  0  0  0  0  0  0  0  0999 V2000
   21.4220  -40.3190   29.6620 N   0  0  0  0  0
   22.3890  -40.0840   30.7290 C   0  0  0  0  0
   23.3190  -41.2830   30.8310 C   0  0  0  0  0
   22.8650  -42.4200   30.9610 O   0  0  0  0  0
   21.6680  -39.8580   32.0610 C   0  0  0  0  0
   22.5470  -39.3600   33.1700 C   0  0  0  0  0
   22.7930  -38.0520   33.5060 C   0  0  0  0  0
   23.2810  -40.1580   34.1080 C   0  0  0  0  0
   23.6420  -37.9950   34.5840 N   0  0  0  0  0
   23.9540  -39.2720   34.9740 C   0  0  0  0  0
   23.4370  -41.5340   34.2960 C   0  0  0  0  0
   24.7730  -39.7190   36.0110 C   0  0  0  0  0
   24.2510  -41.9790   35.3320 C   0  0  0  0  0
   24.9070  -41.0730   36.1750 C   0  0  0  0  0
   24.6200  -41.0270   30.7550 N   0  0  0  0  0
   25.6160  -42.0890   30.8520 C   0  0  0  0  0
   26.5070  -41.8720   32.0720 C   0  0  0  0  0
   26.8380  -40.7340   32.4200 O   0  0  0  0  0
   26.8910  -42.9680   32.7190 N   0  0  0  0  0
   17.1830  -41.0640   24.1120 C   0  0  0  0  0
   15.7580  -41.1820   23.5190 C   0  0  0  0  0
   15.7650  -42.3270   22.4970 C   0  0  0  0  0
   16.8280  -42.0520   21.4290 C   0  0  0  0  0
   18.2140  -41.8340   22.0910 C   0  0  0  0  0
   19.2870  -41.3750   21.0850 C   0  0  0  0  0
   14.8280  -41.4820   24.5580 O   0  0  0  0  0
   14.4840  -42.3770   21.8900 O   0  0  0  0  0
   16.4230  -40.9200   20.6490 O   0  0  0  0  0
   18.1380  -40.8370   23.1250 O   0  0  0  0  0
   20.5670  -41.4440   21.6960 O   0  0  0  0  0
   21.1220  -39.3150   28.9950 C   0  0  0  0  0
   21.3790  -38.1630   29.3550 O   0  0  0  0  0
   20.0740  -39.5220   27.9480 C   0  0  0  0  0
   20.0880  -40.6490   27.1020 C   0  0  0  0  0
   19.0820  -40.7960   26.1220 C   0  0  0  0  0
   18.0750  -39.8110   25.9880 C   0  0  0  0  0
   18.0740  -38.6840   26.8410 C   0  0  0  0  0
   19.0720  -38.5430   27.8060 C   0  0  0  0  0
   17.1290  -40.0080   25.0190 O   0  0  0  0  0
   21.0222  -41.2391   29.4776 H   0  0  0  0  0
   22.9705  -39.1909   30.5001 H   0  0  0  0  0
   21.2733  -40.8236   32.3770 H   0  0  0  0  0
   20.9109  -39.0934   31.8873 H   0  0  0  0  0
   22.3758  -37.1857   32.9926 H   0  0  0  0  0
   22.9304  -42.2448   33.6431 H   0  0  0  0  0
   25.2876  -39.0169   36.6670 H   0  0  0  0  0
   24.3805  -43.0496   35.4905 H   0  0  0  0  0
   25.5376  -41.4530   36.9787 H   0  0  0  0  0
   24.9307  -40.0641   30.6256 H   0  0  0  0  0
   26.2342  -42.0793   29.9543 H   0  0  0  0  0
   25.1054  -43.0469   30.9508 H   0  0  0  0  0
   27.4865  -42.8912   33.5435 H   0  0  0  0  0
   26.5901  -43.8857   32.3909 H   0  0  0  0  0
   17.4834  -41.9928   24.5969 H   0  0  0  0  0
   15.4672  -40.2448   23.0445 H   0  0  0  0  0
   15.9924  -43.2744   22.9857 H   0  0  0  0  0
   16.9232  -42.9115   20.7654 H   0  0  0  0  0
   18.4985  -42.8027   22.5019 H   0  0  0  0  0
   19.0843  -40.3484   20.7799 H   0  0  0  0  0
   19.2663  -42.0239   20.2095 H   0  0  0  0  0
   13.9461  -41.5542   24.1856 H   0  0  0  0  0
   14.4643  -43.0878   21.2450 H   0  0  0  0  0
   17.0854  -40.7422   19.9773 H   0  0  0  0  0
   21.2354  -41.1580   21.0691 H   0  0  0  0  0
   20.8697  -41.4018   27.2034 H   0  0  0  0  0
   19.0812  -41.6684   25.4686 H   0  0  0  0  0
   17.2956  -37.9270   26.7453 H   0  0  0  0  0
   19.0759  -37.6676   28.4554 H   0  0  0  0  0
  1  2  1  0  0  0
 31  1  1  0  0  0
  2  3  1  0  0  0
  2  5  1  0  0  0
  3  4  2  0  0  0
  3 15  1  0  0  0
  5  6  1  0  0  0
  6  7  4  0  0  0
  6  8  4  0  0  0
  7  9  4  0  0  0
  8 10  4  0  0  0
  8 11  4  0  0  0
 10  9  4  0  0  0
 10 12  4  0  0  0
 11 13  4  0  0  0
 12 14  4  0  0  0
 13 14  4  0  0  0
 15 16  1  0  0  0
 16 17  1  0  0  0
 17 18  2  0  0  0
 17 19  1  0  0  0
 20 21  1  0  0  0
 20 29  1  0  0  0
 39 20  1  0  0  0
 21 22  1  0  0  0
 21 26  1  0  0  0
 22 23  1  0  0  0
 22 27  1  0  0  0
 24 23  1  0  0  0
 23 28  1  0  0  0
 24 25  1  0  0  0
 29 24  1  0  0  0
 25 30  1  0  0  0
 31 32  2  0  0  0
 33 31  1  0  0  0
 34 33  4  0  0  0
 33 38  4  0  0  0
 35 34  4  0  0  0
 36 35  4  0  0  0
 36 37  4  0  0  0
 36 39  1  0  0  0
 37 38  4  0  0  0
  1 40  1  0  0  0
  2 41  1  0  0  0
  5 42  1  0  0  0
  5 43  1  0  0  0
  7 44  1  0  0  0
 11 45  1  0  0  0
 12 46  1  0  0  0
 13 47  1  0  0  0
 14 48  1  0  0  0
 15 49  1  0  0  0
 16 50  1  0  0  0
 16 51  1  0  0  0
 19 52  1  0  0  0
 19 53  1  0  0  0
 20 54  1  0  0  0
 21 55  1  0  0  0
 22 56  1  0  0  0
 23 57  1  0  0  0
 24 58  1  0  0  0
 25 59  1  0  0  0
 25 60  1  0  0  0
 26 61  1  0  0  0
 27 62  1  0  0  0
 28 63  1  0  0  0
 30 64  1  0  0  0
 34 65  1  0  0  0
 35 66  1  0  0  0
 37 67  1  0  0  0
 38 68  1  0  0  0
M  END
$$$$
