5n9t_ligand
  -I-interpret- 

 73 77  0  0  0  0  0  0  0  0999 V2000
   33.7560   14.2340   -6.9230 N   0  0  0  0  0
   34.4450   12.8700   -8.8590 C   0  0  0  0  0
   32.7880   11.5670   -9.9060 O   0  0  0  0  0
   28.0460   11.3930  -16.2310 F   0  0  0  0  0
   28.2950   12.6310  -15.7900 C   0  0  0  0  0
   29.5600   12.9820  -16.0290 F   0  0  0  0  0
   27.5400   13.5410  -16.3810 F   0  0  0  0  0
   27.9240   12.6470  -14.2680 C   0  0  0  0  0
   28.6530   11.6140  -13.4290 C   0  0  0  0  0
   27.8780   10.8260  -12.5750 C   0  0  0  0  0
   28.4660    9.8950  -11.7310 C   0  0  0  0  0
   29.8250    9.7060  -11.7240 C   0  0  0  0  0
   30.6040   10.4940  -12.5630 C   0  0  0  0  0
   30.0350   11.4340  -13.3840 C   0  0  0  0  0
   28.1080   14.0780  -13.7490 C   0  0  0  0  0
   27.6010   14.1990  -12.3140 C   0  0  0  0  0
   26.4340   14.0830  -12.1710 O   0  0  0  0  0
   28.3700   14.4310  -11.2190 N   0  0  0  0  0
   27.8140   14.4270   -9.8650 C   0  0  0  0  0
   28.5410   13.3400   -9.0800 C   0  0  0  0  0
   29.8180   14.7130  -11.2240 C   0  0  0  0  0
   30.5990   13.6920  -10.4330 C   0  0  0  0  0
   30.0510   13.5940   -8.9620 C   0  0  0  0  0
   30.1830   14.8950   -8.3650 O   0  0  0  0  0
   30.7660   12.4750   -8.1580 C   0  0  0  0  0
   32.1750   12.8390   -8.0710 N   0  0  0  0  0
   32.5490   13.7650   -7.0840 C   0  0  0  0  0
   33.0950   12.3580   -9.0220 C   0  0  0  0  0
   35.5510   12.6420   -9.5720 N   0  0  0  0  0
   36.4800   13.3340   -9.0410 N   0  0  0  0  0
   37.8540   13.3350   -9.5830 C   0  0  0  0  0
   36.0630   14.0710   -7.9810 C   0  0  0  0  0
   34.7350   13.7740   -7.8840 C   0  0  0  0  0
   36.8340   15.0230   -7.1070 C   0  0  0  0  0
   36.3230   16.2940   -6.8580 C   0  0  0  0  0
   37.0100   17.2140   -6.0680 C   0  0  0  0  0
   38.2410   16.8550   -5.5170 C   0  0  0  0  0
   39.0140   17.7810   -4.6160 C   0  0  0  0  0
   38.5060   17.5060   -3.2510 N   0  3  0  0  0
   38.7740   15.5920   -5.7590 C   0  0  0  0  0
   38.0830   14.6990   -6.5470 C   0  0  0  0  0
   26.8814   12.3453  -14.1683 H   0  0  0  0  0
   26.7944   10.9443  -12.5716 H   0  0  0  0  0
   27.8387    9.3046  -11.0632 H   0  0  0  0  0
   30.2819    8.9571  -11.0771 H   0  0  0  0  0
   31.6860   10.3627  -12.5687 H   0  0  0  0  0
   30.6754   12.0521  -14.0133 H   0  0  0  0  0
   27.5400   14.7591  -14.3827 H   0  0  0  0  0
   29.1688   14.3278  -13.7709 H   0  0  0  0  0
   26.7425   14.2289   -9.8914 H   0  0  0  0  0
   27.9519   15.3989   -9.3913 H   0  0  0  0  0
   28.4030   12.3981   -9.6109 H   0  0  0  0  0
   28.1268   13.3248   -8.0719 H   0  0  0  0  0
   29.9754   15.6898  -10.7666 H   0  0  0  0  0
   30.1665   14.6819  -12.2563 H   0  0  0  0  0
   31.6454   13.9955  -10.4006 H   0  0  0  0  0
   30.4964   12.7191  -10.9136 H   0  0  0  0  0
   31.1139   15.1077   -8.2665 H   0  0  0  0  0
   30.6486   11.5115   -8.6539 H   0  0  0  0  0
   30.3320   12.3807   -7.1626 H   0  0  0  0  0
   31.7747   14.1178   -6.4027 H   0  0  0  0  0
   38.2546   12.3216   -9.5560 H   0  0  0  0  0
   37.8369   13.6930  -10.6124 H   0  0  0  0  0
   38.4809   13.9911   -8.9792 H   0  0  0  0  0
   35.3633   16.5761   -7.2910 H   0  0  0  0  0
   36.5906   18.2028   -5.8826 H   0  0  0  0  0
   38.8732   18.8251   -4.8954 H   0  0  0  0  0
   40.0880   17.6095   -4.6882 H   0  0  0  0  0
   38.9907   18.1044   -2.5821 H   0  0  0  0  0
   37.5047   17.6976   -3.2171 H   0  0  0  0  0
   38.6742   16.5274   -3.0177 H   0  0  0  0  0
   39.7343   15.3112   -5.3265 H   0  0  0  0  0
   38.5144   13.7171   -6.7416 H   0  0  0  0  0
 27  1  2  0  0  0
  1 33  1  0  0  0
  2 28  1  0  0  0
  2 29  4  0  0  0
 33  2  4  0  0  0
 28  3  2  0  0  0
  5  4  1  0  0  0
  5  6  1  0  0  0
  5  7  1  0  0  0
  8  5  1  0  0  0
  8  9  1  0  0  0
 15  8  1  0  0  0
  9 10  4  0  0  0
  9 14  4  0  0  0
 10 11  4  0  0  0
 11 12  4  0  0  0
 13 12  4  0  0  0
 14 13  4  0  0  0
 16 15  1  0  0  0
 16 17  2  0  0  0
 18 16  1  0  0  0
 19 18  1  0  0  0
 21 18  1  0  0  0
 20 19  1  0  0  0
 23 20  1  0  0  0
 22 21  1  0  0  0
 23 22  1  0  0  0
 23 24  1  0  0  0
 25 23  1  0  0  0
 26 25  1  0  0  0
 26 27  1  0  0  0
 26 28  1  0  0  0
 29 30  4  0  0  0
 30 31  1  0  0  0
 30 32  4  0  0  0
 32 33  4  0  0  0
 32 34  1  0  0  0
 34 35  4  0  0  0
 34 41  4  0  0  0
 35 36  4  0  0  0
 36 37  4  0  0  0
 37 38  1  0  0  0
 37 40  4  0  0  0
 38 39  1  0  0  0
 40 41  4  0  0  0
  8 42  1  0  0  0
 10 43  1  0  0  0
 11 44  1  0  0  0
 12 45  1  0  0  0
 13 46  1  0  0  0
 14 47  1  0  0  0
 15 48  1  0  0  0
 15 49  1  0  0  0
 19 50  1  0  0  0
 19 51  1  0  0  0
 20 52  1  0  0  0
 20 53  1  0  0  0
 21 54  1  0  0  0
 21 55  1  0  0  0
 22 56  1  0  0  0
 22 57  1  0  0  0
 24 58  1  0  0  0
 25 59  1  0  0  0
 25 60  1  0  0  0
 27 61  1  0  0  0
 31 62  1  0  0  0
 31 63  1  0  0  0
 31 64  1  0  0  0
 35 65  1  0  0  0
 36 66  1  0  0  0
 38 67  1  0  0  0
 38 68  1  0  0  0
 39 69  1  0  0  0
 39 70  1  0  0  0
 39 71  1  0  0  0
 40 72  1  0  0  0
 41 73  1  0  0  0
M  END
$$$$
