6htg_ligand
  -I-interpret- 

 31 32  0  0  0  0  0  0  0  0999 V2000
   46.9100   31.7060   85.0700 N   0  0  0  0  0
   46.6990   32.7090   85.9140 C   0  0  0  0  0
   47.2130   32.7350   87.0290 O   0  0  0  0  0
   45.7610   33.7890   85.4640 C   0  0  0  0  0
   43.0670   38.9700   91.4020 C   0  0  0  0  0
   44.3440   39.2970   91.0080 C   0  0  0  0  0
   44.8670   38.7770   89.8400 C   0  0  0  0  0
   45.4790   34.8700   86.2970 C   0  0  0  0  0
   45.0580   33.6540   84.2710 C   0  0  0  0  0
   44.0340   34.5310   83.9590 C   0  0  0  0  0
   43.7190   35.5570   84.8300 C   0  0  0  0  0
   44.4580   35.7750   85.9900 C   0  0  0  0  0
   44.8270   37.2440   87.9230 C   0  0  0  0  0
   44.1110   37.9130   89.0500 C   0  0  0  0  0
   42.8110   37.6180   89.4390 C   0  0  0  0  0
   42.3000   38.1370   90.6160 C   0  0  0  0  0
   44.0910   36.8350   86.8660 N   0  0  0  0  0
   47.6340   30.5960   85.5040 O   0  0  0  0  0
   46.0440   37.1350   87.9530 O   0  0  0  0  0
   42.3630   36.5750   84.4680 Cl  0  0  0  0  0
   46.5476   31.7468   84.1174 H   0  0  0  0  0
   42.6631   39.3684   92.3327 H   0  0  0  0  0
   44.9455   39.9691   91.6200 H   0  0  0  0  0
   45.8784   39.0444   89.5340 H   0  0  0  0  0
   46.0652   35.0128   87.2048 H   0  0  0  0  0
   45.3153   32.8529   83.5781 H   0  0  0  0  0
   43.4775   34.4130   83.0292 H   0  0  0  0  0
   42.1904   36.9750   88.8148 H   0  0  0  0  0
   41.2849   37.8855   90.9232 H   0  0  0  0  0
   43.2120   37.3192   86.6834 H   0  0  0  0  0
   47.7028   29.9603   84.7879 H   0  0  0  0  0
  2  1  1  0  0  0
  1 18  1  0  0  0
  2  3  2  0  0  0
  4  2  1  0  0  0
  8  4  4  0  0  0
  4  9  4  0  0  0
  6  5  4  0  0  0
  5 16  4  0  0  0
  7  6  4  0  0  0
 14  7  4  0  0  0
 12  8  4  0  0  0
 10  9  4  0  0  0
 11 10  4  0  0  0
 12 11  4  0  0  0
 11 20  1  0  0  0
 17 12  1  0  0  0
 13 14  1  0  0  0
 13 17  1  0  0  0
 13 19  2  0  0  0
 14 15  4  0  0  0
 15 16  4  0  0  0
  1 21  1  0  0  0
  5 22  1  0  0  0
  6 23  1  0  0  0
  7 24  1  0  0  0
  8 25  1  0  0  0
  9 26  1  0  0  0
 10 27  1  0  0  0
 15 28  1  0  0  0
 16 29  1  0  0  0
 17 30  1  0  0  0
 18 31  1  0  0  0
M  END
$$$$
