5ei8_ligand
  -I-interpret- 

 51 55  0  0  0  0  0  0  0  0999 V2000
    1.0380  -39.0720  -11.7080 C   0  0  0  0  0
    1.3590  -37.8170  -12.3740 N   0  0  0  0  0
    1.4570  -36.6030  -11.8230 C   0  0  0  0  0
    1.5850  -37.8090  -13.6970 N   0  0  0  0  0
    1.8300  -36.5430  -13.9770 C   0  0  0  0  0
    1.7600  -35.7300  -12.8370 C   0  0  0  0  0
    1.9210  -34.2990  -12.7390 C   0  0  0  0  0
    2.6590  -33.7360  -13.6900 N   0  0  0  0  0
    2.8120  -32.4000  -13.7080 C   0  0  0  0  0
    2.2560  -31.5590  -12.7970 C   0  0  0  0  0
    1.4740  -32.1110  -11.7650 C   0  0  0  0  0
    1.3050  -33.5110  -11.7400 C   0  0  0  0  0
    0.5260  -34.1180  -10.8040 N   0  0  0  0  0
   -0.0820  -33.3080   -9.9180 C   0  0  0  0  0
   -0.0030  -31.9660   -9.8660 N   0  0  0  0  0
    0.7610  -31.4040  -10.7740 C   0  0  0  0  0
   -0.8430  -33.9120   -8.9710 N   0  0  0  0  0
   -1.0740  -35.2490   -8.6580 C   0  0  0  0  0
   -1.1680  -35.6050   -7.3080 C   0  0  0  0  0
   -0.9530  -34.5800   -6.4300 O   0  0  0  0  0
   -1.4280  -34.7360   -5.0970 C   0  0  0  0  0
   -1.4480  -36.9080   -6.9430 C   0  0  0  0  0
   -1.6390  -37.8770   -7.9210 C   0  0  0  0  0
   -1.5260  -37.5290   -9.2610 C   0  0  0  0  0
   -1.2460  -36.2270   -9.6320 C   0  0  0  0  0
   -2.0050  -39.2580   -7.5140 C   0  0  0  0  0
   -2.3930  -39.6700   -6.2300 C   0  0  0  0  0
   -2.6720  -40.9600   -6.1880 N   0  0  0  0  0
   -2.4650  -41.3840   -7.4440 N   0  0  0  0  0
   -2.6830  -42.7860   -7.7730 C   0  0  0  0  0
   -2.0660  -40.4050   -8.2650 C   0  0  0  0  0
    1.7843  -39.2756  -10.9401 H   0  0  0  0  0
    0.0528  -38.9961  -11.2479 H   0  0  0  0  0
    1.0376  -39.8802  -12.4394 H   0  0  0  0  0
    1.3221  -36.3545  -10.7703 H   0  0  0  0  0
    2.0596  -36.1731  -14.9763 H   0  0  0  0  0
    3.4192  -31.9652  -14.5020 H   0  0  0  0  0
    2.4119  -30.4823  -12.8638 H   0  0  0  0  0
    0.8504  -30.3177  -10.7612 H   0  0  0  0  0
   -1.3446  -33.2580   -8.3701 H   0  0  0  0  0
   -2.5087  -34.8773   -5.1119 H   0  0  0  0  0
   -0.9529  -35.6055   -4.6428 H   0  0  0  0  0
   -1.1848  -33.8442   -4.5193 H   0  0  0  0  0
   -1.5190  -37.1758   -5.8888 H   0  0  0  0  0
   -1.6596  -38.2911  -10.0287 H   0  0  0  0  0
   -1.1601  -35.9670  -10.6871 H   0  0  0  0  0
   -2.4566  -39.0042   -5.3693 H   0  0  0  0  0
   -2.0230  -43.4069   -7.1672 H   0  0  0  0  0
   -3.7207  -43.0489   -7.5679 H   0  0  0  0  0
   -2.4678  -42.9477   -8.8292 H   0  0  0  0  0
   -1.8342  -40.5004   -9.3258 H   0  0  0  0  0
  1  2  1  0  0  0
  2  3  4  0  0  0
  2  4  4  0  0  0
  3  6  4  0  0  0
  4  5  4  0  0  0
  5  6  4  0  0  0
  6  7  1  0  0  0
  7  8  4  0  0  0
  7 12  4  0  0  0
  8  9  4  0  0  0
  9 10  4  0  0  0
 10 11  4  0  0  0
 11 12  4  0  0  0
 11 16  4  0  0  0
 12 13  4  0  0  0
 13 14  4  0  0  0
 14 15  4  0  0  0
 14 17  1  0  0  0
 15 16  4  0  0  0
 17 18  1  0  0  0
 18 19  4  0  0  0
 18 25  4  0  0  0
 19 20  1  0  0  0
 19 22  4  0  0  0
 20 21  1  0  0  0
 22 23  4  0  0  0
 23 24  4  0  0  0
 23 26  1  0  0  0
 24 25  4  0  0  0
 26 27  4  0  0  0
 26 31  4  0  0  0
 27 28  4  0  0  0
 28 29  4  0  0  0
 29 30  1  0  0  0
 29 31  4  0  0  0
  1 32  1  0  0  0
  1 33  1  0  0  0
  1 34  1  0  0  0
  3 35  1  0  0  0
  5 36  1  0  0  0
  9 37  1  0  0  0
 10 38  1  0  0  0
 16 39  1  0  0  0
 17 40  1  0  0  0
 21 41  1  0  0  0
 21 42  1  0  0  0
 21 43  1  0  0  0
 22 44  1  0  0  0
 24 45  1  0  0  0
 25 46  1  0  0  0
 27 47  1  0  0  0
 30 48  1  0  0  0
 30 49  1  0  0  0
 30 50  1  0  0  0
 31 51  1  0  0  0
M  END
$$$$
