5aic_ligand
  -I-interpret- 

 21 22  0  0  0  0  0  0  0  0999 V2000
   13.1070    9.5840    7.9700 O   0  0  0  0  0
   14.1180    9.4020    8.6370 C   0  0  0  0  0
   15.3360    8.7400    8.0540 C   0  0  0  0  0
   14.2160    9.7360    9.9760 N   0  0  0  0  0
   15.4050    9.9130   10.7120 C   0  0  0  0  0
   16.6520    9.9360   10.1120 C   0  0  0  0  0
   15.2800   10.0750   12.0740 C   0  0  0  0  0
   16.4060   10.2650   12.8470 C   0  0  0  0  0
   17.6530   10.2890   12.2600 C   0  0  0  0  0
   18.8470   10.4940   13.1210 C   0  0  0  0  0
   17.7770   10.1210   10.8930 C   0  0  0  0  0
   16.8150    9.7350    8.3640 S   0  0  0  0  0
   15.1998    8.6372    6.9774 H   0  0  0  0  0
   15.4640    7.7636    8.5213 H   0  0  0  0  0
   13.3398    9.8674   10.4814 H   0  0  0  0  0
   14.2945   10.0531   12.5392 H   0  0  0  0  0
   16.3098   10.3965   13.9247 H   0  0  0  0  0
   18.7645   11.4532   13.6321 H   0  0  0  0  0
   18.9044    9.6923   13.8573 H   0  0  0  0  0
   19.7447   10.4863   12.5029 H   0  0  0  0  0
   18.7640   10.1345   10.4306 H   0  0  0  0  0
  1  2  2  0  0  0
  2  3  1  0  0  0
  2  4  1  0  0  0
  3 12  1  0  0  0
  4  5  1  0  0  0
  5  6  4  0  0  0
  5  7  4  0  0  0
  6 11  4  0  0  0
  6 12  1  0  0  0
  7  8  4  0  0  0
  8  9  4  0  0  0
  9 10  1  0  0  0
  9 11  4  0  0  0
  3 13  1  0  0  0
  3 14  1  0  0  0
  4 15  1  0  0  0
  7 16  1  0  0  0
  8 17  1  0  0  0
 10 18  1  0  0  0
 10 19  1  0  0  0
 10 20  1  0  0  0
 11 21  1  0  0  0
M  END
$$$$
