### 
### Created by X-TOOL on Mon Sep 10 21:13:04 2018
### 

@<TRIPOS>MOLECULE
3k15_ligand
   67    68     1     0     0
SMALL
GAST_HUCK


@<TRIPOS>ATOM
      1 N         -27.7680   54.9460    6.2900 N.4       1 SEP         0.2398
      2 CA        -26.3990   54.6910    5.7660 C.3       1 SEP         0.0934
      3 CB        -26.4460   53.6750    4.6320 C.3       1 SEP         0.1380
      4 OG        -26.2770   52.3750    5.1330 O.3       1 SEP        -0.2680
      5 C         -25.7850   55.9850    5.2650 C.2       1 SEP         0.2318
      6 O         -26.4990   56.9250    4.9390 O.2       1 SEP        -0.3904
      7 P         -27.4420   51.4380    4.5800 P.3       1 SEP         0.2012
      8 O1P       -27.0600   50.7830    3.1640 O.co2     1 SEP        -0.5537
      9 O2P       -28.7210   52.3990    4.4670 O.co2     1 SEP        -0.5537
     10 O3P       -27.6870   50.1830    5.5370 O.co2     1 SEP        -0.5537
     11 N         -24.4530   56.0410    5.2100 N.am      1 PRO        -0.2471
     12 CA        -23.8050   57.1880    4.5990 C.3       1 PRO         0.1339
     13 C         -23.8570   57.0150    3.0880 C.2       1 PRO         0.2042
     14 O         -23.8670   55.8830    2.6160 O.2       1 PRO        -0.3944
     15 CB        -22.3710   57.0710    5.1050 C.3       1 PRO        -0.0104
     16 CG        -22.1580   55.5850    5.2630 C.3       1 PRO        -0.0281
     17 CD        -23.4960   55.0090    5.6460 C.3       1 PRO         0.0371
     18 N         -23.9200   58.1090    2.3320 N.am      1 THR        -0.2613
     19 CA        -23.8790   58.0050    0.8670 C.3       1 THR         0.1565
     20 C         -22.6630   58.7170    0.2840 C.2       1 THR         0.2066
     21 O         -22.0510   59.5730    0.9240 O.2       1 THR        -0.3943
     22 CB        -25.1430   58.5670    0.1980 C.3       1 THR         0.0924
     23 OG1       -25.3410   59.9240    0.6140 O.3       1 THR        -0.3874
     24 CG2       -26.3700   57.7400    0.5580 C.3       1 THR        -0.0346
     25 N         -22.3160   58.3590   -0.9430 N.am      1 PHE        -0.2619
     26 CA        -21.1270   58.9100   -1.5790 C.3       1 PHE         0.1401
     27 C         -21.4130   59.3300   -3.0120 C.2       1 PHE         0.2012
     28 O         -21.7290   58.4980   -3.8750 O.2       1 PHE        -0.3946
     29 CB        -20.0070   57.8750   -1.5670 C.3       1 PHE         0.0214
     30 CG        -19.7400   57.2940   -0.2150 C.ar      1 PHE        -0.0386
     31 CD1       -20.3030   56.0850    0.1530 C.ar      1 PHE        -0.0601
     32 CD2       -18.9230   57.9560    0.6850 C.ar      1 PHE        -0.0601
     33 CE1       -20.0590   55.5490    1.3900 C.ar      1 PHE        -0.0686
     34 CE2       -18.6670   57.4210    1.9320 C.ar      1 PHE        -0.0686
     35 CZ        -19.2370   56.2170    2.2880 C.ar      1 PHE        -0.0687
     36 N         -21.2890   60.6260   -3.2610 N.am      1 NH2        -0.2988
     37 H         -28.1714   54.0707    6.6239 H         1 SEP         0.2016
     38 H         -27.7174   55.6138    7.0594 H         1 SEP         0.2016
     39 H         -28.3504   55.3277    5.5447 H         1 SEP         0.2016
     40 H         -25.7874   54.2911    6.5748 H         1 SEP         0.1125
     41 H         -25.6427   53.8914    3.9277 H         1 SEP         0.0696
     42 H         -27.4142   53.7413    4.1357 H         1 SEP         0.0696
     43 H         -24.2569   58.1514    4.8353 H         1 PRO         0.0802
     44 H         -22.2177   57.6114    6.0391 H         1 PRO         0.0313
     45 H         -21.6533   57.5200    4.4184 H         1 PRO         0.0313
     46 H         -21.4062   55.3738    6.0235 H         1 PRO         0.0287
     47 H         -21.7877   55.1400    4.3394 H         1 PRO         0.0287
     48 H         -23.6833   54.0420    5.1793 H         1 PRO         0.0524
     49 H         -23.5690   54.7958    6.7124 H         1 PRO         0.0524
     50 H         -23.9973   59.0256    2.7728 H         1 THR         0.1884
     51 H         -23.8163   56.9377    0.6550 H         1 THR         0.0826
     52 H         -25.0068   58.5242   -0.8826 H         1 THR         0.0639
     53 H         -26.1309   60.2738    0.1954 H         1 THR         0.2101
     54 H         -26.2255   56.7130    0.2227 H         1 THR         0.0257
     55 H         -26.5119   57.7542    1.6386 H         1 THR         0.0257
     56 H         -27.2478   58.1629    0.0694 H         1 THR         0.0257
     57 H         -22.8907   57.6865   -1.4509 H         1 PHE         0.1885
     58 H         -20.8219   59.7922   -1.0162 H         1 PHE         0.0823
     59 H         -19.0957   58.3771   -1.8918 H         1 PHE         0.0474
     60 H         -20.3124   57.0566   -2.2190 H         1 PHE         0.0474
     61 H         -20.9469   55.5538   -0.5480 H         1 PHE         0.0557
     62 H         -18.4766   58.9105    0.4062 H         1 PHE         0.0557
     63 H         -20.5106   54.5972    1.6696 H         1 PHE         0.0599
     64 H         -18.0177   57.9477    2.6313 H         1 PHE         0.0599
     65 H         -19.0428   55.7905    3.2721 H         1 PHE         0.0559
     66 H         -21.4564   60.9829   -4.2017 H         1 NH2         0.1815
     67 H         -21.0262   61.2664   -2.5119 H         1 NH2         0.1815
@<TRIPOS>BOND
     1    1    2 1  
     2    2    3 1  
     3    2    5 1  
     4    3    4 1  
     5    4    7 1  
     6    5    6 2  
     7    5   11 am 
     8    7    8 ar 
     9    7    9 ar 
    10    7   10 ar 
    11   11   12 1  
    12   11   17 1  
    13   12   13 1  
    14   12   15 1  
    15   13   14 2  
    16   13   18 am 
    17   15   16 1  
    18   16   17 1  
    19   18   19 1  
    20   19   20 1  
    21   19   22 1  
    22   20   21 2  
    23   20   25 am 
    24   22   23 1  
    25   22   24 1  
    26   25   26 1  
    27   26   27 1  
    28   26   29 1  
    29   27   28 2  
    30   27   36 am 
    31   29   30 1  
    32   30   31 ar 
    33   30   32 ar 
    34   31   33 ar 
    35   32   34 ar 
    36   33   35 ar 
    37   34   35 ar 
    38    1   37 1  
    39    1   38 1  
    40    1   39 1  
    41    2   40 1  
    42    3   41 1  
    43    3   42 1  
    44   12   43 1  
    45   15   44 1  
    46   15   45 1  
    47   16   46 1  
    48   16   47 1  
    49   17   48 1  
    50   17   49 1  
    51   18   50 1  
    52   19   51 1  
    53   22   52 1  
    54   23   53 1  
    55   24   54 1  
    56   24   55 1  
    57   24   56 1  
    58   25   57 1  
    59   26   58 1  
    60   29   59 1  
    61   29   60 1  
    62   31   61 1  
    63   32   62 1  
    64   33   63 1  
    65   34   64 1  
    66   35   65 1  
    67   36   66 1  
    68   36   67 1  
@<TRIPOS>SUBSTRUCTURE
     1 SEP         1

