3k15_ligand
  -I-interpret- 

 69 70  0  0  0  0  0  0  0  0999 V2000
  -27.7680   54.9460    6.2900 N   0  3  0  0  0
  -26.3990   54.6910    5.7660 C   0  0  0  0  0
  -26.4460   53.6750    4.6320 C   0  0  0  0  0
  -26.2770   52.3750    5.1330 O   0  0  0  0  0
  -25.7850   55.9850    5.2650 C   0  0  0  0  0
  -26.4990   56.9250    4.9390 O   0  0  0  0  0
  -27.4420   51.4380    4.5800 P   0  0  0  0  0
  -27.0600   50.7830    3.1640 O   0  0  0  0  0
  -28.7210   52.3990    4.4670 O   0  0  0  0  0
  -27.6870   50.1830    5.5370 O   0  0  0  0  0
  -24.4530   56.0410    5.2100 N   0  0  0  0  0
  -23.8050   57.1880    4.5990 C   0  0  0  0  0
  -23.8570   57.0150    3.0880 C   0  0  0  0  0
  -23.8670   55.8830    2.6160 O   0  0  0  0  0
  -22.3710   57.0710    5.1050 C   0  0  0  0  0
  -22.1580   55.5850    5.2630 C   0  0  0  0  0
  -23.4960   55.0090    5.6460 C   0  0  0  0  0
  -23.9200   58.1090    2.3320 N   0  0  0  0  0
  -23.8790   58.0050    0.8670 C   0  0  0  0  0
  -22.6630   58.7170    0.2840 C   0  0  0  0  0
  -22.0510   59.5730    0.9240 O   0  0  0  0  0
  -25.1430   58.5670    0.1980 C   0  0  0  0  0
  -25.3410   59.9240    0.6140 O   0  0  0  0  0
  -26.3700   57.7400    0.5580 C   0  0  0  0  0
  -22.3160   58.3590   -0.9430 N   0  0  0  0  0
  -21.1270   58.9100   -1.5790 C   0  0  0  0  0
  -21.4130   59.3300   -3.0120 C   0  0  0  0  0
  -21.7290   58.4980   -3.8750 O   0  0  0  0  0
  -20.0070   57.8750   -1.5670 C   0  0  0  0  0
  -19.7400   57.2940   -0.2150 C   0  0  0  0  0
  -20.3030   56.0850    0.1530 C   0  0  0  0  0
  -18.9230   57.9560    0.6850 C   0  0  0  0  0
  -20.0590   55.5490    1.3900 C   0  0  0  0  0
  -18.6670   57.4210    1.9320 C   0  0  0  0  0
  -19.2370   56.2170    2.2880 C   0  0  0  0  0
  -21.2890   60.6260   -3.2610 N   0  0  0  0  0
  -28.1714   54.0707    6.6239 H   0  0  0  0  0
  -27.7174   55.6138    7.0594 H   0  0  0  0  0
  -28.3504   55.3277    5.5447 H   0  0  0  0  0
  -25.7874   54.2911    6.5748 H   0  0  0  0  0
  -25.6427   53.8914    3.9277 H   0  0  0  0  0
  -27.4142   53.7413    4.1357 H   0  0  0  0  0
  -26.8952   51.4797    2.5245 H   0  0  0  0  0
  -28.5179   53.1327    3.8822 H   0  0  0  0  0
  -24.2569   58.1514    4.8353 H   0  0  0  0  0
  -22.2177   57.6114    6.0391 H   0  0  0  0  0
  -21.6533   57.5200    4.4184 H   0  0  0  0  0
  -21.4062   55.3738    6.0235 H   0  0  0  0  0
  -21.7877   55.1400    4.3394 H   0  0  0  0  0
  -23.6833   54.0420    5.1793 H   0  0  0  0  0
  -23.5690   54.7958    6.7124 H   0  0  0  0  0
  -23.9973   59.0256    2.7728 H   0  0  0  0  0
  -23.8163   56.9377    0.6550 H   0  0  0  0  0
  -25.0068   58.5242   -0.8826 H   0  0  0  0  0
  -26.1309   60.2738    0.1954 H   0  0  0  0  0
  -26.2255   56.7130    0.2227 H   0  0  0  0  0
  -26.5119   57.7542    1.6386 H   0  0  0  0  0
  -27.2478   58.1629    0.0694 H   0  0  0  0  0
  -22.8907   57.6865   -1.4509 H   0  0  0  0  0
  -20.8219   59.7922   -1.0162 H   0  0  0  0  0
  -19.0957   58.3771   -1.8918 H   0  0  0  0  0
  -20.3124   57.0566   -2.2190 H   0  0  0  0  0
  -20.9469   55.5538   -0.5480 H   0  0  0  0  0
  -18.4766   58.9105    0.4062 H   0  0  0  0  0
  -20.5106   54.5972    1.6696 H   0  0  0  0  0
  -18.0177   57.9477    2.6313 H   0  0  0  0  0
  -19.0428   55.7905    3.2721 H   0  0  0  0  0
  -21.4564   60.9829   -4.2017 H   0  0  0  0  0
  -21.0262   61.2664   -2.5119 H   0  0  0  0  0
  1  2  1  0  0  0
  2  3  1  0  0  0
  2  5  1  0  0  0
  3  4  1  0  0  0
  4  7  1  0  0  0
  5  6  2  0  0  0
  5 11  1  0  0  0
  7  8  1  0  0  0
  7  9  1  0  0  0
  7 10  2  0  0  0
 11 12  1  0  0  0
 11 17  1  0  0  0
 12 13  1  0  0  0
 12 15  1  0  0  0
 13 14  2  0  0  0
 13 18  1  0  0  0
 15 16  1  0  0  0
 16 17  1  0  0  0
 18 19  1  0  0  0
 19 20  1  0  0  0
 19 22  1  0  0  0
 20 21  2  0  0  0
 20 25  1  0  0  0
 22 23  1  0  0  0
 22 24  1  0  0  0
 25 26  1  0  0  0
 26 27  1  0  0  0
 26 29  1  0  0  0
 27 28  2  0  0  0
 27 36  1  0  0  0
 29 30  1  0  0  0
 30 31  4  0  0  0
 30 32  4  0  0  0
 31 33  4  0  0  0
 32 34  4  0  0  0
 33 35  4  0  0  0
 34 35  4  0  0  0
  1 37  1  0  0  0
  1 38  1  0  0  0
  1 39  1  0  0  0
  2 40  1  0  0  0
  3 41  1  0  0  0
  3 42  1  0  0  0
  8 43  1  0  0  0
  9 44  1  0  0  0
 12 45  1  0  0  0
 15 46  1  0  0  0
 15 47  1  0  0  0
 16 48  1  0  0  0
 16 49  1  0  0  0
 17 50  1  0  0  0
 17 51  1  0  0  0
 18 52  1  0  0  0
 19 53  1  0  0  0
 22 54  1  0  0  0
 23 55  1  0  0  0
 24 56  1  0  0  0
 24 57  1  0  0  0
 24 58  1  0  0  0
 25 59  1  0  0  0
 26 60  1  0  0  0
 29 61  1  0  0  0
 29 62  1  0  0  0
 31 63  1  0  0  0
 32 64  1  0  0  0
 33 65  1  0  0  0
 34 66  1  0  0  0
 35 67  1  0  0  0
 36 68  1  0  0  0
 36 69  1  0  0  0
M  END
$$$$
