3avi_ligand
  -I-interpret- 

128128  0  0  0  0  0  0  0  0999 V2000
    9.1190  -52.9960   13.1520 N   0  0  0  0  0
    9.5400  -53.1060   14.5370 C   0  0  0  0  0
    8.7870  -52.1540   15.4550 C   0  0  0  0  0
    9.2700  -51.9040   16.5750 O   0  0  0  0  0
   11.0150  -52.7710   14.6540 C   0  0  0  0  0
   11.7620  -53.6980   13.9000 O   0  0  0  0  0
    7.6180  -51.7000   14.9960 N   0  0  0  0  0
    6.6950  -50.7910   15.6500 C   0  0  0  0  0
    7.4010  -49.4870   16.1230 C   0  0  0  0  0
    7.1090  -49.0020   17.2320 O   0  0  0  0  0
    5.8850  -51.4530   16.8510 C   0  0  0  0  0
    4.9010  -52.6150   16.4820 C   0  0  0  0  0
    4.2670  -53.1980   17.7400 C   0  0  0  0  0
    3.7670  -52.1810   15.5210 C   0  0  0  0  0
    8.3010  -48.9520   15.2860 N   0  0  0  0  0
    8.9620  -47.6690   15.5120 C   0  0  0  0  0
    8.5050  -46.7590   14.3750 C   0  0  0  0  0
    8.1550  -47.2520   13.2880 O   0  0  0  0  0
   10.4520  -47.8240   15.4150 C   0  0  0  0  0
   10.9630  -48.8740   16.4250 C   0  0  0  0  0
   10.7510  -48.4320   17.8450 C   0  0  0  0  0
   11.4510  -49.4770   18.7920 C   0  0  0  0  0
   10.9110  -49.2050   20.1280 N   0  3  0  0  0
    8.5270  -45.4410   14.6140 N   0  0  0  0  0
    8.0170  -44.5300   13.6010 C   0  0  0  0  0
    8.8420  -44.5940   12.3300 C   0  0  0  0  0
    8.3330  -44.2450   11.2250 O   0  0  0  0  0
    8.0090  -43.0810   14.1950 C   0  0  0  0  0
    7.0440  -43.0050   15.4310 C   0  0  0  0  0
    7.5580  -42.0390   13.1440 C   0  0  0  0  0
    5.4870  -43.2250   15.1000 C   0  0  0  0  0
   10.1260  -44.8780   12.5040 N   0  0  0  0  0
   11.0340  -45.0430   11.3910 C   0  0  0  0  0
   11.1610  -46.4900   10.9060 C   0  0  0  0  0
   11.9330  -46.7020    9.9330 O   0  0  0  0  0
   12.4710  -44.4760   11.6970 C   0  0  0  0  0
   13.1040  -45.0820   12.9550 C   0  0  0  0  0
   14.3340  -44.8320   13.2170 O   0  0  0  0  0
   12.4100  -45.7860   13.7320 O   0  0  0  0  0
   10.3500  -47.4150   11.4340 N   0  0  0  0  0
   10.4050  -48.8370   11.0200 C   0  0  0  0  0
    9.2850  -49.5750   11.6020 C   0  0  0  0  0
    9.4480  -50.1090   12.7260 O   0  0  0  0  0
   11.7410  -49.4740   11.4860 C   0  0  0  0  0
   11.8670  -50.9470   11.0200 C   0  0  0  0  0
   10.9200  -51.5050   10.5290 O   0  0  0  0  0
   13.0720  -51.5230   11.1290 N   0  0  0  0  0
    8.1330  -49.5310   10.9310 N   0  0  0  0  0
    6.9180  -50.0420   11.5780 C   0  0  0  0  0
    6.9260  -51.5920   11.6600 C   0  0  0  0  0
    6.1370  -52.1600   12.4490 O   0  0  0  0  0
    5.6580  -49.5240   10.9070 C   0  0  0  0  0
    5.3050  -48.0990   11.4130 C   0  0  0  0  0
    5.0040  -47.9900   13.2250 S   0  0  0  0  0
    3.3970  -48.6100   13.1640 C   0  0  0  0  0
    7.7960  -52.2510   10.8900 N   0  0  0  0  0
    7.9210  -53.7190   11.0900 C   0  0  0  0  0
    8.4260  -53.9650   12.5440 C   0  0  0  0  0
    8.2020  -55.0590   13.0850 O   0  0  0  0  0
    8.9820  -54.2880   10.2040 C   0  0  0  0  0
    8.5810  -54.2840    8.7060 C   0  0  0  0  0
    7.3600  -54.1120    8.4320 O   0  0  0  0  0
    9.4940  -54.4820    7.8720 O   0  0  0  0  0
    9.3588  -52.1549   12.6271 H   0  0  0  0  0
    9.3315  -54.1316   14.8414 H   0  0  0  0  0
   11.3194  -52.8200   15.6995 H   0  0  0  0  0
   11.1926  -51.7643   14.2758 H   0  0  0  0  0
   12.6961  -53.4886   13.9720 H   0  0  0  0  0
    7.3399  -52.0329   14.0728 H   0  0  0  0  0
    5.9628  -50.5336   14.8847 H   0  0  0  0  0
    5.2671  -50.6586   17.2696 H   0  0  0  0  0
    6.6331  -51.8920   17.5110 H   0  0  0  0  0
    5.5077  -53.3610   15.9687 H   0  0  0  0  0
    5.0486  -53.5887   18.3916 H   0  0  0  0  0
    3.7138  -52.4172   18.2618 H   0  0  0  0  0
    3.5870  -54.0035   17.4628 H   0  0  0  0  0
    3.1795  -51.3904   15.9879 H   0  0  0  0  0
    4.2012  -51.8123   14.5917 H   0  0  0  0  0
    3.1248  -53.0359   15.3093 H   0  0  0  0  0
    8.5384  -49.4716   14.4410 H   0  0  0  0  0
    8.7159  -47.2750   16.4980 H   0  0  0  0  0
   10.9197  -46.8652   15.6390 H   0  0  0  0  0
   10.7054  -48.1540   14.4075 H   0  0  0  0  0
   12.0324  -49.0111   16.2650 H   0  0  0  0  0
   10.4081  -49.7989   16.2677 H   0  0  0  0  0
    9.6851  -48.3788   18.0668 H   0  0  0  0  0
   11.1784  -47.4410   17.9979 H   0  0  0  0  0
   12.5362  -49.3780   18.7685 H   0  0  0  0  0
   11.2518  -50.5016   18.4781 H   0  0  0  0  0
   11.3252  -49.8520   20.7990 H   0  0  0  0  0
   11.1350  -48.2465   20.3953 H   0  0  0  0  0
    9.8985  -49.3281   20.1157 H   0  0  0  0  0
    8.8963  -45.0812   15.4941 H   0  0  0  0  0
    7.0027  -44.8229   13.3300 H   0  0  0  0  0
    9.0292  -42.8508   14.5022 H   0  0  0  0  0
    7.1375  -41.9985   15.8389 H   0  0  0  0  0
    7.3366  -43.8095   16.1058 H   0  0  0  0  0
    8.2423  -42.0607   12.2958 H   0  0  0  0  0
    6.5501  -42.2790   12.8056 H   0  0  0  0  0
    7.5650  -41.0457   13.5928 H   0  0  0  0  0
    5.1542  -42.4596   14.3989 H   0  0  0  0  0
    5.3468  -44.2110   14.6570 H   0  0  0  0  0
    4.9075  -43.1531   16.0204 H   0  0  0  0  0
   10.4842  -44.9833   13.4532 H   0  0  0  0  0
   10.5793  -44.4604   10.5898 H   0  0  0  0  0
   12.3748  -43.4025   11.8599 H   0  0  0  0  0
   13.1118  -44.7262   10.8515 H   0  0  0  0  0
   14.7036  -44.2848   12.5202 H   0  0  0  0  0
    9.6734  -47.1324   12.1431 H   0  0  0  0  0
   10.3407  -48.8862    9.9330 H   0  0  0  0  0
   11.7690  -49.4548   12.5755 H   0  0  0  0  0
   12.5628  -48.9048   11.0516 H   0  0  0  0  0
   13.2156  -52.4736   10.7883 H   0  0  0  0  0
   13.8457  -51.0108   11.5527 H   0  0  0  0  0
    8.0968  -49.1494    9.9858 H   0  0  0  0  0
    6.9144  -49.6611   12.5993 H   0  0  0  0  0
    4.8329  -50.1948   11.1463 H   0  0  0  0  0
    5.8265  -49.4816    9.8309 H   0  0  0  0  0
    4.3810  -47.8026   10.9165 H   0  0  0  0  0
    6.1595  -47.4597   11.1913 H   0  0  0  0  0
    2.7825  -47.9622   12.5388 H   0  0  0  0  0
    3.4125  -49.6152   12.7429 H   0  0  0  0  0
    2.9833  -48.6432   14.1719 H   0  0  0  0  0
    8.3550  -51.7642   10.1893 H   0  0  0  0  0
    6.9539  -54.1761   10.8806 H   0  0  0  0  0
    9.1460  -55.3234   10.5026 H   0  0  0  0  0
    9.8735  -53.6703   10.3123 H   0  0  0  0  0
    6.8662  -53.9808    9.2447 H   0  0  0  0  0
  1  2  1  0  0  0
  1 58  1  0  0  0
  2  3  1  0  0  0
  2  5  1  0  0  0
  3  4  2  0  0  0
  3  7  1  0  0  0
  5  6  1  0  0  0
  7  8  1  0  0  0
  8  9  1  0  0  0
  8 11  1  0  0  0
  9 10  2  0  0  0
  9 15  1  0  0  0
 11 12  1  0  0  0
 12 13  1  0  0  0
 12 14  1  0  0  0
 15 16  1  0  0  0
 16 17  1  0  0  0
 16 19  1  0  0  0
 17 18  2  0  0  0
 17 24  1  0  0  0
 19 20  1  0  0  0
 20 21  1  0  0  0
 21 22  1  0  0  0
 22 23  1  0  0  0
 24 25  1  0  0  0
 25 26  1  0  0  0
 25 28  1  0  0  0
 26 27  2  0  0  0
 26 32  1  0  0  0
 28 29  1  0  0  0
 28 30  1  0  0  0
 29 31  1  0  0  0
 32 33  1  0  0  0
 33 34  1  0  0  0
 33 36  1  0  0  0
 34 35  2  0  0  0
 34 40  1  0  0  0
 36 37  1  0  0  0
 37 38  1  0  0  0
 37 39  2  0  0  0
 40 41  1  0  0  0
 41 42  1  0  0  0
 41 44  1  0  0  0
 42 43  2  0  0  0
 42 48  1  0  0  0
 44 45  1  0  0  0
 45 46  2  0  0  0
 45 47  1  0  0  0
 48 49  1  0  0  0
 49 50  1  0  0  0
 49 52  1  0  0  0
 50 51  2  0  0  0
 50 56  1  0  0  0
 52 53  1  0  0  0
 53 54  1  0  0  0
 54 55  1  0  0  0
 56 57  1  0  0  0
 57 58  1  0  0  0
 57 60  1  0  0  0
 58 59  2  0  0  0
 60 61  1  0  0  0
 61 62  1  0  0  0
 61 63  2  0  0  0
  1 64  1  0  0  0
  2 65  1  0  0  0
  5 66  1  0  0  0
  5 67  1  0  0  0
  6 68  1  0  0  0
  7 69  1  0  0  0
  8 70  1  0  0  0
 11 71  1  0  0  0
 11 72  1  0  0  0
 12 73  1  0  0  0
 13 74  1  0  0  0
 13 75  1  0  0  0
 13 76  1  0  0  0
 14 77  1  0  0  0
 14 78  1  0  0  0
 14 79  1  0  0  0
 15 80  1  0  0  0
 16 81  1  0  0  0
 19 82  1  0  0  0
 19 83  1  0  0  0
 20 84  1  0  0  0
 20 85  1  0  0  0
 21 86  1  0  0  0
 21 87  1  0  0  0
 22 88  1  0  0  0
 22 89  1  0  0  0
 23 90  1  0  0  0
 23 91  1  0  0  0
 23 92  1  0  0  0
 24 93  1  0  0  0
 25 94  1  0  0  0
 28 95  1  0  0  0
 29 96  1  0  0  0
 29 97  1  0  0  0
 30 98  1  0  0  0
 30 99  1  0  0  0
 30100  1  0  0  0
 31101  1  0  0  0
 31102  1  0  0  0
 31103  1  0  0  0
 32104  1  0  0  0
 33105  1  0  0  0
 36106  1  0  0  0
 36107  1  0  0  0
 38108  1  0  0  0
 40109  1  0  0  0
 41110  1  0  0  0
 44111  1  0  0  0
 44112  1  0  0  0
 47113  1  0  0  0
 47114  1  0  0  0
 48115  1  0  0  0
 49116  1  0  0  0
 52117  1  0  0  0
 52118  1  0  0  0
 53119  1  0  0  0
 53120  1  0  0  0
 55121  1  0  0  0
 55122  1  0  0  0
 55123  1  0  0  0
 56124  1  0  0  0
 57125  1  0  0  0
 60126  1  0  0  0
 60127  1  0  0  0
 62128  1  0  0  0
M  END
$$$$
