3vw2_ligand
  -I-interpret- 

 45 49  0  0  0  0  0  0  0  0999 V2000
    2.6150   14.5040  -34.3610 C   0  0  0  0  0
    2.6370   13.1850  -34.9190 C   0  0  0  0  0
    1.5430   15.2620  -34.5030 N   0  0  0  0  0
    3.8780   14.8570  -33.6970 C   0  0  0  0  0
    1.4270   12.7340  -35.5940 C   0  0  0  0  0
    3.7670   12.4330  -34.7970 C   0  0  0  0  0
    1.4790   16.4810  -33.9780 C   0  0  0  0  0
    0.4450   14.8420  -35.1220 C   0  0  0  0  0
    3.7560   16.1430  -33.0080 C   0  0  0  0  0
    1.3700   11.4910  -36.1430 C   0  0  0  0  0
    0.3600   13.5930  -35.6760 C   0  0  0  0  0
    3.6670   11.2100  -35.3580 C   0  0  0  0  0
    2.6660   17.0920  -33.3260 C   0  0  0  0  0
    4.6860   16.4830  -32.1480 C   0  0  0  0  0
    2.4930   10.7410  -36.0260 C   0  0  0  0  0
    4.5590   10.2430  -35.3900 O   0  0  0  0  0
    2.2030   17.8420  -32.1200 C   0  0  0  0  0
    4.5680   17.7610  -31.4820 C   0  0  0  0  0
    2.7080    9.5020  -36.4670 O   0  0  0  0  0
    3.9930    9.1130  -36.0330 C   0  0  0  0  0
    3.4110   18.4090  -31.4880 C   0  0  0  0  0
    1.4470   18.9040  -32.6500 O   0  0  0  0  0
    3.3500   19.6890  -30.8630 O   0  0  0  0  0
    1.2570   19.9720  -31.7650 C   0  0  0  0  0
    4.4900   19.9960  -30.1200 C   0  0  0  0  0
    4.6634   14.9323  -34.4491 H   0  0  0  0  0
    4.1200   14.0860  -32.9655 H   0  0  0  0  0
    4.6669   12.7863  -34.2936 H   0  0  0  0  0
    0.7524   16.3852  -33.1712 H   0  0  0  0  0
    1.2823   17.1285  -34.8325 H   0  0  0  0  0
   -0.4127   15.5111  -35.1907 H   0  0  0  0  0
    0.4766   11.1208  -36.6459 H   0  0  0  0  0
   -0.5540   13.2813  -36.1815 H   0  0  0  0  0
    3.1249   17.7705  -34.0451 H   0  0  0  0  0
    5.5257   15.8197  -31.9408 H   0  0  0  0  0
    1.6437   17.2394  -31.4044 H   0  0  0  0  0
    5.4309   18.1922  -30.9745 H   0  0  0  0  0
    3.9348    8.2642  -35.3516 H   0  0  0  0  0
    4.6088    8.7926  -36.8734 H   0  0  0  0  0
    0.7329   19.6178  -30.8773 H   0  0  0  0  0
    2.2257   20.3808  -31.4777 H   0  0  0  0  0
    0.6650   20.7460  -32.2534 H   0  0  0  0  0
    4.6209   19.2524  -29.3339 H   0  0  0  0  0
    5.3612   19.9914  -30.7750 H   0  0  0  0  0
    4.3755   20.9833  -29.6726 H   0  0  0  0  0
  1  2  4  0  0  0
  1  3  4  0  0  0
  1  4  1  0  0  0
  2  5  4  0  0  0
  2  6  4  0  0  0
  3  7  1  0  0  0
  3  8  4  0  0  0
  4  9  1  0  0  0
  5 10  4  0  0  0
  5 11  4  0  0  0
  6 12  4  0  0  0
  7 13  1  0  0  0
  8 11  4  0  0  0
  9 13  1  0  0  0
  9 14  2  0  0  0
 10 15  4  0  0  0
 12 15  4  0  0  0
 12 16  1  0  0  0
 13 17  1  0  0  0
 14 18  1  0  0  0
 15 19  1  0  0  0
 16 20  1  0  0  0
 17 21  1  0  0  0
 17 22  1  0  0  0
 18 21  2  0  0  0
 19 20  1  0  0  0
 21 23  1  0  0  0
 22 24  1  0  0  0
 23 25  1  0  0  0
  4 26  1  0  0  0
  4 27  1  0  0  0
  6 28  1  0  0  0
  7 29  1  0  0  0
  7 30  1  0  0  0
  8 31  1  0  0  0
 10 32  1  0  0  0
 11 33  1  0  0  0
 13 34  1  0  0  0
 14 35  1  0  0  0
 17 36  1  0  0  0
 18 37  1  0  0  0
 20 38  1  0  0  0
 20 39  1  0  0  0
 24 40  1  0  0  0
 24 41  1  0  0  0
 24 42  1  0  0  0
 25 43  1  0  0  0
 25 44  1  0  0  0
 25 45  1  0  0  0
M  END
$$$$
