4gg7_ligand
  -I-interpret- 

 58 62  0  0  0  0  0  0  0  0999 V2000
   -1.1340  -17.5870   14.6260 C   0  0  0  0  0
   -2.1830  -16.6670   14.4580 C   0  0  0  0  0
   -2.1830  -15.4700   15.2310 C   0  0  0  0  0
   -1.1740  -15.2470   16.1050 N   0  0  0  0  0
   -0.1550  -17.3070   15.5320 N   0  0  0  0  0
   -7.6130  -21.1320   10.6350 C   0  0  0  0  0
   -8.3850  -22.3020    9.9930 C   0  0  0  0  0
   -8.3440  -22.2710    8.5280 N   0  3  0  0  0
   -7.4650  -21.2990    7.8570 C   0  0  0  0  0
   -6.1630  -20.9220    8.5480 C   0  0  0  0  0
   -6.2200  -21.0080   10.0590 C   0  0  0  0  0
   -5.5180  -19.8360   10.6480 N   0  0  0  0  0
   -4.5130  -19.9020   11.5430 C   0  0  0  0  0
   -5.8070  -18.5030   10.3730 N   0  0  0  0  0
   -4.9580  -17.7270   11.1050 C   0  0  0  0  0
   -4.1340  -18.5970   11.8290 C   0  0  0  0  0
   -3.0670  -18.2130   12.8070 C   0  0  0  0  0
   -3.1800  -16.9870   13.5200 C   0  0  0  0  0
   -2.0040  -19.0810   13.0340 C   0  0  0  0  0
   -1.0510  -18.7590   13.9370 N   0  0  0  0  0
   -0.2070  -16.1660   16.2400 C   0  0  0  0  0
    0.9130  -15.8720   17.2330 C   0  0  0  0  0
    1.6070  -16.9680   17.5010 F   0  0  0  0  0
    1.6530  -14.9320   16.6790 F   0  0  0  0  0
    0.4310  -15.4340   18.3820 F   0  0  0  0  0
   -3.2080  -14.4530   15.1020 N   0  0  0  0  0
   -2.9850  -13.1760   15.7540 C   0  0  0  0  0
   -3.6420  -13.3290   17.1130 C   0  0  0  0  0
   -2.8400  -13.4220   18.2530 C   0  0  0  0  0
   -5.0570  -13.4400   17.2100 C   0  0  0  0  0
   -5.6600  -13.6150   18.4650 C   0  0  0  0  0
   -4.8650  -13.7030   19.6110 C   0  0  0  0  0
   -3.4490  -13.6060   19.5000 C   0  0  0  0  0
   -2.6680  -13.7020   20.6950 N   0  0  0  0  0
   -3.2250  -14.2780   21.7150 O   0  0  0  0  0
   -1.4380  -13.2260   20.7610 O   0  0  0  0  0
   -7.5296  -21.3184   11.7057 H   0  0  0  0  0
   -8.1546  -20.2078   10.4333 H   0  0  0  0  0
   -9.4278  -22.2234   10.3003 H   0  0  0  0  0
   -7.9184  -23.2308   10.3212 H   0  0  0  0  0
   -9.2884  -22.0094    8.2449 H   0  0  0  0  0
   -7.9801  -23.1844    8.2566 H   0  0  0  0  0
   -8.0420  -20.3759    7.8016 H   0  0  0  0  0
   -7.1700  -21.7726    6.9206 H   0  0  0  0  0
   -5.9493  -19.8845    8.2911 H   0  0  0  0  0
   -5.4029  -21.6275    8.2125 H   0  0  0  0  0
   -5.7184  -21.9375   10.3283 H   0  0  0  0  0
   -4.0790  -20.8092   11.9635 H   0  0  0  0  0
   -4.9267  -16.6376   11.1231 H   0  0  0  0  0
   -4.0183  -16.3130   13.3435 H   0  0  0  0  0
   -1.9395  -20.0200   12.4842 H   0  0  0  0  0
   -4.0597  -14.6296   14.5693 H   0  0  0  0  0
   -3.4057  -12.3463   15.1860 H   0  0  0  0  0
   -1.9248  -12.9365   15.8355 H   0  0  0  0  0
   -1.7552  -13.3523   18.1727 H   0  0  0  0  0
   -5.6716  -13.3892   16.3112 H   0  0  0  0  0
   -6.7449  -13.6821   18.5457 H   0  0  0  0  0
   -5.3280  -13.8456   20.5874 H   0  0  0  0  0
  2  1  4  0  0  0
  1  5  4  0  0  0
  1 20  4  0  0  0
  2  3  4  0  0  0
 18  2  4  0  0  0
  3  4  4  0  0  0
  3 26  1  0  0  0
  4 21  4  0  0  0
  5 21  4  0  0  0
  6  7  1  0  0  0
 11  6  1  0  0  0
  7  8  1  0  0  0
  9  8  1  0  0  0
 10  9  1  0  0  0
 11 10  1  0  0  0
 12 11  1  0  0  0
 13 12  4  0  0  0
 14 12  4  0  0  0
 16 13  4  0  0  0
 15 14  4  0  0  0
 16 15  4  0  0  0
 17 16  1  0  0  0
 17 18  4  0  0  0
 17 19  4  0  0  0
 19 20  4  0  0  0
 21 22  1  0  0  0
 22 23  1  0  0  0
 22 24  1  0  0  0
 22 25  1  0  0  0
 26 27  1  0  0  0
 27 28  1  0  0  0
 28 29  4  0  0  0
 28 30  4  0  0  0
 29 33  4  0  0  0
 30 31  4  0  0  0
 31 32  4  0  0  0
 32 33  4  0  0  0
 33 34  1  0  0  0
 34 35  2  0  0  0
 34 36  2  0  0  0
  6 37  1  0  0  0
  6 38  1  0  0  0
  7 39  1  0  0  0
  7 40  1  0  0  0
  8 41  1  0  0  0
  8 42  1  0  0  0
  9 43  1  0  0  0
  9 44  1  0  0  0
 10 45  1  0  0  0
 10 46  1  0  0  0
 11 47  1  0  0  0
 13 48  1  0  0  0
 15 49  1  0  0  0
 18 50  1  0  0  0
 19 51  1  0  0  0
 26 52  1  0  0  0
 27 53  1  0  0  0
 27 54  1  0  0  0
 29 55  1  0  0  0
 30 56  1  0  0  0
 31 57  1  0  0  0
 32 58  1  0  0  0
M  END
$$$$
