1al7_ligand
  -I-interpret- 

 44 44  0  0  0  0  0  0  0  0999 V2000
   47.0180   53.0920   19.9480 N   0  0  0  0  0
   47.4880   53.6560   21.0750 N   0  0  0  0  0
   48.2280   54.7350   20.7700 N   0  0  0  0  0
   47.4680   53.8400   18.8920 C   0  0  0  0  0
   48.2410   54.8740   19.3950 C   0  0  0  0  0
   49.2300   55.7830   18.6680 C   0  0  0  0  0
   49.9400   56.5930   19.2470 O   0  0  0  0  0
   49.0570   55.8320   17.3220 O   0  0  0  0  0
   46.7560   53.8760   17.2990 S   0  0  0  0  0
   44.2430   58.3890   13.6330 C   0  0  0  0  0
   45.0680   57.1010   13.7820 C   0  0  0  0  0
   44.7280   56.2790   15.0390 C   0  0  0  0  0
   44.8490   57.0740   16.3570 C   0  0  0  0  0
   45.4970   56.2620   17.4910 C   0  0  0  0  0
   45.1820   54.7540   17.4800 C   0  0  0  0  0
   44.4670   54.1980   18.7400 C   0  0  0  0  0
   44.2220   55.2430   19.8460 C   0  0  0  0  0
   42.7500   55.2870   20.2900 C   0  0  0  0  0
   42.5450   55.0110   21.7890 C   0  0  0  0  0
   41.3780   54.0590   22.0950 C   0  0  0  0  0
   48.4713   55.1218   17.0497 H   0  0  0  0  0
   43.1843   58.1362   13.5753 H   0  0  0  0  0
   44.4177   59.0326   14.4952 H   0  0  0  0  0
   44.5439   58.9085   12.7232 H   0  0  0  0  0
   46.1144   57.3956   13.8624 H   0  0  0  0  0
   44.8474   56.4748   12.9176 H   0  0  0  0  0
   45.4400   55.4553   15.0904 H   0  0  0  0  0
   43.6899   55.9596   14.9469 H   0  0  0  0  0
   43.8422   57.3443   16.6754 H   0  0  0  0  0
   45.4819   57.9405   16.1653 H   0  0  0  0  0
   45.1004   56.6580   18.4259 H   0  0  0  0  0
   46.5758   56.3575   17.3676 H   0  0  0  0  0
   44.4824   54.5989   16.6587 H   0  0  0  0  0
   45.1150   53.4304   19.1630 H   0  0  0  0  0
   43.4900   53.8360   18.4198 H   0  0  0  0  0
   44.4856   56.2236   19.4497 H   0  0  0  0  0
   44.8282   54.9703   20.7098 H   0  0  0  0  0
   42.2215   54.5077   19.7409 H   0  0  0  0  0
   42.3806   56.2931   20.0914 H   0  0  0  0  0
   42.3179   55.9647   22.2654 H   0  0  0  0  0
   43.4545   54.5369   22.1580 H   0  0  0  0  0
   40.4508   54.4894   21.7166 H   0  0  0  0  0
   41.5580   53.0986   21.6119 H   0  0  0  0  0
   41.3004   53.9161   23.1728 H   0  0  0  0  0
  1  2  4  0  0  0
  4  1  4  0  0  0
  3  2  4  0  0  0
  5  3  4  0  0  0
  4  5  4  0  0  0
  9  4  1  0  0  0
  5  6  1  0  0  0
  6  7  2  0  0  0
  6  8  1  0  0  0
 15  9  1  0  0  0
 11 10  1  0  0  0
 12 11  1  0  0  0
 13 12  1  0  0  0
 14 13  1  0  0  0
 14 15  1  0  0  0
 15 16  1  0  0  0
 16 17  1  0  0  0
 17 18  1  0  0  0
 18 19  1  0  0  0
 19 20  1  0  0  0
  8 21  1  0  0  0
 10 22  1  0  0  0
 10 23  1  0  0  0
 10 24  1  0  0  0
 11 25  1  0  0  0
 11 26  1  0  0  0
 12 27  1  0  0  0
 12 28  1  0  0  0
 13 29  1  0  0  0
 13 30  1  0  0  0
 14 31  1  0  0  0
 14 32  1  0  0  0
 15 33  1  0  0  0
 16 34  1  0  0  0
 16 35  1  0  0  0
 17 36  1  0  0  0
 17 37  1  0  0  0
 18 38  1  0  0  0
 18 39  1  0  0  0
 19 40  1  0  0  0
 19 41  1  0  0  0
 20 42  1  0  0  0
 20 43  1  0  0  0
 20 44  1  0  0  0
M  END
$$$$
