3v5j_ligand
  -I-interpret- 

 61 65  0  0  0  0  0  0  0  0999 V2000
  -57.6200  -21.1930   27.1610 C   0  0  0  0  0
  -58.5550  -20.8470   25.9930 C   0  0  0  0  0
  -57.7830  -20.4500   24.8360 O   0  0  0  0  0
  -56.9490  -19.3040   25.1220 C   0  0  0  0  0
  -55.9850  -19.6410   26.2690 C   0  0  0  0  0
  -56.7560  -20.0360   27.4630 N   0  3  0  0  0
  -55.8440  -20.3820   28.5660 C   0  0  0  0  0
  -55.2250  -19.1100   29.1540 C   0  0  0  0  0
  -53.9050  -18.9620   28.6030 O   0  0  0  0  0
  -53.2000  -17.9410   29.1670 C   0  0  0  0  0
  -52.9140  -17.9440   30.5360 C   0  0  0  0  0
  -52.1470  -16.9220   31.1060 C   0  0  0  0  0
  -51.8690  -16.9030   32.6220 C   0  0  0  0  0
  -52.6830  -15.7580   33.2370 C   0  0  0  0  0
  -52.5690  -15.7220   34.7640 C   0  0  0  0  0
  -50.3750  -16.6650   32.8910 C   0  0  0  0  0
  -49.5150  -17.8340   32.4020 C   0  0  0  0  0
  -52.2690  -18.1410   33.2280 O   0  0  0  0  0
  -51.6610  -15.8940   30.2910 C   0  0  0  0  0
  -51.9370  -15.8970   28.9210 C   0  0  0  0  0
  -51.6210  -15.0640   27.9360 N   0  0  0  0  0
  -52.7110  -16.9090   28.3610 C   0  0  0  0  0
  -52.7920  -16.6610   27.0560 C   0  0  0  0  0
  -52.1410  -15.5230   26.7970 C   0  0  0  0  0
  -52.0010  -14.8990   25.5570 C   0  0  0  0  0
  -52.6430  -15.2880   24.3950 C   0  0  0  0  0
  -53.6860  -16.3680   23.6450 S   0  0  0  0  0
  -53.5870  -15.6740   22.1060 C   0  0  0  0  0
  -52.7530  -14.6280   22.2000 C   0  0  0  0  0
  -52.2170  -14.3900   23.4200 C   0  0  0  0  0
  -51.4040  -13.5400   24.0560 N   0  0  0  0  0
  -51.2780  -13.8230   25.2540 N   0  0  0  0  0
  -56.9997  -22.0466   26.8877 H   0  0  0  0  0
  -58.2150  -21.4399   28.0403 H   0  0  0  0  0
  -59.2049  -20.0232   26.2881 H   0  0  0  0  0
  -59.1505  -21.7244   25.7407 H   0  0  0  0  0
  -57.5777  -18.4624   25.4130 H   0  0  0  0  0
  -56.3758  -19.0425   24.2325 H   0  0  0  0  0
  -55.3792  -18.7654   26.5022 H   0  0  0  0  0
  -55.3369  -20.4639   25.9676 H   0  0  0  0  0
  -57.3399  -19.2473   27.7411 H   0  0  0  0  0
  -55.0496  -21.0243   28.1859 H   0  0  0  0  0
  -56.4037  -20.9008   29.3442 H   0  0  0  0  0
  -55.1734  -19.1839   30.2403 H   0  0  0  0  0
  -55.8367  -18.2433   28.9038 H   0  0  0  0  0
  -53.2922  -18.7500   31.1648 H   0  0  0  0  0
  -53.7310  -15.9101   32.9787 H   0  0  0  0  0
  -52.2947  -14.8177   32.8457 H   0  0  0  0  0
  -52.9385  -16.6607   35.1769 H   0  0  0  0  0
  -51.5250  -15.5855   35.0460 H   0  0  0  0  0
  -53.1627  -14.8943   35.1520 H   0  0  0  0  0
  -50.2330  -16.5621   33.9668 H   0  0  0  0  0
  -50.0693  -15.7670   32.3541 H   0  0  0  0  0
  -49.8152  -18.7454   32.9190 H   0  0  0  0  0
  -49.6537  -17.9613   31.3284 H   0  0  0  0  0
  -48.4661  -17.6244   32.6118 H   0  0  0  0  0
  -52.0876  -18.1081   34.1701 H   0  0  0  0  0
  -51.0665  -15.0900   30.7249 H   0  0  0  0  0
  -53.3039  -17.2823   26.3211 H   0  0  0  0  0
  -54.1033  -16.0127   21.2078 H   0  0  0  0  0
  -52.5189  -14.0021   21.3389 H   0  0  0  0  0
  1  2  1  0  0  0
  1  6  1  0  0  0
  2  3  1  0  0  0
  3  4  1  0  0  0
  4  5  1  0  0  0
  5  6  1  0  0  0
  6  7  1  0  0  0
  7  8  1  0  0  0
  8  9  1  0  0  0
  9 10  1  0  0  0
 10 11  4  0  0  0
 10 22  4  0  0  0
 11 12  4  0  0  0
 12 13  1  0  0  0
 12 19  4  0  0  0
 13 14  1  0  0  0
 13 16  1  0  0  0
 13 18  1  0  0  0
 14 15  1  0  0  0
 16 17  1  0  0  0
 19 20  4  0  0  0
 20 21  4  0  0  0
 20 22  4  0  0  0
 21 24  4  0  0  0
 22 23  4  0  0  0
 23 24  4  0  0  0
 24 25  1  0  0  0
 25 26  4  0  0  0
 25 32  4  0  0  0
 26 27  4  0  0  0
 26 30  4  0  0  0
 27 28  4  0  0  0
 28 29  4  0  0  0
 29 30  4  0  0  0
 30 31  4  0  0  0
 31 32  4  0  0  0
  1 33  1  0  0  0
  1 34  1  0  0  0
  2 35  1  0  0  0
  2 36  1  0  0  0
  4 37  1  0  0  0
  4 38  1  0  0  0
  5 39  1  0  0  0
  5 40  1  0  0  0
  6 41  1  0  0  0
  7 42  1  0  0  0
  7 43  1  0  0  0
  8 44  1  0  0  0
  8 45  1  0  0  0
 11 46  1  0  0  0
 14 47  1  0  0  0
 14 48  1  0  0  0
 15 49  1  0  0  0
 15 50  1  0  0  0
 15 51  1  0  0  0
 16 52  1  0  0  0
 16 53  1  0  0  0
 17 54  1  0  0  0
 17 55  1  0  0  0
 17 56  1  0  0  0
 18 57  1  0  0  0
 19 58  1  0  0  0
 23 59  1  0  0  0
 28 60  1  0  0  0
 29 61  1  0  0  0
M  END
$$$$
