### 
### Created by X-TOOL on Mon Sep 10 21:13:11 2018
### 

@<TRIPOS>MOLECULE
3v5j_ligand
   62    66     1     0     0
SMALL
GAST_HUCK


@<TRIPOS>ATOM
      1 CAN       -57.6200  -21.1930   27.1610 C.3       1 0F2        -0.0888
      2 CAO       -58.5550  -20.8470   25.9930 C.3       1 0F2         0.0291
      3 OAP       -57.7830  -20.4500   24.8360 O.3       1 0F2        -0.3838
      4 CAQ       -56.9490  -19.3040   25.1220 C.3       1 0F2         0.0291
      5 CAR       -55.9850  -19.6410   26.2690 C.3       1 0F2        -0.0888
      6 NAM       -56.7560  -20.0360   27.4630 N.4       1 0F2         0.4077
      7 CAL       -55.8440  -20.3820   28.5660 C.3       1 0F2        -0.0842
      8 CAK       -55.2250  -19.1100   29.1540 C.3       1 0F2         0.0530
      9 OAJ       -53.9050  -18.9620   28.6030 O.3       1 0F2        -0.3172
     10 CAD       -53.2000  -17.9410   29.1670 C.ar      1 0F2         0.1038
     11 CAA       -52.9140  -17.9440   30.5360 C.ar      1 0F2        -0.0406
     12 CAB       -52.1470  -16.9220   31.1060 C.ar      1 0F2        -0.0741
     13 CAS       -51.8690  -16.9030   32.6220 C.3       1 0F2         0.0169
     14 CBB       -52.6830  -15.7580   33.2370 C.3       1 0F2        -0.0713
     15 CBD       -52.5690  -15.7220   34.7640 C.3       1 0F2        -0.0752
     16 CBC       -50.3750  -16.6650   32.8910 C.3       1 0F2        -0.0713
     17 CBE       -49.5150  -17.8340   32.4020 C.3       1 0F2        -0.0752
     18 OBF       -52.2690  -18.1410   33.2280 O.3       1 0F2        -0.4513
     19 CAC       -51.6610  -15.8940   30.2910 C.ar      1 0F2        -0.0293
     20 CAF       -51.9370  -15.8970   28.9210 C.ar      1 0F2         0.0926
     21 NAG       -51.6210  -15.0640   27.9360 N.pl3     1 0F2        -0.2579
     22 CAE       -52.7110  -16.9090   28.3610 C.ar      1 0F2         0.0422
     23 CAI       -52.7920  -16.6610   27.0560 C.2       1 0F2        -0.0221
     24 CAH       -52.1410  -15.5230   26.7970 C.2       1 0F2         0.1126
     25 CAT       -52.0010  -14.8990   25.5570 C.2       1 0F2         0.1455
     26 CAW       -52.6430  -15.2880   24.3950 C.2       1 0F2         0.0781
     27 S1        -53.6860  -16.3680   23.6450 S.3       1 0F2        -0.0488
     28 CAZ       -53.5870  -15.6740   22.1060 C.2       1 0F2        -0.0078
     29 CAY       -52.7530  -14.6280   22.2000 C.2       1 0F2        -0.0527
     30 CAX       -52.2170  -14.3900   23.4200 C.2       1 0F2         0.0484
     31 NAV       -51.4040  -13.5400   24.0560 N.2       1 0F2        -0.2099
     32 NAU       -51.2780  -13.8230   25.2540 N.pl3     1 0F2        -0.2105
     33 H         -56.9997  -22.0466   26.8877 H         1 0F2         0.0040
     34 H         -58.2150  -21.4399   28.0403 H         1 0F2         0.0040
     35 H         -59.2049  -20.0232   26.2881 H         1 0F2         0.0539
     36 H         -59.1505  -21.7244   25.7407 H         1 0F2         0.0539
     37 H         -57.5777  -18.4624   25.4130 H         1 0F2         0.0539
     38 H         -56.3758  -19.0425   24.2325 H         1 0F2         0.0539
     39 H         -55.3792  -18.7654   26.5022 H         1 0F2         0.0040
     40 H         -55.3369  -20.4639   25.9676 H         1 0F2         0.0040
     41 H         -55.0496  -21.0243   28.1859 H         1 0F2         0.0044
     42 H         -56.4037  -20.9008   29.3442 H         1 0F2         0.0044
     43 H         -55.1734  -19.1839   30.2403 H         1 0F2         0.0595
     44 H         -55.8367  -18.2433   28.9038 H         1 0F2         0.0595
     45 H         -53.2922  -18.7500   31.1648 H         1 0F2         0.0508
     46 H         -53.7310  -15.9101   32.9787 H         1 0F2         0.0130
     47 H         -52.2947  -14.8177   32.8457 H         1 0F2         0.0130
     48 H         -52.9385  -16.6607   35.1769 H         1 0F2         0.0218
     49 H         -51.5250  -15.5855   35.0460 H         1 0F2         0.0218
     50 H         -53.1627  -14.8943   35.1520 H         1 0F2         0.0218
     51 H         -50.2330  -16.5621   33.9668 H         1 0F2         0.0130
     52 H         -50.0693  -15.7670   32.3541 H         1 0F2         0.0130
     53 H         -49.8152  -18.7454   32.9190 H         1 0F2         0.0218
     54 H         -49.6537  -17.9613   31.3284 H         1 0F2         0.0218
     55 H         -48.4661  -17.6244   32.6118 H         1 0F2         0.0218
     56 H         -51.7621  -18.8613   32.8462 H         1 0F2         0.1869
     57 H         -51.0665  -15.0900   30.7249 H         1 0F2         0.0726
     58 H         -51.0699  -14.2114   28.0347 H         1 0F2         0.2280
     59 H         -53.3039  -17.2823   26.3211 H         1 0F2         0.0452
     60 H         -54.1033  -16.0127   21.2078 H         1 0F2         0.0782
     61 H         -52.5189  -14.0021   21.3389 H         1 0F2         0.0416
     62 H         -50.7011  -13.3046   25.9165 H         1 0F2         0.2559
@<TRIPOS>BOND
     1    1    2 1  
     2    1    6 1  
     3    2    3 1  
     4    3    4 1  
     5    4    5 1  
     6    5    6 1  
     7    6    7 1  
     8    7    8 1  
     9    8    9 1  
    10    9   10 1  
    11   10   11 ar 
    12   10   22 ar 
    13   11   12 ar 
    14   12   13 1  
    15   12   19 ar 
    16   13   14 1  
    17   13   16 1  
    18   13   18 1  
    19   14   15 1  
    20   16   17 1  
    21   19   20 ar 
    22   20   21 1  
    23   20   22 ar 
    24   21   24 1  
    25   22   23 1  
    26   23   24 2  
    27   24   25 1  
    28   25   26 2  
    29   25   32 1  
    30   26   27 1  
    31   26   30 1  
    32   27   28 1  
    33   28   29 2  
    34   29   30 1  
    35   30   31 2  
    36   31   32 1  
    37    1   33 1  
    38    1   34 1  
    39    2   35 1  
    40    2   36 1  
    41    4   37 1  
    42    4   38 1  
    43    5   39 1  
    44    5   40 1  
    45    7   41 1  
    46    7   42 1  
    47    8   43 1  
    48    8   44 1  
    49   11   45 1  
    50   14   46 1  
    51   14   47 1  
    52   15   48 1  
    53   15   49 1  
    54   15   50 1  
    55   16   51 1  
    56   16   52 1  
    57   17   53 1  
    58   17   54 1  
    59   17   55 1  
    60   18   56 1  
    61   19   57 1  
    62   21   58 1  
    63   23   59 1  
    64   28   60 1  
    65   29   61 1  
    66   32   62 1  
@<TRIPOS>SUBSTRUCTURE
     1 0F2         1

