5v4q_ligand
  -I-interpret- 

 24 23  0  0  0  0  0  0  0  0999 V2000
  -26.3150  -25.3560   -7.9830 O   0  0  0  0  0
  -25.4420  -25.9570   -7.3110 C   0  0  0  0  0
  -24.7850  -25.4630   -6.3670 O   0  0  0  0  0
  -25.1070  -27.3980   -7.7390 C   0  0  0  0  0
  -26.3660  -28.0250   -8.1820 N   0  3  0  0  0
  -24.0770  -27.2990   -8.8930 C   0  0  0  0  0
  -24.0000  -28.5710   -9.7280 C   0  0  0  0  0
  -23.1080  -28.3510  -10.9670 C   0  0  0  0  0
  -21.7310  -28.3940  -10.5680 O   0  0  0  0  0
  -23.3360  -29.5090  -11.9970 C   0  0  0  0  0
  -26.6718  -25.9507   -8.6468 H   0  0  0  0  0
  -24.6811  -27.9994   -6.9359 H   0  0  0  0  0
  -27.0157  -28.0719   -7.3971 H   0  0  0  0  0
  -26.7763  -27.4682   -8.9317 H   0  0  0  0  0
  -26.1738  -28.9671   -8.5226 H   0  0  0  0  0
  -23.0953  -27.1310   -8.4501 H   0  0  0  0  0
  -24.3895  -26.4873   -9.5500 H   0  0  0  0  0
  -25.0037  -28.8395  -10.0575 H   0  0  0  0  0
  -23.5715  -29.3680   -9.1203 H   0  0  0  0  0
  -23.3573  -27.3888  -11.4143 H   0  0  0  0  0
  -21.1719  -28.2575  -11.3364 H   0  0  0  0  0
  -22.6845  -29.3610  -12.8582 H   0  0  0  0  0
  -23.1052  -30.4640  -11.5250 H   0  0  0  0  0
  -24.3764  -29.5049  -12.3220 H   0  0  0  0  0
  1  2  1  0  0  0
  2  3  2  0  0  0
  2  4  1  0  0  0
  4  5  1  0  0  0
  4  6  1  0  0  0
  6  7  1  0  0  0
  7  8  1  0  0  0
  8  9  1  0  0  0
  8 10  1  0  0  0
  1 11  1  0  0  0
  4 12  1  0  0  0
  5 13  1  0  0  0
  5 14  1  0  0  0
  5 15  1  0  0  0
  6 16  1  0  0  0
  6 17  1  0  0  0
  7 18  1  0  0  0
  7 19  1  0  0  0
  8 20  1  0  0  0
  9 21  1  0  0  0
 10 22  1  0  0  0
 10 23  1  0  0  0
 10 24  1  0  0  0
M  END
$$$$
