4dgr_ligand
  -I-interpret- 

 58 59  0  0  0  0  0  0  0  0999 V2000
   23.7010   19.9380   64.9440 C   0  0  0  0  0
   22.5420   19.8300   65.4290 O   0  0  0  0  0
   24.2600   18.7720   64.2340 C   0  0  0  0  0
   24.4110   20.9880   65.0310 O   0  0  0  0  0
   25.5240   18.8450   63.6840 C   0  0  0  0  0
   26.0260   17.7330   63.0080 C   0  0  0  0  0
   25.2220   16.5930   62.9260 C   0  0  0  0  0
   25.7720   15.4360   62.1820 N   0  0  0  0  0
   23.9580   16.5300   63.4710 C   0  0  0  0  0
   23.4730   17.6350   64.1360 C   0  0  0  0  0
   27.4040   17.7960   62.4030 C   0  0  0  0  0
   28.5330   17.4890   63.3000 N   0  3  0  0  0
   29.8090   17.6250   62.5680 C   0  0  0  0  0
   30.9880   16.8420   63.0740 C   0  0  0  0  0
   32.2470   16.9050   62.2260 C   0  0  0  0  0
   28.5580   18.3760   64.4700 C   0  0  0  0  0
   29.1320   19.7950   64.3170 C   0  0  0  0  0
   28.6590   20.8450   65.3120 C   0  0  0  0  0
   26.7970   14.4890   62.3830 C   0  0  0  0  0
   27.5610   14.5270   63.3760 O   0  0  0  0  0
   26.9020   13.5810   61.2450 C   0  0  0  0  0
   26.1010   14.2620   60.1560 C   0  0  0  0  0
   25.1130   15.1150   60.8940 C   0  0  0  0  0
   23.8440   14.3200   61.1120 C   0  0  0  0  0
   23.9850   13.2210   61.9490 O   0  0  0  0  0
   24.6930   16.3600   60.1870 C   0  0  0  0  0
   25.6720   17.2620   59.8730 O   0  0  0  0  0
   25.2518   20.8417   64.5914 H   0  0  0  0  0
   26.1183   19.7541   63.7762 H   0  0  0  0  0
   23.3554   15.6265   63.3781 H   0  0  0  0  0
   22.4784   17.6153   64.5815 H   0  0  0  0  0
   27.5456   18.8284   62.0833 H   0  0  0  0  0
   27.4249   17.0362   61.6218 H   0  0  0  0  0
   28.4111   16.5301   63.6257 H   0  0  0  0  0
   30.0911   18.6735   62.6635 H   0  0  0  0  0
   29.6134   17.2446   61.5654 H   0  0  0  0  0
   30.6786   15.7969   63.0833 H   0  0  0  0  0
   31.2491   17.2741   64.0400 H   0  0  0  0  0
   32.0324   16.5178   61.2299 H   0  0  0  0  0
   32.5814   17.9397   62.1508 H   0  0  0  0  0
   33.0273   16.3025   62.6910 H   0  0  0  0  0
   29.2172   17.8816   65.1835 H   0  0  0  0  0
   27.5106   18.5234   64.7334 H   0  0  0  0  0
   28.8032   20.1442   63.3382 H   0  0  0  0  0
   30.2063   19.6992   64.4748 H   0  0  0  0  0
   27.5776   20.9566   65.2339 H   0  0  0  0  0
   28.9211   20.5305   66.3222 H   0  0  0  0  0
   29.1408   21.7972   65.0900 H   0  0  0  0  0
   26.5224   12.5855   61.4751 H   0  0  0  0  0
   27.9368   13.4081   60.9492 H   0  0  0  0  0
   25.6102   13.5433   59.4998 H   0  0  0  0  0
   26.7332   14.8511   59.4916 H   0  0  0  0  0
   23.5363   13.9398   60.1379 H   0  0  0  0  0
   23.1270   14.9902   61.5861 H   0  0  0  0  0
   23.1395   12.7744   62.0340 H   0  0  0  0  0
   24.0229   16.8779   60.8732 H   0  0  0  0  0
   24.2760   16.0328   59.2346 H   0  0  0  0  0
   25.2800   18.0147   59.4242 H   0  0  0  0  0
  1  2  2  0  0  0
  1  3  1  0  0  0
  1  4  1  0  0  0
  3  5  4  0  0  0
  3 10  4  0  0  0
  5  6  4  0  0  0
  6  7  4  0  0  0
  6 11  1  0  0  0
  7  8  1  0  0  0
  7  9  4  0  0  0
  8 19  1  0  0  0
  8 23  1  0  0  0
  9 10  4  0  0  0
 11 12  1  0  0  0
 12 13  1  0  0  0
 12 16  1  0  0  0
 13 14  1  0  0  0
 14 15  1  0  0  0
 16 17  1  0  0  0
 17 18  1  0  0  0
 19 20  2  0  0  0
 19 21  1  0  0  0
 21 22  1  0  0  0
 22 23  1  0  0  0
 23 24  1  0  0  0
 23 26  1  0  0  0
 24 25  1  0  0  0
 26 27  1  0  0  0
  4 28  1  0  0  0
  5 29  1  0  0  0
  9 30  1  0  0  0
 10 31  1  0  0  0
 11 32  1  0  0  0
 11 33  1  0  0  0
 12 34  1  0  0  0
 13 35  1  0  0  0
 13 36  1  0  0  0
 14 37  1  0  0  0
 14 38  1  0  0  0
 15 39  1  0  0  0
 15 40  1  0  0  0
 15 41  1  0  0  0
 16 42  1  0  0  0
 16 43  1  0  0  0
 17 44  1  0  0  0
 17 45  1  0  0  0
 18 46  1  0  0  0
 18 47  1  0  0  0
 18 48  1  0  0  0
 21 49  1  0  0  0
 21 50  1  0  0  0
 22 51  1  0  0  0
 22 52  1  0  0  0
 24 53  1  0  0  0
 24 54  1  0  0  0
 25 55  1  0  0  0
 26 56  1  0  0  0
 26 57  1  0  0  0
 27 58  1  0  0  0
M  END
$$$$
