3iny_ligand
  -I-interpret- 

 15 16  0  0  0  0  0  0  0  0999 V2000
  -16.8210    6.2130   53.9440 N   0  0  0  0  0
  -17.9780    6.7500   53.4120 C   0  0  0  0  0
  -17.6420    7.7130   52.4120 C   0  0  0  0  0
  -16.1790    7.7390   52.3270 C   0  0  0  0  0
  -15.2010    8.4980   51.5110 C   0  0  0  0  0
  -15.5480    9.3390   50.6650 O   0  0  0  0  0
  -13.9130    8.2060   51.7960 N   0  0  0  0  0
  -13.5610    7.2890   52.7640 C   0  0  0  0  0
  -12.2790    6.9930   53.0290 N   0  0  0  0  0
  -14.3790    6.5730   53.5510 N   0  0  0  0  0
  -15.6790    6.7620   53.3620 C   0  0  0  0  0
  -18.9912    6.4801   53.7098 H   0  0  0  0  0
  -18.3386    8.3123   51.8258 H   0  0  0  0  0
  -11.5315    7.4512   52.5078 H   0  0  0  0  0
  -14.0232    5.9230   54.2519 H   0  0  0  0  0
  1  2  4  0  0  0
  1 11  4  0  0  0
  2  3  4  0  0  0
  3  4  4  0  0  0
  4  5  1  0  0  0
  4 11  4  0  0  0
  5  6  2  0  0  0
  5  7  1  0  0  0
  7  8  4  0  0  0
  8  9  2  0  0  0
  8 10  1  0  0  0
 10 11  1  0  0  0
  2 12  1  0  0  0
  3 13  1  0  0  0
  9 14  1  0  0  0
 10 15  1  0  0  0
M  END
$$$$
