5efj_ligand
  -I-interpret- 

 63 66  0  0  0  0  0  0  0  0999 V2000
   -7.6400   24.8630   -5.8300 O   0  0  0  0  0
   -8.2770   25.8800   -5.1100 C   0  0  0  0  0
   -7.4120   27.1480   -5.0200 C   0  0  0  0  0
   -6.1120   26.9290   -4.2440 C   0  0  0  0  0
   -5.2700   28.2340   -4.2280 C   0  0  0  0  0
   -3.7750   27.9760   -3.8620 C   0  0  0  0  0
   -3.0330   29.3320   -3.7460 C   0  0  0  0  0
   -1.5700   29.1580   -3.3320 C   0  0  0  0  0
   -1.1020   30.4490   -2.9590 N   0  0  0  0  0
   -0.8400   28.4390   -4.4560 C   0  0  0  0  0
   -0.6760   27.2340   -4.3550 O   0  0  0  0  0
   -8.6190   25.4380   -3.7930 O   0  0  0  0  0
   -9.4650   26.3380   -5.9730 C   0  0  0  0  0
  -10.3450   27.2220   -5.2860 C   0  0  0  0  0
  -10.7100   25.8250   -5.4940 O   0  0  0  0  0
   -0.3520   29.0800   -5.6700 N   0  0  0  0  0
   -0.4400   30.5870   -6.0650 C   0  0  0  0  0
   -0.2980   30.5360   -7.5970 C   0  0  0  0  0
    0.4370   29.4850   -7.8480 C   0  0  0  0  0
    0.2230   28.4590   -6.6360 C   0  0  0  0  0
    0.6410   31.2740   -5.5550 C   0  0  0  0  0
    1.7370   30.7290   -5.3850 O   0  0  0  0  0
    0.4400   32.6610   -5.1810 N   0  0  0  0  0
    1.4720   33.5310   -4.6830 C   0  0  0  0  0
    2.3860   32.9300   -3.6340 C   0  0  0  0  0
    3.6020   33.0340   -3.8310 O   0  0  0  0  0
    0.8230   34.8150   -4.1850 C   0  0  0  0  0
    1.9600   32.2680   -2.4270 N   0  0  0  0  0
    0.6170   32.0680   -2.0320 C   0  0  0  0  0
    0.5250   32.1670   -0.5160 C   0  0  0  0  0
    0.2080   30.6570   -2.4310 C   0  0  0  0  0
    0.9870   29.7060   -2.3470 O   0  0  0  0  0
   -0.9200   30.4030   -2.8560 O   0  0  0  0  0
   -7.4210   25.1831   -6.7082 H   0  0  0  0  0
   -7.9895   27.9079   -4.4937 H   0  0  0  0  0
   -7.1475   27.4430   -6.0355 H   0  0  0  0  0
   -5.5368   26.1394   -4.7274 H   0  0  0  0  0
   -6.3518   26.6467   -3.2189 H   0  0  0  0  0
   -5.6916   28.8971   -3.4726 H   0  0  0  0  0
   -5.3016   28.6670   -5.2278 H   0  0  0  0  0
   -3.3087   27.3709   -4.6395 H   0  0  0  0  0
   -3.7189   27.4474   -2.9104 H   0  0  0  0  0
   -3.5328   29.9274   -2.9819 H   0  0  0  0  0
   -3.0535   29.8141   -4.7234 H   0  0  0  0  0
   -7.8218   25.1727   -3.3286 H   0  0  0  0  0
   -8.9624   26.3632   -6.9399 H   0  0  0  0  0
  -10.7798   28.2133   -5.4142 H   0  0  0  0  0
  -10.3111   27.9512   -4.4765 H   0  0  0  0  0
   -1.3461   31.0733   -5.7035 H   0  0  0  0  0
   -0.7221   31.2314   -8.3213 H   0  0  0  0  0
    1.0757   29.3346   -8.7184 H   0  0  0  0  0
   -0.3973   27.6240   -6.9618 H   0  0  0  0  0
    1.1857   28.0690   -6.3056 H   0  0  0  0  0
   -0.4993   33.0467   -5.2779 H   0  0  0  0  0
    2.1433   33.7271   -5.5190 H   0  0  0  0  0
    0.2948   35.2965   -5.0080 H   0  0  0  0  0
    0.1181   34.5788   -3.3879 H   0  0  0  0  0
    1.5931   35.4857   -3.8039 H   0  0  0  0  0
    2.6877   31.9143   -1.8059 H   0  0  0  0  0
   -0.0248   32.8130   -2.5022 H   0  0  0  0  0
    1.1587   31.4038   -0.0642 H   0  0  0  0  0
    0.8591   33.1542   -0.1967 H   0  0  0  0  0
   -0.5084   32.0136   -0.2052 H   0  0  0  0  0
  1  2  1  0  0  0
  2  3  1  0  0  0
  2 12  1  0  0  0
  2 13  1  0  0  0
  3  4  1  0  0  0
  4  5  1  0  0  0
  5  6  1  0  0  0
  6  7  1  0  0  0
  7  8  1  0  0  0
  8  9  1  0  0  0
  8 10  1  0  0  0
  8 33  1  0  0  0
  9 31  1  0  0  0
  9 33  1  0  0  0
 10 11  2  0  0  0
 10 16  1  0  0  0
 13 14  1  0  0  0
 13 15  1  0  0  0
 14 15  1  0  0  0
 16 17  1  0  0  0
 16 20  1  0  0  0
 17 18  1  0  0  0
 17 21  1  0  0  0
 18 19  2  0  0  0
 19 20  1  0  0  0
 21 22  2  0  0  0
 21 23  1  0  0  0
 23 24  1  0  0  0
 24 25  1  0  0  0
 24 27  1  0  0  0
 25 26  2  0  0  0
 25 28  1  0  0  0
 28 29  1  0  0  0
 29 30  1  0  0  0
 29 31  1  0  0  0
 31 32  2  0  0  0
  1 34  1  0  0  0
  3 35  1  0  0  0
  3 36  1  0  0  0
  4 37  1  0  0  0
  4 38  1  0  0  0
  5 39  1  0  0  0
  5 40  1  0  0  0
  6 41  1  0  0  0
  6 42  1  0  0  0
  7 43  1  0  0  0
  7 44  1  0  0  0
 12 45  1  0  0  0
 13 46  1  0  0  0
 14 47  1  0  0  0
 14 48  1  0  0  0
 17 49  1  0  0  0
 18 50  1  0  0  0
 19 51  1  0  0  0
 20 52  1  0  0  0
 20 53  1  0  0  0
 23 54  1  0  0  0
 24 55  1  0  0  0
 27 56  1  0  0  0
 27 57  1  0  0  0
 27 58  1  0  0  0
 28 59  1  0  0  0
 29 60  1  0  0  0
 30 61  1  0  0  0
 30 62  1  0  0  0
 30 63  1  0  0  0
M  END
$$$$
