1y1m_ligand
  -I-interpret- 

 21 21  0  0  0  0  0  0  0  0999 V2000
    1.5890   -4.3680    0.4860 N   0  3  0  0  0
    0.5990   -6.6920    1.1810 O   0  0  0  0  0
    1.9010   -4.7880    1.8810 C   0  0  0  0  0
    1.3980   -6.2420    2.0740 C   0  0  0  0  0
    3.4030   -4.6300    2.1750 C   0  0  0  0  0
    1.1950   -3.8660    2.8930 C   0  0  0  0  0
    1.7540   -6.9110    3.0480 O   0  0  0  0  0
    3.5140   -3.5170    3.1850 C   0  0  0  0  0
    2.2020   -2.7670    3.1550 C   0  0  0  0  0
    2.0643   -4.9888   -0.1691 H   0  0  0  0  0
    0.5816   -4.4185    0.3343 H   0  0  0  0  0
    1.9083   -3.4102    0.3411 H   0  0  0  0  0
    0.4523   -6.0165    0.5148 H   0  0  0  0  0
    3.9604   -4.3968    1.2678 H   0  0  0  0  0
    3.8294   -5.5563    2.5600 H   0  0  0  0  0
    0.9135   -4.3932    3.8045 H   0  0  0  0  0
    0.2516   -3.4779    2.5089 H   0  0  0  0  0
    4.3446   -2.8545    2.9416 H   0  0  0  0  0
    3.7098   -3.9154    4.1805 H   0  0  0  0  0
    2.0040   -2.2205    4.0771 H   0  0  0  0  0
    2.1792   -1.9812    2.4000 H   0  0  0  0  0
  3  1  1  0  0  0
  4  2  1  0  0  0
  3  4  1  0  0  0
  3  5  1  0  0  0
  3  6  1  0  0  0
  4  7  2  0  0  0
  5  8  1  0  0  0
  6  9  1  0  0  0
  8  9  1  0  0  0
  1 10  1  0  0  0
  1 11  1  0  0  0
  1 12  1  0  0  0
  2 13  1  0  0  0
  5 14  1  0  0  0
  5 15  1  0  0  0
  6 16  1  0  0  0
  6 17  1  0  0  0
  8 18  1  0  0  0
  8 19  1  0  0  0
  9 20  1  0  0  0
  9 21  1  0  0  0
M  END
$$$$
