### 
### Created by X-TOOL on Mon Sep 10 21:13:18 2018
### 

@<TRIPOS>MOLECULE
4o2e_ligand
  131   131     1     0     0
SMALL
GAST_HUCK


@<TRIPOS>ATOM
      1 N          32.0630  -18.6220   -4.9300 N.4       1 SER         0.2396
      2 CA         31.4910  -19.7150   -4.1540 C.3       1 SER         0.0885
      3 C          29.9660  -19.6760   -4.1930 C.2       1 SER         0.2291
      4 O          29.3680  -18.6080   -4.2740 O.2       1 SER        -0.3906
      5 CB         31.9870  -19.6710   -2.7090 C.3       1 SER         0.1041
      6 OG         32.2780  -20.9740   -2.2360 O.3       1 SER        -0.3870
      7 N          29.3480  -20.8510   -4.1320 N.am      1 HIS        -0.2597
      8 CA         27.9120  -20.9850   -4.3200 C.3       1 HIS         0.1370
      9 C          27.1690  -20.5360   -3.0680 C.2       1 HIS         0.2054
     10 O          27.6250  -20.7100   -1.9850 O.2       1 HIS        -0.3942
     11 CB         27.4530  -22.4110   -4.5130 C.3       1 HIS         0.0145
     12 CG         27.8260  -23.0470   -5.8020 C.2       1 HIS        -0.0027
     13 ND1        29.0870  -23.5040   -6.0460 N.2       1 HIS        -0.3252
     14 CD2        27.1050  -23.3470   -6.8910 C.2       1 HIS         0.0291
     15 CE1        29.1300  -24.0670   -7.2260 C.2       1 HIS         0.0907
     16 NE2        27.9410  -23.9790   -7.7620 N.pl3     1 HIS        -0.2752
     17 N          25.9650  -20.0490   -3.2520 N.am      1 VAL        -0.2634
     18 CA         25.1460  -19.6630   -2.1080 C.3       1 VAL         0.1333
     19 C          24.7050  -20.9260   -1.3710 C.2       1 VAL         0.2041
     20 O          24.3200  -21.9130   -1.9970 O.2       1 VAL        -0.3944
     21 CB         23.9270  -18.8160   -2.5230 C.3       1 VAL        -0.0063
     22 CG1        23.0260  -19.5980   -3.4690 C.3       1 VAL        -0.0584
     23 CG2        23.1540  -18.3560   -1.2920 C.3       1 VAL        -0.0584
     24 N          24.7780  -20.9020   -0.0440 N.am      1 ALA        -0.2640
     25 CA         24.4990  -22.0930    0.7560 C.3       1 ALA         0.1282
     26 C          23.0260  -22.2020    1.1310 C.2       1 ALA         0.2036
     27 O          22.6280  -23.1030    1.8680 O.2       1 ALA        -0.3944
     28 CB         25.3740  -22.1150    2.0090 C.3       1 ALA        -0.0244
     29 N          22.2210  -21.2800    0.6150 N.am      1 VAL        -0.2635
     30 CA         20.7860  -21.2850    0.8740 C.3       1 VAL         0.1332
     31 C          20.0740  -22.1740   -0.1420 C.2       1 VAL         0.2042
     32 O          20.3900  -22.1450   -1.3300 O.2       1 VAL        -0.3944
     33 CB         20.2030  -19.8600    0.8180 C.3       1 VAL        -0.0063
     34 CG1        18.7170  -19.8770    1.1460 C.3       1 VAL        -0.0584
     35 CG2        20.9530  -18.9460    1.7770 C.3       1 VAL        -0.0584
     36 N          19.0980  -22.9490    0.2940 N.am      1 GLU        -0.2636
     37 CA         18.4180  -23.9470   -0.4960 C.3       1 GLU         0.1325
     38 C          16.9090  -23.9140   -0.2380 C.2       1 GLU         0.2041
     39 O          16.4920  -24.1150    0.8520 O.2       1 GLU        -0.3944
     40 CB         18.9800  -25.3450   -0.1450 C.3       1 GLU        -0.0008
     41 CG         17.9720  -26.4750    0.1100 C.3       1 GLU         0.0044
     42 CD         18.2770  -27.3420    1.3130 C.2       1 GLU         0.0350
     43 OE1        17.4150  -28.1380    1.7160 O.co2     1 GLU        -0.5690
     44 OE2        19.3720  -27.2840    1.8720 O.co2     1 GLU        -0.5690
     45 N          16.1050  -23.6500   -1.2590 N.am      1 ASN        -0.2616
     46 CA         14.6530  -23.6060   -1.1140 C.3       1 ASN         0.1476
     47 C          13.9360  -24.1250   -2.3520 C.2       1 ASN         0.2062
     48 O          14.0400  -23.5410   -3.4300 O.2       1 ASN        -0.3942
     49 CB         14.1840  -22.1810   -0.8170 C.3       1 ASN         0.0773
     50 CG         14.8360  -21.5970    0.4180 C.2       1 ASN         0.1780
     51 OD1        14.3890  -21.8320    1.5420 O.2       1 ASN        -0.3970
     52 ND2        15.8990  -20.8280    0.2160 N.am      1 ASN        -0.3007
     53 N          13.2110  -25.2260   -2.1960 N.am      1 ALA        -0.2639
     54 CA         12.4170  -25.7650   -3.2890 C.3       1 ALA         0.1282
     55 C          11.4270  -24.7120   -3.7720 C.2       1 ALA         0.2031
     56 O          10.9380  -23.9030   -2.9870 O.2       1 ALA        -0.3944
     57 CB         11.6860  -27.0170   -2.8450 C.3       1 ALA        -0.0244
     58 N          11.1380  -24.7150   -5.0670 N.am      1 LEU        -0.2695
     59 CA         10.1220  -23.8180   -5.6020 C.3       1 LEU         0.0946
     60 C           8.7440  -24.3560   -5.2340 C.2       1 LEU         0.0601
     61 O           7.7190  -23.6990   -5.4090 O.co2     1 LEU        -0.5666
     62 CB         10.2650  -23.6720   -7.1200 C.3       1 LEU        -0.0156
     63 CG         11.4210  -22.8030   -7.6300 C.3       1 LEU        -0.0431
     64 CD1        12.7810  -23.4080   -7.2900 C.3       1 LEU        -0.0625
     65 CD2        11.3000  -22.5710   -9.1320 C.3       1 LEU        -0.0625
     66 OXT         8.6310  -25.4790   -4.7470 O.co2     1 LEU        -0.5666
     67 H          33.0689  -18.6706   -4.8879 H         1 SER         0.2016
     68 H          31.7530  -17.7416   -4.5495 H         1 SER         0.2016
     69 H          31.7628  -18.6979   -5.8893 H         1 SER         0.2016
     70 H          31.8219  -20.6630   -4.6031 H         1 SER         0.1122
     71 H          31.2085  -19.2227   -2.0742 H         1 SER         0.0640
     72 H          32.8988  -19.0577   -2.6594 H         1 SER         0.0640
     73 H          31.4921  -21.5064   -2.2741 H         1 SER         0.2099
     74 H          29.8894  -21.6719   -3.9504 H         1 HIS         0.1886
     75 H          27.6139  -20.3759   -5.1861 H         1 HIS         0.0817
     76 H          26.3558  -22.4245   -4.4364 H         1 HIS         0.0420
     77 H          27.8847  -23.0160   -3.7021 H         1 HIS         0.0420
     78 H          26.0503  -23.1273   -7.0499 H         1 HIS         0.0729
     79 H          30.0043  -24.5287   -7.6824 H         1 HIS         0.1199
     80 H          27.6781  -24.3310   -8.6936 H         1 HIS         0.2361
     81 H          25.6072  -19.9419   -4.1797 H         1 VAL         0.1883
     82 H          25.7637  -19.0574   -1.4285 H         1 VAL         0.0802
     83 H          24.2911  -17.9241   -3.0541 H         1 VAL         0.0343
     84 H          22.1639  -18.9761   -3.7521 H         1 VAL         0.0234
     85 H          22.6710  -20.5101   -2.9671 H         1 VAL         0.0234
     86 H          23.5920  -19.8726   -4.3713 H         1 VAL         0.0234
     87 H          23.8257  -17.7947   -0.6259 H         1 VAL         0.0234
     88 H          22.7578  -19.2329   -0.7590 H         1 VAL         0.0234
     89 H          22.3209  -17.7085   -1.6029 H         1 VAL         0.0234
     90 H          25.0292  -20.0508    0.4169 H         1 ALA         0.1883
     91 H          24.7550  -22.9724    0.1468 H         1 ALA         0.0797
     92 H          25.1498  -23.0172    2.5970 H         1 ALA         0.0277
     93 H          25.1677  -21.2212    2.6160 H         1 ALA         0.0277
     94 H          26.4342  -22.1225    1.7158 H         1 ALA         0.0277
     95 H          22.6089  -20.5643    0.0342 H         1 VAL         0.1883
     96 H          20.6155  -21.6926    1.8813 H         1 VAL         0.0802
     97 H          20.3288  -19.4717   -0.2035 H         1 VAL         0.0343
     98 H          18.3198  -18.8522    1.1009 H         1 VAL         0.0234
     99 H          18.5694  -20.2832    2.1575 H         1 VAL         0.0234
    100 H          18.1877  -20.5078    0.4167 H         1 VAL         0.0234
    101 H          22.0234  -18.9477    1.5235 H         1 VAL         0.0234
    102 H          20.8197  -19.3071    2.8075 H         1 VAL         0.0234
    103 H          20.5579  -17.9229    1.6930 H         1 VAL         0.0234
    104 H          18.8078  -22.8357    1.2443 H         1 GLU         0.1883
    105 H          18.5998  -23.7427   -1.5615 H         1 GLU         0.0801
    106 H          19.5884  -25.2358    0.7649 H         1 GLU         0.0330
    107 H          19.6227  -25.6601   -0.9802 H         1 GLU         0.0330
    108 H          17.9505  -27.1210   -0.7800 H         1 GLU         0.0433
    109 H          16.9808  -26.0217    0.2581 H         1 GLU         0.0433
    110 H          16.5066  -23.4753   -2.1580 H         1 ASN         0.1885
    111 H          14.3781  -24.2478   -0.2640 H         1 ASN         0.0826
    112 H          13.0943  -22.1931   -0.6673 H         1 ASN         0.0551
    113 H          14.4286  -21.5431   -1.6791 H         1 ASN         0.0551
    114 H          16.3719  -20.4142    0.9939 H         1 ASN         0.1814
    115 H          16.2269  -20.6625   -0.7141 H         1 ASN         0.1814
    116 H          13.2107  -25.6929   -1.3117 H         1 ALA         0.1883
    117 H          13.0890  -26.0266   -4.1196 H         1 ALA         0.0797
    118 H          11.0914  -27.4108   -3.6824 H         1 ALA         0.0277
    119 H          11.0194  -26.7738   -2.0045 H         1 ALA         0.0277
    120 H          12.4168  -27.7747   -2.5261 H         1 ALA         0.0277
    121 H          11.6218  -25.3384   -5.6813 H         1 LEU         0.1875
    122 H          10.2489  -22.8258   -5.1444 H         1 LEU         0.0726
    123 H           9.3295  -23.2366   -7.5011 H         1 LEU         0.0308
    124 H          10.3978  -24.6802   -7.5393 H         1 LEU         0.0308
    125 H          11.3528  -21.8264   -7.1284 H         1 LEU         0.0297
    126 H          13.5789  -22.7548   -7.6729 H         1 LEU         0.0232
    127 H          12.8666  -24.4017   -7.7538 H         1 LEU         0.0232
    128 H          12.8774  -23.5033   -6.1984 H         1 LEU         0.0232
    129 H          10.3154  -22.1355   -9.3576 H         1 LEU         0.0232
    130 H          11.4068  -23.5296   -9.6609 H         1 LEU         0.0232
    131 H          12.0904  -21.8805   -9.4612 H         1 LEU         0.0232
@<TRIPOS>BOND
     1    1    2 1  
     2    2    3 1  
     3    2    5 1  
     4    3    4 2  
     5    3    7 am 
     6    5    6 1  
     7    7    8 1  
     8    8    9 1  
     9    8   11 1  
    10    9   10 2  
    11    9   17 am 
    12   11   12 1  
    13   12   13 1  
    14   12   14 2  
    15   13   15 2  
    16   14   16 1  
    17   15   16 1  
    18   17   18 1  
    19   18   19 1  
    20   18   21 1  
    21   19   20 2  
    22   19   24 am 
    23   21   22 1  
    24   21   23 1  
    25   24   25 1  
    26   25   26 1  
    27   25   28 1  
    28   26   27 2  
    29   26   29 am 
    30   29   30 1  
    31   30   31 1  
    32   30   33 1  
    33   31   32 2  
    34   31   36 am 
    35   33   34 1  
    36   33   35 1  
    37   36   37 1  
    38   37   38 1  
    39   37   40 1  
    40   38   39 2  
    41   38   45 am 
    42   40   41 1  
    43   41   42 1  
    44   42   43 ar 
    45   42   44 ar 
    46   45   46 1  
    47   46   47 1  
    48   46   49 1  
    49   47   48 2  
    50   47   53 am 
    51   49   50 1  
    52   50   51 2  
    53   50   52 am 
    54   53   54 1  
    55   54   55 1  
    56   54   57 1  
    57   55   56 2  
    58   55   58 am 
    59   58   59 1  
    60   59   60 1  
    61   59   62 1  
    62   60   61 ar 
    63   60   66 ar 
    64   62   63 1  
    65   63   64 1  
    66   63   65 1  
    67    1   67 1  
    68    1   68 1  
    69    1   69 1  
    70    2   70 1  
    71    5   71 1  
    72    5   72 1  
    73    6   73 1  
    74    7   74 1  
    75    8   75 1  
    76   11   76 1  
    77   11   77 1  
    78   14   78 1  
    79   15   79 1  
    80   16   80 1  
    81   17   81 1  
    82   18   82 1  
    83   21   83 1  
    84   22   84 1  
    85   22   85 1  
    86   22   86 1  
    87   23   87 1  
    88   23   88 1  
    89   23   89 1  
    90   24   90 1  
    91   25   91 1  
    92   28   92 1  
    93   28   93 1  
    94   28   94 1  
    95   29   95 1  
    96   30   96 1  
    97   33   97 1  
    98   34   98 1  
    99   34   99 1  
   100   34  100 1  
   101   35  101 1  
   102   35  102 1  
   103   35  103 1  
   104   36  104 1  
   105   37  105 1  
   106   40  106 1  
   107   40  107 1  
   108   41  108 1  
   109   41  109 1  
   110   45  110 1  
   111   46  111 1  
   112   49  112 1  
   113   49  113 1  
   114   52  114 1  
   115   52  115 1  
   116   53  116 1  
   117   54  117 1  
   118   57  118 1  
   119   57  119 1  
   120   57  120 1  
   121   58  121 1  
   122   59  122 1  
   123   62  123 1  
   124   62  124 1  
   125   63  125 1  
   126   64  126 1  
   127   64  127 1  
   128   64  128 1  
   129   65  129 1  
   130   65  130 1  
   131   65  131 1  
@<TRIPOS>SUBSTRUCTURE
     1 SER         1

