4o2e_ligand
  -I-interpret- 

132132  0  0  0  0  0  0  0  0999 V2000
   32.0630  -18.6220   -4.9300 N   0  3  0  0  0
   31.4910  -19.7150   -4.1540 C   0  0  0  0  0
   29.9660  -19.6760   -4.1930 C   0  0  0  0  0
   29.3680  -18.6080   -4.2740 O   0  0  0  0  0
   31.9870  -19.6710   -2.7090 C   0  0  0  0  0
   32.2780  -20.9740   -2.2360 O   0  0  0  0  0
   29.3480  -20.8510   -4.1320 N   0  0  0  0  0
   27.9120  -20.9850   -4.3200 C   0  0  0  0  0
   27.1690  -20.5360   -3.0680 C   0  0  0  0  0
   27.6250  -20.7100   -1.9850 O   0  0  0  0  0
   27.4530  -22.4110   -4.5130 C   0  0  0  0  0
   27.8260  -23.0470   -5.8020 C   0  0  0  0  0
   29.0870  -23.5040   -6.0460 N   0  0  0  0  0
   27.1050  -23.3470   -6.8910 C   0  0  0  0  0
   29.1300  -24.0670   -7.2260 C   0  0  0  0  0
   27.9410  -23.9790   -7.7620 N   0  0  0  0  0
   25.9650  -20.0490   -3.2520 N   0  0  0  0  0
   25.1460  -19.6630   -2.1080 C   0  0  0  0  0
   24.7050  -20.9260   -1.3710 C   0  0  0  0  0
   24.3200  -21.9130   -1.9970 O   0  0  0  0  0
   23.9270  -18.8160   -2.5230 C   0  0  0  0  0
   23.0260  -19.5980   -3.4690 C   0  0  0  0  0
   23.1540  -18.3560   -1.2920 C   0  0  0  0  0
   24.7780  -20.9020   -0.0440 N   0  0  0  0  0
   24.4990  -22.0930    0.7560 C   0  0  0  0  0
   23.0260  -22.2020    1.1310 C   0  0  0  0  0
   22.6280  -23.1030    1.8680 O   0  0  0  0  0
   25.3740  -22.1150    2.0090 C   0  0  0  0  0
   22.2210  -21.2800    0.6150 N   0  0  0  0  0
   20.7860  -21.2850    0.8740 C   0  0  0  0  0
   20.0740  -22.1740   -0.1420 C   0  0  0  0  0
   20.3900  -22.1450   -1.3300 O   0  0  0  0  0
   20.2030  -19.8600    0.8180 C   0  0  0  0  0
   18.7170  -19.8770    1.1460 C   0  0  0  0  0
   20.9530  -18.9460    1.7770 C   0  0  0  0  0
   19.0980  -22.9490    0.2940 N   0  0  0  0  0
   18.4180  -23.9470   -0.4960 C   0  0  0  0  0
   16.9090  -23.9140   -0.2380 C   0  0  0  0  0
   16.4920  -24.1150    0.8520 O   0  0  0  0  0
   18.9800  -25.3450   -0.1450 C   0  0  0  0  0
   17.9720  -26.4750    0.1100 C   0  0  0  0  0
   18.2770  -27.3420    1.3130 C   0  0  0  0  0
   17.4150  -28.1380    1.7160 O   0  0  0  0  0
   19.3720  -27.2840    1.8720 O   0  0  0  0  0
   16.1050  -23.6500   -1.2590 N   0  0  0  0  0
   14.6530  -23.6060   -1.1140 C   0  0  0  0  0
   13.9360  -24.1250   -2.3520 C   0  0  0  0  0
   14.0400  -23.5410   -3.4300 O   0  0  0  0  0
   14.1840  -22.1810   -0.8170 C   0  0  0  0  0
   14.8360  -21.5970    0.4180 C   0  0  0  0  0
   14.3890  -21.8320    1.5420 O   0  0  0  0  0
   15.8990  -20.8280    0.2160 N   0  0  0  0  0
   13.2110  -25.2260   -2.1960 N   0  0  0  0  0
   12.4170  -25.7650   -3.2890 C   0  0  0  0  0
   11.4270  -24.7120   -3.7720 C   0  0  0  0  0
   10.9380  -23.9030   -2.9870 O   0  0  0  0  0
   11.6860  -27.0170   -2.8450 C   0  0  0  0  0
   11.1380  -24.7150   -5.0670 N   0  0  0  0  0
   10.1220  -23.8180   -5.6020 C   0  0  0  0  0
    8.7440  -24.3560   -5.2340 C   0  0  0  0  0
    7.7190  -23.6990   -5.4090 O   0  0  0  0  0
   10.2650  -23.6720   -7.1200 C   0  0  0  0  0
   11.4210  -22.8030   -7.6300 C   0  0  0  0  0
   12.7810  -23.4080   -7.2900 C   0  0  0  0  0
   11.3000  -22.5710   -9.1320 C   0  0  0  0  0
    8.6310  -25.4790   -4.7470 O   0  0  0  0  0
   31.7189  -18.6710   -5.8890 H   0  0  0  0  0
   31.7890  -17.7317   -4.5143 H   0  0  0  0  0
   33.0799  -18.7010   -4.9279 H   0  0  0  0  0
   31.8197  -20.6513   -4.6050 H   0  0  0  0  0
   31.2074  -19.2364   -2.0833 H   0  0  0  0  0
   32.8964  -19.0715   -2.6681 H   0  0  0  0  0
   32.5871  -20.9222   -1.3286 H   0  0  0  0  0
   29.9002  -21.6883   -3.9468 H   0  0  0  0  0
   27.7014  -20.3855   -5.2056 H   0  0  0  0  0
   26.3635  -22.3877   -4.4875 H   0  0  0  0  0
   27.9374  -22.9966   -3.7316 H   0  0  0  0  0
   26.0493  -23.1271   -7.0500 H   0  0  0  0  0
   30.0051  -24.5291   -7.6829 H   0  0  0  0  0
   25.6001  -19.9398   -4.1982 H   0  0  0  0  0
   25.7454  -19.0362   -1.4478 H   0  0  0  0  0
   24.2843  -17.9322   -3.0515 H   0  0  0  0  0
   23.5880  -19.8695   -4.3626 H   0  0  0  0  0
   22.6750  -20.5015   -2.9705 H   0  0  0  0  0
   22.1722  -18.9808   -3.7488 H   0  0  0  0  0
   22.8083  -19.2270   -0.7352 H   0  0  0  0  0
   23.8060  -17.7539   -0.6592 H   0  0  0  0  0
   22.2970  -17.7594   -1.6047 H   0  0  0  0  0
   25.0342  -20.0338    0.4261 H   0  0  0  0  0
   24.7405  -22.9591    0.1399 H   0  0  0  0  0
   26.4242  -22.1224    1.7172 H   0  0  0  0  0
   25.1687  -21.2288    2.6096 H   0  0  0  0  0
   25.1509  -23.0094    2.5907 H   0  0  0  0  0
   22.6166  -20.5500    0.0226 H   0  0  0  0  0
   20.6272  -21.6796    1.8776 H   0  0  0  0  0
   20.3240  -19.4746   -0.1944 H   0  0  0  0  0
   18.1937  -20.5023    0.4227 H   0  0  0  0  0
   18.5721  -20.2797    2.1485 H   0  0  0  0  0
   18.3246  -18.8611    1.1010 H   0  0  0  0  0
   20.8585  -19.3308    2.7924 H   0  0  0  0  0
   22.0057  -18.9124    1.4964 H   0  0  0  0  0
   20.5299  -17.9427    1.7264 H   0  0  0  0  0
   18.8020  -22.8335    1.2633 H   0  0  0  0  0
   18.5870  -23.7337   -1.5515 H   0  0  0  0  0
   19.5179  -25.2161    0.7942 H   0  0  0  0  0
   19.5535  -25.6568   -1.0179 H   0  0  0  0  0
   18.0005  -27.1263   -0.7636 H   0  0  0  0  0
   17.0084  -26.0016    0.2984 H   0  0  0  0  0
   16.6268  -28.0557    1.1742 H   0  0  0  0  0
   16.5146  -23.4718   -2.1760 H   0  0  0  0  0
   14.4008  -24.2583   -0.2779 H   0  0  0  0  0
   13.1081  -22.2118   -0.6447 H   0  0  0  0  0
   14.4561  -21.5551   -1.6669 H   0  0  0  0  0
   16.3803  -20.4046    1.0094 H   0  0  0  0  0
   16.2345  -20.6606   -0.7326 H   0  0  0  0  0
   13.2107  -25.7023   -1.2940 H   0  0  0  0  0
   13.0800  -26.0319   -4.1120 H   0  0  0  0  0
   12.4112  -27.7669   -2.5292 H   0  0  0  0  0
   11.0259  -26.7747   -2.0121 H   0  0  0  0  0
   11.0972  -27.4062   -3.6756 H   0  0  0  0  0
   11.6314  -25.3509   -5.6936 H   0  0  0  0  0
   10.2507  -22.8266   -5.1677 H   0  0  0  0  0
    7.9468  -22.8487   -5.7921 H   0  0  0  0  0
    9.3523  -23.1820   -7.4591 H   0  0  0  0  0
   10.4578  -24.6758   -7.4986 H   0  0  0  0  0
   11.3528  -21.8419   -7.1204 H   0  0  0  0  0
   12.8752  -23.5019   -6.2081 H   0  0  0  0  0
   12.8645  -24.3926   -7.7501 H   0  0  0  0  0
   13.5708  -22.7599   -7.6699 H   0  0  0  0  0
   11.3248  -23.5299   -9.6496 H   0  0  0  0  0
   10.3582  -22.0656   -9.3456 H   0  0  0  0  0
   12.1309  -21.9522   -9.4709 H   0  0  0  0  0
  1  2  1  0  0  0
  2  3  1  0  0  0
  2  5  1  0  0  0
  3  4  2  0  0  0
  3  7  1  0  0  0
  5  6  1  0  0  0
  7  8  1  0  0  0
  8  9  1  0  0  0
  8 11  1  0  0  0
  9 10  2  0  0  0
  9 17  1  0  0  0
 11 12  1  0  0  0
 12 13  4  0  0  0
 12 14  4  0  0  0
 13 15  4  0  0  0
 14 16  4  0  0  0
 15 16  4  0  0  0
 17 18  1  0  0  0
 18 19  1  0  0  0
 18 21  1  0  0  0
 19 20  2  0  0  0
 19 24  1  0  0  0
 21 22  1  0  0  0
 21 23  1  0  0  0
 24 25  1  0  0  0
 25 26  1  0  0  0
 25 28  1  0  0  0
 26 27  2  0  0  0
 26 29  1  0  0  0
 29 30  1  0  0  0
 30 31  1  0  0  0
 30 33  1  0  0  0
 31 32  2  0  0  0
 31 36  1  0  0  0
 33 34  1  0  0  0
 33 35  1  0  0  0
 36 37  1  0  0  0
 37 38  1  0  0  0
 37 40  1  0  0  0
 38 39  2  0  0  0
 38 45  1  0  0  0
 40 41  1  0  0  0
 41 42  1  0  0  0
 42 43  1  0  0  0
 42 44  2  0  0  0
 45 46  1  0  0  0
 46 47  1  0  0  0
 46 49  1  0  0  0
 47 48  2  0  0  0
 47 53  1  0  0  0
 49 50  1  0  0  0
 50 51  2  0  0  0
 50 52  1  0  0  0
 53 54  1  0  0  0
 54 55  1  0  0  0
 54 57  1  0  0  0
 55 56  2  0  0  0
 55 58  1  0  0  0
 58 59  1  0  0  0
 59 60  1  0  0  0
 59 62  1  0  0  0
 60 61  1  0  0  0
 60 66  2  0  0  0
 62 63  1  0  0  0
 63 64  1  0  0  0
 63 65  1  0  0  0
  1 67  1  0  0  0
  1 68  1  0  0  0
  1 69  1  0  0  0
  2 70  1  0  0  0
  5 71  1  0  0  0
  5 72  1  0  0  0
  6 73  1  0  0  0
  7 74  1  0  0  0
  8 75  1  0  0  0
 11 76  1  0  0  0
 11 77  1  0  0  0
 14 78  1  0  0  0
 15 79  1  0  0  0
 17 80  1  0  0  0
 18 81  1  0  0  0
 21 82  1  0  0  0
 22 83  1  0  0  0
 22 84  1  0  0  0
 22 85  1  0  0  0
 23 86  1  0  0  0
 23 87  1  0  0  0
 23 88  1  0  0  0
 24 89  1  0  0  0
 25 90  1  0  0  0
 28 91  1  0  0  0
 28 92  1  0  0  0
 28 93  1  0  0  0
 29 94  1  0  0  0
 30 95  1  0  0  0
 33 96  1  0  0  0
 34 97  1  0  0  0
 34 98  1  0  0  0
 34 99  1  0  0  0
 35100  1  0  0  0
 35101  1  0  0  0
 35102  1  0  0  0
 36103  1  0  0  0
 37104  1  0  0  0
 40105  1  0  0  0
 40106  1  0  0  0
 41107  1  0  0  0
 41108  1  0  0  0
 43109  1  0  0  0
 45110  1  0  0  0
 46111  1  0  0  0
 49112  1  0  0  0
 49113  1  0  0  0
 52114  1  0  0  0
 52115  1  0  0  0
 53116  1  0  0  0
 54117  1  0  0  0
 57118  1  0  0  0
 57119  1  0  0  0
 57120  1  0  0  0
 58121  1  0  0  0
 59122  1  0  0  0
 61123  1  0  0  0
 62124  1  0  0  0
 62125  1  0  0  0
 63126  1  0  0  0
 64127  1  0  0  0
 64128  1  0  0  0
 64129  1  0  0  0
 65130  1  0  0  0
 65131  1  0  0  0
 65132  1  0  0  0
M  END
$$$$
