4yyl_ligand
  -I-interpret- 

 31 32  0  0  0  0  0  0  0  0999 V2000
  -35.9980    3.7930   15.7100 C   0  0  0  0  0
  -37.2240    3.1680   15.4680 C   0  0  0  0  0
  -37.5500    1.9090   15.9740 C   0  0  0  0  0
  -38.9680    1.2530   15.7150 F   0  0  0  0  0
  -36.5970    1.2380   16.7190 C   0  0  0  0  0
  -35.3690    1.8500   16.9410 C   0  0  0  0  0
  -35.0130    3.0990   16.4060 C   0  0  0  0  0
  -33.7750    3.6830   16.6530 O   0  0  0  0  0
  -32.8110    2.8440   17.3730 C   0  0  0  0  0
  -32.5010    1.6950   16.3570 C   0  0  0  0  0
  -32.7440    1.9060   15.1640 O   0  0  0  0  0
  -31.8160    0.5200   16.7360 C   0  0  0  0  0
  -31.0410    0.3890   17.9000 C   0  0  0  0  0
  -30.3440   -0.8010   18.1760 C   0  0  0  0  0
  -30.4130   -1.8730   17.2510 C   0  0  0  0  0
  -29.7710   -3.0800   17.3790 O   0  0  0  0  0
  -31.1270   -1.7280   16.0800 C   0  0  0  0  0
  -31.1680   -2.7690   15.2100 O   0  0  0  0  0
  -31.7820   -0.5320   15.8070 C   0  0  0  0  0
  -32.5360   -0.4420   14.6810 O   0  0  0  0  0
  -35.8159    4.8087   15.3589 H   0  0  0  0  0
  -37.9603    3.6882   14.8553 H   0  0  0  0  0
  -36.8052    0.2478   17.1244 H   0  0  0  0  0
  -34.6413    1.3316   17.5654 H   0  0  0  0  0
  -33.2042    2.4718   18.3190 H   0  0  0  0  0
  -31.9174    3.3931   17.6697 H   0  0  0  0  0
  -30.9788    1.2222   18.6000 H   0  0  0  0  0
  -29.7580   -0.8978   19.0899 H   0  0  0  0  0
  -29.9784   -3.6333   16.6224 H   0  0  0  0  0
  -31.6968   -2.5259   14.4465 H   0  0  0  0  0
  -32.4087   -1.2304   14.1482 H   0  0  0  0  0
  1  2  4  0  0  0
  1  7  4  0  0  0
  2  3  4  0  0  0
  3  4  1  0  0  0
  3  5  4  0  0  0
  5  6  4  0  0  0
  6  7  4  0  0  0
  7  8  1  0  0  0
  8  9  1  0  0  0
  9 10  1  0  0  0
 10 11  2  0  0  0
 10 12  1  0  0  0
 12 13  4  0  0  0
 12 19  4  0  0  0
 13 14  4  0  0  0
 14 15  4  0  0  0
 15 16  1  0  0  0
 15 17  4  0  0  0
 17 18  1  0  0  0
 17 19  4  0  0  0
 19 20  1  0  0  0
  1 21  1  0  0  0
  2 22  1  0  0  0
  5 23  1  0  0  0
  6 24  1  0  0  0
  9 25  1  0  0  0
  9 26  1  0  0  0
 13 27  1  0  0  0
 14 28  1  0  0  0
 16 29  1  0  0  0
 18 30  1  0  0  0
 20 31  1  0  0  0
M  END
$$$$
