### 
### Created by X-TOOL on Mon Sep 10 21:12:44 2018
### 

@<TRIPOS>MOLECULE
5est_ligand
   48    48     1     0     0
SMALL
GAST_HUCK


@<TRIPOS>ATOM
      1 C         -13.6270   18.8730   38.6290 C.2       1 0P2         0.3239
      2 O1        -13.8270   20.0880   38.5980 O.2       1 0P2        -0.3773
      3 O2        -14.5860   17.8880   38.4970 O.3       1 0P2        -0.2506
      4 C1'       -16.0030   18.2440   38.3930 C.3       1 0P2         0.1113
      5 C1        -16.7080   17.5960   39.5740 C.ar      1 0P2        -0.0130
      6 C2        -17.3610   18.3920   40.5330 C.ar      1 0P2        -0.0578
      7 C3        -17.8650   17.8010   41.6970 C.ar      1 0P2        -0.0685
      8 C4        -17.6930   16.4270   41.9410 C.ar      1 0P2        -0.0687
      9 C5        -17.0680   15.6290   40.9570 C.ar      1 0P2        -0.0685
     10 C6        -16.5810   16.2120   39.7760 C.ar      1 0P2        -0.0578
     11 N         -12.4690   18.3000   38.9440 N.am      1 0P2        -0.2414
     12 CA        -11.2450   18.9620   39.2740 C.3       1 0P2         0.1299
     13 C         -10.7370   19.7630   38.0910 C.2       1 0P2         0.2004
     14 O         -10.8110   19.3050   36.9360 O.2       1 0P2        -0.3946
     15 CB        -10.2080   17.9170   39.6480 C.3       1 0P2        -0.0244
     16 N         -10.3250   20.9870   38.4350 N.am      1 0P2        -0.2945
     17 CA         -9.8070   21.9460   37.4270 C.3       1 0P2         0.0231
     18 CB        -10.6290   23.1970   37.3160 C.3       1 0P2        -0.0328
     19 CG1       -10.8690   23.9670   38.6770 C.3       1 0P2        -0.0525
     20 CG2       -11.9280   22.8270   36.6370 C.3       1 0P2        -0.0616
     21 CD1       -11.0660   25.4860   38.4970 C.3       1 0P2        -0.0650
     22 B          -8.1610   22.3650   37.6310 B         1 0P2         0.4882
     23 O1         -7.2190   21.8470   36.8020 O.3       1 0P2        -0.5231
     24 H1        -16.4202   17.8645   37.4486 H         1 0P2         0.0776
     25 H2        -16.1227   19.3367   38.4340 H         1 0P2         0.0776
     26 H3        -17.4731   19.4579   40.3709 H         1 0P2         0.0557
     27 H4        -18.3950   18.4104   42.4200 H         1 0P2         0.0599
     28 H5        -18.0350   15.9865   42.8706 H         1 0P2         0.0559
     29 H6        -16.9639   14.5615   41.1144 H         1 0P2         0.0599
     30 H7        -16.1076   15.5946   39.0212 H         1 0P2         0.0557
     31 H8        -12.4523   17.3002   38.9508 H         1 0P2         0.1899
     32 H9        -11.4136   19.6376   40.1255 H         1 0P2         0.0796
     33 H10        -9.2613   18.4152   39.9041 H         1 0P2         0.0277
     34 H11       -10.0470   17.2391   38.7968 H         1 0P2         0.0277
     35 H12       -10.5646   17.3400   40.5140 H         1 0P2         0.0277
     36 H13       -10.3667   21.2637   39.3951 H         1 0P2         0.1839
     37 H14        -9.8815   21.4307   36.4580 H         1 0P2         0.0404
     38 H15       -10.0858   23.8898   36.6566 H         1 0P2         0.0307
     39 H16        -9.9976   23.8036   39.3281 H         1 0P2         0.0265
     40 H17       -11.7682   23.5537   39.1572 H         1 0P2         0.0265
     41 H18       -11.7126   22.2955   35.6983 H         1 0P2         0.0233
     42 H19       -12.5005   23.7404   36.4180 H         1 0P2         0.0233
     43 H20       -12.5161   22.1759   37.3004 H         1 0P2         0.0233
     44 H21       -11.2268   25.9538   39.4795 H         1 0P2         0.0230
     45 H22       -11.9412   25.6689   37.8562 H         1 0P2         0.0230
     46 H23       -10.1705   25.9188   38.0271 H         1 0P2         0.0230
     47 H24        -7.8902   22.9974   38.3678 H         1 0P2        -0.0312
     48 H25        -7.2248   20.8995   36.8707 H         1 0P2         0.1648
@<TRIPOS>BOND
     1    1    2 2  
     2    1    3 1  
     3    1   11 am 
     4    3    4 1  
     5    4    5 1  
     6    5    6 ar 
     7    5   10 ar 
     8    6    7 ar 
     9    7    8 ar 
    10    8    9 ar 
    11    9   10 ar 
    12   11   12 1  
    13   12   13 1  
    14   12   15 1  
    15   13   14 2  
    16   13   16 am 
    17   16   17 1  
    18   17   18 1  
    19   17   22 1  
    20   18   19 1  
    21   18   20 1  
    22   19   21 1  
    23   22   23 1  
    24    4   24 1  
    25    4   25 1  
    26    6   26 1  
    27    7   27 1  
    28    8   28 1  
    29    9   29 1  
    30   10   30 1  
    31   11   31 1  
    32   12   32 1  
    33   15   33 1  
    34   15   34 1  
    35   15   35 1  
    36   16   36 1  
    37   17   37 1  
    38   18   38 1  
    39   19   39 1  
    40   19   40 1  
    41   20   41 1  
    42   20   42 1  
    43   20   43 1  
    44   21   44 1  
    45   21   45 1  
    46   21   46 1  
    47   22   47 1  
    48   23   48 1  
@<TRIPOS>SUBSTRUCTURE
     1 0P2         1

