5est_ligand
  -I-interpret- 

 47 47  0  0  0  0  0  0  0  0999 V2000
  -13.6270   18.8730   38.6290 C   0  0  0  0  0
  -13.8270   20.0880   38.5980 O   0  0  0  0  0
  -14.5860   17.8880   38.4970 O   0  0  0  0  0
  -16.0030   18.2440   38.3930 C   0  0  0  0  0
  -16.7080   17.5960   39.5740 C   0  0  0  0  0
  -17.3610   18.3920   40.5330 C   0  0  0  0  0
  -17.8650   17.8010   41.6970 C   0  0  0  0  0
  -17.6930   16.4270   41.9410 C   0  0  0  0  0
  -17.0680   15.6290   40.9570 C   0  0  0  0  0
  -16.5810   16.2120   39.7760 C   0  0  0  0  0
  -12.4690   18.3000   38.9440 N   0  0  0  0  0
  -11.2450   18.9620   39.2740 C   0  0  0  0  0
  -10.7370   19.7630   38.0910 C   0  0  0  0  0
  -10.8110   19.3050   36.9360 O   0  0  0  0  0
  -10.2080   17.9170   39.6480 C   0  0  0  0  0
  -10.3250   20.9870   38.4350 N   0  0  0  0  0
   -9.8070   21.9460   37.4270 C   0  0  0  0  0
  -10.6290   23.1970   37.3160 C   0  0  0  0  0
  -10.8690   23.9670   38.6770 C   0  0  0  0  0
  -11.9280   22.8270   36.6370 C   0  0  0  0  0
  -11.0660   25.4860   38.4970 C   0  0  0  0  0
   -8.1610   22.3650   37.6310 B   0  0  0  0  0
   -7.2190   21.8470   36.8020 O   0  0  0  0  0
  -16.4225   17.8914   37.4508 H   0  0  0  0  0
  -16.1325   19.3261   38.4111 H   0  0  0  0  0
  -17.4737   19.4638   40.3700 H   0  0  0  0  0
  -18.3979   18.4138   42.4240 H   0  0  0  0  0
  -18.0369   15.9841   42.8757 H   0  0  0  0  0
  -16.9633   14.5556   41.1152 H   0  0  0  0  0
  -16.1050   15.5912   39.0170 H   0  0  0  0  0
  -12.4520   17.2802   38.9510 H   0  0  0  0  0
  -11.4216   19.6411   40.1081 H   0  0  0  0  0
  -10.5626   17.3460   40.5061 H   0  0  0  0  0
  -10.0495   17.2459   38.8038 H   0  0  0  0  0
   -9.2705   18.4118   39.9015 H   0  0  0  0  0
  -10.3675   21.2692   39.4143 H   0  0  0  0  0
   -9.8916   21.3889   36.4939 H   0  0  0  0  0
  -10.0643   23.9179   36.7248 H   0  0  0  0  0
   -9.9837   23.8223   39.2962 H   0  0  0  0  0
  -11.7804   23.5687   39.1228 H   0  0  0  0  0
  -11.7166   22.4200   35.6482 H   0  0  0  0  0
  -12.4491   22.0795   37.2352 H   0  0  0  0  0
  -12.5517   23.7157   36.5398 H   0  0  0  0  0
  -10.1781   25.9136   38.0312 H   0  0  0  0  0
  -11.9334   25.6658   37.8619 H   0  0  0  0  0
  -11.2253   25.9484   39.4711 H   0  0  0  0  0
   -6.3549   22.1819   37.0525 H   0  0  0  0  0
  1  2  2  0  0  0
  1  3  1  0  0  0
  1 11  1  0  0  0
  3  4  1  0  0  0
  4  5  1  0  0  0
  5  6  4  0  0  0
  5 10  4  0  0  0
  6  7  4  0  0  0
  7  8  4  0  0  0
  8  9  4  0  0  0
  9 10  4  0  0  0
 11 12  1  0  0  0
 12 13  1  0  0  0
 12 15  1  0  0  0
 13 14  2  0  0  0
 13 16  1  0  0  0
 16 17  1  0  0  0
 17 18  1  0  0  0
 17 22  1  0  0  0
 18 19  1  0  0  0
 18 20  1  0  0  0
 19 21  1  0  0  0
 22 23  1  0  0  0
  4 24  1  0  0  0
  4 25  1  0  0  0
  6 26  1  0  0  0
  7 27  1  0  0  0
  8 28  1  0  0  0
  9 29  1  0  0  0
 10 30  1  0  0  0
 11 31  1  0  0  0
 12 32  1  0  0  0
 15 33  1  0  0  0
 15 34  1  0  0  0
 15 35  1  0  0  0
 16 36  1  0  0  0
 17 37  1  0  0  0
 18 38  1  0  0  0
 19 39  1  0  0  0
 19 40  1  0  0  0
 20 41  1  0  0  0
 20 42  1  0  0  0
 20 43  1  0  0  0
 21 44  1  0  0  0
 21 45  1  0  0  0
 21 46  1  0  0  0
 23 47  1  0  0  0
M  END
$$$$
