5xaf_ligand
  -I-interpret- 

 50 52  0  0  0  0  0  0  0  0999 V2000
   17.2680  -66.6360  -41.5640 N   0  0  0  0  0
   17.7610  -66.9400  -42.9510 C   0  0  0  0  0
   19.0430  -67.2100  -42.6120 C   0  0  0  0  0
   18.9000  -67.0710  -41.1190 C   0  0  0  0  0
   19.5230  -67.1830  -40.1190 O   0  0  0  0  0
   16.0730  -66.3130  -40.8030 C   0  0  0  0  0
   14.8570  -66.1970  -41.4290 C   0  0  0  0  0
   13.7370  -65.9180  -40.6660 C   0  0  0  0  0
   13.8210  -65.7550  -39.2710 C   0  0  0  0  0
   15.0790  -65.8930  -38.6390 C   0  0  0  0  0
   16.1890  -66.1790  -39.4220 C   0  0  0  0  0
   17.5910  -65.8180  -44.0400 C   0  0  0  0  0
   17.2450  -64.5070  -43.6960 C   0  0  0  0  0
   17.1200  -63.5370  -44.6980 C   0  0  0  0  0
   17.3320  -63.8910  -46.0280 C   0  0  0  0  0
   17.6660  -65.1910  -46.3720 C   0  0  0  0  0
   17.8010  -66.1510  -45.3770 C   0  0  0  0  0
   17.8830  -65.5340  -47.7160 O   0  0  0  0  0
   17.2130  -62.9360  -47.0520 O   0  0  0  0  0
   16.4710  -61.7830  -46.7110 C   0  0  0  0  0
   12.6400  -65.4620  -38.5440 O   0  0  0  0  0
   12.4560  -66.2140  -37.3550 C   0  0  0  0  0
   15.2970  -65.7650  -37.2390 O   0  0  0  0  0
   16.5960  -66.0480  -36.7540 C   0  0  0  0  0
   12.5280  -65.7890  -41.3670 O   0  0  0  0  0
   12.5750  -66.2720  -42.6970 C   0  0  0  0  0
   19.4930  -68.7080  -42.9740 C   0  0  0  0  0
   17.2052  -67.7184  -43.4737 H   0  0  0  0  0
   19.7837  -66.5866  -43.1128 H   0  0  0  0  0
   14.7751  -66.3225  -42.5086 H   0  0  0  0  0
   17.1638  -66.3002  -38.9497 H   0  0  0  0  0
   17.0735  -64.2418  -42.6528 H   0  0  0  0  0
   16.8584  -62.5112  -44.4386 H   0  0  0  0  0
   18.0732  -67.1722  -45.6439 H   0  0  0  0  0
   18.1033  -66.4665  -47.7755 H   0  0  0  0  0
   15.4573  -62.0733  -46.4351 H   0  0  0  0  0
   16.9484  -61.2810  -45.8694 H   0  0  0  0  0
   16.4370  -61.1083  -47.5664 H   0  0  0  0  0
   12.4129  -67.2751  -37.6007 H   0  0  0  0  0
   13.2900  -66.0302  -36.6776 H   0  0  0  0  0
   11.5243  -65.9124  -36.8764 H   0  0  0  0  0
   16.8558  -67.0788  -36.9948 H   0  0  0  0  0
   17.3123  -65.3726  -37.2219 H   0  0  0  0  0
   16.6170  -65.9097  -35.6730 H   0  0  0  0  0
   13.3306  -65.7201  -43.2561 H   0  0  0  0  0
   12.8295  -67.3318  -42.6885 H   0  0  0  0  0
   11.6010  -66.1346  -43.1667 H   0  0  0  0  0
   20.4488  -68.9243  -42.4967 H   0  0  0  0  0
   18.7394  -69.4091  -42.6153 H   0  0  0  0  0
   19.5952  -68.8041  -44.0549 H   0  0  0  0  0
  1  2  1  0  0  0
  1  4  1  0  0  0
  1  6  1  0  0  0
  2  3  1  0  0  0
  2 12  1  0  0  0
  3  4  1  0  0  0
  3 27  1  0  0  0
  4  5  2  0  0  0
  6  7  4  0  0  0
  6 11  4  0  0  0
  7  8  4  0  0  0
  8  9  4  0  0  0
  8 25  1  0  0  0
  9 10  4  0  0  0
  9 21  1  0  0  0
 10 11  4  0  0  0
 10 23  1  0  0  0
 12 13  4  0  0  0
 12 17  4  0  0  0
 13 14  4  0  0  0
 14 15  4  0  0  0
 15 16  4  0  0  0
 15 19  1  0  0  0
 16 17  4  0  0  0
 16 18  1  0  0  0
 19 20  1  0  0  0
 21 22  1  0  0  0
 23 24  1  0  0  0
 25 26  1  0  0  0
  2 28  1  0  0  0
  3 29  1  0  0  0
  7 30  1  0  0  0
 11 31  1  0  0  0
 13 32  1  0  0  0
 14 33  1  0  0  0
 17 34  1  0  0  0
 18 35  1  0  0  0
 20 36  1  0  0  0
 20 37  1  0  0  0
 20 38  1  0  0  0
 22 39  1  0  0  0
 22 40  1  0  0  0
 22 41  1  0  0  0
 24 42  1  0  0  0
 24 43  1  0  0  0
 24 44  1  0  0  0
 26 45  1  0  0  0
 26 46  1  0  0  0
 26 47  1  0  0  0
 27 48  1  0  0  0
 27 49  1  0  0  0
 27 50  1  0  0  0
M  END
$$$$
