4pfu_ligand
  -I-interpret- 

 45 46  0  0  0  0  0  0  0  0999 V2000
  -34.8500  -57.1570   17.6360 C   0  0  0  0  0
  -34.6410  -57.5790   16.2010 C   0  0  0  0  0
  -35.3360  -56.6700   15.2180 C   0  0  0  0  0
  -36.7720  -56.4140   15.6250 C   0  0  0  0  0
  -36.7690  -55.8780   17.0270 C   0  0  0  0  0
  -38.1220  -55.3930   17.4990 C   0  0  0  0  0
  -35.1970  -58.8860   16.0480 O   0  0  0  0  0
  -35.2400  -57.2700   13.9150 O   0  0  0  0  0
  -37.4370  -55.4240   14.7840 O   0  0  0  0  0
  -36.2930  -56.9540   17.9020 O   0  0  0  0  0
  -39.0370  -56.4730   17.4730 O   0  0  0  0  0
  -38.3380  -56.0280   13.8930 C   0  0  0  0  0
  -39.2690  -54.9830   13.3180 C   0  0  0  0  0
  -40.0950  -55.5410   12.2100 C   0  0  0  0  0
  -39.2750  -56.2420   11.1670 C   0  0  0  0  0
  -38.3960  -57.2870   11.8390 C   0  0  0  0  0
  -37.5420  -58.0020   10.8310 C   0  0  0  0  0
  -38.4660  -53.8950   12.7680 O   0  0  0  0  0
  -40.8580  -54.4480   11.5970 O   0  0  0  0  0
  -40.1510  -56.9180   10.2710 O   0  0  0  0  0
  -37.5360  -56.6420   12.8200 O   0  0  0  0  0
  -36.7440  -57.0440   10.1280 O   0  0  0  0  0
  -34.3970  -58.1030   18.5230 O   0  0  0  0  0
  -34.2878  -56.2336   17.7747 H   0  0  0  0  0
  -33.5715  -57.5434   15.9939 H   0  0  0  0  0
  -34.8529  -55.6930   15.2018 H   0  0  0  0  0
  -37.3102  -57.3569   15.5281 H   0  0  0  0  0
  -36.1196  -55.0030   17.0558 H   0  0  0  0  0
  -38.4754  -54.5975   16.8429 H   0  0  0  0  0
  -38.0390  -55.0075   18.5152 H   0  0  0  0  0
  -34.7717  -59.4875   16.6636 H   0  0  0  0  0
  -34.3161  -57.4144   13.6977 H   0  0  0  0  0
  -39.8973  -56.1694   17.7719 H   0  0  0  0  0
  -38.9464  -56.7786   14.3976 H   0  0  0  0  0
  -39.9274  -54.6385   14.1154 H   0  0  0  0  0
  -40.7625  -56.2908   12.6347 H   0  0  0  0  0
  -38.6625  -55.5140   10.6351 H   0  0  0  0  0
  -39.0439  -58.0150   12.3272 H   0  0  0  0  0
  -38.1780  -58.5370   10.1258 H   0  0  0  0  0
  -36.8940  -58.7154   11.3402 H   0  0  0  0  0
  -39.0465  -53.2249   12.3997 H   0  0  0  0  0
  -41.3945  -54.7960   10.8810 H   0  0  0  0  0
  -39.6342  -57.3696    9.5998 H   0  0  0  0  0
  -36.1966  -57.4972    9.4826 H   0  0  0  0  0
  -33.4611  -58.2568   18.3748 H   0  0  0  0  0
  1  2  1  0  0  0
  1 10  1  0  0  0
  1 23  1  0  0  0
  2  3  1  0  0  0
  2  7  1  0  0  0
  3  4  1  0  0  0
  3  8  1  0  0  0
  4  5  1  0  0  0
  4  9  1  0  0  0
  5  6  1  0  0  0
  5 10  1  0  0  0
  6 11  1  0  0  0
  9 12  1  0  0  0
 12 13  1  0  0  0
 12 21  1  0  0  0
 13 14  1  0  0  0
 13 18  1  0  0  0
 14 15  1  0  0  0
 14 19  1  0  0  0
 15 16  1  0  0  0
 15 20  1  0  0  0
 16 17  1  0  0  0
 16 21  1  0  0  0
 17 22  1  0  0  0
  1 24  1  0  0  0
  2 25  1  0  0  0
  3 26  1  0  0  0
  4 27  1  0  0  0
  5 28  1  0  0  0
  6 29  1  0  0  0
  6 30  1  0  0  0
  7 31  1  0  0  0
  8 32  1  0  0  0
 11 33  1  0  0  0
 12 34  1  0  0  0
 13 35  1  0  0  0
 14 36  1  0  0  0
 15 37  1  0  0  0
 16 38  1  0  0  0
 17 39  1  0  0  0
 17 40  1  0  0  0
 18 41  1  0  0  0
 19 42  1  0  0  0
 20 43  1  0  0  0
 22 44  1  0  0  0
 23 45  1  0  0  0
M  END
$$$$
