### 
### Created by X-TOOL on Wed Jan  1 15:39:37 2020
### 

@<TRIPOS>MOLECULE
6egs_ligand
   64    66     1     0     0
SMALL
GAST_HUCK


@<TRIPOS>ATOM
      1 C1'       -10.6930  -45.0660   19.8700 C.3       1 UD2         0.2196
      2 C2'        -9.8750  -46.3680   19.8110 C.3       1 UD2         0.1260
      3 C3'        -8.5210  -46.0450   20.4840 C.3       1 UD2         0.1114
      4 C4'        -7.8450  -44.9750   19.5980 C.3       1 UD2         0.1117
      5 C5'        -8.6870  -43.6920   19.7470 C.3       1 UD2         0.1133
      6 C6'        -8.0320  -42.4580   19.1150 C.3       1 UD2         0.0730
      7 C7'       -11.0370  -48.5430   19.7810 C.2       1 UD2         0.1734
      8 C8'       -11.9070  -49.4660   20.5600 C.3       1 UD2         0.0257
      9 N2'       -10.6560  -47.4430   20.4330 N.am      1 UD2        -0.2762
     10 O1'       -10.9190  -44.8240   21.2590 O.3       1 UD2        -0.2157
     11 O3'        -7.6620  -47.1540   20.8130 O.3       1 UD2        -0.3867
     12 O4'        -7.7310  -45.3620   18.2080 O.3       1 UD2        -0.3865
     13 O5'       -10.0150  -43.9470   19.2410 O.3       1 UD2        -0.3366
     14 O6'        -7.6600  -41.4970   20.1260 O.3       1 UD2        -0.3924
     15 O7'       -10.7190  -48.8000   18.6310 O.2       1 UD2        -0.3974
     16 N1         -6.8380  -41.0860   26.8800 N.am      1 UD2        -0.1592
     17 C2         -5.5510  -40.5430   27.1760 C.2       1 UD2         0.3328
     18 N3         -4.5680  -41.3280   27.5580 N.am      1 UD2        -0.1865
     19 C4         -4.7570  -42.6300   27.6570 C.2       1 UD2         0.1822
     20 C5         -5.9830  -43.2280   27.3770 C.2       1 UD2         0.0062
     21 C6         -7.0330  -42.4210   26.9850 C.2       1 UD2         0.0591
     22 O2         -5.2740  -39.3250   27.1040 O.2       1 UD2        -0.3815
     23 O4         -3.7680  -43.2720   28.0040 O.2       1 UD2        -0.4124
     24 C1B        -7.9440  -40.1680   26.4670 C.3       1 UD2         0.2059
     25 C2B        -8.1220  -40.1720   24.9490 C.3       1 UD2         0.1387
     26 O2'        -7.3640  -39.1380   24.3130 O.3       1 UD2        -0.3836
     27 C3B        -9.6230  -40.0290   24.7230 C.3       1 UD2         0.1149
     28 C4B       -10.2500  -40.5640   26.0130 C.3       1 UD2         0.1189
     29 O4B        -9.2400  -40.4770   27.0390 O.3       1 UD2        -0.3363
     30 O3B       -10.0220  -38.6750   24.4480 O.3       1 UD2        -0.3864
     31 C5B       -10.7850  -42.0020   25.8210 C.3       1 UD2         0.1128
     32 O5B        -9.8250  -42.8130   25.1300 O.3       1 UD2        -0.2476
     33 PA        -10.1590  -43.8920   23.9990 P.3       1 UD2         0.2972
     34 O1A        -8.8190  -44.2790   23.4080 O.co2     1 UD2        -0.6127
     35 O2A       -10.9460  -45.0170   24.6150 O.co2     1 UD2        -0.6127
     36 O3A       -11.2280  -43.1140   23.0460 O.3       1 UD2        -0.1318
     37 PB        -12.0330  -43.8690   21.8440 P.3       1 UD2         0.2996
     38 O1B       -12.4030  -42.9070   20.7580 O.co2     1 UD2        -0.6127
     39 O2B       -13.0830  -44.7560   22.4560 O.co2     1 UD2        -0.6127
     40 H1        -11.6554  -45.2160   19.3589 H         1 UD2         0.0996
     41 H2         -9.6873  -46.6470   18.7637 H         1 UD2         0.0637
     42 H3         -8.7562  -45.5697   21.4477 H         1 UD2         0.0645
     43 H4         -6.8304  -44.7895   19.9802 H         1 UD2         0.0647
     44 H5         -8.7785  -43.4820   20.8229 H         1 UD2         0.0647
     45 H6         -8.7428  -41.9903   18.4179 H         1 UD2         0.0584
     46 H7         -7.1313  -42.7699   18.5660 H         1 UD2         0.0584
     47 H8        -12.1655  -50.3370   19.9399 H         1 UD2         0.0467
     48 H9        -12.8270  -48.9405   20.8559 H         1 UD2         0.0467
     49 H10       -11.3714  -49.8027   21.4599 H         1 UD2         0.0467
     50 H11       -10.9158  -47.3465   21.3938 H         1 UD2         0.1857
     51 H12        -8.1377  -47.7712   21.3565 H         1 UD2         0.2100
     52 H13        -7.3119  -44.6634   17.7193 H         1 UD2         0.2100
     53 H14        -7.2572  -40.7430   19.7116 H         1 UD2         0.2095
     54 H15        -3.6735  -40.9367   27.7744 H         1 UD2         0.2259
     55 H16        -6.1108  -44.3059   27.4650 H         1 UD2         0.0258
     56 H17        -8.0071  -42.8542   26.7629 H         1 UD2         0.1178
     57 H18        -7.6627  -39.1544   26.7888 H         1 UD2         0.0997
     58 H19        -7.7840  -41.1372   24.5438 H         1 UD2         0.0676
     59 H20        -7.6461  -38.2924   24.6415 H         1 UD2         0.2101
     60 H21        -9.9299  -40.6549   23.8721 H         1 UD2         0.0648
     61 H22       -11.0974  -39.9217   26.2946 H         1 UD2         0.0651
     62 H23        -9.6123  -38.3828   23.6422 H         1 UD2         0.2100
     63 H24       -11.7152  -41.9658   25.2351 H         1 UD2         0.0648
     64 H25       -10.9894  -42.4456   26.8066 H         1 UD2         0.0648
@<TRIPOS>BOND
     1    1    2 1  
     2   10    1 1  
     3    1   13 1  
     4    2    3 1  
     5    2    9 1  
     6    3    4 1  
     7    3   11 1  
     8    5    4 1  
     9    4   12 1  
    10    5    6 1  
    11   13    5 1  
    12    6   14 1  
    13    7    8 1  
    14    9    7 am 
    15    7   15 2  
    16   37   10 1  
    17   16   17 am 
    18   16   21 1  
    19   24   16 1  
    20   17   18 am 
    21   17   22 2  
    22   18   19 am 
    23   20   19 1  
    24   19   23 2  
    25   21   20 2  
    26   24   25 1  
    27   29   24 1  
    28   25   26 1  
    29   27   25 1  
    30   28   27 1  
    31   27   30 1  
    32   28   29 1  
    33   31   28 1  
    34   32   31 1  
    35   33   32 1  
    36   33   34 ar 
    37   33   35 ar 
    38   36   33 1  
    39   36   37 1  
    40   37   38 ar 
    41   37   39 ar 
    42    1   40 1  
    43    2   41 1  
    44    3   42 1  
    45    4   43 1  
    46    5   44 1  
    47    6   45 1  
    48    6   46 1  
    49    8   47 1  
    50    8   48 1  
    51    8   49 1  
    52    9   50 1  
    53   11   51 1  
    54   12   52 1  
    55   14   53 1  
    56   18   54 1  
    57   20   55 1  
    58   21   56 1  
    59   24   57 1  
    60   25   58 1  
    61   26   59 1  
    62   27   60 1  
    63   28   61 1  
    64   30   62 1  
    65   31   63 1  
    66   31   64 1  
@<TRIPOS>SUBSTRUCTURE
     1 UD2         1

