6egs_ligand
  -I-interpret- 

 66 68  0  0  0  0  0  0  0  0999 V2000
  -10.6930  -45.0660   19.8700 C   0  0  0  0  0
   -9.8750  -46.3680   19.8110 C   0  0  0  0  0
   -8.5210  -46.0450   20.4840 C   0  0  0  0  0
   -7.8450  -44.9750   19.5980 C   0  0  0  0  0
   -8.6870  -43.6920   19.7470 C   0  0  0  0  0
   -8.0320  -42.4580   19.1150 C   0  0  0  0  0
  -11.0370  -48.5430   19.7810 C   0  0  0  0  0
  -11.9070  -49.4660   20.5600 C   0  0  0  0  0
  -10.6560  -47.4430   20.4330 N   0  0  0  0  0
  -10.9190  -44.8240   21.2590 O   0  0  0  0  0
   -7.6620  -47.1540   20.8130 O   0  0  0  0  0
   -7.7310  -45.3620   18.2080 O   0  0  0  0  0
  -10.0150  -43.9470   19.2410 O   0  0  0  0  0
   -7.6600  -41.4970   20.1260 O   0  0  0  0  0
  -10.7190  -48.8000   18.6310 O   0  0  0  0  0
   -6.8380  -41.0860   26.8800 N   0  0  0  0  0
   -5.5510  -40.5430   27.1760 C   0  0  0  0  0
   -4.5680  -41.3280   27.5580 N   0  0  0  0  0
   -4.7570  -42.6300   27.6570 C   0  0  0  0  0
   -5.9830  -43.2280   27.3770 C   0  0  0  0  0
   -7.0330  -42.4210   26.9850 C   0  0  0  0  0
   -5.2740  -39.3250   27.1040 O   0  0  0  0  0
   -3.7680  -43.2720   28.0040 O   0  0  0  0  0
   -7.9440  -40.1680   26.4670 C   0  0  0  0  0
   -8.1220  -40.1720   24.9490 C   0  0  0  0  0
   -7.3640  -39.1380   24.3130 O   0  0  0  0  0
   -9.6230  -40.0290   24.7230 C   0  0  0  0  0
  -10.2500  -40.5640   26.0130 C   0  0  0  0  0
   -9.2400  -40.4770   27.0390 O   0  0  0  0  0
  -10.0220  -38.6750   24.4480 O   0  0  0  0  0
  -10.7850  -42.0020   25.8210 C   0  0  0  0  0
   -9.8250  -42.8130   25.1300 O   0  0  0  0  0
  -10.1590  -43.8920   23.9990 P   0  0  0  0  0
   -8.8190  -44.2790   23.4080 O   0  0  0  0  0
  -10.9460  -45.0170   24.6150 O   0  0  0  0  0
  -11.2280  -43.1140   23.0460 O   0  0  0  0  0
  -12.0330  -43.8690   21.8440 P   0  0  0  0  0
  -12.4030  -42.9070   20.7580 O   0  0  0  0  0
  -13.0830  -44.7560   22.4560 O   0  0  0  0  0
  -11.6249  -45.1704   19.3143 H   0  0  0  0  0
   -9.6640  -46.7294   18.8045 H   0  0  0  0  0
   -8.7246  -45.6765   21.4894 H   0  0  0  0  0
   -6.8164  -44.8297   19.9279 H   0  0  0  0  0
   -8.7529  -43.4407   20.8056 H   0  0  0  0  0
   -8.7452  -41.9925   18.4347 H   0  0  0  0  0
   -7.1341  -42.7719   18.5827 H   0  0  0  0  0
  -12.8641  -49.5778   20.0504 H   0  0  0  0  0
  -11.4216  -50.4385   20.6417 H   0  0  0  0  0
  -12.0702  -49.0552   21.5563 H   0  0  0  0  0
  -10.9210  -47.3445   21.4130 H   0  0  0  0  0
   -8.1427  -47.7777   21.3622 H   0  0  0  0  0
   -7.2036  -46.1614   18.1418 H   0  0  0  0  0
   -7.2529  -40.7350   19.7073 H   0  0  0  0  0
   -3.6556  -40.9289   27.7787 H   0  0  0  0  0
   -6.1109  -44.3069   27.4651 H   0  0  0  0  0
   -8.0080  -42.8546   26.7626 H   0  0  0  0  0
   -7.6268  -39.1961   26.8449 H   0  0  0  0  0
   -7.7427  -41.0899   24.5000 H   0  0  0  0  0
   -7.5047  -39.1771   23.3642 H   0  0  0  0  0
   -9.9512  -40.5787   23.8408 H   0  0  0  0  0
  -11.1183  -39.9726   26.3035 H   0  0  0  0  0
  -10.9722  -38.6434   24.3146 H   0  0  0  0  0
  -11.7008  -41.9611   25.2313 H   0  0  0  0  0
  -10.9760  -42.4402   26.8006 H   0  0  0  0  0
   -8.3950  -43.4995   23.0416 H   0  0  0  0  0
  -12.6808  -45.3071   23.1314 H   0  0  0  0  0
  1  2  1  0  0  0
 10  1  1  0  0  0
  1 13  1  0  0  0
  2  3  1  0  0  0
  2  9  1  0  0  0
  3  4  1  0  0  0
  3 11  1  0  0  0
  5  4  1  0  0  0
  4 12  1  0  0  0
  5  6  1  0  0  0
 13  5  1  0  0  0
  6 14  1  0  0  0
  7  8  1  0  0  0
  9  7  1  0  0  0
  7 15  2  0  0  0
 37 10  1  0  0  0
 16 17  1  0  0  0
 16 21  1  0  0  0
 24 16  1  0  0  0
 17 18  1  0  0  0
 17 22  2  0  0  0
 18 19  1  0  0  0
 20 19  1  0  0  0
 19 23  2  0  0  0
 21 20  2  0  0  0
 24 25  1  0  0  0
 29 24  1  0  0  0
 25 26  1  0  0  0
 27 25  1  0  0  0
 28 27  1  0  0  0
 27 30  1  0  0  0
 28 29  1  0  0  0
 31 28  1  0  0  0
 32 31  1  0  0  0
 33 32  1  0  0  0
 33 34  1  0  0  0
 33 35  2  0  0  0
 36 33  1  0  0  0
 36 37  1  0  0  0
 37 38  2  0  0  0
 37 39  1  0  0  0
  1 40  1  0  0  0
  2 41  1  0  0  0
  3 42  1  0  0  0
  4 43  1  0  0  0
  5 44  1  0  0  0
  6 45  1  0  0  0
  6 46  1  0  0  0
  8 47  1  0  0  0
  8 48  1  0  0  0
  8 49  1  0  0  0
  9 50  1  0  0  0
 11 51  1  0  0  0
 12 52  1  0  0  0
 14 53  1  0  0  0
 18 54  1  0  0  0
 20 55  1  0  0  0
 21 56  1  0  0  0
 24 57  1  0  0  0
 25 58  1  0  0  0
 26 59  1  0  0  0
 27 60  1  0  0  0
 28 61  1  0  0  0
 30 62  1  0  0  0
 31 63  1  0  0  0
 31 64  1  0  0  0
 34 65  1  0  0  0
 39 66  1  0  0  0
M  END
$$$$
