3fh7_ligand
  -I-interpret- 

 52 54  0  0  0  0  0  0  0  0999 V2000
   24.5860   87.3330   -2.8990 C   0  0  0  0  0
   24.0210   86.6650   -3.9770 C   0  0  0  0  0
   23.7390   85.3130   -3.8610 C   0  0  0  0  0
   23.0740   84.5200   -5.2140 Cl  0  0  0  0  0
   23.9910   84.5890   -2.7020 C   0  0  0  0  0
   24.5470   85.2560   -1.6180 C   0  0  0  0  0
   24.8440   86.6230   -1.7370 C   0  0  0  0  0
   25.3730   87.3030   -0.7060 O   0  0  0  0  0
   26.5830   86.9350   -0.2250 C   0  0  0  0  0
   27.7310   86.9390   -1.0300 C   0  0  0  0  0
   28.9660   86.5830   -0.4510 C   0  0  0  0  0
   26.6650   86.6090    1.1210 C   0  0  0  0  0
   27.8890   86.2660    1.7010 C   0  0  0  0  0
   29.0440   86.2410    0.9070 C   0  0  0  0  0
   30.2150   85.8980    1.5100 O   0  0  0  0  0
   31.1990   85.3340    0.6580 C   0  0  0  0  0
   32.0800   84.7140    1.7380 C   0  0  0  0  0
   32.7380   85.7800    2.6020 C   0  0  0  0  0
   34.0700   85.1580    2.9390 C   0  0  0  0  0
   34.4490   84.4730    1.6470 C   0  0  0  0  0
   33.1830   83.8610    1.2130 N   0  3  0  0  0
   33.1610   83.6650   -0.2320 C   0  0  0  0  0
   33.8160   82.3290   -0.4970 C   0  0  0  0  0
   35.2170   82.5700   -1.0570 C   0  0  0  0  0
   35.1820   83.0630   -2.4900 C   0  0  0  0  0
   34.1680   82.7770   -3.1800 O   0  0  0  0  0
   36.1980   83.6550   -2.8830 O   0  0  0  0  0
   24.8221   88.3951   -2.9652 H   0  0  0  0  0
   23.8020   87.1971   -4.9028 H   0  0  0  0  0
   23.7584   83.5256   -2.6451 H   0  0  0  0  0
   24.7500   84.7254   -0.6877 H   0  0  0  0  0
   27.6697   87.2122   -2.0834 H   0  0  0  0  0
   29.8675   86.5734   -1.0636 H   0  0  0  0  0
   25.7635   86.6206    1.7336 H   0  0  0  0  0
   27.9453   86.0201    2.7614 H   0  0  0  0  0
   31.6984   86.0341   -0.0118 H   0  0  0  0  0
   30.8262   84.6436   -0.0986 H   0  0  0  0  0
   31.3894   84.0939    2.3096 H   0  0  0  0  0
   32.1514   86.0333    3.4851 H   0  0  0  0  0
   32.8332   86.7398    2.0942 H   0  0  0  0  0
   34.0190   84.4734    3.7857 H   0  0  0  0  0
   34.8102   85.8873    3.2681 H   0  0  0  0  0
   35.2489   83.7436    1.7745 H   0  0  0  0  0
   34.8603   85.1614    0.9088 H   0  0  0  0  0
   33.0675   82.9208    1.5912 H   0  0  0  0  0
   33.6940   84.4676   -0.7417 H   0  0  0  0  0
   32.1392   83.6794   -0.6111 H   0  0  0  0  0
   33.2232   81.7631   -1.2157 H   0  0  0  0  0
   33.8817   81.7595    0.4300 H   0  0  0  0  0
   35.7585   81.6243   -1.0362 H   0  0  0  0  0
   35.7001   83.3332   -0.4469 H   0  0  0  0  0
   33.5275   82.3189   -2.6309 H   0  0  0  0  0
  1  2  4  0  0  0
  1  7  4  0  0  0
  2  3  4  0  0  0
  3  4  1  0  0  0
  3  5  4  0  0  0
  5  6  4  0  0  0
  6  7  4  0  0  0
  7  8  1  0  0  0
  8  9  1  0  0  0
  9 10  4  0  0  0
  9 12  4  0  0  0
 10 11  4  0  0  0
 11 14  4  0  0  0
 12 13  4  0  0  0
 13 14  4  0  0  0
 14 15  1  0  0  0
 15 16  1  0  0  0
 16 17  1  0  0  0
 17 18  1  0  0  0
 17 21  1  0  0  0
 18 19  1  0  0  0
 19 20  1  0  0  0
 20 21  1  0  0  0
 21 22  1  0  0  0
 22 23  1  0  0  0
 23 24  1  0  0  0
 24 25  1  0  0  0
 25 26  1  0  0  0
 25 27  2  0  0  0
  1 28  1  0  0  0
  2 29  1  0  0  0
  5 30  1  0  0  0
  6 31  1  0  0  0
 10 32  1  0  0  0
 11 33  1  0  0  0
 12 34  1  0  0  0
 13 35  1  0  0  0
 16 36  1  0  0  0
 16 37  1  0  0  0
 17 38  1  0  0  0
 18 39  1  0  0  0
 18 40  1  0  0  0
 19 41  1  0  0  0
 19 42  1  0  0  0
 20 43  1  0  0  0
 20 44  1  0  0  0
 21 45  1  0  0  0
 22 46  1  0  0  0
 22 47  1  0  0  0
 23 48  1  0  0  0
 23 49  1  0  0  0
 24 50  1  0  0  0
 24 51  1  0  0  0
 26 52  1  0  0  0
M  END
$$$$
