6dk1_ligand
  -I-interpret- 

 49 51  0  0  0  0  0  0  0  0999 V2000
   12.3270   39.0010  -34.5900 C   0  0  0  0  0
    9.8880   39.8540  -34.6940 C   0  0  0  0  0
    9.6840   39.0260  -33.2890 C   0  0  0  0  0
   10.6970   38.1490  -32.8310 C   0  0  0  0  0
    8.5060   39.1890  -32.5530 C   0  0  0  0  0
   12.0090   37.9350  -33.6200 C   0  0  0  0  0
   13.1640   37.7360  -32.6360 C   0  0  0  0  0
   11.8310   36.7050  -34.4040 C   0  0  0  0  0
   10.7890   36.8720  -35.5460 C   0  0  0  0  0
   12.7190   40.3550  -33.8060 C   0  0  0  0  0
   11.1980   39.2740  -35.5170 C   0  0  0  0  0
   10.5160   37.4390  -31.6340 C   0  0  0  0  0
    9.3430   37.6060  -30.9000 C   0  0  0  0  0
    8.3330   38.4780  -31.3640 C   0  0  0  0  0
    9.8200   38.2410  -36.8860 C   0  0  0  0  0
    9.9910   39.1320  -38.1170 C   0  0  0  0  0
    8.9340   39.5950  -38.7610 C   0  0  0  0  0
    7.5230   39.2450  -38.2830 C   0  0  0  0  0
    9.1140   40.4880  -39.9900 C   0  0  0  0  0
   10.8530   38.0980  -36.2930 N   0  3  0  0  0
    9.1640   36.8910  -29.7110 O   0  0  0  0  0
   13.1699   38.6546  -35.1881 H   0  0  0  0  0
   10.0493   40.9076  -34.4658 H   0  0  0  0  0
    8.9978   39.7322  -35.3111 H   0  0  0  0  0
    7.7282   39.8665  -32.9053 H   0  0  0  0  0
   12.9328   36.9049  -31.9697 H   0  0  0  0  0
   14.0772   37.5167  -33.1892 H   0  0  0  0  0
   13.3017   38.6452  -32.0507 H   0  0  0  0  0
   11.4707   35.9267  -33.7313 H   0  0  0  0  0
   12.7897   36.4538  -34.8577 H   0  0  0  0  0
    9.8098   36.8593  -35.0673 H   0  0  0  0  0
   10.9892   36.0719  -36.2586 H   0  0  0  0  0
   13.0158   41.1174  -34.5262 H   0  0  0  0  0
   11.8580   40.7062  -33.2372 H   0  0  0  0  0
   13.5471   40.1532  -33.1266 H   0  0  0  0  0
   11.5219   40.0429  -36.2184 H   0  0  0  0  0
   11.2905   36.7589  -31.2794 H   0  0  0  0  0
    7.4136   38.5964  -30.7906 H   0  0  0  0  0
    9.4764   37.2610  -37.2172 H   0  0  0  0  0
    9.1031   38.7158  -36.2161 H   0  0  0  0  0
   10.9917   39.3870  -38.4657 H   0  0  0  0  0
    7.3903   38.1634  -38.3077 H   0  0  0  0  0
    7.3861   39.6060  -37.2637 H   0  0  0  0  0
    6.7912   39.7172  -38.9384 H   0  0  0  0  0
    9.6640   41.3858  -39.7078 H   0  0  0  0  0
    9.6702   39.9447  -40.7540 H   0  0  0  0  0
    8.1356   40.7675  -40.3808 H   0  0  0  0  0
   11.6313   38.0085  -36.9462 H   0  0  0  0  0
    8.3125   37.1158  -29.3288 H   0  0  0  0  0
  1  6  1  0  0  0
  1 10  1  0  0  0
 11  1  1  0  0  0
  2  3  1  0  0  0
 11  2  1  0  0  0
  3  4  4  0  0  0
  3  5  4  0  0  0
  6  4  1  0  0  0
  4 12  4  0  0  0
  5 14  4  0  0  0
  6  7  1  0  0  0
  8  6  1  0  0  0
  9  8  1  0  0  0
 20  9  1  0  0  0
 20 11  1  0  0  0
 12 13  4  0  0  0
 14 13  4  0  0  0
 13 21  1  0  0  0
 15 16  1  0  0  0
 15 20  1  0  0  0
 16 17  2  0  0  0
 17 18  1  0  0  0
 17 19  1  0  0  0
  1 22  1  0  0  0
  2 23  1  0  0  0
  2 24  1  0  0  0
  5 25  1  0  0  0
  7 26  1  0  0  0
  7 27  1  0  0  0
  7 28  1  0  0  0
  8 29  1  0  0  0
  8 30  1  0  0  0
  9 31  1  0  0  0
  9 32  1  0  0  0
 10 33  1  0  0  0
 10 34  1  0  0  0
 10 35  1  0  0  0
 11 36  1  0  0  0
 12 37  1  0  0  0
 14 38  1  0  0  0
 15 39  1  0  0  0
 15 40  1  0  0  0
 16 41  1  0  0  0
 18 42  1  0  0  0
 18 43  1  0  0  0
 18 44  1  0  0  0
 19 45  1  0  0  0
 19 46  1  0  0  0
 19 47  1  0  0  0
 20 48  1  0  0  0
 21 49  1  0  0  0
M  END
$$$$
