5alb_ligand
  -I-interpret- 

 64 68  0  0  0  0  0  0  0  0999 V2000
    1.4160    4.2780    1.8620 C   0  0  0  0  0
    2.6300    5.1600    2.0460 C   0  0  0  0  0
    2.8550    6.0590    0.8450 C   0  0  0  0  0
    4.4190    6.9590    1.0290 S   0  0  0  0  0
    5.6090    5.9420    0.2110 C   0  0  0  0  0
    6.8720    6.3800    0.2230 N   0  0  0  0  0
    7.8410    5.6630   -0.3700 C   0  0  0  0  0
    9.1760    6.0590   -0.4190 N   0  0  0  0  0
    9.7030    6.8160    0.7190 C   0  0  0  0  0
   10.1720    8.2200    0.4650 C   0  0  0  0  0
   11.1570    7.1570    0.8260 C   0  0  0  0  0
   11.8540    7.3130    2.1260 C   0  0  0  0  0
   13.2280    7.1460    2.1450 C   0  0  0  0  0
   13.9660    7.2750    3.3050 C   0  0  0  0  0
   13.3120    7.5740    4.4790 C   0  0  0  0  0
   13.9970    7.6900    5.6250 F   0  0  0  0  0
   11.9500    7.7620    4.4790 C   0  0  0  0  0
   11.3340    8.0630    5.6260 F   0  0  0  0  0
   11.2240    7.6420    3.3170 C   0  0  0  0  0
    7.4730    4.4750   -0.9750 C   0  0  0  0  0
    8.1710    3.5200   -1.6660 N   0  0  0  0  0
    7.3240    2.5710   -2.0380 N   0  0  0  0  0
    6.1040    2.9320   -1.6010 N   0  0  0  0  0
    5.0130    1.9810   -1.6570 C   0  0  0  0  0
    3.7660    2.4610   -2.3670 C   0  0  0  0  0
    2.6250    1.7160   -1.6960 C   0  0  0  0  0
    1.5750    2.5570   -1.1910 O   0  0  0  0  0
    0.6100    2.8450   -2.2180 C   0  0  0  0  0
   -0.5490    1.8650   -2.2530 C   0  0  0  0  0
   -0.9800    1.6280   -0.9280 O   0  0  0  0  0
    3.2010    0.9690   -0.5160 C   0  0  0  0  0
    3.3570   -0.4090   -0.8810 O   0  0  0  0  0
    4.5490    1.5930   -0.2610 C   0  0  0  0  0
    5.4060    0.6790    0.4440 O   0  0  0  0  0
    6.1540    4.1200   -0.9200 C   0  0  0  0  0
    5.1680    4.8100   -0.3420 N   0  0  0  0  0
    0.5322    4.9018    1.7283 H   0  0  0  0  0
    1.5551    3.6494    0.9824 H   0  0  0  0  0
    1.2885    3.6491    2.7431 H   0  0  0  0  0
    3.5047    4.5209    2.1662 H   0  0  0  0  0
    2.4689    5.7891    2.9214 H   0  0  0  0  0
    2.0356    6.7743    0.7737 H   0  0  0  0  0
    2.8962    5.4488   -0.0573 H   0  0  0  0  0
    9.7656    5.8298   -1.2192 H   0  0  0  0  0
    8.9973    6.3225    1.3872 H   0  0  0  0  0
    9.9163    9.2351    0.7689 H   0  0  0  0  0
   10.0492    8.9997   -0.2867 H   0  0  0  0  0
   12.0490    6.7042    0.3931 H   0  0  0  0  0
   13.7435    6.9052    1.2153 H   0  0  0  0  0
   15.0478    7.1424    3.2914 H   0  0  0  0  0
   10.1466    7.8065    3.3322 H   0  0  0  0  0
    5.4460    1.1529   -2.2181 H   0  0  0  0  0
    3.8067    2.2608   -3.4377 H   0  0  0  0  0
    3.6458    3.5416   -2.2893 H   0  0  0  0  0
    2.1818    1.0748   -2.4580 H   0  0  0  0  0
    1.1234    2.7792   -3.1773 H   0  0  0  0  0
    0.1975    3.8326   -2.0119 H   0  0  0  0  0
   -0.2299    0.9294   -2.7122 H   0  0  0  0  0
   -1.3679    2.2798   -2.8408 H   0  0  0  0  0
   -1.7136    1.0089   -0.9372 H   0  0  0  0  0
    2.5662    1.0225    0.3684 H   0  0  0  0  0
    3.7228   -0.8960   -0.1389 H   0  0  0  0  0
    4.5417    2.4648    0.3932 H   0  0  0  0  0
    5.0329    0.4949    1.3091 H   0  0  0  0  0
  1  2  1  0  0  0
  2  3  1  0  0  0
  3  4  1  0  0  0
  4  5  1  0  0  0
  5  6  4  0  0  0
  5 36  4  0  0  0
  6  7  4  0  0  0
  7  8  1  0  0  0
  7 20  4  0  0  0
  8  9  1  0  0  0
  9 10  1  0  0  0
  9 11  1  0  0  0
 10 11  1  0  0  0
 11 12  1  0  0  0
 12 13  4  0  0  0
 12 19  4  0  0  0
 13 14  4  0  0  0
 14 15  4  0  0  0
 15 16  1  0  0  0
 15 17  4  0  0  0
 17 18  1  0  0  0
 17 19  4  0  0  0
 20 21  4  0  0  0
 20 35  4  0  0  0
 21 22  4  0  0  0
 22 23  4  0  0  0
 23 24  1  0  0  0
 23 35  4  0  0  0
 24 25  1  0  0  0
 24 33  1  0  0  0
 25 26  1  0  0  0
 26 27  1  0  0  0
 26 31  1  0  0  0
 27 28  1  0  0  0
 28 29  1  0  0  0
 29 30  1  0  0  0
 31 32  1  0  0  0
 31 33  1  0  0  0
 33 34  1  0  0  0
 35 36  4  0  0  0
  1 37  1  0  0  0
  1 38  1  0  0  0
  1 39  1  0  0  0
  2 40  1  0  0  0
  2 41  1  0  0  0
  3 42  1  0  0  0
  3 43  1  0  0  0
  8 44  1  0  0  0
  9 45  1  0  0  0
 10 46  1  0  0  0
 10 47  1  0  0  0
 11 48  1  0  0  0
 13 49  1  0  0  0
 14 50  1  0  0  0
 19 51  1  0  0  0
 24 52  1  0  0  0
 25 53  1  0  0  0
 25 54  1  0  0  0
 26 55  1  0  0  0
 28 56  1  0  0  0
 28 57  1  0  0  0
 29 58  1  0  0  0
 29 59  1  0  0  0
 30 60  1  0  0  0
 31 61  1  0  0  0
 32 62  1  0  0  0
 33 63  1  0  0  0
 34 64  1  0  0  0
M  END
$$$$
