1o6h_ligand
  -I-interpret- 

 59 61  0  0  0  0  0  0  0  0999 V2000
   63.4410   69.1800   58.4770 C   0  0  0  0  0
   62.3480   69.9280   58.7130 C   0  0  0  0  0
   61.8000   70.1160   60.1100 C   0  0  0  0  0
   62.3770   71.2880   60.8040 N   0  3  0  0  0
   63.4980   70.8530   61.6670 C   0  0  0  0  0
   63.0880   69.9340   62.8220 C   0  0  0  0  0
   64.1370   70.0940   63.9100 C   0  0  0  0  0
   63.4330   70.4590   65.2150 C   0  0  0  0  0
   63.6670   69.3460   66.2610 C   0  0  0  0  0
   64.9210   69.6710   67.0850 C   0  0  0  0  0
   64.6670   70.7820   67.9520 O   0  0  0  0  0
   68.8360   69.6140   72.3640 C   0  0  0  0  0
   65.6580   71.0550   68.8950 C   0  0  0  0  0
   67.8300   69.2930   71.4180 C   0  0  0  0  0
   66.0810   72.3970   69.0690 C   0  0  0  0  0
   67.0840   72.7270   70.0140 C   0  0  0  0  0
   69.2380   70.9190   72.5150 N   0  0  0  0  0
   68.6990   71.9680   71.7750 C   0  0  0  0  0
   67.6810   71.7130   70.8060 C   0  0  0  0  0
   67.2490   70.3360   70.6330 C   0  0  0  0  0
   66.2460   70.0260   69.6840 C   0  0  0  0  0
   69.2670   73.2900   72.0940 C   0  0  0  0  0
   70.6190   73.5370   71.7800 C   0  0  0  0  0
   71.1990   74.7780   72.0990 C   0  0  0  0  0
   70.4390   75.7860   72.7340 C   0  0  0  0  0
   69.0740   75.5540   73.0480 C   0  0  0  0  0
   68.4840   74.3020   72.7280 C   0  0  0  0  0
   71.2410   77.3940   73.1700 Br  0  0  0  0  0
   61.3480   71.9690   61.6110 C   0  0  0  0  0
   63.9555   68.6907   59.3040 H   0  0  0  0  0
   63.8121   69.0633   57.4588 H   0  0  0  0  0
   61.8443   70.4111   57.8757 H   0  0  0  0  0
   62.0549   69.2284   60.6890 H   0  0  0  0  0
   60.7250   70.2755   60.0264 H   0  0  0  0  0
   62.7255   71.9461   60.1070 H   0  0  0  0  0
   63.9277   71.7514   62.1102 H   0  0  0  0  0
   64.1856   70.2882   61.0375 H   0  0  0  0  0
   63.0320   68.8975   62.4893 H   0  0  0  0  0
   62.0999   70.2018   63.1962 H   0  0  0  0  0
   64.8402   70.8801   63.6350 H   0  0  0  0  0
   64.6887   69.1621   64.0338 H   0  0  0  0  0
   62.3636   70.5641   65.0319 H   0  0  0  0  0
   63.8348   71.3996   65.5918 H   0  0  0  0  0
   63.8050   68.3925   65.7513 H   0  0  0  0  0
   62.8037   69.2837   66.9236 H   0  0  0  0  0
   65.7372   69.9249   66.4086 H   0  0  0  0  0
   65.1885   68.8022   67.6865 H   0  0  0  0  0
   69.2887   68.8285   72.9691 H   0  0  0  0  0
   67.5031   68.2610   71.2908 H   0  0  0  0  0
   65.6285   73.1856   68.4677 H   0  0  0  0  0
   67.3980   73.7640   70.1327 H   0  0  0  0  0
   65.9217   68.9932   69.5563 H   0  0  0  0  0
   71.2146   72.7666   71.2902 H   0  0  0  0  0
   72.2447   74.9640   71.8541 H   0  0  0  0  0
   68.4826   76.3315   73.5315 H   0  0  0  0  0
   67.4369   74.1144   72.9657 H   0  0  0  0  0
   60.9701   71.2832   62.3693 H   0  0  0  0  0
   61.7863   72.8419   62.0947 H   0  0  0  0  0
   60.5295   72.2835   60.9635 H   0  0  0  0  0
  2  1  2  0  0  0
  3  2  1  0  0  0
  4  3  1  0  0  0
  5  4  1  0  0  0
  4 29  1  0  0  0
  6  5  1  0  0  0
  7  6  1  0  0  0
  8  7  1  0  0  0
  9  8  1  0  0  0
 10  9  1  0  0  0
 11 10  1  0  0  0
 13 11  1  0  0  0
 12 14  4  0  0  0
 17 12  4  0  0  0
 15 13  4  0  0  0
 13 21  4  0  0  0
 14 20  4  0  0  0
 16 15  4  0  0  0
 19 16  4  0  0  0
 18 17  4  0  0  0
 18 19  4  0  0  0
 18 22  1  0  0  0
 19 20  4  0  0  0
 20 21  4  0  0  0
 22 23  4  0  0  0
 22 27  4  0  0  0
 23 24  4  0  0  0
 24 25  4  0  0  0
 25 26  4  0  0  0
 25 28  1  0  0  0
 26 27  4  0  0  0
  1 30  1  0  0  0
  1 31  1  0  0  0
  2 32  1  0  0  0
  3 33  1  0  0  0
  3 34  1  0  0  0
  4 35  1  0  0  0
  5 36  1  0  0  0
  5 37  1  0  0  0
  6 38  1  0  0  0
  6 39  1  0  0  0
  7 40  1  0  0  0
  7 41  1  0  0  0
  8 42  1  0  0  0
  8 43  1  0  0  0
  9 44  1  0  0  0
  9 45  1  0  0  0
 10 46  1  0  0  0
 10 47  1  0  0  0
 12 48  1  0  0  0
 14 49  1  0  0  0
 15 50  1  0  0  0
 16 51  1  0  0  0
 21 52  1  0  0  0
 23 53  1  0  0  0
 24 54  1  0  0  0
 26 55  1  0  0  0
 27 56  1  0  0  0
 29 57  1  0  0  0
 29 58  1  0  0  0
 29 59  1  0  0  0
M  END
$$$$
