3ml2_ligand
  -I-interpret- 

 43 45  0  0  0  0  0  0  0  0999 V2000
   -5.0750    2.6800   15.6910 C   0  0  0  0  0
   -5.1060    0.0910   15.9930 N   0  0  0  0  0
   -7.2100    1.4060   16.5130 O   0  0  0  0  0
   -5.7980    1.3740   16.6360 S   0  0  0  0  0
   -3.6170    2.5500   15.4460 C   0  0  0  0  0
   -5.3030    1.5770   17.9740 O   0  0  0  0  0
   -2.9840    3.5100   14.7140 C   0  0  0  0  0
   -4.5980    6.9030   12.8100 O   0  0  0  0  0
   -3.7540    4.6400   14.1870 C   0  0  0  0  0
   -0.0880    9.6640   15.4990 O   0  0  0  0  0
   -5.1170    4.7650   14.3780 C   0  0  0  0  0
   -5.8110    3.7190   15.1860 C   0  0  0  0  0
   -3.4100    6.5970   12.6710 C   0  0  0  0  0
   -2.8850    5.5470   13.4810 N   0  0  0  0  0
   -2.3820    7.3990   11.8870 C   0  0  0  0  0
   -1.9770    8.6050   12.6850 C   0  0  0  0  0
   -1.2240    8.5340   13.8610 C   0  0  0  0  0
   -0.7760    9.7090   14.4830 C   0  0  0  0  0
   -1.0070   11.0000   14.0250 O   0  0  0  0  0
   -1.8970   11.0920   12.9230 C   0  0  0  0  0
   -2.3480   12.4460   12.5520 C   0  0  0  0  0
   -3.2370   12.6170   11.5220 C   0  0  0  0  0
   -3.8100   11.4060   10.8330 C   0  0  0  0  0
   -3.4090   10.1370   11.1830 C   0  0  0  0  0
   -2.4270    9.9600   12.2890 C   0  0  0  0  0
   -3.6180   13.9110   11.1190 O   0  0  0  0  0
   -2.7720   15.0800   11.2160 C   0  0  0  0  0
   -5.6765   -0.6229   15.5399 H   0  0  0  0  0
   -4.0925   -0.0164   16.0344 H   0  0  0  0  0
   -3.0616    1.7011   15.8447 H   0  0  0  0  0
   -1.9135    3.4377   14.5221 H   0  0  0  0  0
   -5.6689    5.6025   13.9513 H   0  0  0  0  0
   -6.8835    3.7809   15.3707 H   0  0  0  0  0
   -1.8743    5.4359   13.5621 H   0  0  0  0  0
   -2.8150    7.7182   10.9390 H   0  0  0  0  0
   -1.5064    6.7791   11.6941 H   0  0  0  0  0
   -0.9845    7.5635   14.2955 H   0  0  0  0  0
   -1.9741   13.3125   13.0974 H   0  0  0  0  0
   -4.5528   11.5368   10.0461 H   0  0  0  0  0
   -3.8062    9.2695   10.6559 H   0  0  0  0  0
   -2.5017   15.2458   12.2589 H   0  0  0  0  0
   -1.8691   14.9235   10.6258 H   0  0  0  0  0
   -3.3098   15.9487   10.8362 H   0  0  0  0  0
  1  4  1  0  0  0
  5  1  4  0  0  0
 12  1  4  0  0  0
  4  2  1  0  0  0
  4  3  2  0  0  0
  4  6  2  0  0  0
  7  5  4  0  0  0
  9  7  4  0  0  0
 13  8  2  0  0  0
  9 11  4  0  0  0
 14  9  1  0  0  0
 18 10  2  0  0  0
 11 12  4  0  0  0
 13 14  1  0  0  0
 15 13  1  0  0  0
 16 15  1  0  0  0
 17 16  2  0  0  0
 16 25  1  0  0  0
 17 18  1  0  0  0
 18 19  1  0  0  0
 19 20  1  0  0  0
 20 21  4  0  0  0
 20 25  4  0  0  0
 21 22  4  0  0  0
 22 23  4  0  0  0
 22 26  1  0  0  0
 23 24  4  0  0  0
 24 25  4  0  0  0
 26 27  1  0  0  0
  2 28  1  0  0  0
  2 29  1  0  0  0
  5 30  1  0  0  0
  7 31  1  0  0  0
 11 32  1  0  0  0
 12 33  1  0  0  0
 14 34  1  0  0  0
 15 35  1  0  0  0
 15 36  1  0  0  0
 17 37  1  0  0  0
 21 38  1  0  0  0
 23 39  1  0  0  0
 24 40  1  0  0  0
 27 41  1  0  0  0
 27 42  1  0  0  0
 27 43  1  0  0  0
M  END
$$$$
