3p7a_ligand
  -I-interpret- 

 58 61  0  0  0  0  0  0  0  0999 V2000
   49.8250   32.3110  -18.5770 C   0  0  0  0  0
   49.0100   30.6660  -14.7290 N   0  0  0  0  0
   48.7580   32.7890  -19.2330 O   0  0  0  0  0
   46.8990   29.3180  -15.7710 S   0  0  0  0  0
   48.3450   30.2940  -15.8630 C   0  0  0  0  0
   51.0180   32.7540  -18.8530 N   0  0  0  0  0
   48.5720   33.2730  -10.8530 O   0  0  0  0  0
   49.1800   32.0330  -11.8770 S   0  0  0  0  0
   51.4410   33.8510  -19.5510 C   0  0  0  0  0
   50.6130   31.3780  -11.2410 O   0  0  0  0  0
   52.6230   33.8500  -20.3240 C   0  0  0  0  0
   53.0160   35.0150  -21.0130 C   0  0  0  0  0
   52.2270   36.1760  -20.9300 C   0  0  0  0  0
   51.0560   36.1940  -20.1700 C   0  0  0  0  0
   50.6810   35.0360  -19.4830 C   0  0  0  0  0
   49.6880   31.3440  -17.6290 N   0  0  0  0  0
   48.6250   30.5960  -17.2190 C   0  0  0  0  0
   46.6690   29.2810  -17.4950 C   0  0  0  0  0
   47.6950   30.0300  -18.0950 C   0  0  0  0  0
   45.5570   28.5690  -18.2630 C   0  0  0  0  0
   45.1510   29.3700  -19.5000 C   0  0  0  0  0
   44.2420   28.3220  -17.5260 C   0  0  0  0  0
   46.1080   27.2180  -18.7410 C   0  0  0  0  0
   49.6740   31.9730  -14.6440 C   0  0  0  0  0
   49.2840   32.8120  -13.4120 C   0  0  0  0  0
   48.1970   30.7010  -12.3140 C   0  0  0  0  0
   48.7970   29.8910  -13.4830 C   0  0  0  0  0
   53.4520   32.7310  -20.4610 C   0  0  0  0  0
   54.6180   32.7760  -21.2390 C   0  0  0  0  0
   54.9830   33.9460  -21.9180 C   0  0  0  0  0
   54.1730   35.0800  -21.7990 C   0  0  0  0  0
   51.7737   32.1785  -18.4812 H   0  0  0  0  0
   52.5338   37.0740  -21.4663 H   0  0  0  0  0
   50.4452   37.0950  -20.1134 H   0  0  0  0  0
   49.7749   35.0498  -18.8773 H   0  0  0  0  0
   50.5513   31.1386  -17.1261 H   0  0  0  0  0
   47.7614   30.1613  -19.1750 H   0  0  0  0  0
   44.7929   30.3528  -19.1935 H   0  0  0  0  0
   46.0137   29.4847  -20.1563 H   0  0  0  0  0
   44.3580   28.8417  -20.0292 H   0  0  0  0  0
   44.4297   27.7043  -16.6478 H   0  0  0  0  0
   43.8158   29.2762  -17.2163 H   0  0  0  0  0
   43.5455   27.8099  -18.1899 H   0  0  0  0  0
   46.9681   27.3866  -19.3890 H   0  0  0  0  0
   46.4121   26.6253  -17.8782 H   0  0  0  0  0
   45.3336   26.6863  -19.2939 H   0  0  0  0  0
   49.3721   32.5409  -15.5240 H   0  0  0  0  0
   50.7447   31.7817  -14.5725 H   0  0  0  0  0
   50.0840   33.5444  -13.3038 H   0  0  0  0  0
   48.2739   33.1655  -13.6188 H   0  0  0  0  0
   47.2272   31.0850  -12.6305 H   0  0  0  0  0
   48.1173   30.0410  -11.4502 H   0  0  0  0  0
   49.7760   29.5402  -13.1563 H   0  0  0  0  0
   48.0851   29.1001  -13.7192 H   0  0  0  0  0
   53.1858   31.8046  -19.9521 H   0  0  0  0  0
   55.2480   31.8899  -21.3164 H   0  0  0  0  0
   55.8847   33.9721  -22.5298 H   0  0  0  0  0
   54.4394   36.0039  -22.3123 H   0  0  0  0  0
  1  3  2  0  0  0
  1  6  1  0  0  0
 16  1  1  0  0  0
  2  5  1  0  0  0
 24  2  1  0  0  0
  2 27  1  0  0  0
  5  4  4  0  0  0
  4 18  4  0  0  0
  5 17  4  0  0  0
  6  9  1  0  0  0
  8  7  2  0  0  0
  8 10  2  0  0  0
 25  8  1  0  0  0
  8 26  1  0  0  0
  9 11  4  0  0  0
  9 15  4  0  0  0
 11 12  4  0  0  0
 11 28  4  0  0  0
 12 13  4  0  0  0
 12 31  4  0  0  0
 14 13  4  0  0  0
 15 14  4  0  0  0
 17 16  1  0  0  0
 17 19  4  0  0  0
 19 18  4  0  0  0
 18 20  1  0  0  0
 20 21  1  0  0  0
 20 22  1  0  0  0
 20 23  1  0  0  0
 24 25  1  0  0  0
 26 27  1  0  0  0
 28 29  4  0  0  0
 29 30  4  0  0  0
 30 31  4  0  0  0
  6 32  1  0  0  0
 13 33  1  0  0  0
 14 34  1  0  0  0
 15 35  1  0  0  0
 16 36  1  0  0  0
 19 37  1  0  0  0
 21 38  1  0  0  0
 21 39  1  0  0  0
 21 40  1  0  0  0
 22 41  1  0  0  0
 22 42  1  0  0  0
 22 43  1  0  0  0
 23 44  1  0  0  0
 23 45  1  0  0  0
 23 46  1  0  0  0
 24 47  1  0  0  0
 24 48  1  0  0  0
 25 49  1  0  0  0
 25 50  1  0  0  0
 26 51  1  0  0  0
 26 52  1  0  0  0
 27 53  1  0  0  0
 27 54  1  0  0  0
 28 55  1  0  0  0
 29 56  1  0  0  0
 30 57  1  0  0  0
 31 58  1  0  0  0
M  END
$$$$
