4bi0_ligand
  -I-interpret- 

 19 21  0  0  0  0  0  0  0  0999 V2000
    1.5750   45.3090   16.4690 C   0  0  0  0  0
    1.4960   44.7630   15.2540 N   0  0  0  0  0
    0.7040   43.6860   15.1380 C   0  0  0  0  0
   -0.0040   43.1910   16.2400 C   0  0  0  0  0
    0.9680   44.9140   17.5980 N   0  0  0  0  0
    0.1530   43.8440   17.5330 C   0  0  0  0  0
   -0.7010   43.0480   18.4200 C   0  0  0  0  0
   -0.9280   43.0820   19.7960 C   0  0  0  0  0
   -1.3180   42.0360   17.6500 C   0  0  0  0  0
   -2.1640   41.0930   18.2350 C   0  0  0  0  0
   -2.3740   41.1550   19.6060 C   0  0  0  0  0
   -1.7600   42.1370   20.3780 C   0  0  0  0  0
   -0.8900   42.1330   16.3390 N   0  0  0  0  0
    2.2141   46.1878   16.5549 H   0  0  0  0  0
    0.6105   43.1894   14.1722 H   0  0  0  0  0
   -0.4540   43.8473   20.4106 H   0  0  0  0  0
   -2.6482   40.3263   17.6302 H   0  0  0  0  0
   -3.0279   40.4255   20.0838 H   0  0  0  0  0
   -1.9352   42.1638   21.4535 H   0  0  0  0  0
  1  2  4  0  0  0
  1  5  4  0  0  0
  2  3  4  0  0  0
  3  4  4  0  0  0
  4  6  4  0  0  0
  4 13  4  0  0  0
  5  6  4  0  0  0
  6  7  4  0  0  0
  7  8  4  0  0  0
  7  9  4  0  0  0
  8 12  4  0  0  0
  9 10  4  0  0  0
  9 13  4  0  0  0
 10 11  4  0  0  0
 11 12  4  0  0  0
  1 14  1  0  0  0
  3 15  1  0  0  0
  8 16  1  0  0  0
 10 17  1  0  0  0
 11 18  1  0  0  0
 12 19  1  0  0  0
M  END
$$$$
