5fas_ligand
  -I-interpret- 

 38 38  0  0  0  0  0  0  0  0999 V2000
   10.4520   20.3900   -0.9200 O   0  0  0  0  0
   10.4670   19.2880   -0.0980 S   0  0  0  0  0
   11.9040   18.9090   -0.0260 O   0  0  0  0  0
    9.8690   19.3960    1.2390 O   0  0  0  0  0
    9.7870   17.9450   -0.7930 O   0  0  0  0  0
    8.4730   17.9770   -0.9090 N   0  3  0  0  0
    7.7560   17.0830   -1.8390 C   0  0  0  0  0
    8.2020   17.3060   -3.2740 C   0  0  0  0  0
    7.9240   18.7270   -3.7530 C   0  0  0  0  0
    6.2890   17.4450   -1.6400 C   0  0  0  0  0
    6.2290   18.8620   -2.0130 N   0  0  0  0  0
    6.2180   19.8710   -1.0740 C   0  0  0  0  0
    6.3460   21.0260   -1.3800 O   0  0  0  0  0
    6.5140   19.1810   -3.4170 C   0  0  0  0  0
    5.5030   18.6020   -4.4080 C   0  0  0  0  0
    4.6820   17.7570   -4.0600 O   0  0  0  0  0
    5.8320   18.7360   -5.6980 N   0  0  0  0  0
    5.1000   18.2560   -6.7800 N   0  0  0  0  0
    3.7820   18.4370   -6.9260 C   0  0  0  0  0
    3.1840   19.3230   -6.3150 O   0  0  0  0  0
    3.1710   17.7430   -8.1110 C   0  0  0  0  0
   12.0025   18.1374    0.5366 H   0  0  0  0  0
    8.2846   18.9100   -1.2757 H   0  0  0  0  0
    8.1412   17.6866    0.0108 H   0  0  0  0  0
    7.9511   16.0286   -1.6432 H   0  0  0  0  0
    7.6450   16.6194   -3.9116 H   0  0  0  0  0
    9.2777   17.1370   -3.3237 H   0  0  0  0  0
    8.0374   18.7475   -4.8369 H   0  0  0  0  0
    8.6238   19.3963   -3.2526 H   0  0  0  0  0
    5.9512   17.2684   -0.6188 H   0  0  0  0  0
    5.6222   16.8273   -2.2416 H   0  0  0  0  0
    6.0894   19.6136   -0.0227 H   0  0  0  0  0
    6.4256   20.2623   -3.5227 H   0  0  0  0  0
    6.6969   19.2347   -5.9072 H   0  0  0  0  0
    5.5967   17.7362   -7.5035 H   0  0  0  0  0
    2.2469   17.2519   -7.8061 H   0  0  0  0  0
    2.9551   18.4761   -8.8882 H   0  0  0  0  0
    3.8695   16.9995   -8.4950 H   0  0  0  0  0
  1  2  2  0  0  0
  2  3  1  0  0  0
  2  4  2  0  0  0
  2  5  1  0  0  0
  5  6  1  0  0  0
  6  7  1  0  0  0
  7  8  1  0  0  0
  7 10  1  0  0  0
  8  9  1  0  0  0
  9 14  1  0  0  0
 10 11  1  0  0  0
 11 12  1  0  0  0
 11 14  1  0  0  0
 12 13  2  0  0  0
 14 15  1  0  0  0
 15 16  2  0  0  0
 15 17  1  0  0  0
 17 18  1  0  0  0
 18 19  1  0  0  0
 19 20  2  0  0  0
 19 21  1  0  0  0
  3 22  1  0  0  0
  6 23  1  0  0  0
  6 24  1  0  0  0
  7 25  1  0  0  0
  8 26  1  0  0  0
  8 27  1  0  0  0
  9 28  1  0  0  0
  9 29  1  0  0  0
 10 30  1  0  0  0
 10 31  1  0  0  0
 12 32  1  0  0  0
 14 33  1  0  0  0
 17 34  1  0  0  0
 18 35  1  0  0  0
 21 36  1  0  0  0
 21 37  1  0  0  0
 21 38  1  0  0  0
M  END
$$$$
