1qi0_ligand
  -I-interpret- 

 45 46  0  0  0  0  0  0  0  0999 V2000
   -4.0600   43.0330   12.2230 C   0  0  0  0  0
   -5.1400   41.9280   11.8490 C   0  0  0  0  0
   -6.6030   42.5000   11.8490 C   0  0  0  0  0
   -6.8940   43.2440   13.1880 C   0  0  0  0  0
   -5.7720   44.2850   13.4930 C   0  0  0  0  0
   -5.8720   44.8640   14.9210 C   0  0  0  0  0
   -4.8360   41.3570   10.5850 O   0  0  0  0  0
   -7.5630   41.4460   11.7340 O   0  0  0  0  0
   -8.1840   43.8540   13.1520 O   0  0  0  0  0
   -4.4890   43.6360   13.4390 O   0  0  0  0  0
   -5.9580   44.0060   16.0440 O   0  0  0  0  0
    1.2970   43.5920   12.3250 C   0  0  0  0  0
    0.5970   43.5450   13.7080 C   0  0  0  0  0
   -0.7430   42.7430   13.6790 C   0  0  0  0  0
   -1.6420   43.1720   12.4470 C   0  0  0  0  0
   -0.7580   43.0880   11.1300 C   0  0  0  0  0
   -1.5500   43.5930    9.8950 C   0  0  0  0  0
    2.2940   44.5890   12.2370 O   0  0  0  0  0
    1.5020   43.0460   14.6760 O   0  0  0  0  0
   -1.4850   42.8710   14.8870 O   0  0  0  0  0
   -2.8070   42.3850   12.4090 O   0  0  0  0  0
    0.4240   43.8860   11.2420 O   0  0  0  0  0
   -2.1380   44.8600   10.1420 O   0  0  0  0  0
   -3.9560   43.7883   11.4440 H   0  0  0  0  0
   -5.0955   41.1566   12.6178 H   0  0  0  0  0
   -6.6831   43.1799   11.0008 H   0  0  0  0  0
   -6.8962   42.5164   13.9996 H   0  0  0  0  0
   -5.8873   45.0783   12.7545 H   0  0  0  0  0
   -6.8189   45.4039   14.9244 H   0  0  0  0  0
   -4.9295   45.3933   15.0610 H   0  0  0  0  0
   -3.9404   41.0116   10.5982 H   0  0  0  0  0
   -7.4122   40.9651   10.9169 H   0  0  0  0  0
   -8.8473   43.1863   12.9626 H   0  0  0  0  0
   -6.0129   44.5330   16.8445 H   0  0  0  0  0
    1.7075   42.5852   12.2476 H   0  0  0  0  0
    0.3142   44.5609   13.9837 H   0  0  0  0  0
   -0.4661   41.6942   13.5715 H   0  0  0  0  0
   -1.9868   44.2020   12.5386 H   0  0  0  0  0
   -0.4883   42.0393   11.0051 H   0  0  0  0  0
   -2.3440   42.8789    9.6765 H   0  0  0  0  0
   -0.8606   43.6883    9.0561 H   0  0  0  0  0
    2.6889   44.5687   11.3622 H   0  0  0  0  0
    2.3079   43.5674   14.6578 H   0  0  0  0  0
   -0.9344   42.6096   15.6287 H   0  0  0  0  0
   -2.6198   45.1454    9.3623 H   0  0  0  0  0
  1 21  1  0  0  0
  1 10  1  0  0  0
  1  2  1  0  0  0
  2  7  1  0  0  0
  2  3  1  0  0  0
  3  8  1  0  0  0
  3  4  1  0  0  0
  4  9  1  0  0  0
  4  5  1  0  0  0
  5 10  1  0  0  0
  5  6  1  0  0  0
  6 11  1  0  0  0
 21 15  1  0  0  0
 15 16  1  0  0  0
 15 14  1  0  0  0
 14 20  1  0  0  0
 14 13  1  0  0  0
 13 19  1  0  0  0
 13 12  1  0  0  0
 12 22  1  0  0  0
 12 18  1  0  0  0
 22 16  1  0  0  0
 16 17  1  0  0  0
 17 23  1  0  0  0
  1 24  1  0  0  0
  2 25  1  0  0  0
  3 26  1  0  0  0
  4 27  1  0  0  0
  5 28  1  0  0  0
  6 29  1  0  0  0
  6 30  1  0  0  0
  7 31  1  0  0  0
  8 32  1  0  0  0
  9 33  1  0  0  0
 11 34  1  0  0  0
 12 35  1  0  0  0
 13 36  1  0  0  0
 14 37  1  0  0  0
 15 38  1  0  0  0
 16 39  1  0  0  0
 17 40  1  0  0  0
 17 41  1  0  0  0
 18 42  1  0  0  0
 19 43  1  0  0  0
 20 44  1  0  0  0
 23 45  1  0  0  0
M  END
$$$$
