2v6n_ligand
  -I-interpret- 

 22 22  0  0  0  0  0  0  0  0999 V2000
  -19.2470  -40.3620  -20.4190 C   0  0  0  0  0
  -18.6060  -41.2770  -19.4380 N   0  0  0  0  0
  -18.8750  -41.0490  -18.0070 C   0  0  0  0  0
  -17.7690  -42.3060  -19.7860 C   0  0  0  0  0
  -17.4520  -42.5650  -21.1180 C   0  0  0  0  0
  -16.5990  -43.6260  -21.4510 C   0  0  0  0  0
  -16.0400  -44.4240  -20.4350 C   0  0  0  0  0
  -15.1010  -45.5650  -20.8110 C   0  0  0  0  0
  -14.6400  -46.3000  -19.9350 O   0  0  0  0  0
  -16.3300  -44.1800  -19.0840 C   0  0  0  0  0
  -17.2040  -43.1270  -18.7800 C   0  0  0  0  0
  -18.4755  -39.8421  -20.9869 H   0  0  0  0  0
  -19.8725  -40.9406  -21.0987 H   0  0  0  0  0
  -19.8613  -39.6348  -19.8880 H   0  0  0  0  0
  -19.3322  -41.9406  -17.5780 H   0  0  0  0  0
  -17.9383  -40.8358  -17.4920 H   0  0  0  0  0
  -19.5527  -40.2025  -17.8964 H   0  0  0  0  0
  -17.8701  -41.9385  -21.9059 H   0  0  0  0  0
  -16.3686  -43.8331  -22.4960 H   0  0  0  0  0
  -14.8370  -45.7310  -21.8554 H   0  0  0  0  0
  -15.8894  -44.7902  -18.2955 H   0  0  0  0  0
  -17.4564  -42.9343  -17.7373 H   0  0  0  0  0
  1  2  1  0  0  0
  2  3  1  0  0  0
  2  4  1  0  0  0
  4  5  4  0  0  0
  4 11  4  0  0  0
  5  6  4  0  0  0
  6  7  4  0  0  0
  7  8  1  0  0  0
  7 10  4  0  0  0
  8  9  2  0  0  0
 10 11  4  0  0  0
  1 12  1  0  0  0
  1 13  1  0  0  0
  1 14  1  0  0  0
  3 15  1  0  0  0
  3 16  1  0  0  0
  3 17  1  0  0  0
  5 18  1  0  0  0
  6 19  1  0  0  0
  8 20  1  0  0  0
 10 21  1  0  0  0
 11 22  1  0  0  0
M  END
$$$$
