### 
### Created by X-TOOL on Mon Sep 10 21:13:09 2018
### 

@<TRIPOS>MOLECULE
3axm_ligand
   27    26     1     0     0
SMALL
GAST_HUCK


@<TRIPOS>ATOM
      1 C1         -2.0550    0.9830   50.9610 C.2       1 6PG         0.0660
      2 C2         -1.5520    0.0390   52.0480 C.3       1 6PG         0.1355
      3 C3         -2.7110   -0.3690   52.9700 C.3       1 6PG         0.1209
      4 C4         -2.4490   -1.3450   54.1310 C.3       1 6PG         0.1133
      5 C5         -1.5900   -0.7120   55.2040 C.3       1 6PG         0.1112
      6 C6         -1.5840   -1.4930   56.5050 C.3       1 6PG         0.1068
      7 O1A        -2.4400    2.0950   51.2840 O.co2     1 6PG        -0.5663
      8 O1         -2.0840    0.6280   49.8390 O.co2     1 6PG        -0.5663
      9 O2         -0.9510   -1.0640   51.3650 O.3       1 6PG        -0.3750
     10 O3         -3.7680   -0.8980   52.1860 O.3       1 6PG        -0.3848
     11 O4         -3.7380   -1.5630   54.7010 O.3       1 6PG        -0.3864
     12 O5         -0.3050   -0.6580   54.6570 O.3       1 6PG        -0.3865
     13 O6         -1.5670   -2.8610   56.2730 O.3       1 6PG        -0.2734
     14 P          -0.7770   -3.7820   57.2980 P.3       1 6PG         0.2008
     15 O1P        -1.3940   -5.0570   56.9680 O.co2     1 6PG        -0.5537
     16 O2P        -0.9480   -3.4070   58.7000 O.co2     1 6PG        -0.5537
     17 O3P         0.6180   -3.6080   56.9140 O.co2     1 6PG        -0.5537
     18 H          -0.8149    0.5031   52.7033 H         1 6PG         0.0791
     19 H          -2.9383    0.5699   53.4748 H         1 6PG         0.0665
     20 H          -1.9433   -2.2434   53.7770 H         1 6PG         0.0648
     21 H          -1.9806    0.2700   55.4709 H         1 6PG         0.0646
     22 H          -2.4886   -1.2470   57.0611 H         1 6PG         0.0639
     23 H          -0.6884   -1.2254   57.0657 H         1 6PG         0.0639
     24 H          -0.2375   -0.7438   50.8082 H         1 6PG         0.2125
     25 H          -4.5543   -0.9875   52.7295 H         1 6PG         0.2102
     26 H          -4.3126   -1.9655   54.0456 H         1 6PG         0.2100
     27 H           0.2875   -0.2264   55.2768 H         1 6PG         0.2100
@<TRIPOS>BOND
     1    1    2 1  
     2    1    7 ar 
     3    1    8 ar 
     4    2    3 1  
     5    2    9 1  
     6    3    4 1  
     7    3   10 1  
     8    4    5 1  
     9    4   11 1  
    10    5    6 1  
    11    5   12 1  
    12    6   13 1  
    13   13   14 1  
    14   14   15 ar 
    15   14   16 ar 
    16   14   17 ar 
    17    2   18 1  
    18    3   19 1  
    19    4   20 1  
    20    5   21 1  
    21    6   22 1  
    22    6   23 1  
    23    9   24 1  
    24   10   25 1  
    25   11   26 1  
    26   12   27 1  
@<TRIPOS>SUBSTRUCTURE
     1 6PG         1

