3axm_ligand
  -I-interpret- 

 30 29  0  0  0  0  0  0  0  0999 V2000
   -2.0550    0.9830   50.9610 C   0  0  0  0  0
   -1.5520    0.0390   52.0480 C   0  0  0  0  0
   -2.7110   -0.3690   52.9700 C   0  0  0  0  0
   -2.4490   -1.3450   54.1310 C   0  0  0  0  0
   -1.5900   -0.7120   55.2040 C   0  0  0  0  0
   -1.5840   -1.4930   56.5050 C   0  0  0  0  0
   -2.4400    2.0950   51.2840 O   0  0  0  0  0
   -2.0840    0.6280   49.8390 O   0  0  0  0  0
   -0.9510   -1.0640   51.3650 O   0  0  0  0  0
   -3.7680   -0.8980   52.1860 O   0  0  0  0  0
   -3.7380   -1.5630   54.7010 O   0  0  0  0  0
   -0.3050   -0.6580   54.6570 O   0  0  0  0  0
   -1.5670   -2.8610   56.2730 O   0  0  0  0  0
   -0.7770   -3.7820   57.2980 P   0  0  0  0  0
   -1.3940   -5.0570   56.9680 O   0  0  0  0  0
   -0.9480   -3.4070   58.7000 O   0  0  0  0  0
    0.6180   -3.6080   56.9140 O   0  0  0  0  0
   -0.8149    0.5031   52.7033 H   0  0  0  0  0
   -2.9383    0.5699   53.4748 H   0  0  0  0  0
   -1.9433   -2.2434   53.7770 H   0  0  0  0  0
   -1.9806    0.2700   55.4709 H   0  0  0  0  0
   -2.4886   -1.2470   57.0611 H   0  0  0  0  0
   -0.6884   -1.2254   57.0657 H   0  0  0  0  0
   -2.3409    2.2037   52.2327 H   0  0  0  0  0
   -0.2375   -0.7438   50.8082 H   0  0  0  0  0
   -3.9497   -0.3045   51.4536 H   0  0  0  0  0
   -4.3125   -1.9655   54.0456 H   0  0  0  0  0
   -0.3285   -0.1610   53.8360 H   0  0  0  0  0
   -0.5223   -2.5612   58.8581 H   0  0  0  0  0
    0.9157   -2.7352   57.1807 H   0  0  0  0  0
  1  2  1  0  0  0
  1  7  1  0  0  0
  1  8  2  0  0  0
  2  3  1  0  0  0
  2  9  1  0  0  0
  3  4  1  0  0  0
  3 10  1  0  0  0
  4  5  1  0  0  0
  4 11  1  0  0  0
  5  6  1  0  0  0
  5 12  1  0  0  0
  6 13  1  0  0  0
 13 14  1  0  0  0
 14 15  2  0  0  0
 14 16  1  0  0  0
 14 17  1  0  0  0
  2 18  1  0  0  0
  3 19  1  0  0  0
  4 20  1  0  0  0
  5 21  1  0  0  0
  6 22  1  0  0  0
  6 23  1  0  0  0
  7 24  1  0  0  0
  9 25  1  0  0  0
 10 26  1  0  0  0
 11 27  1  0  0  0
 12 28  1  0  0  0
 16 29  1  0  0  0
 17 30  1  0  0  0
M  END
$$$$
