3rt8_ligand
  -I-interpret- 

 24 24  0  0  0  0  0  0  0  0999 V2000
  -19.9490   -1.1050  -19.3070 N   0  0  0  0  0
  -18.7100   -0.6520  -19.5120 C   0  0  0  0  0
  -17.8150   -1.4220  -19.6540 O   0  0  0  0  0
  -18.4560    0.7020  -19.5210 N   0  0  0  0  0
  -19.4780    1.5920  -19.3260 C   0  0  0  0  0
  -19.2000    2.9510  -19.3700 O   0  0  0  0  0
  -20.7740    1.1330  -19.1140 C   0  0  0  0  0
  -22.1790    2.2360  -18.8900 Cl  0  0  0  0  0
  -21.0010   -0.1940  -19.1070 C   0  0  0  0  0
  -20.1870   -2.5310  -19.3610 C   0  0  0  0  0
  -20.1940   -3.1210  -20.7740 C   0  0  0  0  0
  -21.3320   -2.7120  -21.5770 N   0  3  0  0  0
  -19.7830   -4.5920  -20.8810 C   0  0  0  0  0
  -20.5380   -5.3750  -21.3560 O   0  0  0  0  0
  -18.6850   -5.0160  -20.1220 O   0  0  0  0  0
  -17.5063    1.0416  -19.6730 H   0  0  0  0  0
  -22.0124   -0.5665  -18.9443 H   0  0  0  0  0
  -21.1762   -2.7054  -18.9378 H   0  0  0  0  0
  -19.3721   -3.0110  -18.8191 H   0  0  0  0  0
  -19.3517   -2.6368  -21.2681 H   0  0  0  0  0
  -21.2678   -3.1423  -22.4996 H   0  0  0  0  0
  -22.1938   -3.0107  -21.1203 H   0  0  0  0  0
  -21.3312   -1.6966  -21.6734 H   0  0  0  0  0
  -18.1901   -4.2502  -19.8217 H   0  0  0  0  0
  1  2  1  0  0  0
  1  9  1  0  0  0
  1 10  1  0  0  0
  2  3  2  0  0  0
  2  4  1  0  0  0
  4  5  1  0  0  0
  5  6  2  0  0  0
  5  7  1  0  0  0
  7  8  1  0  0  0
  7  9  2  0  0  0
 10 11  1  0  0  0
 11 12  1  0  0  0
 11 13  1  0  0  0
 13 14  2  0  0  0
 13 15  1  0  0  0
  4 16  1  0  0  0
  9 17  1  0  0  0
 10 18  1  0  0  0
 10 19  1  0  0  0
 11 20  1  0  0  0
 12 21  1  0  0  0
 12 22  1  0  0  0
 12 23  1  0  0  0
 15 24  1  0  0  0
M  END
$$$$
