6mxe_ligand
  -I-interpret- 

 64 68  0  0  0  0  0  0  0  0999 V2000
   52.6190   22.8240   75.0250 F   0  0  0  0  0
   52.2160   21.6860   74.4090 C   0  0  0  0  0
   53.1730   20.8210   73.9650 C   0  0  0  0  0
   50.8650   21.4740   74.2450 C   0  0  0  0  0
   50.4600   20.3210   73.5640 C   0  0  0  0  0
   51.4150   19.4080   73.0920 C   0  0  0  0  0
   52.7640   19.6820   73.2940 C   0  0  0  0  0
   49.0200   20.1260   73.2680 C   0  0  0  0  0
   48.2170   21.0390   73.2870 O   0  0  0  0  0
   48.6340   18.8460   72.9750 N   0  0  0  0  0
   47.2600   18.5630   72.6780 C   0  0  0  0  0
   46.2660   19.0350   73.5270 C   0  0  0  0  0
   44.9400   18.7490   73.2590 C   0  0  0  0  0
   43.7590   19.5180   74.2720 Cl  0  0  0  0  0
   44.5610   17.9460   72.1780 C   0  0  0  0  0
   43.0980   17.4790   71.9390 C   0  0  0  0  0
   42.1650   18.6610   71.6400 C   0  0  0  0  0
   42.5590   16.7420   73.1730 C   0  0  0  0  0
   42.9900   16.5250   70.7370 C   0  0  0  0  0
   45.5770   17.5100   71.3320 C   0  0  0  0  0
   46.9060   17.8170   71.5630 C   0  0  0  0  0
   49.5810   17.7040   72.9660 C   0  0  0  0  0
   50.9550   18.1640   72.3560 C   0  0  0  0  0
   50.8280   18.4630   70.8560 C   0  0  0  0  0
   50.6040   17.2500   69.9890 C   0  0  0  0  0
   50.5970   17.5320   68.7260 O   0  0  0  0  0
   50.4620   16.1190   70.4270 O   0  0  0  0  0
   49.7120   17.0250   74.3130 C   0  0  0  0  0
   50.4210   15.8260   74.4040 C   0  0  0  0  0
   50.5380   15.1740   75.6200 C   0  0  0  0  0
   49.9750   15.7370   76.7730 C   0  0  0  0  0
   49.2400   16.9150   76.6820 C   0  0  0  0  0
   49.1190   17.5510   75.4550 C   0  0  0  0  0
   51.1750   13.9580   75.6340 O   0  0  0  0  0
   51.0700   13.2420   76.8730 C   0  0  0  0  0
   51.2170   14.1900   78.0600 C   0  0  0  0  0
   50.2180   15.2250   78.0240 O   0  0  0  0  0
   54.2309   21.0216   74.1342 H   0  0  0  0  0
   50.1339   22.1828   74.6338 H   0  0  0  0  0
   53.5131   18.9861   72.9164 H   0  0  0  0  0
   46.5310   19.6290   74.4017 H   0  0  0  0  0
   42.1717   19.3502   72.4845 H   0  0  0  0  0
   42.5109   19.1778   70.7448 H   0  0  0  0  0
   41.1523   18.2912   71.4792 H   0  0  0  0  0
   43.1809   15.8697   73.3740 H   0  0  0  0  0
   42.5811   17.4115   74.0329 H   0  0  0  0  0
   41.5337   16.4234   72.9852 H   0  0  0  0  0
   43.3378   17.0342   69.8382 H   0  0  0  0  0
   43.6053   15.6436   70.9179 H   0  0  0  0  0
   41.9507   16.2236   70.6063 H   0  0  0  0  0
   45.3174   16.9083   70.4610 H   0  0  0  0  0
   47.6740   17.4733   70.8700 H   0  0  0  0  0
   49.1723   16.9253   72.3220 H   0  0  0  0  0
   51.6821   17.3603   72.4718 H   0  0  0  0  0
   51.7711   18.9091   70.5403 H   0  0  0  0  0
   49.9566   19.1062   70.7332 H   0  0  0  0  0
   50.7247   18.4763   68.6094 H   0  0  0  0  0
   50.8847   15.4010   73.5138 H   0  0  0  0  0
   48.7631   17.3347   77.5677 H   0  0  0  0  0
   48.5498   18.4780   75.3853 H   0  0  0  0  0
   51.8645   12.4971   76.9172 H   0  0  0  0  0
   50.0907   12.7659   76.9222 H   0  0  0  0  0
   52.2020   14.6546   78.0151 H   0  0  0  0  0
   51.0937   13.6184   78.9799 H   0  0  0  0  0
  1  2  1  0  0  0
  2  3  4  0  0  0
  2  4  4  0  0  0
  3  7  4  0  0  0
  4  5  4  0  0  0
  5  6  4  0  0  0
  5  8  1  0  0  0
  6  7  4  0  0  0
  6 23  1  0  0  0
  8  9  2  0  0  0
  8 10  1  0  0  0
 10 11  1  0  0  0
 10 22  1  0  0  0
 11 12  4  0  0  0
 11 21  4  0  0  0
 12 13  4  0  0  0
 13 14  1  0  0  0
 13 15  4  0  0  0
 15 16  1  0  0  0
 15 20  4  0  0  0
 16 17  1  0  0  0
 16 18  1  0  0  0
 16 19  1  0  0  0
 20 21  4  0  0  0
 22 23  1  0  0  0
 22 28  1  0  0  0
 23 24  1  0  0  0
 24 25  1  0  0  0
 25 26  1  0  0  0
 25 27  2  0  0  0
 28 29  4  0  0  0
 28 33  4  0  0  0
 29 30  4  0  0  0
 30 31  4  0  0  0
 30 34  1  0  0  0
 31 32  4  0  0  0
 31 37  1  0  0  0
 32 33  4  0  0  0
 34 35  1  0  0  0
 35 36  1  0  0  0
 36 37  1  0  0  0
  3 38  1  0  0  0
  4 39  1  0  0  0
  7 40  1  0  0  0
 12 41  1  0  0  0
 17 42  1  0  0  0
 17 43  1  0  0  0
 17 44  1  0  0  0
 18 45  1  0  0  0
 18 46  1  0  0  0
 18 47  1  0  0  0
 19 48  1  0  0  0
 19 49  1  0  0  0
 19 50  1  0  0  0
 20 51  1  0  0  0
 21 52  1  0  0  0
 22 53  1  0  0  0
 23 54  1  0  0  0
 24 55  1  0  0  0
 24 56  1  0  0  0
 26 57  1  0  0  0
 29 58  1  0  0  0
 32 59  1  0  0  0
 33 60  1  0  0  0
 35 61  1  0  0  0
 35 62  1  0  0  0
 36 63  1  0  0  0
 36 64  1  0  0  0
M  END
$$$$
