4qlq_ligand
  -I-interpret- 

 93 95  0  0  0  0  0  0  0  0999 V2000
   59.6660 -135.0780   34.4700 C   0  0  0  0  0
   59.6370 -136.2640   34.7970 O   0  0  0  0  0
   58.5720 -134.4910   33.5560 C   0  0  0  0  0
   57.3190 -134.6320   34.2890 N   0  3  0  0  0
   54.7370 -133.9320   35.0670 O   0  0  0  0  0
   57.0210 -133.4520   35.1220 C   0  0  0  0  0
   56.2170 -134.8060   33.3190 C   0  0  0  0  0
   55.8720 -133.8620   35.9370 C   0  0  0  0  0
   54.8410 -134.8660   33.9410 C   0  0  0  0  0
   60.6240 -134.2220   34.8610 N   0  0  0  0  0
   61.7390 -134.6630   35.7160 C   0  0  0  0  0
   61.3000 -134.7270   37.1870 C   0  0  0  0  0
   60.4970 -133.9130   37.6380 O   0  0  0  0  0
   62.9250 -133.6970   35.5590 C   0  0  0  0  0
   61.8540 -135.7230   37.9020 N   0  0  0  0  0
   61.5860 -135.9100   39.3390 C   0  0  0  0  0
   60.9510 -137.2470   39.6220 C   0  0  0  0  0
   59.6110 -137.2160   39.2190 C   0  0  0  0  0
   59.2340 -137.6130   37.9380 C   0  0  0  0  0
   57.8910 -137.5900   37.5590 C   0  0  0  0  0
   56.9020 -137.1790   38.4540 C   0  0  0  0  0
   55.6020 -137.1830   38.0070 O   0  0  0  0  0
   54.5100 -136.7510   38.8510 C   0  0  0  0  0
   57.2890 -136.7900   39.7430 C   0  0  0  0  0
   58.6270 -136.8130   40.1180 C   0  0  0  0  0
   62.9230 -135.9080   40.0990 C   0  0  0  0  0
   63.9780 -136.1550   39.5120 O   0  0  0  0  0
   62.8320 -135.6780   41.4240 N   0  0  0  0  0
   64.0190 -135.6860   42.3000 C   0  0  0  0  0
   64.2510 -134.3210   42.9420 C   0  0  0  0  0
   64.4040 -133.1870   41.8980 C   0  0  0  0  0
   65.6890 -133.3660   41.1440 C   0  0  0  0  0
   65.9060 -132.1350   40.2500 C   0  0  0  0  0
   66.0760 -130.8910   41.1220 C   0  0  0  0  0
   64.7620 -130.6330   41.8370 C   0  0  0  0  0
   64.3810 -131.8520   42.6880 C   0  0  0  0  0
   63.8430 -136.7140   43.4690 C   0  0  0  0  0
   62.5550 -136.4870   44.0400 O   0  0  0  0  0
   64.0700 -138.3040   43.1620 C   0  0  0  0  0
   65.0880 -138.4690   41.9920 C   0  0  0  0  0
   62.7840 -138.9200   42.5810 C   0  0  0  0  0
   61.7840 -137.9120   42.6290 O   0  0  0  0  0
   58.5322 -135.0146   32.6008 H   0  0  0  0  0
   58.7748 -133.4470   33.3172 H   0  0  0  0  0
   57.4106 -135.4399   34.9049 H   0  0  0  0  0
   56.8022 -132.5702   34.5198 H   0  0  0  0  0
   57.8732 -133.1571   35.7343 H   0  0  0  0  0
   56.3819 -135.7584   32.8152 H   0  0  0  0  0
   56.2320 -133.9386   32.6590 H   0  0  0  0  0
   56.0583 -134.8299   36.4025 H   0  0  0  0  0
   55.6962 -133.1455   36.7393 H   0  0  0  0  0
   54.1026 -134.5917   33.1876 H   0  0  0  0  0
   54.6643 -135.8777   34.3062 H   0  0  0  0  0
   60.5785 -133.2484   34.5602 H   0  0  0  0  0
   62.0452 -135.6622   35.4062 H   0  0  0  0  0
   63.2486 -133.6872   34.5182 H   0  0  0  0  0
   62.6167 -132.6941   35.8545 H   0  0  0  0  0
   63.7475 -134.0274   36.1934 H   0  0  0  0  0
   62.4834 -136.3734   37.4316 H   0  0  0  0  0
   60.9188 -135.1059   39.6495 H   0  0  0  0  0
   61.0065 -137.4591   40.6897 H   0  0  0  0  0
   61.4797 -138.0261   39.0728 H   0  0  0  0  0
   59.9920 -137.9434   37.2278 H   0  0  0  0  0
   57.6109 -137.8969   36.5513 H   0  0  0  0  0
   54.4690 -137.3800   39.7402 H   0  0  0  0  0
   54.6684 -135.7135   39.1453 H   0  0  0  0  0
   53.5725 -136.8350   38.3014 H   0  0  0  0  0
   56.5334 -136.4662   40.4587 H   0  0  0  0  0
   58.9092 -136.5123   41.1270 H   0  0  0  0  0
   61.9160 -135.4931   41.8328 H   0  0  0  0  0
   64.8643 -135.9552   41.6667 H   0  0  0  0  0
   65.1761 -134.3742   43.5160 H   0  0  0  0  0
   63.3839 -134.0909   43.5612 H   0  0  0  0  0
   63.6005 -133.1969   41.1615 H   0  0  0  0  0
   65.6384 -134.2662   40.5315 H   0  0  0  0  0
   66.5190 -133.4690   41.8429 H   0  0  0  0  0
   65.0426 -132.0046   39.5976 H   0  0  0  0  0
   66.8021 -132.2793   39.6465 H   0  0  0  0  0
   66.3425 -130.0331   40.5047 H   0  0  0  0  0
   66.8742 -131.0471   41.8477 H   0  0  0  0  0
   63.9808 -130.4522   41.0986 H   0  0  0  0  0
   64.8703 -129.7628   42.4844 H   0  0  0  0  0
   65.1130 -131.9333   43.4915 H   0  0  0  0  0
   63.3622 -131.6986   43.0439 H   0  0  0  0  0
   64.6718 -136.5141   44.1482 H   0  0  0  0  0
   62.4136 -137.1028   44.7628 H   0  0  0  0  0
   64.3892 -138.7674   44.0955 H   0  0  0  0  0
   64.6973 -137.9788   41.1003 H   0  0  0  0  0
   66.0380 -138.0136   42.2717 H   0  0  0  0  0
   65.2377 -139.5294   41.7892 H   0  0  0  0  0
   62.4797 -139.7937   43.1573 H   0  0  0  0  0
   62.9452 -139.2557   41.5566 H   0  0  0  0  0
   60.9631 -138.2601   42.2733 H   0  0  0  0  0
  1  2  2  0  0  0
  3  1  1  0  0  0
  1 10  1  0  0  0
  4  3  1  0  0  0
  6  4  1  0  0  0
  4  7  1  0  0  0
  8  5  1  0  0  0
  5  9  1  0  0  0
  6  8  1  0  0  0
  7  9  1  0  0  0
 10 11  1  0  0  0
 11 12  1  0  0  0
 11 14  1  0  0  0
 12 13  2  0  0  0
 12 15  1  0  0  0
 15 16  1  0  0  0
 16 17  1  0  0  0
 16 26  1  0  0  0
 17 18  1  0  0  0
 18 19  4  0  0  0
 18 25  4  0  0  0
 19 20  4  0  0  0
 20 21  4  0  0  0
 21 22  1  0  0  0
 21 24  4  0  0  0
 22 23  1  0  0  0
 24 25  4  0  0  0
 26 27  2  0  0  0
 26 28  1  0  0  0
 28 29  1  0  0  0
 29 30  1  0  0  0
 29 37  1  0  0  0
 30 31  1  0  0  0
 31 32  1  0  0  0
 31 36  1  0  0  0
 32 33  1  0  0  0
 33 34  1  0  0  0
 34 35  1  0  0  0
 35 36  1  0  0  0
 37 38  1  0  0  0
 37 39  1  0  0  0
 39 40  1  0  0  0
 39 41  1  0  0  0
 41 42  1  0  0  0
  3 43  1  0  0  0
  3 44  1  0  0  0
  4 45  1  0  0  0
  6 46  1  0  0  0
  6 47  1  0  0  0
  7 48  1  0  0  0
  7 49  1  0  0  0
  8 50  1  0  0  0
  8 51  1  0  0  0
  9 52  1  0  0  0
  9 53  1  0  0  0
 10 54  1  0  0  0
 11 55  1  0  0  0
 14 56  1  0  0  0
 14 57  1  0  0  0
 14 58  1  0  0  0
 15 59  1  0  0  0
 16 60  1  0  0  0
 17 61  1  0  0  0
 17 62  1  0  0  0
 19 63  1  0  0  0
 20 64  1  0  0  0
 23 65  1  0  0  0
 23 66  1  0  0  0
 23 67  1  0  0  0
 24 68  1  0  0  0
 25 69  1  0  0  0
 28 70  1  0  0  0
 29 71  1  0  0  0
 30 72  1  0  0  0
 30 73  1  0  0  0
 31 74  1  0  0  0
 32 75  1  0  0  0
 32 76  1  0  0  0
 33 77  1  0  0  0
 33 78  1  0  0  0
 34 79  1  0  0  0
 34 80  1  0  0  0
 35 81  1  0  0  0
 35 82  1  0  0  0
 36 83  1  0  0  0
 36 84  1  0  0  0
 37 85  1  0  0  0
 38 86  1  0  0  0
 39 87  1  0  0  0
 40 88  1  0  0  0
 40 89  1  0  0  0
 40 90  1  0  0  0
 41 91  1  0  0  0
 41 92  1  0  0  0
 42 93  1  0  0  0
M  END
$$$$
