3rwq_ligand
  -I-interpret- 

 52 55  0  0  0  0  0  0  0  0999 V2000
   31.1340  -26.4380  -13.3250 C   0  0  0  0  0
   39.5550  -27.0330  -10.1830 N   0  0  0  0  0
   34.6670  -30.0230  -11.2340 O   0  0  0  0  0
   32.1920  -28.3170  -12.3180 C   0  0  0  0  0
   31.0950  -27.6490  -12.7410 N   0  0  0  0  0
   35.6510  -26.7790  -12.7400 C   0  0  0  0  0
   32.2830  -25.7740  -13.5420 N   0  0  0  0  0
   34.9730  -27.8890  -12.2620 C   0  0  0  0  0
   34.7830  -25.8780  -13.2620 N   0  0  0  0  0
   33.5220  -27.6660  -12.5220 C   0  0  0  0  0
   32.0490  -29.5190  -11.7360 N   0  0  0  0  0
   33.5010  -26.3180  -13.1720 C   0  0  0  0  0
   38.9540  -30.5440  -11.0400 N   0  0  0  0  0
   35.1570  -24.5750  -13.8820 C   0  0  0  0  0
   37.6250  -28.1550  -10.8690 N   0  0  0  0  0
   34.8440  -23.4180  -12.9440 C   0  0  0  0  0
   41.2070  -28.6870  -14.2810 N   0  0  0  0  0
   35.4600  -29.1460  -11.5660 C   0  0  0  0  0
   36.9400  -29.2690  -11.2450 C   0  0  0  0  0
   37.6330  -30.4800  -11.3290 C   0  0  0  0  0
   39.6290  -29.4260  -10.6650 C   0  0  0  0  0
   38.9490  -28.1970  -10.5730 C   0  0  0  0  0
   36.6390  -24.5920  -14.2470 C   0  0  0  0  0
   40.9910  -26.7690  -12.8560 C   0  0  0  0  0
   40.0030  -26.2270  -13.6990 C   0  0  0  0  0
   41.5760  -28.0150  -13.1700 C   0  0  0  0  0
   41.3950  -26.0140  -11.5940 C   0  0  0  0  0
   39.6480  -26.9420  -14.8350 C   0  0  0  0  0
   40.9930  -26.7660  -10.3020 C   0  0  0  0  0
   40.2710  -28.1720  -15.1000 C   0  0  0  0  0
   30.1965  -25.9763  -13.6348 H   0  0  0  0  0
   38.9672  -26.3019   -9.7826 H   0  0  0  0  0
   36.7325  -26.6484  -12.7016 H   0  0  0  0  0
   31.1189  -29.9203  -11.6164 H   0  0  0  0  0
   32.8705  -30.0305  -11.4137 H   0  0  0  0  0
   34.5690  -24.4320  -14.7886 H   0  0  0  0  0
   33.7764  -23.4087  -12.7242 H   0  0  0  0  0
   35.4059  -23.5404  -12.0180 H   0  0  0  0  0
   35.1263  -22.4791  -13.4204 H   0  0  0  0  0
   37.1034  -31.3836  -11.6308 H   0  0  0  0  0
   40.6933  -29.4806  -10.4362 H   0  0  0  0  0
   37.2320  -24.7499  -13.3461 H   0  0  0  0  0
   36.8284  -25.3994  -14.9544 H   0  0  0  0  0
   36.9112  -23.6388  -14.7002 H   0  0  0  0  0
   39.5299  -25.2729  -13.4667 H   0  0  0  0  0
   42.3326  -28.4382  -12.5092 H   0  0  0  0  0
   40.8821  -25.0522  -11.5978 H   0  0  0  0  0
   42.4797  -25.9067  -11.5980 H   0  0  0  0  0
   38.8916  -26.5515  -15.5157 H   0  0  0  0  0
   41.4985  -27.7315  -10.3218 H   0  0  0  0  0
   41.2726  -26.1317   -9.4609 H   0  0  0  0  0
   39.9885  -28.7261  -15.9951 H   0  0  0  0  0
  5  1  4  0  0  0
  7  1  4  0  0  0
  2 22  1  0  0  0
 29  2  1  0  0  0
 18  3  2  0  0  0
  4  5  4  0  0  0
 10  4  4  0  0  0
  4 11  1  0  0  0
  8  6  4  0  0  0
  6  9  4  0  0  0
 12  7  4  0  0  0
  8 10  4  0  0  0
 18  8  1  0  0  0
 12  9  4  0  0  0
  9 14  1  0  0  0
 10 12  4  0  0  0
 13 20  4  0  0  0
 21 13  4  0  0  0
 14 16  1  0  0  0
 14 23  1  0  0  0
 15 19  4  0  0  0
 22 15  4  0  0  0
 26 17  4  0  0  0
 17 30  4  0  0  0
 19 18  1  0  0  0
 19 20  4  0  0  0
 22 21  4  0  0  0
 24 25  4  0  0  0
 24 26  4  0  0  0
 27 24  1  0  0  0
 25 28  4  0  0  0
 27 29  1  0  0  0
 28 30  4  0  0  0
  1 31  1  0  0  0
  2 32  1  0  0  0
  6 33  1  0  0  0
 11 34  1  0  0  0
 11 35  1  0  0  0
 14 36  1  0  0  0
 16 37  1  0  0  0
 16 38  1  0  0  0
 16 39  1  0  0  0
 20 40  1  0  0  0
 21 41  1  0  0  0
 23 42  1  0  0  0
 23 43  1  0  0  0
 23 44  1  0  0  0
 25 45  1  0  0  0
 26 46  1  0  0  0
 27 47  1  0  0  0
 27 48  1  0  0  0
 28 49  1  0  0  0
 29 50  1  0  0  0
 29 51  1  0  0  0
 30 52  1  0  0  0
M  END
$$$$
