2pvj_ligand
  -I-interpret- 

 47 50  0  0  0  0  0  0  0  0999 V2000
   20.1150    9.5890   19.7490 N   0  0  0  0  0
   20.3570    9.8500   18.4370 C   0  0  0  0  0
   21.3330    8.9370   17.9920 C   0  0  0  0  0
   21.6480    8.1070   19.1310 C   0  0  0  0  0
   20.8890    8.5490   20.1760 N   0  0  0  0  0
   22.4960    7.0790   19.2960 N   0  0  0  0  0
   22.5510    6.5420   20.5110 C   0  0  0  0  0
   21.8330    6.9620   21.5460 N   0  0  0  0  0
   20.9950    7.9770   21.3620 C   0  0  0  0  0
   20.2380    8.4540   22.3830 N   0  0  0  0  0
   20.3150    8.1190   23.7000 C   0  0  0  0  0
   20.6540    6.8510   24.1700 C   0  0  0  0  0
   20.6440    6.5590   25.5330 C   0  0  0  0  0
   20.2930    7.5460   26.4500 C   0  0  0  0  0
   19.9870    8.8250   25.9910 C   0  0  0  0  0
   19.9990    9.1130   24.6270 C   0  0  0  0  0
   23.3800    5.4860   20.6960 N   0  0  0  0  0
   23.5450    4.8670   22.0080 C   0  0  0  0  0
   22.5240    3.7540   22.2420 C   0  0  0  0  0
   22.6730    2.6100   21.2330 C   0  0  0  0  0
   21.5680    1.5720   21.4640 C   0  0  0  0  0
   21.6170    1.0080   22.8870 C   0  0  0  0  0
   21.4980    2.1430   23.9130 C   0  0  0  0  0
   22.5540    3.2280   23.6820 C   0  0  0  0  0
   21.9590    8.8590   16.7050 C   0  0  0  0  0
   22.5400    8.8590   15.7020 N   0  0  0  0  0
   19.8814   10.6261   17.8373 H   0  0  0  0  0
   19.5290    9.1438   22.1342 H   0  0  0  0  0
   20.9320    6.0735   23.4585 H   0  0  0  0  0
   20.9103    5.5606   25.8799 H   0  0  0  0  0
   20.2580    7.3203   27.5158 H   0  0  0  0  0
   19.7356    9.6087   26.7056 H   0  0  0  0  0
   19.7604   10.1194   24.2830 H   0  0  0  0  0
   23.9003    5.1153   19.9009 H   0  0  0  0  0
   23.3979    5.6329   22.7695 H   0  0  0  0  0
   24.5434    4.4327   22.0591 H   0  0  0  0  0
   21.5445    4.2049   22.0826 H   0  0  0  0  0
   23.6465    2.1373   21.3631 H   0  0  0  0  0
   22.5909    3.0069   20.2212 H   0  0  0  0  0
   21.7130    0.7510   20.7618 H   0  0  0  0  0
   20.6027    2.0566   21.3176 H   0  0  0  0  0
   22.5666    0.4933   23.0337 H   0  0  0  0  0
   20.7868    0.3151   23.0244 H   0  0  0  0  0
   21.6480    1.7238   24.9079 H   0  0  0  0  0
   20.5119    2.5961   23.8112 H   0  0  0  0  0
   22.3441    4.0593   24.3550 H   0  0  0  0  0
   23.5368    2.7949   23.8683 H   0  0  0  0  0
  1  2  4  0  0  0
  1  5  4  0  0  0
  2  3  4  0  0  0
  3  4  4  0  0  0
  3 25  1  0  0  0
  4  5  4  0  0  0
  4  6  4  0  0  0
  5  9  4  0  0  0
  6  7  4  0  0  0
  7  8  4  0  0  0
  7 17  1  0  0  0
  8  9  4  0  0  0
  9 10  1  0  0  0
 10 11  1  0  0  0
 11 12  4  0  0  0
 11 16  4  0  0  0
 12 13  4  0  0  0
 13 14  4  0  0  0
 14 15  4  0  0  0
 15 16  4  0  0  0
 17 18  1  0  0  0
 18 19  1  0  0  0
 19 20  1  0  0  0
 19 24  1  0  0  0
 20 21  1  0  0  0
 21 22  1  0  0  0
 22 23  1  0  0  0
 23 24  1  0  0  0
 25 26  3  0  0  0
  2 27  1  0  0  0
 10 28  1  0  0  0
 12 29  1  0  0  0
 13 30  1  0  0  0
 14 31  1  0  0  0
 15 32  1  0  0  0
 16 33  1  0  0  0
 17 34  1  0  0  0
 18 35  1  0  0  0
 18 36  1  0  0  0
 19 37  1  0  0  0
 20 38  1  0  0  0
 20 39  1  0  0  0
 21 40  1  0  0  0
 21 41  1  0  0  0
 22 42  1  0  0  0
 22 43  1  0  0  0
 23 44  1  0  0  0
 23 45  1  0  0  0
 24 46  1  0  0  0
 24 47  1  0  0  0
M  END
$$$$
