6i67_ligand
  -I-interpret- 

 23 24  0  0  0  0  0  0  0  0999 V2000
  -17.3060   -6.6760  -25.0100 C   0  0  0  0  0
  -17.8280   -5.4210  -25.3120 C   0  0  0  0  0
  -15.4200   -6.2720  -26.4770 C   0  0  0  0  0
  -16.6350   -2.2280  -27.1350 C   0  0  0  0  0
  -16.0030   -2.9570  -28.3390 C   0  0  0  0  0
  -17.6060   -3.3550  -26.5770 C   0  0  0  0  0
  -15.2970   -4.1290  -27.5880 C   0  0  0  0  0
  -16.1060   -7.1010  -25.5860 C   0  0  0  0  0
  -17.1130   -4.5870  -26.1680 C   0  0  0  0  0
  -15.9720   -5.0360  -26.8020 C   0  0  0  0  0
  -15.6050   -8.3430  -25.2890 O   0  0  0  0  0
  -17.8370   -7.3313  -24.3196 H   0  0  0  0  0
  -18.7780   -5.0975  -24.8866 H   0  0  0  0  0
  -14.4704   -6.5870  -26.9096 H   0  0  0  0  0
  -17.1410   -1.2988  -27.3970 H   0  0  0  0  0
  -15.9093   -1.8690  -26.4052 H   0  0  0  0  0
  -15.3404   -2.3414  -28.9474 H   0  0  0  0  0
  -16.7121   -3.2691  -29.1057 H   0  0  0  0  0
  -18.2463   -3.5955  -27.4257 H   0  0  0  0  0
  -18.0188   -2.9205  -25.6666 H   0  0  0  0  0
  -14.6553   -3.6131  -26.8737 H   0  0  0  0  0
  -14.9113   -4.7454  -28.4000 H   0  0  0  0  0
  -14.7815   -8.4766  -25.7640 H   0  0  0  0  0
  2  1  4  0  0  0
  1  8  4  0  0  0
  9  2  4  0  0  0
  8  3  4  0  0  0
  3 10  4  0  0  0
  4  5  1  0  0  0
  6  4  1  0  0  0
  5  7  1  0  0  0
  6  9  1  0  0  0
  7 10  1  0  0  0
  8 11  1  0  0  0
  9 10  4  0  0  0
  1 12  1  0  0  0
  2 13  1  0  0  0
  3 14  1  0  0  0
  4 15  1  0  0  0
  4 16  1  0  0  0
  5 17  1  0  0  0
  5 18  1  0  0  0
  6 19  1  0  0  0
  6 20  1  0  0  0
  7 21  1  0  0  0
  7 22  1  0  0  0
 11 23  1  0  0  0
M  END
$$$$
