3kpw_ligand
  -I-interpret- 

 19 20  0  0  0  0  0  0  0  0999 V2000
   28.3520   42.0070   18.5620 N   0  0  0  0  0
   28.5190   43.3900   18.1450 C   0  0  0  0  0
   29.0180   44.3650   19.0470 N   0  0  0  0  0
   29.1690   45.7260   18.6290 C   0  0  0  0  0
   28.8270   46.0980   17.2890 C   0  0  0  0  0
   28.3180   45.1030   16.3790 C   0  0  0  0  0
   27.9620   45.4560   15.0350 C   0  0  0  0  0
   27.4480   44.4300   14.1030 C   0  0  0  0  0
   27.2920   43.0780   14.5200 C   0  0  0  0  0
   27.6370   42.7290   15.8480 C   0  0  0  0  0
   28.1620   43.7700   16.7880 C   0  0  0  0  0
   28.5946   41.7281   19.5127 H   0  0  0  0  0
   27.9923   41.3158   17.9038 H   0  0  0  0  0
   29.5424   46.4752   19.3271 H   0  0  0  0  0
   28.9511   47.1293   16.9587 H   0  0  0  0  0
   28.0711   46.4871   14.6988 H   0  0  0  0  0
   27.1851   44.7124   13.0836 H   0  0  0  0  0
   26.9136   42.3247   13.8291 H   0  0  0  0  0
   27.5202   41.6997   16.1872 H   0  0  0  0  0
  1  2  1  0  0  0
  2  3  4  0  0  0
  2 11  4  0  0  0
  3  4  4  0  0  0
  4  5  4  0  0  0
  5  6  4  0  0  0
  6  7  4  0  0  0
  6 11  4  0  0  0
  7  8  4  0  0  0
  8  9  4  0  0  0
  9 10  4  0  0  0
 10 11  4  0  0  0
  1 12  1  0  0  0
  1 13  1  0  0  0
  4 14  1  0  0  0
  5 15  1  0  0  0
  7 16  1  0  0  0
  8 17  1  0  0  0
  9 18  1  0  0  0
 10 19  1  0  0  0
M  END
$$$$
