### 
### Created by X-TOOL on Mon Sep 10 21:12:46 2018
### 

@<TRIPOS>MOLECULE
2hrp_ligand
  165   168     1     0     0
SMALL
GAST_HUCK


@<TRIPOS>ATOM
      1 N           8.4720   34.9810   67.1040 N.4       1 MET         0.2379
      2 CA          7.4870   35.4990   66.1180 C.3       1 MET         0.0658
      3 C           7.5820   34.7500   64.7870 C.2       1 MET         0.2268
      4 O           8.3560   33.8010   64.6460 O.2       1 MET        -0.3907
      5 CB          7.6870   36.9980   65.9160 C.3       1 MET         0.0168
      6 CG          6.3850   37.7530   65.9320 C.3       1 MET         0.0007
      7 SD          6.5950   39.4770   66.3240 S.3       1 MET        -0.1638
      8 CE          7.1220   39.3230   68.0710 C.3       1 MET        -0.0181
      9 N           6.7660   35.1520   63.8300 N.am      1 SER        -0.2589
     10 CA          6.7420   34.4980   62.5350 C.3       1 SER         0.1540
     11 C           7.9730   34.7760   61.6680 C.2       1 SER         0.2062
     12 O           8.3240   35.9220   61.4070 O.2       1 SER        -0.3943
     13 CB          5.4700   34.9040   61.7870 C.3       1 SER         0.0843
     14 OG          5.1450   33.9760   60.7690 O.3       1 SER        -0.3903
     15 N           8.6490   33.7120   61.2620 N.am      1 LEU        -0.2636
     16 CA          9.8090   33.8150   60.3940 C.3       1 LEU         0.1314
     17 C           9.3800   33.1050   59.1300 C.2       1 LEU         0.2064
     18 O           9.4100   31.8730   59.0630 O.2       1 LEU        -0.3942
     19 CB         11.0070   33.0780   60.9820 C.3       1 LEU        -0.0101
     20 CG         11.6120   33.5290   62.3090 C.3       1 LEU        -0.0425
     21 CD1        12.8390   32.6570   62.6210 C.3       1 LEU        -0.0625
     22 CD2        12.0190   34.9970   62.2050 C.3       1 LEU        -0.0625
     23 N           8.9630   33.8610   58.1060 N.am      1 PRO        -0.2498
     24 CA          8.5210   33.2760   56.8370 C.3       1 PRO         0.1338
     25 C           9.3730   32.1080   56.3040 C.2       1 PRO         0.2039
     26 O          10.5700   32.2630   56.0360 O.2       1 PRO        -0.3944
     27 CB          8.5310   34.4800   55.8990 C.3       1 PRO        -0.0104
     28 CG          8.1150   35.5800   56.8250 C.3       1 PRO        -0.0281
     29 CD          8.9570   35.3330   58.0370 C.3       1 PRO         0.0369
     30 N           8.7320   30.9450   56.1790 N.am      1 GLY        -0.2664
     31 CA          9.3850   29.7490   55.6780 C.3       1 GLY         0.1201
     32 C          10.2250   29.0270   56.7170 C.2       1 GLY         0.2007
     33 O          10.8840   28.0240   56.4240 O.2       1 GLY        -0.3947
     34 N          10.1480   29.4780   57.9570 N.am      1 ARG        -0.2640
     35 CA         10.9610   28.8720   59.0000 C.3       1 ARG         0.1311
     36 C          10.2130   28.5590   60.2900 C.2       1 ARG         0.2040
     37 O          10.3140   27.4410   60.8180 O.2       1 ARG        -0.3944
     38 CB         12.1750   29.7790   59.2670 C.3       1 ARG        -0.0092
     39 CG         13.0390   29.9830   58.0110 C.3       1 ARG        -0.0156
     40 CD         13.8500   31.2600   58.0510 C.3       1 ARG         0.0627
     41 NE         13.0940   32.4150   57.5790 N.pl3     1 ARG        -0.2723
     42 CZ         13.3640   33.6790   57.9120 C.cat     1 ARG         0.2882
     43 NH1        14.3490   33.9560   58.7540 N.pl3     1 ARG        -0.2849
     44 NH2        12.6350   34.6750   57.4180 N.pl3     1 ARG        -0.2849
     45 N           9.4250   29.5230   60.7610 N.am      1 TRP        -0.2627
     46 CA          8.6720   29.3810   62.0000 C.3       1 TRP         0.1352
     47 C           7.3400   30.1480   61.9710 C.2       1 TRP         0.2052
     48 O           7.3070   31.3630   61.8050 O.2       1 TRP        -0.3942
     49 CB          9.5180   29.8660   63.1900 C.3       1 TRP         0.0042
     50 CG          8.8040   29.7450   64.4900 C.2       1 TRP        -0.0418
     51 CD1         8.3170   30.7670   65.2590 C.2       1 TRP         0.0167
     52 CD2         8.3920   28.5280   65.1350 C.ar      1 TRP        -0.0214
     53 NE1         7.6130   30.2630   66.3320 N.pl3     1 TRP        -0.2890
     54 CE2         7.6400   28.8950   66.2820 C.ar      1 TRP         0.0603
     55 CE3         8.5740   27.1590   64.8510 C.ar      1 TRP        -0.0747
     56 CZ2         7.0700   27.9420   67.1450 C.ar      1 TRP        -0.0443
     57 CZ3         8.0010   26.2080   65.7160 C.ar      1 TRP        -0.0792
     58 CH2         7.2600   26.6100   66.8450 C.ar      1 TRP        -0.0768
     59 N           6.2530   29.4480   62.2350 N.am      1 LYS        -0.2636
     60 CA          4.9350   30.0650   62.2260 C.3       1 LYS         0.1312
     61 C           4.2870   29.7360   63.5730 C.2       1 LYS         0.2064
     62 O           3.8740   28.6060   63.8250 O.2       1 LYS        -0.3942
     63 CB          4.1310   29.4820   61.0670 C.3       1 LYS        -0.0122
     64 CG          3.0180   30.3400   60.5230 C.3       1 LYS        -0.0440
     65 CD          1.8410   30.4130   61.4520 C.3       1 LYS        -0.0124
     66 CE          0.5380   30.4520   60.6550 C.3       1 LYS        -0.0354
     67 NZ          0.2430   29.1510   59.9790 N.4       1 LYS         0.2185
     68 N           4.2140   30.7250   64.4640 N.am      1 PRO        -0.2498
     69 CA          3.6290   30.5580   65.7980 C.3       1 PRO         0.1337
     70 C           2.1830   30.0910   65.7330 C.2       1 PRO         0.2035
     71 O           1.5160   30.2990   64.7230 O.2       1 PRO        -0.3944
     72 CB          3.7040   31.9670   66.3780 C.3       1 PRO        -0.0104
     73 CG          4.8310   32.5990   65.6210 C.3       1 PRO        -0.0281
     74 CD          4.5780   32.1260   64.2270 C.3       1 PRO         0.0369
     75 N           1.7300   29.4210   66.7870 N.am      1 LYS        -0.2697
     76 CA          0.3500   28.9520   66.8610 C.3       1 LYS         0.0916
     77 C          -0.5370   30.0640   67.4400 C.2       1 LYS         0.0598
     78 O          -0.1380   30.6460   68.4820 O.co2     1 LYS        -0.5666
     79 CB          0.2560   27.6820   67.7210 C.3       1 LYS        -0.0300
     80 OXT        -1.6030   30.3560   66.8390 O.co2     1 LYS        -0.5666
     81 H1          8.3842   35.4935   67.9675 H         1 MET         0.2015
     82 H2          9.4046   35.0950   66.7389 H         1 MET         0.2015
     83 H3          8.2949   34.0034   67.2740 H         1 MET         0.2015
     84 H4          6.4781   35.3387   66.5258 H         1 MET         0.1098
     85 H5          8.1796   37.1621   64.9463 H         1 MET         0.0354
     86 H6          8.3287   37.3816   66.7229 H         1 MET         0.0354
     87 H7          5.7241   37.2989   66.6850 H         1 MET         0.0380
     88 H8          5.9191   37.6722   64.9388 H         1 MET         0.0380
     89 H9          7.3023   40.3243   68.4892 H         1 MET         0.0340
     90 H10         8.0478   38.7314   68.1239 H         1 MET         0.0340
     91 H11         6.3324   38.8209   68.6493 H         1 MET         0.0340
     92 H12         6.1522   35.9227   64.0011 H         1 SER         0.1885
     93 H13         6.7059   33.4132   62.7137 H         1 SER         0.0823
     94 H14         5.6240   35.8935   61.3319 H         1 SER         0.0606
     95 H15         4.6361   34.9553   62.5026 H         1 SER         0.0606
     96 H16         4.3530   34.2576   60.3264 H         1 SER         0.2097
     97 H17         8.3505   32.8064   61.5634 H         1 LEU         0.1883
     98 H18        10.0676   34.8667   60.2014 H         1 LEU         0.0800
     99 H19        11.8108   33.1328   60.2331 H         1 LEU         0.0315
    100 H20        10.6999   32.0301   61.1144 H         1 LEU         0.0315
    101 H21        10.8684   33.4135   63.1114 H         1 LEU         0.0298
    102 H22        13.2816   32.9753   63.5764 H         1 LEU         0.0232
    103 H23        13.5819   32.7685   61.8175 H         1 LEU         0.0232
    104 H24        12.5314   31.6033   62.6925 H         1 LEU         0.0232
    105 H25        11.1322   35.6084   61.9817 H         1 LEU         0.0232
    106 H26        12.7588   35.1163   61.3997 H         1 LEU         0.0232
    107 H27        12.4591   35.3240   63.1586 H         1 LEU         0.0232
    108 H28         7.4929   32.9021   56.9520 H         1 PRO         0.0802
    109 H29         7.8127   34.3543   55.0755 H         1 PRO         0.0313
    110 H30         9.5345   34.6599   55.4860 H         1 PRO         0.0313
    111 H31         7.0441   35.5104   57.0663 H         1 PRO         0.0287
    112 H32         8.3292   36.5668   56.3888 H         1 PRO         0.0287
    113 H33         9.9737   35.7319   57.9062 H         1 PRO         0.0524
    114 H34         8.5030   35.7742   58.9366 H         1 PRO         0.0524
    115 H35         7.7678   30.8951   56.4395 H         1 GLY         0.1881
    116 H36        10.0394   30.0359   54.8417 H         1 GLY         0.0763
    117 H37         8.6104   29.0567   55.3166 H         1 GLY         0.0763
    118 H38         9.5321   30.2343   58.1777 H         1 ARG         0.1883
    119 H39        11.3330   27.9138   58.6084 H         1 ARG         0.0800
    120 H40        12.7942   29.3194   60.0514 H         1 ARG         0.0313
    121 H41        11.8149   30.7596   59.6116 H         1 ARG         0.0313
    122 H42        12.3779   30.0153   57.1324 H         1 ARG         0.0301
    123 H43        13.7299   29.1320   57.9190 H         1 ARG         0.0301
    124 H44        14.7377   31.1346   57.4136 H         1 ARG         0.0689
    125 H45        14.1664   31.4450   59.0881 H         1 ARG         0.0689
    126 H46        12.2991   32.2436   56.9468 H         1 ARG         0.2642
    127 H47        14.5513   34.9340   59.0061 H         1 ARG         0.2615
    128 H48        14.9124   33.1933   59.1563 H         1 ARG         0.2615
    129 H49        11.8662   34.4746   56.7625 H         1 ARG         0.2615
    130 H50        12.8390   35.6470   57.6908 H         1 ARG         0.2615
    131 H51         9.3471   30.3762   60.2453 H         1 TRP         0.1884
    132 H52         8.4483   28.3133   62.1410 H         1 TRP         0.0815
    133 H53         9.7788   30.9224   63.0289 H         1 TRP         0.0397
    134 H54        10.4376   29.2642   63.2364 H         1 TRP         0.0397
    135 H55         8.4644   31.8261   65.0530 H         1 TRP         0.0795
    136 H56         7.1423   30.8254   67.0552 H         1 TRP         0.2216
    137 H57         9.1438   26.8452   63.9839 H         1 TRP         0.0540
    138 H58         6.5006   28.2446   68.0164 H         1 TRP         0.0541
    139 H59         8.1316   25.1516   65.5108 H         1 TRP         0.0510
    140 H60         6.8295   25.8546   67.4924 H         1 TRP         0.0530
    141 H61         6.3366   28.4740   62.4455 H         1 LYS         0.1883
    142 H62         5.0197   31.1551   62.1053 H         1 LYS         0.0800
    143 H63         3.6866   28.5363   61.4107 H         1 LYS         0.0312
    144 H64         4.8309   29.2801   60.2427 H         1 LYS         0.0312
    145 H65         2.6842   29.9181   59.5635 H         1 LYS         0.0269
    146 H66         3.4036   31.3575   60.3619 H         1 LYS         0.0269
    147 H67         1.9186   31.3229   62.0652 H         1 LYS         0.0317
    148 H68         1.8398   29.5288   62.1063 H         1 LYS         0.0317
    149 H69         0.6157   31.2380   59.8894 H         1 LYS         0.0813
    150 H70        -0.2886   30.6888   61.3410 H         1 LYS         0.0813
    151 H71        -0.6227   29.2265   59.4682 H         1 LYS         0.1994
    152 H72         0.1620   28.4232   60.6717 H         1 LYS         0.1994
    153 H73         0.9908   28.9265   59.3414 H         1 LYS         0.1994
    154 H74         4.2165   29.8476   66.3981 H         1 PRO         0.0802
    155 H75         3.9226   31.9372   67.4556 H         1 PRO         0.0313
    156 H76         2.7634   32.5118   66.2096 H         1 PRO         0.0313
    157 H77         5.8060   32.2484   65.9905 H         1 PRO         0.0287
    158 H78         4.7881   33.6964   65.6839 H         1 PRO         0.0287
    159 H79         3.7545   32.6824   63.7557 H         1 PRO         0.0524
    160 H80         5.4803   32.2082   63.6033 H         1 PRO         0.0524
    161 H81         2.3501   29.2334   67.5487 H         1 LYS         0.1875
    162 H82         0.0017   28.7136   65.8452 H         1 LYS         0.0723
    163 H83        -0.7902   27.3451   67.7642 H         1 LYS         0.0270
    164 H84         0.6131   27.9007   68.7382 H         1 LYS         0.0270
    165 H85         0.8778   26.8911   67.2762 H         1 LYS         0.0270
@<TRIPOS>BOND
     1    1    2 1  
     2    2    3 1  
     3    2    5 1  
     4    3    4 2  
     5    3    9 am 
     6    5    6 1  
     7    6    7 1  
     8    7    8 1  
     9    9   10 1  
    10   10   11 1  
    11   10   13 1  
    12   11   12 2  
    13   11   15 am 
    14   13   14 1  
    15   15   16 1  
    16   16   17 1  
    17   16   19 1  
    18   17   18 2  
    19   17   23 am 
    20   19   20 1  
    21   20   21 1  
    22   20   22 1  
    23   23   24 1  
    24   23   29 1  
    25   24   25 1  
    26   24   27 1  
    27   25   26 2  
    28   25   30 am 
    29   27   28 1  
    30   28   29 1  
    31   30   31 1  
    32   31   32 1  
    33   32   33 2  
    34   32   34 am 
    35   34   35 1  
    36   35   36 1  
    37   35   38 1  
    38   36   37 2  
    39   36   45 am 
    40   38   39 1  
    41   39   40 1  
    42   40   41 1  
    43   41   42 ar 
    44   42   43 ar 
    45   42   44 ar 
    46   45   46 1  
    47   46   47 1  
    48   46   49 1  
    49   47   48 2  
    50   47   59 am 
    51   49   50 1  
    52   50   51 2  
    53   50   52 1  
    54   51   53 1  
    55   52   54 ar 
    56   52   55 ar 
    57   53   54 1  
    58   54   56 ar 
    59   55   57 ar 
    60   56   58 ar 
    61   57   58 ar 
    62   59   60 1  
    63   60   61 1  
    64   60   63 1  
    65   61   62 2  
    66   61   68 am 
    67   63   64 1  
    68   64   65 1  
    69   65   66 1  
    70   66   67 1  
    71   68   69 1  
    72   68   74 1  
    73   69   70 1  
    74   69   72 1  
    75   70   71 2  
    76   70   75 am 
    77   72   73 1  
    78   73   74 1  
    79   75   76 1  
    80   76   77 1  
    81   76   79 1  
    82   77   78 ar 
    83   77   80 ar 
    84    1   81 1  
    85    1   82 1  
    86    1   83 1  
    87    2   84 1  
    88    5   85 1  
    89    5   86 1  
    90    6   87 1  
    91    6   88 1  
    92    8   89 1  
    93    8   90 1  
    94    8   91 1  
    95    9   92 1  
    96   10   93 1  
    97   13   94 1  
    98   13   95 1  
    99   14   96 1  
   100   15   97 1  
   101   16   98 1  
   102   19   99 1  
   103   19  100 1  
   104   20  101 1  
   105   21  102 1  
   106   21  103 1  
   107   21  104 1  
   108   22  105 1  
   109   22  106 1  
   110   22  107 1  
   111   24  108 1  
   112   27  109 1  
   113   27  110 1  
   114   28  111 1  
   115   28  112 1  
   116   29  113 1  
   117   29  114 1  
   118   30  115 1  
   119   31  116 1  
   120   31  117 1  
   121   34  118 1  
   122   35  119 1  
   123   38  120 1  
   124   38  121 1  
   125   39  122 1  
   126   39  123 1  
   127   40  124 1  
   128   40  125 1  
   129   41  126 1  
   130   43  127 1  
   131   43  128 1  
   132   44  129 1  
   133   44  130 1  
   134   45  131 1  
   135   46  132 1  
   136   49  133 1  
   137   49  134 1  
   138   51  135 1  
   139   53  136 1  
   140   55  137 1  
   141   56  138 1  
   142   57  139 1  
   143   58  140 1  
   144   59  141 1  
   145   60  142 1  
   146   63  143 1  
   147   63  144 1  
   148   64  145 1  
   149   64  146 1  
   150   65  147 1  
   151   65  148 1  
   152   66  149 1  
   153   66  150 1  
   154   67  151 1  
   155   67  152 1  
   156   67  153 1  
   157   69  154 1  
   158   72  155 1  
   159   72  156 1  
   160   73  157 1  
   161   73  158 1  
   162   74  159 1  
   163   74  160 1  
   164   75  161 1  
   165   76  162 1  
   166   79  163 1  
   167   79  164 1  
   168   79  165 1  
@<TRIPOS>SUBSTRUCTURE
     1 MET         1

