2hrp_ligand
  -I-interpret- 

164167  0  0  0  0  0  0  0  0999 V2000
    8.4720   34.9810   67.1040 N   0  3  0  0  0
    7.4870   35.4990   66.1180 C   0  0  0  0  0
    7.5820   34.7500   64.7870 C   0  0  0  0  0
    8.3560   33.8010   64.6460 O   0  0  0  0  0
    7.6870   36.9980   65.9160 C   0  0  0  0  0
    6.3850   37.7530   65.9320 C   0  0  0  0  0
    6.5950   39.4770   66.3240 S   0  0  0  0  0
    7.1220   39.3230   68.0710 C   0  0  0  0  0
    6.7660   35.1520   63.8300 N   0  0  0  0  0
    6.7420   34.4980   62.5350 C   0  0  0  0  0
    7.9730   34.7760   61.6680 C   0  0  0  0  0
    8.3240   35.9220   61.4070 O   0  0  0  0  0
    5.4700   34.9040   61.7870 C   0  0  0  0  0
    5.1450   33.9760   60.7690 O   0  0  0  0  0
    8.6490   33.7120   61.2620 N   0  0  0  0  0
    9.8090   33.8150   60.3940 C   0  0  0  0  0
    9.3800   33.1050   59.1300 C   0  0  0  0  0
    9.4100   31.8730   59.0630 O   0  0  0  0  0
   11.0070   33.0780   60.9820 C   0  0  0  0  0
   11.6120   33.5290   62.3090 C   0  0  0  0  0
   12.8390   32.6570   62.6210 C   0  0  0  0  0
   12.0190   34.9970   62.2050 C   0  0  0  0  0
    8.9630   33.8610   58.1060 N   0  0  0  0  0
    8.5210   33.2760   56.8370 C   0  0  0  0  0
    9.3730   32.1080   56.3040 C   0  0  0  0  0
   10.5700   32.2630   56.0360 O   0  0  0  0  0
    8.5310   34.4800   55.8990 C   0  0  0  0  0
    8.1150   35.5800   56.8250 C   0  0  0  0  0
    8.9570   35.3330   58.0370 C   0  0  0  0  0
    8.7320   30.9450   56.1790 N   0  0  0  0  0
    9.3850   29.7490   55.6780 C   0  0  0  0  0
   10.2250   29.0270   56.7170 C   0  0  0  0  0
   10.8840   28.0240   56.4240 O   0  0  0  0  0
   10.1480   29.4780   57.9570 N   0  0  0  0  0
   10.9610   28.8720   59.0000 C   0  0  0  0  0
   10.2130   28.5590   60.2900 C   0  0  0  0  0
   10.3140   27.4410   60.8180 O   0  0  0  0  0
   12.1750   29.7790   59.2670 C   0  0  0  0  0
   13.0390   29.9830   58.0110 C   0  0  0  0  0
   13.8500   31.2600   58.0510 C   0  0  0  0  0
   13.0940   32.4150   57.5790 N   0  0  0  0  0
   13.3640   33.6790   57.9120 C   0  0  0  0  0
   14.3490   33.9560   58.7540 N   0  0  0  0  0
   12.6350   34.6750   57.4180 N   0  0  0  0  0
    9.4250   29.5230   60.7610 N   0  0  0  0  0
    8.6720   29.3810   62.0000 C   0  0  0  0  0
    7.3400   30.1480   61.9710 C   0  0  0  0  0
    7.3070   31.3630   61.8050 O   0  0  0  0  0
    9.5180   29.8660   63.1900 C   0  0  0  0  0
    8.8040   29.7450   64.4900 C   0  0  0  0  0
    8.3170   30.7670   65.2590 C   0  0  0  0  0
    8.3920   28.5280   65.1350 C   0  0  0  0  0
    7.6130   30.2630   66.3320 N   0  0  0  0  0
    7.6400   28.8950   66.2820 C   0  0  0  0  0
    8.5740   27.1590   64.8510 C   0  0  0  0  0
    7.0700   27.9420   67.1450 C   0  0  0  0  0
    8.0010   26.2080   65.7160 C   0  0  0  0  0
    7.2600   26.6100   66.8450 C   0  0  0  0  0
    6.2530   29.4480   62.2350 N   0  0  0  0  0
    4.9350   30.0650   62.2260 C   0  0  0  0  0
    4.2870   29.7360   63.5730 C   0  0  0  0  0
    3.8740   28.6060   63.8250 O   0  0  0  0  0
    4.1310   29.4820   61.0670 C   0  0  0  0  0
    3.0180   30.3400   60.5230 C   0  0  0  0  0
    1.8410   30.4130   61.4520 C   0  0  0  0  0
    0.5380   30.4520   60.6550 C   0  0  0  0  0
    0.2430   29.1510   59.9790 N   0  3  0  0  0
    4.2140   30.7250   64.4640 N   0  0  0  0  0
    3.6290   30.5580   65.7980 C   0  0  0  0  0
    2.1830   30.0910   65.7330 C   0  0  0  0  0
    1.5160   30.2990   64.7230 O   0  0  0  0  0
    3.7040   31.9670   66.3780 C   0  0  0  0  0
    4.8310   32.5990   65.6210 C   0  0  0  0  0
    4.5780   32.1260   64.2270 C   0  0  0  0  0
    1.7300   29.4210   66.7870 N   0  0  0  0  0
    0.3500   28.9520   66.8610 C   0  0  0  0  0
   -0.5370   30.0640   67.4400 C   0  0  0  0  0
   -0.1380   30.6460   68.4820 O   0  0  0  0  0
    0.2560   27.6820   67.7210 C   0  0  0  0  0
   -1.6030   30.3560   66.8390 O   0  0  0  0  0
    8.3293   33.9791   67.2311 H   0  0  0  0  0
    9.4171   35.1500   66.7596 H   0  0  0  0  0
    8.3430   35.4598   67.9953 H   0  0  0  0  0
    6.4859   35.3298   66.5147 H   0  0  0  0  0
    8.1548   37.1495   64.9432 H   0  0  0  0  0
    8.3050   37.3706   66.7329 H   0  0  0  0  0
    5.7508   37.3101   66.6999 H   0  0  0  0  0
    5.9478   37.6872   64.9357 H   0  0  0  0  0
    6.3388   38.8253   68.6429 H   0  0  0  0  0
    8.0394   38.7366   68.1221 H   0  0  0  0  0
    7.3003   40.3157   68.4842 H   0  0  0  0  0
    6.1399   35.9381   64.0046 H   0  0  0  0  0
    6.7547   33.4255   62.7292 H   0  0  0  0  0
    5.6380   35.8769   61.3250 H   0  0  0  0  0
    4.6463   34.9350   62.5002 H   0  0  0  0  0
    4.3447   34.2606   60.3217 H   0  0  0  0  0
    8.3445   32.7883   61.5695 H   0  0  0  0  0
   10.1094   34.8521   60.2448 H   0  0  0  0  0
   11.8038   33.2337   60.2547 H   0  0  0  0  0
   10.6347   32.0733   61.1822 H   0  0  0  0  0
   10.8820   33.4211   63.1112 H   0  0  0  0  0
   12.5329   31.6132   62.6915 H   0  0  0  0  0
   13.5743   32.7683   61.8241 H   0  0  0  0  0
   13.2767   32.9734   63.5678 H   0  0  0  0  0
   12.7550   35.1132   61.4095 H   0  0  0  0  0
   11.1402   35.6013   61.9798 H   0  0  0  0  0
   12.4513   35.3208   63.1518 H   0  0  0  0  0
    7.5505   32.7914   56.9436 H   0  0  0  0  0
    7.8775   34.3659   55.0341 H   0  0  0  0  0
    9.4946   34.6529   55.4197 H   0  0  0  0  0
    7.0469   35.5691   57.0423 H   0  0  0  0  0
    8.2668   36.5718   56.3992 H   0  0  0  0  0
    9.9542   35.7675   57.9676 H   0  0  0  0  0
    8.5687   35.8074   58.9383 H   0  0  0  0  0
    7.7485   30.8941   56.4447 H   0  0  0  0  0
   10.0553   30.0570   54.8756 H   0  0  0  0  0
    8.6020   29.0612   55.3586 H   0  0  0  0  0
    9.5198   30.2494   58.1821 H   0  0  0  0  0
   11.2787   27.8969   58.6308 H   0  0  0  0  0
   12.7924   29.3021   60.0282 H   0  0  0  0  0
   11.8053   30.7538   59.5850 H   0  0  0  0  0
   12.3688   30.0424   57.1534 H   0  0  0  0  0
   13.7373   29.1483   57.9496 H   0  0  0  0  0
   14.7126   31.1319   57.3971 H   0  0  0  0  0
   14.1363   31.4450   59.0863 H   0  0  0  0  0
   12.3068   32.2453   56.9529 H   0  0  0  0  0
   14.9069   33.2008   59.1524 H   0  0  0  0  0
   12.8370   35.6376   57.6881 H   0  0  0  0  0
   11.8737   34.4765   56.7689 H   0  0  0  0  0
    9.3455   30.3933   60.2349 H   0  0  0  0  0
    8.4393   28.3220   62.1114 H   0  0  0  0  0
    9.7464   30.9198   63.0306 H   0  0  0  0  0
   10.4120   29.2444   63.2402 H   0  0  0  0  0
    8.4645   31.8271   65.0528 H   0  0  0  0  0
    9.1470   26.8435   63.9791 H   0  0  0  0  0
    6.4975   28.2462   68.0212 H   0  0  0  0  0
    8.1323   25.1458   65.5096 H   0  0  0  0  0
    6.8271   25.8505   67.4960 H   0  0  0  0  0
    6.3383   28.4545   62.4497 H   0  0  0  0  0
    4.9821   31.1457   62.0917 H   0  0  0  0  0
    3.6561   28.5798   61.4524 H   0  0  0  0  0
    4.8368   29.3473   60.2473 H   0  0  0  0  0
    2.6797   29.8974   59.5861 H   0  0  0  0  0
    3.4058   31.3502   60.3919 H   0  0  0  0  0
    1.9177   31.3190   62.0531 H   0  0  0  0  0
    1.8392   29.5321   62.0940 H   0  0  0  0  0
    0.6369   31.2170   59.8849 H   0  0  0  0  0
   -0.2754   30.6630   61.3492 H   0  0  0  0  0
   -0.6331   29.2286   59.4625 H   0  0  0  0  0
    1.0003   28.9249   59.3342 H   0  0  0  0  0
    0.1614   28.4154   60.6808 H   0  0  0  0  0
    4.1481   29.8036   66.3892 H   0  0  0  0  0
    3.8733   31.9664   67.4548 H   0  0  0  0  0
    2.7680   32.5143   66.2666 H   0  0  0  0  0
    5.8140   32.3180   65.9989 H   0  0  0  0  0
    4.8529   33.6852   65.7094 H   0  0  0  0  0
    3.8119   32.6963   63.7017 H   0  0  0  0  0
    5.4300   32.2517   63.5589 H   0  0  0  0  0
    2.3625   29.2296   67.5639 H   0  0  0  0  0
    0.0026   28.7041   65.8580 H   0  0  0  0  0
    0.6943   30.2597   68.7642 H   0  0  0  0  0
    0.8725   26.8992   67.2793 H   0  0  0  0  0
    0.6101   27.9000   68.7286 H   0  0  0  0  0
   -0.7811   27.3492   67.7631 H   0  0  0  0  0
  1  2  1  0  0  0
  2  3  1  0  0  0
  2  5  1  0  0  0
  3  4  2  0  0  0
  3  9  1  0  0  0
  5  6  1  0  0  0
  6  7  1  0  0  0
  7  8  1  0  0  0
  9 10  1  0  0  0
 10 11  1  0  0  0
 10 13  1  0  0  0
 11 12  2  0  0  0
 11 15  1  0  0  0
 13 14  1  0  0  0
 15 16  1  0  0  0
 16 17  1  0  0  0
 16 19  1  0  0  0
 17 18  2  0  0  0
 17 23  1  0  0  0
 19 20  1  0  0  0
 20 21  1  0  0  0
 20 22  1  0  0  0
 23 24  1  0  0  0
 23 29  1  0  0  0
 24 25  1  0  0  0
 24 27  1  0  0  0
 25 26  2  0  0  0
 25 30  1  0  0  0
 27 28  1  0  0  0
 28 29  1  0  0  0
 30 31  1  0  0  0
 31 32  1  0  0  0
 32 33  2  0  0  0
 32 34  1  0  0  0
 34 35  1  0  0  0
 35 36  1  0  0  0
 35 38  1  0  0  0
 36 37  2  0  0  0
 36 45  1  0  0  0
 38 39  1  0  0  0
 39 40  1  0  0  0
 40 41  1  0  0  0
 41 42  1  0  0  0
 42 43  2  0  0  0
 42 44  1  0  0  0
 45 46  1  0  0  0
 46 47  1  0  0  0
 46 49  1  0  0  0
 47 48  2  0  0  0
 47 59  1  0  0  0
 49 50  1  0  0  0
 50 51  4  0  0  0
 50 52  4  0  0  0
 51 53  4  0  0  0
 52 54  4  0  0  0
 52 55  4  0  0  0
 53 54  4  0  0  0
 54 56  4  0  0  0
 55 57  4  0  0  0
 56 58  4  0  0  0
 57 58  4  0  0  0
 59 60  1  0  0  0
 60 61  1  0  0  0
 60 63  1  0  0  0
 61 62  2  0  0  0
 61 68  1  0  0  0
 63 64  1  0  0  0
 64 65  1  0  0  0
 65 66  1  0  0  0
 66 67  1  0  0  0
 68 69  1  0  0  0
 68 74  1  0  0  0
 69 70  1  0  0  0
 69 72  1  0  0  0
 70 71  2  0  0  0
 70 75  1  0  0  0
 72 73  1  0  0  0
 73 74  1  0  0  0
 75 76  1  0  0  0
 76 77  1  0  0  0
 76 79  1  0  0  0
 77 78  1  0  0  0
 77 80  2  0  0  0
  1 81  1  0  0  0
  1 82  1  0  0  0
  1 83  1  0  0  0
  2 84  1  0  0  0
  5 85  1  0  0  0
  5 86  1  0  0  0
  6 87  1  0  0  0
  6 88  1  0  0  0
  8 89  1  0  0  0
  8 90  1  0  0  0
  8 91  1  0  0  0
  9 92  1  0  0  0
 10 93  1  0  0  0
 13 94  1  0  0  0
 13 95  1  0  0  0
 14 96  1  0  0  0
 15 97  1  0  0  0
 16 98  1  0  0  0
 19 99  1  0  0  0
 19100  1  0  0  0
 20101  1  0  0  0
 21102  1  0  0  0
 21103  1  0  0  0
 21104  1  0  0  0
 22105  1  0  0  0
 22106  1  0  0  0
 22107  1  0  0  0
 24108  1  0  0  0
 27109  1  0  0  0
 27110  1  0  0  0
 28111  1  0  0  0
 28112  1  0  0  0
 29113  1  0  0  0
 29114  1  0  0  0
 30115  1  0  0  0
 31116  1  0  0  0
 31117  1  0  0  0
 34118  1  0  0  0
 35119  1  0  0  0
 38120  1  0  0  0
 38121  1  0  0  0
 39122  1  0  0  0
 39123  1  0  0  0
 40124  1  0  0  0
 40125  1  0  0  0
 41126  1  0  0  0
 43127  1  0  0  0
 44128  1  0  0  0
 44129  1  0  0  0
 45130  1  0  0  0
 46131  1  0  0  0
 49132  1  0  0  0
 49133  1  0  0  0
 51134  1  0  0  0
 55135  1  0  0  0
 56136  1  0  0  0
 57137  1  0  0  0
 58138  1  0  0  0
 59139  1  0  0  0
 60140  1  0  0  0
 63141  1  0  0  0
 63142  1  0  0  0
 64143  1  0  0  0
 64144  1  0  0  0
 65145  1  0  0  0
 65146  1  0  0  0
 66147  1  0  0  0
 66148  1  0  0  0
 67149  1  0  0  0
 67150  1  0  0  0
 67151  1  0  0  0
 69152  1  0  0  0
 72153  1  0  0  0
 72154  1  0  0  0
 73155  1  0  0  0
 73156  1  0  0  0
 74157  1  0  0  0
 74158  1  0  0  0
 75159  1  0  0  0
 76160  1  0  0  0
 78161  1  0  0  0
 79162  1  0  0  0
 79163  1  0  0  0
 79164  1  0  0  0
M  END
$$$$
