3f35_ligand
  -I-interpret- 

 25 25  0  0  0  0  0  0  0  0999 V2000
   30.7170    0.3960   34.5790 C   0  0  0  0  0
   31.4170   -0.5670   35.5430 C   0  0  0  0  0
   32.9440   -0.3920   35.6750 C   0  0  0  0  0
   33.3130   -0.1120   36.9820 C   0  0  0  0  0
   34.6390    0.0730   37.3100 C   0  0  0  0  0
   35.6320   -0.0290   36.3440 C   0  0  0  0  0
   35.3090   -0.3220   35.0320 C   0  0  0  0  0
   36.4360   -0.4270   33.9920 C   0  0  0  0  0
   35.9730    0.0360   32.5990 C   0  0  0  0  0
   33.9780   -0.5020   34.7160 C   0  0  0  0  0
   33.8260   -0.7830   33.4170 O   0  0  0  0  0
   30.8794    1.4216   34.9103 H   0  0  0  0  0
   31.1270    0.2672   33.5773 H   0  0  0  0  0
   29.6483    0.1820   34.5659 H   0  0  0  0  0
   31.2549   -1.5700   35.1482 H   0  0  0  0  0
   30.9982   -0.3729   36.5304 H   0  0  0  0  0
   32.5489   -0.0376   37.7557 H   0  0  0  0  0
   34.9117    0.3022   38.3401 H   0  0  0  0  0
   36.6747    0.1233   36.6227 H   0  0  0  0  0
   36.7416   -1.4709   33.9221 H   0  0  0  0  0
   37.2574    0.2146   34.3109 H   0  0  0  0  0
   35.1419   -0.5869   32.2681 H   0  0  0  0  0
   35.6508    1.0760   32.6517 H   0  0  0  0  0
   36.7995   -0.0544   31.8942 H   0  0  0  0  0
   34.6863   -0.7977   32.9912 H   0  0  0  0  0
  1  2  1  0  0  0
  2  3  1  0  0  0
  3  4  4  0  0  0
  3 10  4  0  0  0
  4  5  4  0  0  0
  5  6  4  0  0  0
  6  7  4  0  0  0
  7  8  1  0  0  0
  7 10  4  0  0  0
  8  9  1  0  0  0
 10 11  1  0  0  0
  1 12  1  0  0  0
  1 13  1  0  0  0
  1 14  1  0  0  0
  2 15  1  0  0  0
  2 16  1  0  0  0
  4 17  1  0  0  0
  5 18  1  0  0  0
  6 19  1  0  0  0
  8 20  1  0  0  0
  8 21  1  0  0  0
  9 22  1  0  0  0
  9 23  1  0  0  0
  9 24  1  0  0  0
 11 25  1  0  0  0
M  END
$$$$
