6m9l_ligand
  -I-interpret- 

 40 43  0  0  0  0  0  0  0  0999 V2000
   21.9770   -3.7950  -20.6050 C   0  0  0  0  0
   22.6630   -2.6730  -21.0050 C   0  0  0  0  0
   21.3860   -0.7560  -21.7860 C   0  0  0  0  0
   20.5290    0.2720  -21.4500 C   0  0  0  0  0
   19.9010    0.5800  -23.5460 C   0  0  0  0  0
   18.9240    3.4660  -24.9500 C   0  0  0  0  0
   20.6270    4.7870  -25.9610 C   0  0  0  0  0
   18.8650    5.8420  -24.7590 C   0  0  0  0  0
   21.4960   -1.1300  -23.1060 C   0  0  0  0  0
   18.3160    2.1430  -24.6470 C   0  0  0  0  0
   20.0800    3.5560  -25.6880 C   0  0  0  0  0
   20.0200    5.9300  -25.4970 C   0  0  0  0  0
   18.3190    4.6100  -24.4870 C   0  0  0  0  0
   19.6920    0.3870  -25.8030 C   0  0  0  0  0
   23.7300   -5.1740  -21.4270 C   0  0  0  0  0
   20.7160   -0.4190  -23.9810 C   0  0  0  0  0
   23.8870   -2.8200  -21.6140 C   0  0  0  0  0
   24.4300   -4.0630  -21.8300 C   0  0  0  0  0
   22.5060   -5.0470  -20.8150 C   0  0  0  0  0
   24.2470   -6.3960  -21.6330 F   0  0  0  0  0
   24.5630   -1.7290  -22.0050 F   0  0  0  0  0
   19.2750    1.0720  -24.6840 N   0  0  0  0  0
   20.6040   -0.5550  -25.3640 N   0  0  0  0  0
   22.1280   -1.3990  -20.7890 N   0  0  0  0  0
   19.7590    0.9780  -22.2850 N   0  0  0  0  0
   19.3290    0.5740  -26.9550 O   0  0  0  0  0
   21.0073   -3.6917  -20.1181 H   0  0  0  0  0
   20.4739    0.5362  -20.3939 H   0  0  0  0  0
   21.5437    4.8572  -26.5465 H   0  0  0  0  0
   18.3824    6.7469  -24.3898 H   0  0  0  0  0
   22.1559   -1.9338  -23.4323 H   0  0  0  0  0
   17.5582    1.9409  -25.4040 H   0  0  0  0  0
   17.9013    2.1872  -23.6399 H   0  0  0  0  0
   20.5630    2.6511  -26.0568 H   0  0  0  0  0
   20.4551    6.9054  -25.7147 H   0  0  0  0  0
   17.4022    4.5401  -23.9016 H   0  0  0  0  0
   25.4013   -4.1662  -22.3137 H   0  0  0  0  0
   21.9574   -5.9339  -20.4977 H   0  0  0  0  0
   21.1039   -1.2271  -25.9461 H   0  0  0  0  0
   22.2804   -0.9332  -19.8945 H   0  0  0  0  0
  1  2  4  0  0  0
 19  1  4  0  0  0
  2 17  4  0  0  0
  2 24  1  0  0  0
  3  4  4  0  0  0
  3  9  4  0  0  0
 24  3  1  0  0  0
  4 25  4  0  0  0
 16  5  4  0  0  0
  5 22  1  0  0  0
 25  5  4  0  0  0
 10  6  1  0  0  0
  6 11  4  0  0  0
  6 13  4  0  0  0
 11  7  4  0  0  0
  7 12  4  0  0  0
  8 12  4  0  0  0
 13  8  4  0  0  0
  9 16  4  0  0  0
 22 10  1  0  0  0
 22 14  1  0  0  0
 14 23  1  0  0  0
 14 26  2  0  0  0
 15 18  4  0  0  0
 15 19  4  0  0  0
 15 20  1  0  0  0
 16 23  1  0  0  0
 17 18  4  0  0  0
 17 21  1  0  0  0
  1 27  1  0  0  0
  4 28  1  0  0  0
  7 29  1  0  0  0
  8 30  1  0  0  0
  9 31  1  0  0  0
 10 32  1  0  0  0
 10 33  1  0  0  0
 11 34  1  0  0  0
 12 35  1  0  0  0
 13 36  1  0  0  0
 18 37  1  0  0  0
 19 38  1  0  0  0
 23 39  1  0  0  0
 24 40  1  0  0  0
M  END
$$$$
