3ls4_ligand
  -I-interpret- 

 53 55  0  0  0  0  0  0  0  0999 V2000
   29.0150   19.9760  -32.0420 C   0  0  0  0  0
   27.1890   21.4940  -31.9010 O   0  0  0  0  0
   30.1380   19.5470  -32.7250 C   0  0  0  0  0
   30.0360   21.7900  -35.6130 O   0  0  0  0  0
   30.4930   20.1700  -33.9280 C   0  0  0  0  0
   29.7100   21.2460  -34.4170 C   0  0  0  0  0
   28.6090   21.6850  -33.6790 C   0  0  0  0  0
   28.2930   21.0600  -32.5290 C   0  0  0  0  0
   27.5520   22.7750  -34.0670 C   0  0  0  0  0
   28.3500   23.8630  -34.8620 C   0  0  0  0  0
   27.9470   25.1910  -34.9040 C   0  0  0  0  0
   26.7040   25.5380  -34.1470 C   0  0  0  0  0
   25.7580   24.3870  -33.8040 C   0  0  0  0  0
   26.6440   23.4360  -32.9690 C   0  0  0  0  0
   25.9820   22.1990  -32.4140 C   0  0  0  0  0
   25.1160   22.5600  -31.2120 C   0  0  0  0  0
   25.3030   21.2740  -33.4530 C   0  0  0  0  0
   28.7780   26.3100  -35.5420 C   0  0  0  0  0
   30.9520   18.4100  -32.0530 C   0  0  0  0  0
   30.1610   17.1280  -31.9220 C   0  0  0  0  0
   30.9940   16.0910  -31.1180 C   0  0  0  0  0
   30.3050   14.7300  -31.0220 C   0  0  0  0  0
   31.2140   13.7710  -30.2270 C   0  0  0  0  0
   28.6986   19.4692  -31.1303 H   0  0  0  0  0
   29.4256   22.5026  -35.8162 H   0  0  0  0  0
   31.3660   19.8297  -34.4850 H   0  0  0  0  0
   26.7823   22.2414  -34.6247 H   0  0  0  0  0
   29.2511   23.5681  -35.3998 H   0  0  0  0  0
   26.1373   26.2067  -34.7949 H   0  0  0  0  0
   27.0396   25.9427  -33.1922 H   0  0  0  0  0
   25.3443   23.9055  -34.6900 H   0  0  0  0  0
   24.8721   24.7189  -33.2626 H   0  0  0  0  0
   27.0530   24.0248  -32.1479 H   0  0  0  0  0
   25.7391   23.0096  -30.4388 H   0  0  0  0  0
   24.3476   23.2694  -31.5193 H   0  0  0  0  0
   24.6444   21.6582  -30.8216 H   0  0  0  0  0
   24.5240   21.8281  -33.9766 H   0  0  0  0  0
   26.0474   20.9264  -34.1694 H   0  0  0  0  0
   24.8612   20.4185  -32.9421 H   0  0  0  0  0
   29.7406   26.3800  -35.0354 H   0  0  0  0  0
   28.9366   26.0866  -36.5970 H   0  0  0  0  0
   28.2456   27.2563  -35.4457 H   0  0  0  0  0
   31.2247   18.7399  -31.0505 H   0  0  0  0  0
   31.8214   18.2054  -32.6778 H   0  0  0  0  0
   29.9424   16.7310  -32.9133 H   0  0  0  0  0
   29.2252   17.3281  -31.4001 H   0  0  0  0  0
   31.1203   16.4749  -30.1057 H   0  0  0  0  0
   31.9433   15.9504  -31.6349 H   0  0  0  0  0
   30.1307   14.3318  -32.0216 H   0  0  0  0  0
   29.3454   14.8355  -30.5159 H   0  0  0  0  0
   32.1693   13.6677  -30.7416 H   0  0  0  0  0
   31.3798   14.1741  -29.2280 H   0  0  0  0  0
   30.7332   12.7957  -30.1515 H   0  0  0  0  0
  3  1  4  0  0  0
  1  8  4  0  0  0
  8  2  1  0  0  0
  2 15  1  0  0  0
  5  3  4  0  0  0
  3 19  1  0  0  0
  6  4  1  0  0  0
  5  6  4  0  0  0
  6  7  4  0  0  0
  7  8  4  0  0  0
  7  9  1  0  0  0
  9 10  1  0  0  0
  9 14  1  0  0  0
 10 11  2  0  0  0
 11 12  1  0  0  0
 11 18  1  0  0  0
 12 13  1  0  0  0
 13 14  1  0  0  0
 14 15  1  0  0  0
 15 16  1  0  0  0
 15 17  1  0  0  0
 19 20  1  0  0  0
 20 21  1  0  0  0
 21 22  1  0  0  0
 22 23  1  0  0  0
  1 24  1  0  0  0
  4 25  1  0  0  0
  5 26  1  0  0  0
  9 27  1  0  0  0
 10 28  1  0  0  0
 12 29  1  0  0  0
 12 30  1  0  0  0
 13 31  1  0  0  0
 13 32  1  0  0  0
 14 33  1  0  0  0
 16 34  1  0  0  0
 16 35  1  0  0  0
 16 36  1  0  0  0
 17 37  1  0  0  0
 17 38  1  0  0  0
 17 39  1  0  0  0
 18 40  1  0  0  0
 18 41  1  0  0  0
 18 42  1  0  0  0
 19 43  1  0  0  0
 19 44  1  0  0  0
 20 45  1  0  0  0
 20 46  1  0  0  0
 21 47  1  0  0  0
 21 48  1  0  0  0
 22 49  1  0  0  0
 22 50  1  0  0  0
 23 51  1  0  0  0
 23 52  1  0  0  0
 23 53  1  0  0  0
M  END
$$$$
