4gfo_ligand
  -I-interpret- 

 26 27  0  0  0  0  0  0  0  0999 V2000
   13.2760  -13.0620   22.0340 C   0  0  0  0  0
   12.1370  -12.4170   21.5720 C   0  0  0  0  0
   11.7970  -12.4610   20.2180 C   0  0  0  0  0
   14.7060  -12.9920   27.7390 C   0  0  0  0  0
   13.6610  -12.9300   23.4770 C   0  0  0  0  0
   13.9570  -14.0250   25.6640 C   0  0  0  0  0
   14.0870  -15.2770   26.2900 C   0  0  0  0  0
   14.5140  -15.3480   27.6320 C   0  0  0  0  0
   14.2780  -12.8750   26.4110 C   0  0  0  0  0
   13.5840  -13.9900   24.2990 N   0  0  0  0  0
   14.8050  -14.2230   28.3190 N   0  0  0  0  0
   14.1190  -13.7040   21.1270 C   0  0  0  0  0
   15.0110  -11.9570   28.3750 O   0  0  0  0  0
   14.0140  -11.8110   23.8220 O   0  0  0  0  0
   15.6080  -14.5220   21.6930 Cl  0  0  0  0  0
   13.7920  -13.7510   19.7690 C   0  0  0  0  0
   11.0950  -11.5550   22.7400 Cl  0  0  0  0  0
   12.6280  -13.1290   19.3160 C   0  0  0  0  0
   10.8864  -11.9757   19.8666 H   0  0  0  0  0
   13.8585  -16.1898   25.7398 H   0  0  0  0  0
   14.6098  -16.3187   28.1184 H   0  0  0  0  0
   15.1321  -12.4436   25.8890 H   0  0  0  0  0
   13.3391  -12.3253   26.4773 H   0  0  0  0  0
   13.2207  -14.8554   23.8998 H   0  0  0  0  0
   14.4434  -14.2713   19.0668 H   0  0  0  0  0
   12.3673  -13.1645   18.2582 H   0  0  0  0  0
  1  2  4  0  0  0
  5  1  1  0  0  0
  1 12  4  0  0  0
  2  3  4  0  0  0
  2 17  1  0  0  0
  3 18  4  0  0  0
  9  4  1  0  0  0
  4 11  1  0  0  0
  4 13  2  0  0  0
 10  5  1  0  0  0
  5 14  2  0  0  0
  6  7  2  0  0  0
  6  9  1  0  0  0
  6 10  1  0  0  0
  7  8  1  0  0  0
  8 11  2  0  0  0
 12 15  1  0  0  0
 12 16  4  0  0  0
 16 18  4  0  0  0
  3 19  1  0  0  0
  7 20  1  0  0  0
  8 21  1  0  0  0
  9 22  1  0  0  0
  9 23  1  0  0  0
 10 24  1  0  0  0
 16 25  1  0  0  0
 18 26  1  0  0  0
M  END
$$$$
