1uu9_ligand
  -I-interpret- 

 49 53  0  0  0  0  0  0  0  0999 V2000
   22.6160   83.3560   28.2110 N   0  3  0  0  0
   23.4400   82.3390   27.5390 C   0  0  0  0  0
   22.5360   81.3210   26.8390 C   0  0  0  0  0
   23.3280   80.3940   25.9120 C   0  0  0  0  0
   24.1130   79.3600   26.6060 N   0  0  0  0  0
   25.3650   79.5310   27.0370 C   0  0  0  0  0
   23.7190   78.0900   26.7040 C   0  0  0  0  0
   22.5550   77.4040   26.3670 C   0  0  0  0  0
   22.4960   76.0240   26.5390 C   0  0  0  0  0
   23.5950   75.3400   27.0540 C   0  0  0  0  0
   24.7490   76.0370   27.4000 C   0  0  0  0  0
   24.8180   77.4170   27.2240 C   0  0  0  0  0
   25.8300   78.3430   27.4250 C   0  0  0  0  0
   27.1790   78.1790   27.7460 C   0  0  0  0  0
   27.9500   77.1160   27.2840 C   0  0  0  0  0
   27.5760   76.1550   26.6150 O   0  0  0  0  0
   29.1970   77.3600   27.6830 N   0  0  0  0  0
   29.3160   78.4950   28.3720 C   0  0  0  0  0
   30.3570   78.9720   28.8250 O   0  0  0  0  0
   28.0340   79.0350   28.4340 C   0  0  0  0  0
   27.7260   80.2170   29.1110 C   0  0  0  0  0
   26.5630   80.7200   29.6780 C   0  0  0  0  0
   25.3220   80.1590   29.9710 C   0  0  0  0  0
   24.3180   80.9390   30.5390 C   0  0  0  0  0
   24.5460   82.2840   30.8200 C   0  0  0  0  0
   25.7860   82.8490   30.5360 C   0  0  0  0  0
   26.7840   82.0610   29.9710 C   0  0  0  0  0
   28.0400   82.3060   29.5940 N   0  0  0  0  0
   28.6100   81.2130   29.0800 C   0  0  0  0  0
   23.2232   84.0313   28.6754 H   0  0  0  0  0
   22.0387   83.8351   27.5199 H   0  0  0  0  0
   22.0169   82.9042   28.9019 H   0  0  0  0  0
   24.0787   82.8227   26.8000 H   0  0  0  0  0
   24.0554   81.8267   28.2786 H   0  0  0  0  0
   21.8099   81.8669   26.2366 H   0  0  0  0  0
   22.0548   80.7100   27.6027 H   0  0  0  0  0
   24.0354   81.0181   25.3660 H   0  0  0  0  0
   22.6029   79.8758   25.2844 H   0  0  0  0  0
   25.9103   80.4743   27.0665 H   0  0  0  0  0
   21.6953   77.9444   25.9709 H   0  0  0  0  0
   21.5908   75.4790   26.2710 H   0  0  0  0  0
   23.5511   74.2589   27.1860 H   0  0  0  0  0
   25.6037   75.4998   27.8111 H   0  0  0  0  0
   29.9821   76.7407   27.4816 H   0  0  0  0  0
   25.1364   79.1068   29.7551 H   0  0  0  0  0
   23.3486   80.4947   30.7649 H   0  0  0  0  0
   23.7561   82.8921   31.2608 H   0  0  0  0  0
   25.9737   83.9003   30.7544 H   0  0  0  0  0
   29.6290   81.1470   28.6986 H   0  0  0  0  0
  3  2  1  0  0  0
  4  3  1  0  0  0
  6 13  4  0  0  0
  7  8  4  0  0  0
  7 12  4  0  0  0
  8  9  4  0  0  0
  9 10  4  0  0  0
 11 10  4  0  0  0
 12 11  4  0  0  0
 12 13  4  0  0  0
 13 14  1  0  0  0
 14 15  1  0  0  0
 14 20  2  0  0  0
 15 16  2  0  0  0
 18 19  2  0  0  0
 20 18  1  0  0  0
 20 21  1  0  0  0
 21 22  4  0  0  0
 21 29  4  0  0  0
 22 23  4  0  0  0
 22 27  4  0  0  0
 23 24  4  0  0  0
 24 25  4  0  0  0
 26 25  4  0  0  0
 27 26  4  0  0  0
 18 17  1  0  0  0
 15 17  1  0  0  0
  5  6  4  0  0  0
  5  7  4  0  0  0
  5  4  1  0  0  0
 29 28  4  0  0  0
 28 27  4  0  0  0
  2  1  1  0  0  0
  1 30  1  0  0  0
  1 31  1  0  0  0
  1 32  1  0  0  0
  2 33  1  0  0  0
  2 34  1  0  0  0
  3 35  1  0  0  0
  3 36  1  0  0  0
  4 37  1  0  0  0
  4 38  1  0  0  0
  6 39  1  0  0  0
  8 40  1  0  0  0
  9 41  1  0  0  0
 10 42  1  0  0  0
 11 43  1  0  0  0
 17 44  1  0  0  0
 23 45  1  0  0  0
 24 46  1  0  0  0
 25 47  1  0  0  0
 26 48  1  0  0  0
 29 49  1  0  0  0
M  END
$$$$
