3ljo_ligand
  -I-interpret- 

 60 62  0  0  0  0  0  0  0  0999 V2000
   17.3120   -9.0780   12.7690 N   0  0  0  0  0
   18.3490   -8.9850   11.9060 C   0  0  0  0  0
   18.2340   -8.2620   10.9100 O   0  0  0  0  0
   19.5760   -9.8630   11.9100 C   0  0  0  0  0
   17.3760   -9.8800   13.9810 C   0  0  0  0  0
   15.8700   -9.9270   14.2840 C   0  0  0  0  0
   15.4760   -8.4460   14.0130 C   0  0  0  0  0
   16.1870   -8.1380   12.6570 C   0  0  0  0  0
   16.7690   -6.7260   12.7250 C   0  0  0  0  0
   16.1030   -5.8240   11.9620 N   0  0  0  0  0
   16.5030   -4.4240   11.9590 C   0  0  0  0  0
   17.2220   -4.1930   10.6160 C   0  0  0  0  0
   18.3820   -4.9110   10.3210 C   0  0  0  0  0
   19.0390   -4.7540    9.0930 C   0  0  0  0  0
   18.5010   -3.8550    8.1670 C   0  0  0  0  0
   19.2160   -3.6250    6.8370 C   0  0  0  0  0
   20.4200   -3.9930    6.5650 N   0  0  0  0  0
   18.3140   -3.1710    5.7580 N   0  0  0  0  0
   17.3390   -3.1340    8.4530 C   0  0  0  0  0
   16.6880   -3.2950    9.6870 C   0  0  0  0  0
   17.7320   -6.4780   13.4270 O   0  0  0  0  0
   20.7770   -9.0600   11.5460 N   0  3  0  0  0
   22.0300   -9.8670   11.7230 C   0  0  0  0  0
   21.8580  -11.2140   10.9570 C   0  0  0  0  0
   23.1800  -11.9950   10.8180 C   0  0  0  0  0
   24.2580  -11.0530   10.1900 C   0  0  0  0  0
   24.5150   -9.8660   11.1710 C   0  0  0  0  0
   23.2460   -9.0010   11.3040 C   0  0  0  0  0
   19.4462  -10.6646   11.1829 H   0  0  0  0  0
   19.7135  -10.2832   12.9063 H   0  0  0  0  0
   18.0031   -9.4789   14.7772 H   0  0  0  0  0
   17.8649  -10.8487   13.8780 H   0  0  0  0  0
   15.6295  -10.2741   15.2889 H   0  0  0  0  0
   15.3183  -10.6505   13.6838 H   0  0  0  0  0
   15.7826   -7.7732   14.8139 H   0  0  0  0  0
   14.3972   -8.2965   13.9687 H   0  0  0  0  0
   15.5645   -8.2165   11.7657 H   0  0  0  0  0
   15.3174   -6.1281   11.3869 H   0  0  0  0  0
   17.1563   -4.1974   12.8016 H   0  0  0  0  0
   15.6405   -3.7659   12.0643 H   0  0  0  0  0
   18.7839   -5.6058   11.0584 H   0  0  0  0  0
   19.9443   -5.3171    8.8661 H   0  0  0  0  0
   20.9753   -4.4807    7.2679 H   0  0  0  0  0
   18.6441   -3.1481    4.7932 H   0  0  0  0  0
   17.3613   -2.8805    5.9781 H   0  0  0  0  0
   16.9351   -2.4422    7.7138 H   0  0  0  0  0
   15.7839   -2.7308    9.9160 H   0  0  0  0  0
   20.8232   -8.2425   12.1542 H   0  0  0  0  0
   20.7015   -8.7793   10.5683 H   0  0  0  0  0
   22.2199  -10.1410   12.7608 H   0  0  0  0  0
   21.4989  -10.9841    9.9538 H   0  0  0  0  0
   21.1622  -11.8334   11.5229 H   0  0  0  0  0
   23.0301  -12.8638   10.1770 H   0  0  0  0  0
   23.5129  -12.3352   11.7986 H   0  0  0  0  0
   23.9051  -10.6724    9.2315 H   0  0  0  0  0
   25.1831  -11.6055   10.0257 H   0  0  0  0  0
   25.3268   -9.2512   10.7822 H   0  0  0  0  0
   24.7800  -10.2637   12.1506 H   0  0  0  0  0
   23.4166   -8.2422   12.0677 H   0  0  0  0  0
   23.0329   -8.5394   10.3398 H   0  0  0  0  0
  1  2  1  0  0  0
  1  5  1  0  0  0
  1  8  1  0  0  0
  2  3  2  0  0  0
  2  4  1  0  0  0
  4 22  1  0  0  0
  5  6  1  0  0  0
  6  7  1  0  0  0
  7  8  1  0  0  0
  8  9  1  0  0  0
  9 10  1  0  0  0
  9 21  2  0  0  0
 10 11  1  0  0  0
 11 12  1  0  0  0
 12 13  4  0  0  0
 12 20  4  0  0  0
 13 14  4  0  0  0
 14 15  4  0  0  0
 15 16  1  0  0  0
 15 19  4  0  0  0
 16 17  2  0  0  0
 16 18  1  0  0  0
 19 20  4  0  0  0
 22 23  1  0  0  0
 23 24  1  0  0  0
 23 28  1  0  0  0
 24 25  1  0  0  0
 25 26  1  0  0  0
 26 27  1  0  0  0
 27 28  1  0  0  0
  4 29  1  0  0  0
  4 30  1  0  0  0
  5 31  1  0  0  0
  5 32  1  0  0  0
  6 33  1  0  0  0
  6 34  1  0  0  0
  7 35  1  0  0  0
  7 36  1  0  0  0
  8 37  1  0  0  0
 10 38  1  0  0  0
 11 39  1  0  0  0
 11 40  1  0  0  0
 13 41  1  0  0  0
 14 42  1  0  0  0
 17 43  1  0  0  0
 18 44  1  0  0  0
 18 45  1  0  0  0
 19 46  1  0  0  0
 20 47  1  0  0  0
 22 48  1  0  0  0
 22 49  1  0  0  0
 23 50  1  0  0  0
 24 51  1  0  0  0
 24 52  1  0  0  0
 25 53  1  0  0  0
 25 54  1  0  0  0
 26 55  1  0  0  0
 26 56  1  0  0  0
 27 57  1  0  0  0
 27 58  1  0  0  0
 28 59  1  0  0  0
 28 60  1  0  0  0
M  END
$$$$
