4d1d_ligand
  -I-interpret- 

 30 32  0  0  0  0  0  0  0  0999 V2000
    4.0470   11.8000  -24.1410 N   0  0  0  0  0
    2.8530   11.3170  -24.7540 C   0  0  0  0  0
    3.0450    9.9020  -25.1990 C   0  0  0  0  0
    2.8330    8.9890  -24.0430 C   0  0  0  0  0
    2.0680    9.3980  -22.9590 C   0  0  0  0  0
    1.8770    8.5560  -21.8790 C   0  0  0  0  0
    2.4510    7.2970  -21.8690 C   0  0  0  0  0
    3.2180    6.8800  -22.9440 C   0  0  0  0  0
    3.4060    7.7270  -24.0270 C   0  0  0  0  0
    2.5650   12.1630  -25.9160 C   0  0  0  0  0
    3.5790   13.1560  -26.0000 N   0  0  0  0  0
    4.5050   12.9470  -24.9010 C   0  0  0  0  0
    5.5020   13.6180  -24.6630 O   0  0  0  0  0
    1.6180   12.0360  -26.6780 O   0  0  0  0  0
    3.7940    5.6220  -22.9360 C   0  0  0  0  0
    3.6030    4.7830  -21.8540 C   0  0  0  0  0
    2.8340    5.2000  -20.7780 C   0  0  0  0  0
    2.2590    6.4550  -20.7850 C   0  0  0  0  0
    4.4986   11.4081  -23.3146 H   0  0  0  0  0
    2.0265   11.3496  -24.0441 H   0  0  0  0  0
    4.0570    9.7748  -25.5833 H   0  0  0  0  0
    2.3281    9.6667  -25.9857 H   0  0  0  0  0
    1.6150   10.3894  -22.9593 H   0  0  0  0  0
    1.2728    8.8848  -21.0335 H   0  0  0  0  0
    4.0096    7.3970  -24.8725 H   0  0  0  0  0
    3.6446   13.8872  -26.7082 H   0  0  0  0  0
    4.3976    5.2929  -23.7818 H   0  0  0  0  0
    4.0575    3.7923  -21.8466 H   0  0  0  0  0
    2.6835    4.5366  -19.9264 H   0  0  0  0  0
    1.6549    6.7833  -19.9392 H   0  0  0  0  0
  1  2  1  0  0  0
  1 12  1  0  0  0
  2  3  1  0  0  0
  2 10  1  0  0  0
  3  4  1  0  0  0
  4  5  4  0  0  0
  4  9  4  0  0  0
  5  6  4  0  0  0
  6  7  4  0  0  0
  7  8  4  0  0  0
  7 18  4  0  0  0
  8  9  4  0  0  0
  8 15  4  0  0  0
 10 11  1  0  0  0
 10 14  2  0  0  0
 11 12  1  0  0  0
 12 13  2  0  0  0
 15 16  4  0  0  0
 16 17  4  0  0  0
 17 18  4  0  0  0
  1 19  1  0  0  0
  2 20  1  0  0  0
  3 21  1  0  0  0
  3 22  1  0  0  0
  5 23  1  0  0  0
  6 24  1  0  0  0
  9 25  1  0  0  0
 11 26  1  0  0  0
 15 27  1  0  0  0
 16 28  1  0  0  0
 17 29  1  0  0  0
 18 30  1  0  0  0
M  END
$$$$
