6j0k_ligand
  -I-interpret- 

 27 26  0  0  0  0  0  0  0  0999 V2000
   79.1270  -57.7700  -44.9970 P   0  0  0  0  0
   78.3200  -58.7890  -44.2460 O   0  0  0  0  0
   80.0760  -56.9550  -44.1670 O   0  0  0  0  0
   78.0380  -56.8110  -45.7400 O   0  0  0  0  0
   78.3280  -55.7350  -46.9550 P   0  0  0  0  0
   79.7490  -55.7420  -47.4310 O   0  0  0  0  0
   77.4060  -56.1150  -48.1010 O   0  0  0  0  0
   78.0300  -54.3620  -46.4180 O   0  0  0  0  0
   79.6730  -62.2340  -46.2180 C   0  0  0  0  0
   80.2920  -60.3260  -47.7190 C   0  0  0  0  0
   79.3020  -59.3990  -47.0200 C   0  0  0  0  0
   80.0110  -58.6100  -46.1030 O   0  0  0  0  0
   80.4500  -61.5950  -47.3750 C   0  0  0  0  0
   81.4510  -62.4470  -48.1590 C   0  0  0  0  0
   81.8580  -61.7460  -49.3040 O   0  0  0  0  0
   80.5432  -56.3358  -44.7325 H   0  0  0  0  0
   76.4965  -56.1098  -47.7937 H   0  0  0  0  0
   77.1227  -54.3317  -46.1058 H   0  0  0  0  0
   79.9000  -61.7039  -45.2930 H   0  0  0  0  0
   78.6040  -62.1711  -46.4214 H   0  0  0  0  0
   79.9646  -63.2797  -46.1199 H   0  0  0  0  0
   80.8942  -59.9272  -48.5354 H   0  0  0  0  0
   78.5430  -59.9847  -46.5014 H   0  0  0  0  0
   78.8026  -58.7644  -47.7521 H   0  0  0  0  0
   80.9807  -63.3853  -48.4530 H   0  0  0  0  0
   82.3180  -62.6601  -47.5337 H   0  0  0  0  0
   82.4861  -62.2786  -49.7975 H   0  0  0  0  0
  1  2  2  0  0  0
  1  3  1  0  0  0
  1  4  1  0  0  0
 12  1  1  0  0  0
  4  5  1  0  0  0
  5  6  2  0  0  0
  5  7  1  0  0  0
  5  8  1  0  0  0
 13  9  1  0  0  0
 11 10  1  0  0  0
 10 13  2  0  0  0
 11 12  1  0  0  0
 13 14  1  0  0  0
 14 15  1  0  0  0
  3 16  1  0  0  0
  7 17  1  0  0  0
  8 18  1  0  0  0
  9 19  1  0  0  0
  9 20  1  0  0  0
  9 21  1  0  0  0
 10 22  1  0  0  0
 11 23  1  0  0  0
 11 24  1  0  0  0
 14 25  1  0  0  0
 14 26  1  0  0  0
 15 27  1  0  0  0
M  END
$$$$
