### 
### Created by X-TOOL on Mon Aug  2 16:14:24 2021
### 

@<TRIPOS>MOLECULE
6j0k_ligand
   24    23     1     0     0
SMALL
GAST_HUCK


@<TRIPOS>ATOM
      1 P13        79.1270  -57.7700  -44.9970 P.3       1 H6P         0.3288
      2 O14        78.3200  -58.7890  -44.2460 O.co2     1 H6P        -0.5555
      3 O15        80.0760  -56.9550  -44.1670 O.co2     1 H6P        -0.5555
      4 O16        78.0380  -56.8110  -45.7400 O.3       1 H6P        -0.1547
      5 P17        78.3280  -55.7350  -46.9550 P.3       1 H6P         0.2070
      6 O18        79.7490  -55.7420  -47.4310 O.co2     1 H6P        -0.5891
      7 O19        77.4060  -56.1150  -48.1010 O.co2     1 H6P        -0.5891
      8 O20        78.0300  -54.3620  -46.4180 O.co2     1 H6P        -0.5891
      9 C21        79.6730  -62.2340  -46.2180 C.3       1 H6P        -0.0381
     10 C27        80.2920  -60.3260  -47.7190 C.2       1 H6P        -0.0762
     11 C28        79.3020  -59.3990  -47.0200 C.3       1 H6P         0.0917
     12 O29        80.0110  -58.6100  -46.1030 O.3       1 H6P        -0.2411
     13 C30        80.4500  -61.5950  -47.3750 C.2       1 H6P        -0.0565
     14 C31        81.4510  -62.4470  -48.1590 C.3       1 H6P         0.0692
     15 O33        81.8580  -61.7460  -49.3040 O.3       1 H6P        -0.3840
     16 H1         79.0034  -61.4859  -45.7687 H         1 H6P         0.0376
     17 H2         80.3802  -62.5968  -45.4576 H         1 H6P         0.0376
     18 H3         79.0780  -63.0777  -46.5976 H         1 H6P         0.0376
     19 H4         80.8936  -59.9275  -48.5346 H         1 H6P         0.0269
     20 H5         78.5444  -59.9951  -46.4902 H         1 H6P         0.0696
     21 H6         78.8083  -58.7542  -47.7620 H         1 H6P         0.0696
     22 H7         80.9749  -63.3928  -48.4569 H         1 H6P         0.0705
     23 H8         82.3263  -62.6599  -47.5278 H         1 H6P         0.0705
     24 H9         82.2684  -60.9294  -49.0448 H         1 H6P         0.2125
@<TRIPOS>BOND
     1    1    2 ar 
     2    1    3 ar 
     3    1    4 1  
     4   12    1 1  
     5    4    5 1  
     6    5    6 ar 
     7    5    7 ar 
     8    5    8 ar 
     9   13    9 1  
    10   11   10 1  
    11   10   13 2  
    12   11   12 1  
    13   13   14 1  
    14   14   15 1  
    15    9   16 1  
    16    9   17 1  
    17    9   18 1  
    18   10   19 1  
    19   11   20 1  
    20   11   21 1  
    21   14   22 1  
    22   14   23 1  
    23   15   24 1  
@<TRIPOS>SUBSTRUCTURE
     1 H6P         1

