4avi_ligand
  -I-interpret- 

 54 54  0  0  0  0  0  0  0  0999 V2000
   20.7770  -68.2680   20.7670 C   0  0  0  0  0
   20.9030  -68.1540   18.3350 O   0  0  0  0  0
   21.1560  -68.7920   19.3580 C   0  0  0  0  0
   21.8150  -69.9930   19.3540 O   0  0  0  0  0
   22.1470  -70.3980   18.0200 C   0  0  0  0  0
   20.7560  -66.7280   20.8820 C   0  0  0  0  0
   20.4520  -66.3860   22.3530 C   0  0  0  0  0
   19.0810  -66.8750   22.8370 C   0  0  0  0  0
   17.9060  -66.1570   22.1360 C   0  0  0  0  0
   16.6020  -66.7540   22.6960 C   0  0  0  0  0
   15.3200  -66.0500   22.2220 C   0  0  0  0  0
   15.2810  -64.5750   22.7270 C   0  0  0  0  0
   14.0620  -63.9800   22.2660 O   0  0  0  0  0
   13.6980  -62.5980   22.5930 C   0  0  0  0  0
   12.3790  -62.3170   21.9050 C   0  0  0  0  0
   11.9260  -60.9990   22.1630 O   0  0  0  0  0
   12.5790  -62.3810   20.3950 C   0  0  0  0  0
   11.3510  -62.0510   19.7200 O   0  0  0  0  0
   13.6060  -61.3150   20.0550 C   0  0  0  0  0
   13.8670  -61.4120   18.6490 O   0  0  0  0  0
   14.8920  -61.5750   20.7660 C   0  0  0  0  0
   14.6700  -61.5640   22.1900 O   0  0  0  0  0
   15.9290  -60.5270   20.3690 C   0  0  0  0  0
   15.4860  -59.2320   20.7580 O   0  0  0  0  0
   21.5338  -68.6331   21.4613 H   0  0  0  0  0
   19.7686  -68.6214   20.9822 H   0  0  0  0  0
   21.2332  -70.5003   17.4347 H   0  0  0  0  0
   22.7905  -69.6462   17.5630 H   0  0  0  0  0
   22.6689  -71.3544   18.0513 H   0  0  0  0  0
   19.9972  -66.3040   20.2243 H   0  0  0  0  0
   21.7151  -66.3071   20.5800 H   0  0  0  0  0
   20.4568  -65.2995   22.4399 H   0  0  0  0  0
   21.2063  -66.8831   22.9630 H   0  0  0  0  0
   19.0103  -66.6659   23.9044 H   0  0  0  0  0
   19.0064  -67.9381   22.6080 H   0  0  0  0  0
   17.9595  -66.3007   21.0568 H   0  0  0  0  0
   17.9468  -65.0841   22.3242 H   0  0  0  0  0
   16.6423  -66.6454   23.7798 H   0  0  0  0  0
   16.5474  -67.7844   22.3447 H   0  0  0  0  0
   14.4574  -66.5822   22.6228 H   0  0  0  0  0
   15.3010  -66.0496   21.1322 H   0  0  0  0  0
   16.1382  -64.0228   22.3419 H   0  0  0  0  0
   15.3240  -64.5490   23.8158 H   0  0  0  0  0
   13.6569  -62.5338   23.6803 H   0  0  0  0  0
   11.6644  -63.0520   22.2755 H   0  0  0  0  0
   11.0902  -60.8553   21.7131 H   0  0  0  0  0
   12.8948  -63.3786   20.0898 H   0  0  0  0  0
   11.4874  -62.0941   18.7707 H   0  0  0  0  0
   13.2247  -60.3362   20.3460 H   0  0  0  0  0
   14.5150  -60.7494   18.3985 H   0  0  0  0  0
   15.2724  -62.5561   20.4817 H   0  0  0  0  0
   16.0656  -60.5494   19.2878 H   0  0  0  0  0
   16.8720  -60.7485   20.8688 H   0  0  0  0  0
   16.1439  -58.5804   20.5045 H   0  0  0  0  0
  1  3  1  0  0  0
  1  6  1  0  0  0
  3  2  2  0  0  0
  3  4  1  0  0  0
  4  5  1  0  0  0
  6  7  1  0  0  0
  7  8  1  0  0  0
  8  9  1  0  0  0
  9 10  1  0  0  0
 10 11  1  0  0  0
 11 12  1  0  0  0
 12 13  1  0  0  0
 13 14  1  0  0  0
 14 15  1  0  0  0
 14 22  1  0  0  0
 15 16  1  0  0  0
 15 17  1  0  0  0
 17 18  1  0  0  0
 17 19  1  0  0  0
 19 20  1  0  0  0
 19 21  1  0  0  0
 21 22  1  0  0  0
 21 23  1  0  0  0
 23 24  1  0  0  0
  1 25  1  0  0  0
  1 26  1  0  0  0
  5 27  1  0  0  0
  5 28  1  0  0  0
  5 29  1  0  0  0
  6 30  1  0  0  0
  6 31  1  0  0  0
  7 32  1  0  0  0
  7 33  1  0  0  0
  8 34  1  0  0  0
  8 35  1  0  0  0
  9 36  1  0  0  0
  9 37  1  0  0  0
 10 38  1  0  0  0
 10 39  1  0  0  0
 11 40  1  0  0  0
 11 41  1  0  0  0
 12 42  1  0  0  0
 12 43  1  0  0  0
 14 44  1  0  0  0
 15 45  1  0  0  0
 16 46  1  0  0  0
 17 47  1  0  0  0
 18 48  1  0  0  0
 19 49  1  0  0  0
 20 50  1  0  0  0
 21 51  1  0  0  0
 23 52  1  0  0  0
 23 53  1  0  0  0
 24 54  1  0  0  0
M  END
$$$$
