5o7n_ligand
  -I-interpret- 

 42 43  0  0  0  0  0  0  0  0999 V2000
   72.7340   10.3730   58.1420 C   0  0  0  0  0
   75.0860    3.3460   59.1220 C   0  0  0  0  0
   75.7460    4.5190   59.7870 C   0  0  0  0  0
   75.4940    5.8830   59.1900 C   0  0  0  0  0
   73.5720    5.0110   57.9060 C   0  0  0  0  0
   73.6600    3.7100   58.7100 C   0  0  0  0  0
   74.2150    4.8210   56.5320 C   0  0  0  0  0
   72.6020   10.3250   59.5200 C   0  0  0  0  0
   73.4900    9.3960   60.3430 C   0  0  0  0  0
   74.4450    8.6120   59.4340 C   0  0  0  0  0
   75.3960    9.4480   58.5460 C   0  0  0  0  0
   73.7290    7.5020   58.7460 C   0  0  0  0  0
   71.6590   11.1190   60.1520 C   0  0  0  0  0
   70.8510   11.9630   59.4070 C   0  0  0  0  0
   70.9850   12.0100   58.0300 C   0  0  0  0  0
   71.9260   11.2160   57.3970 C   0  0  0  0  0
   74.2400    6.1470   58.6100 N   0  0  0  0  0
   72.7280    7.8190   58.2840 O   0  0  0  0  0
   74.6890    3.7000   56.2080 O   0  0  0  0  0
   74.2710    5.7850   55.7240 O   0  0  0  0  0
   75.0650    9.2190   56.7720 S   0  0  0  0  0
   73.4742    9.7470   57.6436 H   0  0  0  0  0
   75.0542    2.5099   59.8206 H   0  0  0  0  0
   75.6556    3.0708   58.2344 H   0  0  0  0  0
   76.8183    4.3481   59.6920 H   0  0  0  0  0
   75.3348    4.5571   60.7957 H   0  0  0  0  0
   76.2081    5.9694   58.3710 H   0  0  0  0  0
   75.5697    6.5765   60.0275 H   0  0  0  0  0
   72.5154    5.2545   57.7949 H   0  0  0  0  0
   73.0796    3.8478   59.6223 H   0  0  0  0  0
   73.2860    2.9061   58.0760 H   0  0  0  0  0
   72.8577    8.6902   60.8816 H   0  0  0  0  0
   74.0780    9.9953   61.0381 H   0  0  0  0  0
   75.1769    8.1529   60.0986 H   0  0  0  0  0
   76.4171    9.1219   58.7441 H   0  0  0  0  0
   75.2435   10.5005   58.7851 H   0  0  0  0  0
   71.5525   11.0798   61.2361 H   0  0  0  0  0
   70.1106   12.5893   59.9048 H   0  0  0  0  0
   70.3489   12.6729   57.4435 H   0  0  0  0  0
   72.0310   11.2542   56.3127 H   0  0  0  0  0
   74.5660    3.0807   56.9311 H   0  0  0  0  0
   75.9124    9.9614   56.0651 H   0  0  0  0  0
  8  1  4  0  0  0
  1 16  4  0  0  0
  3  2  1  0  0  0
  6  2  1  0  0  0
  4  3  1  0  0  0
 17  4  1  0  0  0
  5  6  1  0  0  0
  5  7  1  0  0  0
 17  5  1  0  0  0
  7 19  1  0  0  0
  7 20  2  0  0  0
  9  8  1  0  0  0
  8 13  4  0  0  0
 10  9  1  0  0  0
 10 11  1  0  0  0
 12 10  1  0  0  0
 11 21  1  0  0  0
 12 17  1  0  0  0
 12 18  2  0  0  0
 13 14  4  0  0  0
 14 15  4  0  0  0
 15 16  4  0  0  0
  1 22  1  0  0  0
  2 23  1  0  0  0
  2 24  1  0  0  0
  3 25  1  0  0  0
  3 26  1  0  0  0
  4 27  1  0  0  0
  4 28  1  0  0  0
  5 29  1  0  0  0
  6 30  1  0  0  0
  6 31  1  0  0  0
  9 32  1  0  0  0
  9 33  1  0  0  0
 10 34  1  0  0  0
 11 35  1  0  0  0
 11 36  1  0  0  0
 13 37  1  0  0  0
 14 38  1  0  0  0
 15 39  1  0  0  0
 16 40  1  0  0  0
 19 41  1  0  0  0
 21 42  1  0  0  0
M  END
$$$$
