### 
### Created by X-TOOL on Sun Sep  9 21:51:17 2018
### 

@<TRIPOS>MOLECULE
2xaj_ligand
  104   110     1     0     0
SMALL
GAST_HUCK


@<TRIPOS>ATOM
      1 PA         -6.5830   67.9600   88.7690 P.3       1 NON         0.2972
      2 O1A        -5.6420   68.4610   87.6910 O.co2     1 NON        -0.6127
      3 O2A        -7.8880   67.2330   88.4410 O.co2     1 NON        -0.6127
      4 O5B        -7.0320   69.2620   89.6110 O.3       1 NON        -0.2476
      5 C5B        -6.1320   70.3600   89.7770 C.3       1 NON         0.1128
      6 C4B        -6.8620   71.6910   89.6660 C.3       1 NON         0.1189
      7 O4B        -5.9200   72.7190   89.9400 O.3       1 NON        -0.3364
      8 C3B        -7.3750   71.9390   88.2620 C.3       1 NON         0.1149
      9 O3B        -8.7570   72.3350   88.3320 O.3       1 NON        -0.3864
     10 C2B        -6.4640   73.0360   87.7360 C.3       1 NON         0.1385
     11 O2B        -7.0690   73.9190   86.8030 O.3       1 NON        -0.3836
     12 C1B        -6.1190   73.7640   89.0030 C.3       1 NON         0.2010
     13 N9A        -4.9060   74.5980   88.8790 N.pl3     1 NON        -0.1919
     14 C8A        -3.7400   74.3110   88.2660 C.2       1 NON         0.1123
     15 N7A        -2.9000   75.3670   88.4250 N.2       1 NON        -0.2958
     16 C5A        -3.5580   76.3050   89.1460 C.ar      1 NON         0.1045
     17 C6A        -3.1910   77.5660   89.5930 C.ar      1 NON         0.1298
     18 N6A        -1.9620   78.0380   89.2960 N.pl3     1 NON        -0.3152
     19 N1A        -4.0600   78.3130   90.3140 N.ar      1 NON        -0.2698
     20 C2A        -5.4230   77.8440   90.6590 C.ar      1 NON         0.0533
     21 N3A        -5.7430   76.5150   90.1460 N.ar      1 NON        -0.2714
     22 C4A        -4.8280   75.8080   89.4340 C.ar      1 NON         0.1613
     23 N1         -8.1210   58.3150   85.7980 N.am      1 NON        -0.1876
     24 C2         -9.1360   57.4250   85.9370 C.2       1 NON         0.3205
     25 O2         -9.5730   57.0240   87.1540 O.2       1 NON        -0.3858
     26 N3         -9.7610   56.9040   84.8710 N.am      1 NON        -0.1895
     27 C4         -9.4490   57.2480   83.6120 C.2       1 NON         0.2052
     28 O4        -10.0760   56.7010   82.5330 O.2       1 NON        -0.4203
     29 C4X        -8.2910   58.1060   83.3910 C.2       1 NON         0.1690
     30 N5         -8.2340   58.7150   82.0660 N.am      1 NON        -0.2102
     31 C5X        -7.4430   59.8860   82.0110 C.ar      1 NON         0.0887
     32 C6         -7.4850   60.5850   80.8060 C.ar      1 NON        -0.0542
     33 C7         -6.7860   61.7760   80.6420 C.ar      1 NON        -0.0716
     34 C7M        -6.8220   62.5260   79.3300 C.3       1 NON        -0.0431
     35 C8         -6.0370   62.2760   81.6860 C.ar      1 NON        -0.0715
     36 C8M        -5.2870   63.5600   81.4510 C.3       1 NON        -0.0442
     37 C9         -6.0020   61.5850   82.9080 C.ar      1 NON        -0.0569
     38 C9A        -6.7220   60.3900   83.1080 C.ar      1 NON         0.0781
     39 N10        -6.6370   59.6650   84.3570 N.pl3     1 NON        -0.2414
     40 C10        -7.7200   58.7590   84.5770 C.2       1 NON         0.1971
     41 C1'        -6.1190   60.4250   85.5460 C.3       1 NON         0.0727
     42 C2'        -7.0880   61.3020   86.3360 C.3       1 NON         0.1065
     43 O2'        -7.7760   62.0730   85.3740 O.3       1 NON        -0.3868
     44 C3'        -6.3720   62.2550   87.2870 C.3       1 NON         0.1115
     45 O3'        -5.6150   61.4530   88.1650 O.3       1 NON        -0.3865
     46 C4'        -7.2770   63.0920   88.1860 C.3       1 NON         0.1118
     47 O4'        -8.3940   63.5990   87.4450 O.3       1 NON        -0.3865
     48 C5'        -6.4930   64.2520   88.8370 C.3       1 NON         0.1124
     49 O5'        -7.2310   65.0260   89.8220 O.3       1 NON        -0.2477
     50 P          -6.4100   65.9880   90.8310 P.3       1 NON         0.2972
     51 O1P        -5.2180   65.3170   91.4770 O.co2     1 NON        -0.6127
     52 O2P        -7.4950   66.5100   91.7350 O.co2     1 NON        -0.6127
     53 O3P        -5.7560   67.1320   89.8850 O.3       1 NON        -0.1319
     54 C1         -7.9270   57.6260   81.0860 C.2       1 NON         0.2083
     55 O          -8.6050   57.5330   80.0360 O.2       1 NON        -0.3866
     56 C2         -6.8790   56.5380   81.2960 C.3       1 NON         0.0532
     57 C3         -5.9220   56.7570   82.4500 C.3       1 NON        -0.0019
     58 C31        -6.0350   55.6100   83.4350 C.ar      1 NON        -0.0408
     59 C32        -4.8910   55.2090   84.1540 C.ar      1 NON        -0.0602
     60 C33        -4.9570   54.1610   85.0810 C.ar      1 NON        -0.0686
     61 C34        -6.1910   53.5170   85.2710 C.ar      1 NON        -0.0687
     62 C35        -7.3410   53.9040   84.5620 C.ar      1 NON        -0.0686
     63 C36        -7.2600   54.9510   83.6410 C.ar      1 NON        -0.0602
     64 H1         -5.3570   70.3097   88.9980 H         1 NON         0.0648
     65 H2         -5.6605   70.2909   90.7684 H         1 NON         0.0648
     66 H3         -7.6959   71.7206   90.3827 H         1 NON         0.0651
     67 H4         -7.2859   71.0363   87.6397 H         1 NON         0.0648
     68 H5         -8.8317   73.1302   88.8464 H         1 NON         0.2100
     69 H6         -5.5680   72.5980   87.2721 H         1 NON         0.0676
     70 H7         -7.8097   74.3511   87.2120 H         1 NON         0.2101
     71 H8         -6.9576   74.4055   89.3114 H         1 NON         0.0996
     72 H9         -3.5104   73.3891   87.7337 H         1 NON         0.1349
     73 H10        -1.6767   78.9726   89.6216 H         1 NON         0.1820
     74 H11        -1.3093   77.4636   88.7437 H         1 NON         0.1820
     75 H12        -6.1207   78.4354   91.2408 H         1 NON         0.0996
     76 H13        -7.6554   58.6534   86.6157 H         1 NON         0.2370
     77 H14       -10.4876   56.2333   85.0201 H         1 NON         0.2245
     78 H15        -8.0722   60.1939   79.9830 H         1 NON         0.0366
     79 H16        -7.4632   61.9870   78.6170 H         1 NON         0.0352
     80 H17        -5.8031   62.6011   78.9225 H         1 NON         0.0352
     81 H18        -7.2260   63.5356   79.4957 H         1 NON         0.0352
     82 H19        -4.7381   63.8363   82.3634 H         1 NON         0.0345
     83 H20        -5.9987   64.3588   81.1952 H         1 NON         0.0345
     84 H21        -4.5761   63.4231   80.6228 H         1 NON         0.0345
     85 H22        -5.4043   61.9820   83.7205 H         1 NON         0.0390
     86 H23        -5.3114   61.0789   85.1853 H         1 NON         0.0584
     87 H24        -5.7062   59.6855   86.2479 H         1 NON         0.0584
     88 H25        -7.7866   60.6715   86.9056 H         1 NON         0.0643
     89 H26        -8.3977   62.6424   85.8119 H         1 NON         0.2100
     90 H27        -5.7231   62.9238   86.7025 H         1 NON         0.0647
     91 H28        -6.1959   60.8712   88.6410 H         1 NON         0.2100
     92 H29        -7.6597   62.4430   88.9875 H         1 NON         0.0647
     93 H30        -8.8952   62.8727   87.0933 H         1 NON         0.2100
     94 H31        -6.1729   64.9365   88.0376 H         1 NON         0.0647
     95 H32        -5.6075   63.8275   89.3327 H         1 NON         0.0647
     96 H33        -6.2837   56.4606   80.3742 H         1 NON         0.0528
     97 H34        -7.4078   55.5896   81.4717 H         1 NON         0.0528
     98 H35        -6.1717   57.7003   82.9577 H         1 NON         0.0450
     99 H36        -4.8925   56.8086   82.0660 H         1 NON         0.0450
    100 H37        -3.9485   55.7179   83.9875 H         1 NON         0.0557
    101 H38        -4.0786   53.8548   85.6374 H         1 NON         0.0599
    102 H39        -6.2578   52.7015   85.9820 H         1 NON         0.0559
    103 H40        -8.2831   53.3942   84.7285 H         1 NON         0.0599
    104 H41        -8.1401   55.2550   83.0859 H         1 NON         0.0557
@<TRIPOS>BOND
     1    1    2 ar 
     2    1    3 ar 
     3    1    4 1  
     4   53    1 1  
     5    4    5 1  
     6    5    6 1  
     7    6    7 1  
     8    6    8 1  
     9    7   12 1  
    10    8    9 1  
    11    8   10 1  
    12   10   11 1  
    13   10   12 1  
    14   12   13 1  
    15   13   14 1  
    16   13   22 1  
    17   14   15 2  
    18   16   15 1  
    19   16   17 ar 
    20   22   16 ar 
    21   17   18 1  
    22   17   19 ar 
    23   20   19 ar 
    24   21   20 ar 
    25   22   21 ar 
    26   23   24 am 
    27   40   23 am 
    28   24   25 2  
    29   24   26 am 
    30   27   26 am 
    31   27   28 2  
    32   29   27 1  
    33   29   30 am 
    34   40   29 2  
    35   31   30 1  
    36   30   54 am 
    37   31   32 ar 
    38   38   31 ar 
    39   32   33 ar 
    40   33   34 1  
    41   35   33 ar 
    42   35   36 1  
    43   37   35 ar 
    44   38   37 ar 
    45   39   38 1  
    46   39   40 1  
    47   41   39 1  
    48   42   41 1  
    49   42   43 1  
    50   44   42 1  
    51   44   45 1  
    52   46   44 1  
    53   46   47 1  
    54   48   46 1  
    55   49   48 1  
    56   50   49 1  
    57   50   51 ar 
    58   50   52 ar 
    59   50   53 1  
    60   54   55 2  
    61   54   56 1  
    62   56   57 1  
    63   57   58 1  
    64   58   59 ar 
    65   58   63 ar 
    66   59   60 ar 
    67   60   61 ar 
    68   61   62 ar 
    69   62   63 ar 
    70    5   64 1  
    71    5   65 1  
    72    6   66 1  
    73    8   67 1  
    74    9   68 1  
    75   10   69 1  
    76   11   70 1  
    77   12   71 1  
    78   14   72 1  
    79   18   73 1  
    80   18   74 1  
    81   20   75 1  
    82   23   76 1  
    83   26   77 1  
    84   32   78 1  
    85   34   79 1  
    86   34   80 1  
    87   34   81 1  
    88   36   82 1  
    89   36   83 1  
    90   36   84 1  
    91   37   85 1  
    92   41   86 1  
    93   41   87 1  
    94   42   88 1  
    95   43   89 1  
    96   44   90 1  
    97   45   91 1  
    98   46   92 1  
    99   47   93 1  
   100   48   94 1  
   101   48   95 1  
   102   56   96 1  
   103   56   97 1  
   104   57   98 1  
   105   57   99 1  
   106   59  100 1  
   107   60  101 1  
   108   61  102 1  
   109   62  103 1  
   110   63  104 1  
@<TRIPOS>SUBSTRUCTURE
     1 NON         1

