2xaj_ligand
  -I-interpret- 

106112  0  0  0  0  0  0  0  0999 V2000
   -6.5830   67.9600   88.7690 P   0  0  0  0  0
   -5.6420   68.4610   87.6910 O   0  0  0  0  0
   -7.8880   67.2330   88.4410 O   0  0  0  0  0
   -7.0320   69.2620   89.6110 O   0  0  0  0  0
   -6.1320   70.3600   89.7770 C   0  0  0  0  0
   -6.8620   71.6910   89.6660 C   0  0  0  0  0
   -5.9200   72.7190   89.9400 O   0  0  0  0  0
   -7.3750   71.9390   88.2620 C   0  0  0  0  0
   -8.7570   72.3350   88.3320 O   0  0  0  0  0
   -6.4640   73.0360   87.7360 C   0  0  0  0  0
   -7.0690   73.9190   86.8030 O   0  0  0  0  0
   -6.1190   73.7640   89.0030 C   0  0  0  0  0
   -4.9060   74.5980   88.8790 N   0  0  0  0  0
   -3.7400   74.3110   88.2660 C   0  0  0  0  0
   -2.9000   75.3670   88.4250 N   0  0  0  0  0
   -3.5580   76.3050   89.1460 C   0  0  0  0  0
   -3.1910   77.5660   89.5930 C   0  0  0  0  0
   -1.9620   78.0380   89.2960 N   0  0  0  0  0
   -4.0600   78.3130   90.3140 N   0  0  0  0  0
   -5.4230   77.8440   90.6590 C   0  0  0  0  0
   -5.7430   76.5150   90.1460 N   0  0  0  0  0
   -4.8280   75.8080   89.4340 C   0  0  0  0  0
   -8.1210   58.3150   85.7980 N   0  0  0  0  0
   -9.1360   57.4250   85.9370 C   0  0  0  0  0
   -9.5730   57.0240   87.1540 O   0  0  0  0  0
   -9.7610   56.9040   84.8710 N   0  0  0  0  0
   -9.4490   57.2480   83.6120 C   0  0  0  0  0
  -10.0760   56.7010   82.5330 O   0  0  0  0  0
   -8.2910   58.1060   83.3910 C   0  0  0  0  0
   -8.2340   58.7150   82.0660 N   0  0  0  0  0
   -7.4430   59.8860   82.0110 C   0  0  0  0  0
   -7.4850   60.5850   80.8060 C   0  0  0  0  0
   -6.7860   61.7760   80.6420 C   0  0  0  0  0
   -6.8220   62.5260   79.3300 C   0  0  0  0  0
   -6.0370   62.2760   81.6860 C   0  0  0  0  0
   -5.2870   63.5600   81.4510 C   0  0  0  0  0
   -6.0020   61.5850   82.9080 C   0  0  0  0  0
   -6.7220   60.3900   83.1080 C   0  0  0  0  0
   -6.6370   59.6650   84.3570 N   0  0  0  0  0
   -7.7200   58.7590   84.5770 C   0  0  0  0  0
   -6.1190   60.4250   85.5460 C   0  0  0  0  0
   -7.0880   61.3020   86.3360 C   0  0  0  0  0
   -7.7760   62.0730   85.3740 O   0  0  0  0  0
   -6.3720   62.2550   87.2870 C   0  0  0  0  0
   -5.6150   61.4530   88.1650 O   0  0  0  0  0
   -7.2770   63.0920   88.1860 C   0  0  0  0  0
   -8.3940   63.5990   87.4450 O   0  0  0  0  0
   -6.4930   64.2520   88.8370 C   0  0  0  0  0
   -7.2310   65.0260   89.8220 O   0  0  0  0  0
   -6.4100   65.9880   90.8310 P   0  0  0  0  0
   -5.2180   65.3170   91.4770 O   0  0  0  0  0
   -7.4950   66.5100   91.7350 O   0  0  0  0  0
   -5.7560   67.1320   89.8850 O   0  0  0  0  0
   -7.9270   57.6260   81.0860 C   0  0  0  0  0
   -8.6050   57.5330   80.0360 O   0  0  0  0  0
   -6.8790   56.5380   81.2960 C   0  0  0  0  0
   -5.9220   56.7570   82.4500 C   0  0  0  0  0
   -6.0350   55.6100   83.4350 C   0  0  0  0  0
   -4.8910   55.2090   84.1540 C   0  0  0  0  0
   -4.9570   54.1610   85.0810 C   0  0  0  0  0
   -6.1910   53.5170   85.2710 C   0  0  0  0  0
   -7.3410   53.9040   84.5620 C   0  0  0  0  0
   -7.2600   54.9510   83.6410 C   0  0  0  0  0
   -8.3367   66.9995   89.2569 H   0  0  0  0  0
   -5.3755   70.3115   88.9938 H   0  0  0  0  0
   -5.6794   70.2926   90.7663 H   0  0  0  0  0
   -7.7040   71.6777   90.3581 H   0  0  0  0  0
   -7.3518   71.0693   87.6053 H   0  0  0  0  0
   -9.2812   71.6050   88.6696 H   0  0  0  0  0
   -5.6237   72.6295   87.1732 H   0  0  0  0  0
   -6.4276   74.5765   86.5241 H   0  0  0  0  0
   -6.9015   74.4671   89.2883 H   0  0  0  0  0
   -3.5102   73.3883   87.7332 H   0  0  0  0  0
   -1.3157   77.4692   88.7491 H   0  0  0  0  0
   -1.6795   78.9635   89.6185 H   0  0  0  0  0
   -6.1245   78.4387   91.2440 H   0  0  0  0  0
   -7.6461   58.6602   86.6321 H   0  0  0  0  0
  -10.5021   56.2199   85.0230 H   0  0  0  0  0
   -8.0755   60.1917   79.9785 H   0  0  0  0  0
   -6.4280   61.8891   78.5380 H   0  0  0  0  0
   -7.8509   62.8014   79.0985 H   0  0  0  0  0
   -6.2129   63.4263   79.4108 H   0  0  0  0  0
   -4.5831   63.4231   80.6301 H   0  0  0  0  0
   -5.9932   64.3506   81.1976 H   0  0  0  0  0
   -4.7436   63.8327   82.3557 H   0  0  0  0  0
   -5.4010   61.9842   83.7250 H   0  0  0  0  0
   -5.3793   61.1151   85.1403 H   0  0  0  0  0
   -5.7915   59.6600   86.2500 H   0  0  0  0  0
   -7.7387   60.6723   86.9427 H   0  0  0  0  0
   -8.4043   62.6484   85.8165 H   0  0  0  0  0
   -5.8098   62.9450   86.6578 H   0  0  0  0  0
   -5.1448   62.0152   88.7851 H   0  0  0  0  0
   -7.6502   62.4461   88.9807 H   0  0  0  0  0
   -8.9511   64.1221   88.0260 H   0  0  0  0  0
   -6.2295   64.9399   88.0336 H   0  0  0  0  0
   -5.6497   63.8027   89.3616 H   0  0  0  0  0
   -4.6046   65.0320   90.7958 H   0  0  0  0  0
   -6.2708   56.5182   80.3917 H   0  0  0  0  0
   -7.4267   55.6227   81.5202 H   0  0  0  0  0
   -6.1721   57.6907   82.9536 H   0  0  0  0  0
   -4.9021   56.8054   82.0684 H   0  0  0  0  0
   -3.9432   55.7207   83.9866 H   0  0  0  0  0
   -4.0737   53.8531   85.6405 H   0  0  0  0  0
   -6.2581   52.6970   85.9859 H   0  0  0  0  0
   -8.2883   53.3914   84.7294 H   0  0  0  0  0
   -8.1449   55.2567   83.0829 H   0  0  0  0  0
  1  2  2  0  0  0
  1  3  1  0  0  0
  1  4  1  0  0  0
 53  1  1  0  0  0
  4  5  1  0  0  0
  5  6  1  0  0  0
  6  7  1  0  0  0
  6  8  1  0  0  0
  7 12  1  0  0  0
  8  9  1  0  0  0
  8 10  1  0  0  0
 10 11  1  0  0  0
 10 12  1  0  0  0
 12 13  1  0  0  0
 13 14  4  0  0  0
 13 22  4  0  0  0
 14 15  4  0  0  0
 16 15  4  0  0  0
 16 17  4  0  0  0
 22 16  4  0  0  0
 17 18  1  0  0  0
 17 19  4  0  0  0
 20 19  4  0  0  0
 21 20  4  0  0  0
 22 21  4  0  0  0
 23 24  1  0  0  0
 40 23  1  0  0  0
 24 25  2  0  0  0
 24 26  1  0  0  0
 27 26  1  0  0  0
 27 28  2  0  0  0
 29 27  1  0  0  0
 29 30  1  0  0  0
 40 29  2  0  0  0
 31 30  1  0  0  0
 30 54  1  0  0  0
 31 32  4  0  0  0
 38 31  4  0  0  0
 32 33  4  0  0  0
 33 34  1  0  0  0
 35 33  4  0  0  0
 35 36  1  0  0  0
 37 35  4  0  0  0
 38 37  4  0  0  0
 39 38  1  0  0  0
 39 40  1  0  0  0
 41 39  1  0  0  0
 42 41  1  0  0  0
 42 43  1  0  0  0
 44 42  1  0  0  0
 44 45  1  0  0  0
 46 44  1  0  0  0
 46 47  1  0  0  0
 48 46  1  0  0  0
 49 48  1  0  0  0
 50 49  1  0  0  0
 50 51  1  0  0  0
 50 52  2  0  0  0
 50 53  1  0  0  0
 54 55  2  0  0  0
 54 56  1  0  0  0
 56 57  1  0  0  0
 57 58  1  0  0  0
 58 59  4  0  0  0
 58 63  4  0  0  0
 59 60  4  0  0  0
 60 61  4  0  0  0
 61 62  4  0  0  0
 62 63  4  0  0  0
  3 64  1  0  0  0
  5 65  1  0  0  0
  5 66  1  0  0  0
  6 67  1  0  0  0
  8 68  1  0  0  0
  9 69  1  0  0  0
 10 70  1  0  0  0
 11 71  1  0  0  0
 12 72  1  0  0  0
 14 73  1  0  0  0
 18 74  1  0  0  0
 18 75  1  0  0  0
 20 76  1  0  0  0
 23 77  1  0  0  0
 26 78  1  0  0  0
 32 79  1  0  0  0
 34 80  1  0  0  0
 34 81  1  0  0  0
 34 82  1  0  0  0
 36 83  1  0  0  0
 36 84  1  0  0  0
 36 85  1  0  0  0
 37 86  1  0  0  0
 41 87  1  0  0  0
 41 88  1  0  0  0
 42 89  1  0  0  0
 43 90  1  0  0  0
 44 91  1  0  0  0
 45 92  1  0  0  0
 46 93  1  0  0  0
 47 94  1  0  0  0
 48 95  1  0  0  0
 48 96  1  0  0  0
 51 97  1  0  0  0
 56 98  1  0  0  0
 56 99  1  0  0  0
 57100  1  0  0  0
 57101  1  0  0  0
 59102  1  0  0  0
 60103  1  0  0  0
 61104  1  0  0  0
 62105  1  0  0  0
 63106  1  0  0  0
M  END
$$$$
