5f3z_ligand
  -I-interpret- 

 29 30  0  0  0  0  0  0  0  0999 V2000
   17.4550   64.3760   12.4090 C   0  0  0  0  0
   17.6750   62.9990   11.7980 C   0  0  0  0  0
   17.6080   61.8490   12.5960 C   0  0  0  0  0
   18.1870   59.1930   10.1070 O   0  0  0  0  0
   19.8060   64.5650   12.6430 O   0  0  0  0  0
   19.1160   60.8520    6.0540 C   0  0  0  0  0
   17.9480   62.9060   10.4410 C   0  0  0  0  0
   18.6680   66.4140   12.3730 O   0  0  0  0  0
   18.7320   65.1730   12.4730 C   0  0  0  0  0
   17.7710   60.5760   12.0570 C   0  0  0  0  0
   18.0510   60.4340   10.6850 C   0  0  0  0  0
   18.0380   57.9890   10.8630 C   0  0  0  0  0
   18.1310   61.6630    9.8430 C   0  0  0  0  0
   18.3500   61.6320    8.3710 C   0  0  0  0  0
   17.9110   62.4540    7.3430 C   0  0  0  0  0
   18.3600   62.0170    6.0880 C   0  0  0  0  0
   19.2830   60.3430    7.7010 S   0  0  0  0  0
   17.0836   64.2436   13.4252 H   0  0  0  0  0
   16.7451   64.9177   11.7840 H   0  0  0  0  0
   17.4237   61.9539   13.6652 H   0  0  0  0  0
   19.5215   60.3587    5.1706 H   0  0  0  0  0
   18.0196   63.8122    9.8396 H   0  0  0  0  0
   17.7533   66.6770   12.2472 H   0  0  0  0  0
   17.6824   59.6953   12.6930 H   0  0  0  0  0
   18.7779   57.9700   11.6631 H   0  0  0  0  0
   17.0365   57.9522   11.2916 H   0  0  0  0  0
   18.1864   57.1299   10.2087 H   0  0  0  0  0
   17.2895   63.3367    7.4932 H   0  0  0  0  0
   18.1255   62.5685    5.1775 H   0  0  0  0  0
  2  1  1  0  0  0
  1  9  1  0  0  0
  2  3  4  0  0  0
  7  2  4  0  0  0
 10  3  4  0  0  0
 11  4  1  0  0  0
  4 12  1  0  0  0
  9  5  2  0  0  0
  6 16  4  0  0  0
 17  6  4  0  0  0
 13  7  4  0  0  0
  9  8  1  0  0  0
 11 10  4  0  0  0
 13 11  4  0  0  0
 14 13  1  0  0  0
 14 15  4  0  0  0
 14 17  4  0  0  0
 15 16  4  0  0  0
  1 18  1  0  0  0
  1 19  1  0  0  0
  3 20  1  0  0  0
  6 21  1  0  0  0
  7 22  1  0  0  0
  8 23  1  0  0  0
 10 24  1  0  0  0
 12 25  1  0  0  0
 12 26  1  0  0  0
 12 27  1  0  0  0
 15 28  1  0  0  0
 16 29  1  0  0  0
M  END
$$$$
