4yml_ligand
  -I-interpret- 

 39 41  0  0  0  0  0  0  0  0999 V2000
  -25.0430    2.5000  -21.9420 C   0  0  0  0  0
  -23.1990    1.3020  -22.5890 C   0  0  0  0  0
  -22.4560    2.5220  -22.8970 C   0  0  0  0  0
  -23.1640    3.7810  -22.6240 C   0  0  0  0  0
  -26.7830   -0.5720  -28.4360 C   0  0  0  0  0
  -26.1860   -0.4270  -26.7880 S   0  0  0  0  0
  -25.7850   -1.9960  -26.0450 C   0  0  0  0  0
  -25.0160   -1.8100  -24.7370 C   0  0  0  0  0
  -23.6780   -1.1860  -25.0360 C   0  0  0  0  0
  -22.7440   -1.8670  -24.1420 N   0  3  0  0  0
  -22.6970   -1.2620  -22.7920 C   0  0  0  0  0
  -22.3300    0.1890  -22.9110 C   0  0  0  0  0
  -21.1460    0.7720  -23.3690 C   0  0  0  0  0
  -21.2290    2.1410  -23.3500 N   0  0  0  0  0
  -22.5820    4.9920  -22.8550 N   0  0  0  0  0
  -24.4410    3.6870  -22.1710 N   0  0  0  0  0
  -24.4720    1.3000  -22.1320 N   0  0  0  0  0
  -23.2080   -3.2620  -24.0670 C   0  0  0  0  0
  -24.7110   -3.1160  -23.9930 C   0  0  0  0  0
  -25.0900   -3.0580  -22.6030 O   0  0  0  0  0
  -26.0694    2.5176  -21.5755 H   0  0  0  0  0
  -26.0221   -1.0455  -29.0564 H   0  0  0  0  0
  -27.6877   -1.1799  -28.4412 H   0  0  0  0  0
  -27.0079    0.4198  -28.8282 H   0  0  0  0  0
  -25.1599   -2.5589  -26.7383 H   0  0  0  0  0
  -26.7131   -2.5256  -25.8299 H   0  0  0  0  0
  -25.6600   -1.1937  -24.1096 H   0  0  0  0  0
  -23.6858   -0.1084  -24.8722 H   0  0  0  0  0
  -23.3987   -1.3041  -26.0830 H   0  0  0  0  0
  -21.7933   -1.7919  -24.5039 H   0  0  0  0  0
  -21.9521   -1.7783  -22.1865 H   0  0  0  0  0
  -23.6737   -1.3535  -22.3169 H   0  0  0  0  0
  -20.2707    0.2122  -23.6984 H   0  0  0  0  0
  -21.6330    5.0393  -23.2260 H   0  0  0  0  0
  -23.0955    5.8507  -22.6568 H   0  0  0  0  0
  -22.7931   -3.8003  -23.2148 H   0  0  0  0  0
  -22.8829   -3.8619  -24.9170 H   0  0  0  0  0
  -25.2642   -3.9422  -24.4397 H   0  0  0  0  0
  -24.8809   -3.8942  -22.1803 H   0  0  0  0  0
  1 16  4  0  0  0
 17  1  4  0  0  0
  2  3  4  0  0  0
 12  2  4  0  0  0
  2 17  4  0  0  0
  3  4  4  0  0  0
  3 14  4  0  0  0
  4 15  1  0  0  0
  4 16  4  0  0  0
  6  5  1  0  0  0
  7  6  1  0  0  0
  8  7  1  0  0  0
  9  8  1  0  0  0
  8 19  1  0  0  0
 10  9  1  0  0  0
 11 10  1  0  0  0
 10 18  1  0  0  0
 11 12  1  0  0  0
 12 13  4  0  0  0
 13 14  4  0  0  0
 18 19  1  0  0  0
 19 20  1  0  0  0
  1 21  1  0  0  0
  5 22  1  0  0  0
  5 23  1  0  0  0
  5 24  1  0  0  0
  7 25  1  0  0  0
  7 26  1  0  0  0
  8 27  1  0  0  0
  9 28  1  0  0  0
  9 29  1  0  0  0
 10 30  1  0  0  0
 11 31  1  0  0  0
 11 32  1  0  0  0
 13 33  1  0  0  0
 15 34  1  0  0  0
 15 35  1  0  0  0
 18 36  1  0  0  0
 18 37  1  0  0  0
 19 38  1  0  0  0
 20 39  1  0  0  0
M  END
$$$$
