2ewp_ligand
  -I-interpret- 

 63 65  0  0  0  0  0  0  0  0999 V2000
   25.1870    3.2040   27.5250 O   0  0  0  0  0
   24.1260    2.5960   28.1510 C   0  0  0  0  0
   23.2560    3.2750   29.0030 C   0  0  0  0  0
   22.1930    2.5950   29.6160 C   0  0  0  0  0
   23.9270    1.2480   27.9280 C   0  0  0  0  0
   22.8770    0.5700   28.5290 C   0  0  0  0  0
   22.0110    1.2200   29.4030 C   0  0  0  0  0
   20.8550    0.4410   30.0040 C   0  0  0  0  0
   20.9520   -0.7150   30.7100 C   0  0  0  0  0
   19.7570   -1.4600   31.2430 C   0  0  0  0  0
   19.4050   -1.4360   32.5730 C   0  0  0  0  0
   18.3050   -2.1540   33.0290 C   0  0  0  0  0
   17.5490   -2.9090   32.1470 C   0  0  0  0  0
   17.9110   -2.9500   30.8080 C   0  0  0  0  0
   19.0080   -2.2310   30.3600 C   0  0  0  0  0
   22.2600   -1.4090   30.9980 C   0  0  0  0  0
   22.2880   -2.7960   30.3670 C   0  0  0  0  0
   23.6710   -3.4200   30.5150 C   0  0  0  0  0
   24.1060   -3.2970   31.8650 O   0  0  0  0  0
   19.5400    1.1000   29.7570 C   0  0  0  0  0
   18.7710    1.5010   30.8460 C   0  0  0  0  0
   17.5620    2.1470   30.6490 C   0  0  0  0  0
   19.1250    1.3980   28.4670 C   0  0  0  0  0
   17.9030    2.0450   28.2700 C   0  0  0  0  0
   17.1250    2.4380   29.3550 C   0  0  0  0  0
   15.9100    3.0620   29.1720 O   0  0  0  0  0
   15.6850    4.3120   28.5400 C   0  0  0  0  0
   14.6030    5.0320   29.3380 C   0  0  0  0  0
   13.6650    5.7190   28.4320 N   0  3  0  0  0
   12.8230    6.6760   29.1910 C   0  0  0  0  0
   12.8060    4.7430   27.7410 C   0  0  0  0  0
   25.6527    2.5588   26.9879 H   0  0  0  0  0
   23.4023    4.3382   29.1935 H   0  0  0  0  0
   21.5037    3.1385   30.2622 H   0  0  0  0  0
   24.6064    0.7078   27.2687 H   0  0  0  0  0
   22.7279   -0.4880   28.3135 H   0  0  0  0  0
   19.9946   -0.8480   33.2764 H   0  0  0  0  0
   18.0363   -2.1227   34.0849 H   0  0  0  0  0
   16.6802   -3.4642   32.5007 H   0  0  0  0  0
   17.3309   -3.5495   30.1064 H   0  0  0  0  0
   19.2862   -2.2700   29.3068 H   0  0  0  0  0
   22.3728   -1.5118   32.0773 H   0  0  0  0  0
   23.0723   -0.8157   30.5781 H   0  0  0  0  0
   22.0499   -2.7084   29.3069 H   0  0  0  0  0
   21.5573   -3.4294   30.8699 H   0  0  0  0  0
   24.3734   -2.9058   29.8590 H   0  0  0  0  0
   23.6244   -4.4746   30.2432 H   0  0  0  0  0
   24.9769   -3.6904   31.9565 H   0  0  0  0  0
   19.1224    1.3055   31.8591 H   0  0  0  0  0
   16.9501    2.4289   31.5059 H   0  0  0  0  0
   19.7479    1.1292   27.6139 H   0  0  0  0  0
   17.5552    2.2441   27.2564 H   0  0  0  0  0
   15.3688    4.1685   27.5068 H   0  0  0  0  0
   16.6017    4.9013   28.5173 H   0  0  0  0  0
   15.0737    5.7704   29.9871 H   0  0  0  0  0
   14.0527    4.3001   29.9293 H   0  0  0  0  0
   14.2091    6.2306   27.7373 H   0  0  0  0  0
   12.2554    6.1365   29.9492 H   0  0  0  0  0
   13.4612    7.4173   29.6720 H   0  0  0  0  0
   12.1360    7.1749   28.5075 H   0  0  0  0  0
   13.4271    4.0625   27.1585 H   0  0  0  0  0
   12.2364    4.1765   28.4777 H   0  0  0  0  0
   12.1208    5.2700   27.0770 H   0  0  0  0  0
  1  2  1  0  0  0
  2  3  4  0  0  0
  2  5  4  0  0  0
  3  4  4  0  0  0
  4  7  4  0  0  0
  5  6  4  0  0  0
  6  7  4  0  0  0
  7  8  1  0  0  0
  8  9  2  0  0  0
  8 20  1  0  0  0
  9 10  1  0  0  0
  9 16  1  0  0  0
 10 11  4  0  0  0
 10 15  4  0  0  0
 11 12  4  0  0  0
 12 13  4  0  0  0
 13 14  4  0  0  0
 14 15  4  0  0  0
 16 17  1  0  0  0
 17 18  1  0  0  0
 18 19  1  0  0  0
 20 21  4  0  0  0
 20 23  4  0  0  0
 21 22  4  0  0  0
 22 25  4  0  0  0
 23 24  4  0  0  0
 24 25  4  0  0  0
 25 26  1  0  0  0
 26 27  1  0  0  0
 27 28  1  0  0  0
 28 29  1  0  0  0
 29 30  1  0  0  0
 29 31  1  0  0  0
  1 32  1  0  0  0
  3 33  1  0  0  0
  4 34  1  0  0  0
  5 35  1  0  0  0
  6 36  1  0  0  0
 11 37  1  0  0  0
 12 38  1  0  0  0
 13 39  1  0  0  0
 14 40  1  0  0  0
 15 41  1  0  0  0
 16 42  1  0  0  0
 16 43  1  0  0  0
 17 44  1  0  0  0
 17 45  1  0  0  0
 18 46  1  0  0  0
 18 47  1  0  0  0
 19 48  1  0  0  0
 21 49  1  0  0  0
 22 50  1  0  0  0
 23 51  1  0  0  0
 24 52  1  0  0  0
 27 53  1  0  0  0
 27 54  1  0  0  0
 28 55  1  0  0  0
 28 56  1  0  0  0
 29 57  1  0  0  0
 30 58  1  0  0  0
 30 59  1  0  0  0
 30 60  1  0  0  0
 31 61  1  0  0  0
 31 62  1  0  0  0
 31 63  1  0  0  0
M  END
$$$$
