3fwv_ligand
  -I-interpret- 

 93 93  0  0  0  0  0  0  0  0999 V2000
  -18.9910    2.9300    0.2240 C   0  0  0  0  0
  -19.0760    1.9420    0.9450 O   0  0  0  0  0
  -17.8840    3.0750   -0.7760 C   0  0  0  0  0
  -20.0210    3.7590    0.1460 N   0  0  0  0  0
  -19.9710    5.0560   -0.5390 C   0  0  0  0  0
  -19.1620    6.0740    0.2420 C   0  0  0  0  0
  -18.9870    5.9810    1.4630 O   0  0  0  0  0
  -21.3860    5.6160   -0.7640 C   0  0  0  0  0
  -22.3430    4.6730   -1.5080 C   0  0  0  0  0
  -24.0190    5.3480   -1.6230 S   0  0  0  0  0
  -23.8410    6.5320   -2.9630 C   0  0  0  0  0
  -18.6680    7.0380   -0.5110 N   0  0  0  0  0
  -18.0170    8.2080    0.0460 C   0  0  0  0  0
  -18.9820    8.8930    1.0040 C   0  0  0  0  0
  -20.1740    9.0360    0.7190 O   0  0  0  0  0
  -17.6100    9.1760   -1.0740 C   0  0  0  0  0
  -16.5370    8.6280   -1.9930 C   0  0  0  0  0
  -15.2280    8.3840   -1.2760 C   0  0  0  0  0
  -14.5890    9.3600   -0.8490 O   0  0  0  0  0
  -14.8330    7.2090   -1.1460 O   0  0  0  0  0
  -18.4550    9.3290    2.1350 N   0  0  0  0  0
  -19.2710   10.0350    3.1290 C   0  0  0  0  0
  -19.6470   11.4170    2.6770 C   0  0  0  0  0
  -18.8270   12.1610    2.1350 O   0  0  0  0  0
  -18.5470   10.1790    4.4690 C   0  0  0  0  0
  -18.2110    8.8850    5.1330 C   0  0  0  0  0
  -17.6810    9.1100    6.5370 C   0  0  0  0  0
  -17.9860   10.1870    7.1140 O   0  0  0  0  0
  -16.9640    8.2150    7.0480 O   0  0  0  0  0
  -20.8900   11.7560    2.9670 N   0  0  0  0  0
  -21.3820   13.1190    2.8190 C   0  0  0  0  0
  -21.6230   13.7260    4.1990 C   0  0  0  0  0
  -21.9670   13.0360    5.1550 O   0  0  0  0  0
  -22.6610   13.1970    1.9680 C   0  0  0  0  0
  -22.3450   12.8300    0.5110 C   0  0  0  0  0
  -23.7710   12.3130    2.5580 C   0  0  0  0  0
  -21.4070   15.0310    4.2840 N   0  0  0  0  0
  -21.4550   15.7350    5.5590 C   0  0  0  0  0
  -22.5830   16.7600    5.5820 C   0  0  0  0  0
  -22.7720   17.4420    6.5950 O   0  0  0  0  0
  -20.0900   16.3880    5.8210 C   0  0  0  0  0
  -18.9340   15.4200    5.6890 C   0  0  0  0  0
  -18.6010   14.5640    6.7270 C   0  0  0  0  0
  -18.2040   15.3470    4.5160 C   0  0  0  0  0
  -17.5530   13.6670    6.5940 C   0  0  0  0  0
  -17.1570   14.4560    4.3840 C   0  0  0  0  0
  -16.8360   13.6170    5.4190 C   0  0  0  0  0
  -23.3250   16.9010    4.5950 O   0  0  0  0  0
  -16.9246    3.0599   -0.2588 H   0  0  0  0  0
  -17.9280    2.2500   -1.4870 H   0  0  0  0  0
  -17.9972    4.0202   -1.3069 H   0  0  0  0  0
  -20.8978    3.4805    0.5865 H   0  0  0  0  0
  -19.4872    4.8818   -1.5001 H   0  0  0  0  0
  -21.2782    6.5079   -1.3812 H   0  0  0  0  0
  -21.8172    5.7901    0.2218 H   0  0  0  0  0
  -22.3928    3.7354   -0.9544 H   0  0  0  0  0
  -21.9633    4.5350   -2.5204 H   0  0  0  0  0
  -23.0942    7.2777   -2.6904 H   0  0  0  0  0
  -23.5235    6.0113   -3.8664 H   0  0  0  0  0
  -24.7977    7.0226   -3.1421 H   0  0  0  0  0
  -18.7470    6.9572   -1.5247 H   0  0  0  0  0
  -17.1158    7.9064    0.5799 H   0  0  0  0  0
  -17.2073   10.0714   -0.6005 H   0  0  0  0  0
  -18.4956    9.3621   -1.6817 H   0  0  0  0  0
  -16.3584    9.3638   -2.7771 H   0  0  0  0  0
  -16.8872    7.6739   -2.3868 H   0  0  0  0  0
  -15.4711    6.6122   -1.5439 H   0  0  0  0  0
  -17.4643    9.1720    2.3198 H   0  0  0  0  0
  -20.1653    9.4231    3.2468 H   0  0  0  0  0
  -19.2188   10.7162    5.1385 H   0  0  0  0  0
  -17.6047   10.6893    4.2693 H   0  0  0  0  0
  -17.4413    8.3828    4.5469 H   0  0  0  0  0
  -19.1160    8.2807    5.1955 H   0  0  0  0  0
  -18.5394   10.7143    6.5332 H   0  0  0  0  0
  -21.5288   11.0372    3.3070 H   0  0  0  0  0
  -20.6191   13.6897    2.2895 H   0  0  0  0  0
  -23.0340   14.2211    1.9820 H   0  0  0  0  0
  -21.6063   13.5265    0.1142 H   0  0  0  0  0
  -21.9481   11.8156    0.4711 H   0  0  0  0  0
  -23.2571   12.8883   -0.0830 H   0  0  0  0  0
  -23.4324   11.2773    2.5864 H   0  0  0  0  0
  -24.0024   12.6488    3.5688 H   0  0  0  0  0
  -24.6628   12.3881    1.9358 H   0  0  0  0  0
  -21.2017   15.5565    3.4342 H   0  0  0  0  0
  -21.6655   15.0233    6.3572 H   0  0  0  0  0
  -20.0930   16.7629    6.8445 H   0  0  0  0  0
  -19.9506   17.1737    5.0785 H   0  0  0  0  0
  -19.1688   14.5966    7.6568 H   0  0  0  0  0
  -18.4591   16.0026    3.6834 H   0  0  0  0  0
  -17.2964   13.0017    7.4184 H   0  0  0  0  0
  -16.5858   14.4201    3.4563 H   0  0  0  0  0
  -16.0132   12.9101    5.3123 H   0  0  0  0  0
  -23.0461   16.3024    3.8983 H   0  0  0  0  0
  1  2  2  0  0  0
  1  3  1  0  0  0
  1  4  1  0  0  0
  4  5  1  0  0  0
  5  6  1  0  0  0
  5  8  1  0  0  0
  6  7  2  0  0  0
  6 12  1  0  0  0
  8  9  1  0  0  0
  9 10  1  0  0  0
 10 11  1  0  0  0
 12 13  1  0  0  0
 13 14  1  0  0  0
 13 16  1  0  0  0
 14 15  2  0  0  0
 14 21  1  0  0  0
 16 17  1  0  0  0
 17 18  1  0  0  0
 18 19  2  0  0  0
 18 20  1  0  0  0
 21 22  1  0  0  0
 22 23  1  0  0  0
 22 25  1  0  0  0
 23 24  2  0  0  0
 23 30  1  0  0  0
 25 26  1  0  0  0
 26 27  1  0  0  0
 27 28  1  0  0  0
 27 29  2  0  0  0
 30 31  1  0  0  0
 31 32  1  0  0  0
 31 34  1  0  0  0
 32 33  2  0  0  0
 32 37  1  0  0  0
 34 35  1  0  0  0
 34 36  1  0  0  0
 37 38  1  0  0  0
 38 39  1  0  0  0
 38 41  1  0  0  0
 39 40  2  0  0  0
 39 48  1  0  0  0
 41 42  1  0  0  0
 42 43  4  0  0  0
 42 44  4  0  0  0
 43 45  4  0  0  0
 44 46  4  0  0  0
 45 47  4  0  0  0
 46 47  4  0  0  0
  3 49  1  0  0  0
  3 50  1  0  0  0
  3 51  1  0  0  0
  4 52  1  0  0  0
  5 53  1  0  0  0
  8 54  1  0  0  0
  8 55  1  0  0  0
  9 56  1  0  0  0
  9 57  1  0  0  0
 11 58  1  0  0  0
 11 59  1  0  0  0
 11 60  1  0  0  0
 12 61  1  0  0  0
 13 62  1  0  0  0
 16 63  1  0  0  0
 16 64  1  0  0  0
 17 65  1  0  0  0
 17 66  1  0  0  0
 20 67  1  0  0  0
 21 68  1  0  0  0
 22 69  1  0  0  0
 25 70  1  0  0  0
 25 71  1  0  0  0
 26 72  1  0  0  0
 26 73  1  0  0  0
 28 74  1  0  0  0
 30 75  1  0  0  0
 31 76  1  0  0  0
 34 77  1  0  0  0
 35 78  1  0  0  0
 35 79  1  0  0  0
 35 80  1  0  0  0
 36 81  1  0  0  0
 36 82  1  0  0  0
 36 83  1  0  0  0
 37 84  1  0  0  0
 38 85  1  0  0  0
 41 86  1  0  0  0
 41 87  1  0  0  0
 43 88  1  0  0  0
 44 89  1  0  0  0
 45 90  1  0  0  0
 46 91  1  0  0  0
 47 92  1  0  0  0
 48 93  1  0  0  0
M  END
$$$$
