5zk8_ligand
  -I-interpret- 

 47 50  0  0  0  0  0  0  0  0999 V2000
  187.8850   24.3400  525.9740 C   0  0  0  0  0
  183.9180   26.9520  524.8540 C   0  0  0  0  0
  183.4120   29.4720  524.6210 C   0  0  0  0  0
  184.6740   29.1790  526.6420 C   0  0  0  0  0
  182.1410   30.8040  526.2830 C   0  0  0  0  0
  181.1480   28.9210  525.3740 C   0  0  0  0  0
  183.2270   28.6180  526.6860 C   0  0  0  0  0
  182.4660   29.4650  525.7490 N   0  3  0  0  0
  183.4590   28.0930  523.9190 C   0  0  0  0  0
  184.7960   29.7710  525.2610 C   0  0  0  0  0
  184.9180   30.6080  526.4580 O   0  0  0  0  0
  183.2550   27.1460  526.2370 C   0  0  0  0  0
  185.3700   26.8580  524.9000 O   0  0  0  0  0
  185.8710   25.7460  525.5040 C   0  0  0  0  0
  185.2030   24.7920  525.9010 O   0  0  0  0  0
  187.3950   25.7480  525.6370 C   0  0  0  0  0
  187.3850   23.4230  524.9960 O   0  0  0  0  0
  187.7800   26.6460  526.6270 C   0  0  0  0  0
  188.3430   27.8660  526.2680 C   0  0  0  0  0
  188.7290   28.7710  527.2500 C   0  0  0  0  0
  188.5520   28.4560  528.5930 C   0  0  0  0  0
  187.9880   27.2370  528.9520 C   0  0  0  0  0
  187.6010   26.3310  527.9700 C   0  0  0  0  0
  187.5255   24.0537  526.9624 H   0  0  0  0  0
  188.9748   24.3208  525.9710 H   0  0  0  0  0
  183.5904   25.9872  524.4666 H   0  0  0  0  0
  183.1222   30.2037  523.8669 H   0  0  0  0  0
  185.1443   28.4852  527.3388 H   0  0  0  0  0
  181.5389   30.6976  527.1853 H   0  0  0  0  0
  183.0640   31.3327  526.5208 H   0  0  0  0  0
  181.5812   31.3659  525.5353 H   0  0  0  0  0
  181.2798   27.9514  524.8938 H   0  0  0  0  0
  180.5365   28.8046  526.2687 H   0  0  0  0  0
  180.6567   29.6062  524.6832 H   0  0  0  0  0
  182.7762   28.6394  527.6782 H   0  0  0  0  0
  182.4494   27.8587  523.5815 H   0  0  0  0  0
  184.1779   28.1614  523.1025 H   0  0  0  0  0
  185.4043   29.7806  524.3566 H   0  0  0  0  0
  183.8385   26.5859  526.9677 H   0  0  0  0  0
  182.2238   26.8005  526.1635 H   0  0  0  0  0
  187.8410   26.0576  524.6918 H   0  0  0  0  0
  187.6906   22.5370  525.2040 H   0  0  0  0  0
  188.4817   28.1128  525.2154 H   0  0  0  0  0
  189.1701   29.7269  526.9676 H   0  0  0  0  0
  188.8553   29.1645  529.3638 H   0  0  0  0  0
  187.8488   26.9908  530.0047 H   0  0  0  0  0
  187.1582   25.3759  528.2524 H   0  0  0  0  0
 16  1  1  0  0  0
  1 17  1  0  0  0
  2  9  1  0  0  0
  2 12  1  0  0  0
 13  2  1  0  0  0
  3  8  1  0  0  0
  9  3  1  0  0  0
  3 10  1  0  0  0
  7  4  1  0  0  0
  4 10  1  0  0  0
  4 11  1  0  0  0
  8  5  1  0  0  0
  8  6  1  0  0  0
  7  8  1  0  0  0
 12  7  1  0  0  0
 10 11  1  0  0  0
 14 13  1  0  0  0
 14 15  2  0  0  0
 14 16  1  0  0  0
 16 18  1  0  0  0
 18 19  4  0  0  0
 18 23  4  0  0  0
 19 20  4  0  0  0
 20 21  4  0  0  0
 21 22  4  0  0  0
 22 23  4  0  0  0
  1 24  1  0  0  0
  1 25  1  0  0  0
  2 26  1  0  0  0
  3 27  1  0  0  0
  4 28  1  0  0  0
  5 29  1  0  0  0
  5 30  1  0  0  0
  5 31  1  0  0  0
  6 32  1  0  0  0
  6 33  1  0  0  0
  6 34  1  0  0  0
  7 35  1  0  0  0
  9 36  1  0  0  0
  9 37  1  0  0  0
 10 38  1  0  0  0
 12 39  1  0  0  0
 12 40  1  0  0  0
 16 41  1  0  0  0
 17 42  1  0  0  0
 19 43  1  0  0  0
 20 44  1  0  0  0
 21 45  1  0  0  0
 22 46  1  0  0  0
 23 47  1  0  0  0
M  END
$$$$
