4nka_ligand
  -I-interpret- 

 56 59  0  0  0  0  0  0  0  0999 V2000
   84.1590    2.8180   12.9570 C   0  0  0  0  0
   84.0040    3.0750   11.5870 C   0  0  0  0  0
   85.0290    3.8610   11.2490 C   0  0  0  0  0
   88.4160   -1.0030    9.9730 N   0  0  0  0  0
   85.1230    0.4980    6.7970 C   0  0  0  0  0
   85.8800    0.8020    7.9580 C   0  0  0  0  0
   87.6310    0.0180    9.6380 C   0  0  0  0  0
   87.7500    1.1070   10.5460 C   0  0  0  0  0
   88.6940    0.7010   11.4540 C   0  0  0  0  0
   89.1460    1.3780   12.6820 C   0  0  0  0  0
   88.1420    1.2280   13.8670 C   0  0  0  0  0
   88.6270    1.9420   15.0840 C   0  0  0  0  0
   89.3910    1.2550   16.0450 C   0  0  0  0  0
   89.8650    1.8960   17.1860 C   0  0  0  0  0
   88.3400    3.2980   15.2510 C   0  0  0  0  0
   87.2870    5.8600   16.3880 C   0  0  0  0  0
   91.4240    4.3810   18.3670 C   0  0  0  0  0
   90.0400    4.0020   18.4150 O   0  0  0  0  0
   89.5680    3.2520   17.3690 C   0  0  0  0  0
   88.8010    3.9620   16.3860 C   0  0  0  0  0
   88.5880    5.3160   16.6520 O   0  0  0  0  0
   89.0520   -0.5580   11.1240 N   0  0  0  0  0
   86.8000   -0.1220    8.4930 N   0  0  0  0  0
   84.2160    1.4680    6.3790 C   0  0  0  0  0
   84.0620    2.6590    7.0390 N   0  0  0  0  0
   85.7490    1.9860    8.6130 N   0  0  0  0  0
   84.8130    2.8550    8.1400 C   0  0  0  0  0
   84.6270    4.0230    8.8030 N   0  0  0  0  0
   85.4270    4.4710    9.9600 C   0  0  0  0  0
   85.8040    4.0930   12.3530 O   0  0  0  0  0
   85.2130    3.4020   13.4370 N   0  0  0  0  0
   83.2790    1.9980   13.8520 C   0  0  0  0  0
   83.2116    2.7092   10.9340 H   0  0  0  0  0
   85.2449   -0.4436    6.2616 H   0  0  0  0  0
   87.2105    2.0539   10.5246 H   0  0  0  0  0
   89.2399    2.4409   12.4594 H   0  0  0  0  0
   90.0878    0.9208   12.9853 H   0  0  0  0  0
   88.0413    0.1688   14.1038 H   0  0  0  0  0
   87.1870    1.6608   13.5689 H   0  0  0  0  0
   89.6163    0.1994   15.8930 H   0  0  0  0  0
   90.4562    1.3526   17.9231 H   0  0  0  0  0
   87.7598    3.8332   14.4993 H   0  0  0  0  0
   87.0517    5.7390   15.3306 H   0  0  0  0  0
   86.5456    5.3335   16.9891 H   0  0  0  0  0
   87.2787    6.9194   16.6444 H   0  0  0  0  0
   92.0441    3.4849   18.3422 H   0  0  0  0  0
   91.6058    4.9752   17.4714 H   0  0  0  0  0
   91.6691    4.9696   19.2511 H   0  0  0  0  0
   86.8801   -1.0074    7.9930 H   0  0  0  0  0
   83.6072    1.2733    5.4961 H   0  0  0  0  0
   83.8798    4.6369    8.4787 H   0  0  0  0  0
   86.4588    4.1752    9.7703 H   0  0  0  0  0
   85.2789    5.5467   10.0550 H   0  0  0  0  0
   82.2753    2.4230   13.8610 H   0  0  0  0  0
   83.2381    0.9742   13.4803 H   0  0  0  0  0
   83.6860    2.0028   14.8631 H   0  0  0  0  0
  2  1  4  0  0  0
  1 31  4  0  0  0
  1 32  1  0  0  0
  3  2  4  0  0  0
 29  3  1  0  0  0
  3 30  4  0  0  0
  7  4  4  0  0  0
  4 22  4  0  0  0
  6  5  4  0  0  0
 24  5  4  0  0  0
  6 23  1  0  0  0
 26  6  4  0  0  0
  7  8  4  0  0  0
 23  7  1  0  0  0
  8  9  4  0  0  0
  9 10  1  0  0  0
  9 22  4  0  0  0
 10 11  1  0  0  0
 11 12  1  0  0  0
 12 13  4  0  0  0
 12 15  4  0  0  0
 13 14  4  0  0  0
 14 19  4  0  0  0
 15 20  4  0  0  0
 21 16  1  0  0  0
 18 17  1  0  0  0
 19 18  1  0  0  0
 20 19  4  0  0  0
 20 21  1  0  0  0
 25 24  4  0  0  0
 27 25  4  0  0  0
 27 26  4  0  0  0
 28 27  1  0  0  0
 28 29  1  0  0  0
 30 31  4  0  0  0
  2 33  1  0  0  0
  5 34  1  0  0  0
  8 35  1  0  0  0
 10 36  1  0  0  0
 10 37  1  0  0  0
 11 38  1  0  0  0
 11 39  1  0  0  0
 13 40  1  0  0  0
 14 41  1  0  0  0
 15 42  1  0  0  0
 16 43  1  0  0  0
 16 44  1  0  0  0
 16 45  1  0  0  0
 17 46  1  0  0  0
 17 47  1  0  0  0
 17 48  1  0  0  0
 23 49  1  0  0  0
 24 50  1  0  0  0
 28 51  1  0  0  0
 29 52  1  0  0  0
 29 53  1  0  0  0
 32 54  1  0  0  0
 32 55  1  0  0  0
 32 56  1  0  0  0
M  END
$$$$
