6g8m_ligand
  -I-interpret- 

 68 68  0  0  0  0  0  0  0  0999 V2000
   62.5980 -135.7340   42.2790 C   0  0  0  0  0
   63.6900 -134.7330   42.1140 C   0  0  0  0  0
   63.2840 -133.5260   42.8880 C   0  0  0  0  0
   63.7010 -134.3080   40.6860 C   0  0  0  0  0
   61.2240 -141.1670   42.2860 C   0  0  0  0  0
   61.8750 -141.3120   40.9420 C   0  0  0  0  0
   58.2590 -139.4680   45.3220 C   0  0  0  0  0
   57.2230 -138.3800   45.4500 C   0  0  0  0  0
   57.8960 -137.0740   45.1990 C   0  0  0  0  0
   56.9840 -141.9170   47.4510 C   0  0  0  0  0
   62.6050 -136.2110   43.6860 C   0  0  0  0  0
   61.6960 -135.9510   44.4490 O   0  0  0  0  0
   62.8450 -136.9010   41.3730 C   0  0  0  0  0
   64.0030 -137.5030   41.8480 O   0  0  0  0  0
   61.6940 -137.8540   41.5050 C   0  0  0  0  0
   60.6900 -137.6630   40.8510 O   0  0  0  0  0
   61.8040 -138.8580   42.3420 N   0  0  0  0  0
   60.7020 -139.7690   42.4680 C   0  0  0  0  0
   60.0610 -142.1160   42.3680 C   0  0  0  0  0
   60.1520 -139.6500   43.8610 C   0  0  0  0  0
   60.8980 -139.5830   44.8090 O   0  0  0  0  0
   58.8450 -139.5840   43.9900 N   0  0  0  0  0
   56.1300 -138.5910   44.4330 C   0  0  0  0  0
   57.6930 -140.7840   45.7600 C   0  0  0  0  0
   57.4600 -141.6250   44.8980 O   0  0  0  0  0
   57.4520 -140.8850   46.9630 O   0  0  0  0  0
   56.7180 -142.0180   48.8070 C   0  0  0  0  0
   56.4460 -143.2490   49.3590 C   0  0  0  0  0
   56.2160 -143.3590   50.7160 C   0  0  0  0  0
   56.2860 -142.2470   51.5250 C   0  0  0  0  0
   56.5860 -141.0200   50.9810 C   0  0  0  0  0
   56.8300 -140.9170   49.6300 C   0  0  0  0  0
   61.6389 -135.2784   42.0329 H   0  0  0  0  0
   64.6502 -135.1407   42.4300 H   0  0  0  0  0
   64.0047 -132.7265   42.7164 H   0  0  0  0  0
   62.2957 -133.2022   42.5617 H   0  0  0  0  0
   63.2556 -133.7696   43.9501 H   0  0  0  0  0
   62.7048 -133.9694   40.4013 H   0  0  0  0  0
   64.4139 -133.4937   40.5561 H   0  0  0  0  0
   63.9924 -135.1511   40.0596 H   0  0  0  0  0
   61.9613 -141.3838   43.0589 H   0  0  0  0  0
   61.1444 -141.1010   40.1611 H   0  0  0  0  0
   62.7050 -140.6098   40.8641 H   0  0  0  0  0
   62.2469 -142.3302   40.8278 H   0  0  0  0  0
   59.0766 -139.1767   45.9814 H   0  0  0  0  0
   56.7791 -138.3958   46.4454 H   0  0  0  0  0
   58.6891 -136.9285   45.9324 H   0  0  0  0  0
   58.3225 -137.0733   44.1959 H   0  0  0  0  0
   57.1669 -136.2684   45.2858 H   0  0  0  0  0
   57.7614 -142.6620   47.2812 H   0  0  0  0  0
   56.0024 -142.0043   46.9852 H   0  0  0  0  0
   63.4448 -136.8078   44.0418 H   0  0  0  0  0
   62.9444 -136.6084   40.3277 H   0  0  0  0  0
   64.7383 -136.8917   41.7627 H   0  0  0  0  0
   62.6537 -138.9884   42.8910 H   0  0  0  0  0
   59.9319 -139.5468   41.7293 H   0  0  0  0  0
   59.5817 -142.0180   43.3420 H   0  0  0  0  0
   59.3434 -141.8779   41.5829 H   0  0  0  0  0
   60.4177 -143.1378   42.2383 H   0  0  0  0  0
   58.2452 -139.6136   43.1656 H   0  0  0  0  0
   56.5580 -138.5651   43.4309 H   0  0  0  0  0
   55.6589 -139.5591   44.6033 H   0  0  0  0  0
   55.3857 -137.8009   44.5322 H   0  0  0  0  0
   56.4122 -144.1357   48.7260 H   0  0  0  0  0
   55.9779 -144.3306   51.1488 H   0  0  0  0  0
   56.1038 -142.3391   52.5957 H   0  0  0  0  0
   56.6303 -140.1348   51.6154 H   0  0  0  0  0
   57.1150 -139.9542   49.2059 H   0  0  0  0  0
  1  2  1  0  0  0
  1 11  1  0  0  0
 13  1  1  0  0  0
  2  3  1  0  0  0
  2  4  1  0  0  0
  5  6  1  0  0  0
 18  5  1  0  0  0
  5 19  1  0  0  0
  7  8  1  0  0  0
  7 22  1  0  0  0
 24  7  1  0  0  0
  8  9  1  0  0  0
  8 23  1  0  0  0
 26 10  1  0  0  0
 10 27  1  0  0  0
 11 12  2  0  0  0
 13 14  1  0  0  0
 15 13  1  0  0  0
 15 16  2  0  0  0
 17 15  1  0  0  0
 18 17  1  0  0  0
 20 18  1  0  0  0
 20 21  2  0  0  0
 22 20  1  0  0  0
 24 25  2  0  0  0
 24 26  1  0  0  0
 27 28  4  0  0  0
 27 32  4  0  0  0
 28 29  4  0  0  0
 29 30  4  0  0  0
 30 31  4  0  0  0
 31 32  4  0  0  0
  1 33  1  0  0  0
  2 34  1  0  0  0
  3 35  1  0  0  0
  3 36  1  0  0  0
  3 37  1  0  0  0
  4 38  1  0  0  0
  4 39  1  0  0  0
  4 40  1  0  0  0
  5 41  1  0  0  0
  6 42  1  0  0  0
  6 43  1  0  0  0
  6 44  1  0  0  0
  7 45  1  0  0  0
  8 46  1  0  0  0
  9 47  1  0  0  0
  9 48  1  0  0  0
  9 49  1  0  0  0
 10 50  1  0  0  0
 10 51  1  0  0  0
 11 52  1  0  0  0
 13 53  1  0  0  0
 14 54  1  0  0  0
 17 55  1  0  0  0
 18 56  1  0  0  0
 19 57  1  0  0  0
 19 58  1  0  0  0
 19 59  1  0  0  0
 22 60  1  0  0  0
 23 61  1  0  0  0
 23 62  1  0  0  0
 23 63  1  0  0  0
 28 64  1  0  0  0
 29 65  1  0  0  0
 30 66  1  0  0  0
 31 67  1  0  0  0
 32 68  1  0  0  0
M  END
$$$$
