4xh6_ligand
  -I-interpret- 

 34 36  0  0  0  0  0  0  0  0999 V2000
   16.9430  -35.3710    1.9250 C   0  0  0  0  0
   17.8330  -36.4150    2.2390 C   0  0  0  0  0
   18.6450  -37.0140    1.2780 C   0  0  0  0  0
   18.5390  -36.5580   -0.0380 C   0  0  0  0  0
   17.6630  -35.5110   -0.3710 C   0  0  0  0  0
   16.8610  -34.9210    0.6130 C   0  0  0  0  0
   15.7650  -35.6910    3.9690 C   0  0  0  0  0
   19.5080  -38.0630    1.6000 C   0  0  0  0  0
   20.2430  -38.6760    0.6240 C   0  0  0  0  0
   20.1360  -38.1880   -0.6640 C   0  0  0  0  0
   20.7460  -38.8260   -1.7180 C   0  0  0  0  0
   21.7220  -39.8210   -1.4880 C   0  0  0  0  0
   22.2800  -40.4530   -2.5950 C   0  0  0  0  0
   21.8300  -40.1090   -3.8810 C   0  0  0  0  0
   20.8410  -39.1560   -4.1310 C   0  0  0  0  0
   16.1450  -34.7850    2.8850 O   0  0  0  0  0
   17.9270  -36.8820    3.5100 O   0  0  0  0  0
   15.9860  -33.9010    0.3590 O   0  0  0  0  0
   19.3110  -37.1470   -0.9990 O   0  0  0  0  0
   19.6400  -38.5140    2.7320 O   0  0  0  0  0
   22.3740  -40.7440   -4.9530 O   0  0  0  0  0
   20.2910  -38.5170   -3.0220 C   0  0  0  0  0
   17.6077  -35.1566   -1.4003 H   0  0  0  0  0
   15.2115  -36.5353    3.5580 H   0  0  0  0  0
   16.6629  -36.0528    4.4700 H   0  0  0  0  0
   15.1385  -35.1576    4.6839 H   0  0  0  0  0
   20.8916  -39.5213    0.8542 H   0  0  0  0  0
   22.0282  -40.0852   -0.4758 H   0  0  0  0  0
   23.0572  -41.2063   -2.4661 H   0  0  0  0  0
   20.5150  -38.9232   -5.1447 H   0  0  0  0  0
   18.5769  -37.5878    3.5431 H   0  0  0  0  0
   16.0177  -33.6787   -0.5744 H   0  0  0  0  0
   21.9735  -40.4095   -5.7588 H   0  0  0  0  0
   19.5052  -37.7743   -3.1595 H   0  0  0  0  0
  1  2  4  0  0  0
  1  6  4  0  0  0
  1 16  1  0  0  0
  2  3  4  0  0  0
  2 17  1  0  0  0
  3  4  4  0  0  0
  3  8  1  0  0  0
  4  5  4  0  0  0
  4 19  1  0  0  0
  5  6  4  0  0  0
  6 18  1  0  0  0
 16  7  1  0  0  0
  8  9  1  0  0  0
  8 20  2  0  0  0
  9 10  2  0  0  0
 10 11  1  0  0  0
 10 19  1  0  0  0
 11 12  4  0  0  0
 11 22  4  0  0  0
 12 13  4  0  0  0
 13 14  4  0  0  0
 14 15  4  0  0  0
 14 21  1  0  0  0
 15 22  4  0  0  0
  5 23  1  0  0  0
  7 24  1  0  0  0
  7 25  1  0  0  0
  7 26  1  0  0  0
  9 27  1  0  0  0
 12 28  1  0  0  0
 13 29  1  0  0  0
 15 30  1  0  0  0
 17 31  1  0  0  0
 18 32  1  0  0  0
 21 33  1  0  0  0
 22 34  1  0  0  0
M  END
$$$$
