4ykk_ligand
  -I-interpret- 

 15 14  0  0  0  0  0  0  0  0999 V2000
    9.7080   61.3640   43.7050 N   0  3  0  0  0
    9.0820   60.2020   44.3220 C   0  0  0  0  0
    8.1950   60.6240   45.4810 C   0  0  0  0  0
    7.1070   60.0620   45.7340 O   0  0  0  0  0
    8.5790   61.5580   46.1860 O   0  0  0  0  0
    8.2680   59.4260   43.3000 C   0  0  0  0  0
    7.0400   60.0660   43.0400 O   0  0  0  0  0
   10.2485   61.8701   44.4065 H   0  0  0  0  0
   10.3262   61.0570   42.9540 H   0  0  0  0  0
    8.9860   61.9755   43.3241 H   0  0  0  0  0
    9.8721   59.5553   44.7036 H   0  0  0  0  0
    6.9548   59.3604   45.0967 H   0  0  0  0  0
    8.0663   58.4310   43.6967 H   0  0  0  0  0
    8.8359   59.3693   42.3713 H   0  0  0  0  0
    6.5460   59.5572   42.3930 H   0  0  0  0  0
  1  2  1  0  0  0
  2  3  1  0  0  0
  2  6  1  0  0  0
  3  4  1  0  0  0
  3  5  2  0  0  0
  6  7  1  0  0  0
  1  8  1  0  0  0
  1  9  1  0  0  0
  1 10  1  0  0  0
  2 11  1  0  0  0
  4 12  1  0  0  0
  6 13  1  0  0  0
  6 14  1  0  0  0
  7 15  1  0  0  0
M  END
$$$$
