3ryy_ligand
  -I-interpret- 

 30 30  0  0  0  0  0  0  0  0999 V2000
   18.5170    5.7450   13.5730 N   0  0  0  0  0
   15.1030    0.9020   16.8800 S   0  0  0  0  0
   16.7630    4.5320   14.6920 C   0  0  0  0  0
   15.3780    4.4480   14.9410 C   0  0  0  0  0
   14.8680    3.3380   15.6160 C   0  0  0  0  0
   15.7400    2.3080   16.0770 C   0  0  0  0  0
   17.1160    2.4270   15.8230 C   0  0  0  0  0
   17.6310    3.5150   15.1390 C   0  0  0  0  0
   17.2660    5.7260   13.9230 C   0  0  0  0  0
   16.4970    6.6680   13.6900 O   0  0  0  0  0
   19.0250    6.8480   12.7240 C   0  0  0  0  0
   19.5680    8.2250   14.6180 C   0  0  0  0  0
   13.6560    0.9670   16.7210 O   0  0  0  0  0
   20.0920    7.5370   13.4110 C   0  0  0  0  0
   15.6430    0.9820   18.2400 O   0  0  0  0  0
   15.6800   -0.3700   16.1230 N   0  0  0  0  0
   19.1466    5.0040   13.8812 H   0  0  0  0  0
   14.7108    5.2435   14.6091 H   0  0  0  0  0
   13.7953    3.2577   15.7921 H   0  0  0  0  0
   17.7925    1.6467   16.1716 H   0  0  0  0  0
   18.7017    3.5849   14.9471 H   0  0  0  0  0
   18.2156    7.5484   12.5180 H   0  0  0  0  0
   19.4027    6.4389   11.7869 H   0  0  0  0  0
   18.8091    8.9490   14.3213 H   0  0  0  0  0
   19.1270    7.4897   15.2911 H   0  0  0  0  0
   20.3845    8.7395   15.1246 H   0  0  0  0  0
   20.5273    8.2776   12.7401 H   0  0  0  0  0
   20.8467    6.8115   13.7144 H   0  0  0  0  0
   15.0486   -0.9958   15.6229 H   0  0  0  0  0
   16.6819   -0.5609   16.1371 H   0  0  0  0  0
  9  1  1  0  0  0
  1 11  1  0  0  0
  6  2  1  0  0  0
  2 13  2  0  0  0
  2 15  2  0  0  0
  2 16  1  0  0  0
  4  3  4  0  0  0
  3  8  4  0  0  0
  3  9  1  0  0  0
  5  4  4  0  0  0
  5  6  4  0  0  0
  6  7  4  0  0  0
  7  8  4  0  0  0
  9 10  2  0  0  0
 11 14  1  0  0  0
 14 12  1  0  0  0
  1 17  1  0  0  0
  4 18  1  0  0  0
  5 19  1  0  0  0
  7 20  1  0  0  0
  8 21  1  0  0  0
 11 22  1  0  0  0
 11 23  1  0  0  0
 12 24  1  0  0  0
 12 25  1  0  0  0
 12 26  1  0  0  0
 14 27  1  0  0  0
 14 28  1  0  0  0
 16 29  1  0  0  0
 16 30  1  0  0  0
M  END
$$$$
