3be9_ligand
  -I-interpret- 

 48 52  0  0  0  0  0  0  0  0999 V2000
   19.8520    9.7850   20.2670 N   0  0  0  0  0
   20.0680   10.1140   18.9670 C   0  0  0  0  0
   21.0430    9.2650   18.4140 C   0  0  0  0  0
   21.4070    8.3690   19.4940 C   0  0  0  0  0
   20.6640    8.7370   20.5790 N   0  0  0  0  0
   22.2670    7.3390   19.6120 N   0  0  0  0  0
   22.3540    6.7320   20.7960 C   0  0  0  0  0
   21.6370    7.0920   21.8580 N   0  0  0  0  0
   20.7880    8.1060   21.7270 C   0  0  0  0  0
   20.0240    8.5140   22.7680 N   0  0  0  0  0
   20.1020    7.7880   24.0350 C   0  0  0  0  0
   21.1270    8.4590   24.9540 C   0  0  0  0  0
   19.6250    8.6740   25.1890 C   0  0  0  0  0
   23.1880    5.6780   21.0220 N   0  0  0  0  0
   23.9800    4.9910   20.1530 C   0  0  0  0  0
   24.1130    5.3020   18.7990 C   0  0  0  0  0
   24.9290    4.5710   17.9370 C   0  0  0  0  0
   25.6290    3.4900   18.4670 C   0  0  0  0  0
   25.5220    3.1510   19.8160 C   0  0  0  0  0
   24.6980    3.9050   20.6500 C   0  0  0  0  0
   25.0850    4.8270   16.6100 N   0  0  0  0  0
   25.0230    5.9710   15.8930 C   0  0  0  0  0
   25.1020    5.9790   14.6700 O   0  0  0  0  0
   24.8560    7.3170   16.5840 C   0  0  0  0  0
   23.3670    7.6750   16.5960 C   0  0  0  0  0
   23.0690    9.1300   16.9560 C   0  0  0  0  0
   21.5600    9.3760   16.9990 C   0  0  0  0  0
   19.5609   10.9169   18.4319 H   0  0  0  0  0
   19.4026    9.3168   22.6697 H   0  0  0  0  0
   19.8970    6.7690   23.7068 H   0  0  0  0  0
   22.0356    9.0551   24.8691 H   0  0  0  0  0
   22.0142    8.1878   25.5262 H   0  0  0  0  0
   18.9114    8.6319   26.0119 H   0  0  0  0  0
   18.9327    9.4995   25.3545 H   0  0  0  0  0
   23.2245    5.3547   21.9887 H   0  0  0  0  0
   23.5568    6.1501   18.3997 H   0  0  0  0  0
   26.2722    2.8980   17.8159 H   0  0  0  0  0
   26.0785    2.3029   20.2149 H   0  0  0  0  0
   24.6142    3.6418   21.7044 H   0  0  0  0  0
   25.2870    3.9987   16.0501 H   0  0  0  0  0
   25.4186    8.0823   16.0493 H   0  0  0  0  0
   25.2336    7.2607   17.6050 H   0  0  0  0  0
   22.8955    7.0544   17.3580 H   0  0  0  0  0
   22.9913    7.5126   15.5858 H   0  0  0  0  0
   23.5111    9.7785   16.1996 H   0  0  0  0  0
   23.4898    9.3439   17.9385 H   0  0  0  0  0
   21.3551   10.3795   16.6259 H   0  0  0  0  0
   21.0626    8.6279   16.3817 H   0  0  0  0  0
  1  2  4  0  0  0
  1  5  4  0  0  0
  2  3  4  0  0  0
  3  4  4  0  0  0
  3 27  1  0  0  0
  4  5  4  0  0  0
  4  6  4  0  0  0
  5  9  4  0  0  0
  6  7  4  0  0  0
  7  8  4  0  0  0
  7 14  1  0  0  0
  8  9  4  0  0  0
  9 10  1  0  0  0
 10 11  1  0  0  0
 11 12  1  0  0  0
 11 13  1  0  0  0
 12 13  1  0  0  0
 14 15  1  0  0  0
 15 16  4  0  0  0
 15 20  4  0  0  0
 16 17  4  0  0  0
 17 18  4  0  0  0
 17 21  1  0  0  0
 18 19  4  0  0  0
 19 20  4  0  0  0
 21 22  1  0  0  0
 22 23  2  0  0  0
 22 24  1  0  0  0
 24 25  1  0  0  0
 25 26  1  0  0  0
 26 27  1  0  0  0
  2 28  1  0  0  0
 10 29  1  0  0  0
 11 30  1  0  0  0
 12 31  1  0  0  0
 12 32  1  0  0  0
 13 33  1  0  0  0
 13 34  1  0  0  0
 14 35  1  0  0  0
 16 36  1  0  0  0
 18 37  1  0  0  0
 19 38  1  0  0  0
 20 39  1  0  0  0
 21 40  1  0  0  0
 24 41  1  0  0  0
 24 42  1  0  0  0
 25 43  1  0  0  0
 25 44  1  0  0  0
 26 45  1  0  0  0
 26 46  1  0  0  0
 27 47  1  0  0  0
 27 48  1  0  0  0
M  END
$$$$
