1yds_ligand
  -I-interpret- 

 34 35  0  0  0  0  0  0  0  0999 V2000
    6.9860   10.1780    2.9890 C   0  0  0  0  0
    7.1340   10.1760    1.5900 C   0  0  0  0  0
    6.0160   10.0210    0.7520 C   0  0  0  0  0
    4.7310    9.8660    1.2740 C   0  0  0  0  0
    4.5640    9.8650    2.6710 C   0  0  0  0  0
    3.2910    9.7100    3.2190 C   0  0  0  0  0
    3.1280    9.7070    4.5750 N   0  0  0  0  0
    4.1840    9.8510    5.3990 C   0  0  0  0  0
    5.4830   10.0090    4.9180 C   0  0  0  0  0
    5.6870   10.0190    3.5340 C   0  0  0  0  0
    8.4470   10.3740    3.9930 S   0  0  0  0  0
    8.1500   11.4220    4.9350 O   0  0  0  0  0
    9.5850   10.4810    3.1000 O   0  0  0  0  0
    8.4810    9.0070    4.8510 N   0  0  0  0  0
    9.0040    7.7420    4.3380 C   0  0  0  0  0
    9.9790    7.9390    3.1780 C   0  0  0  0  0
   11.1750    7.0990    3.3810 N   0  3  0  0  0
   12.3100    7.9960    3.6460 C   0  0  0  0  0
    8.1248   10.2958    1.1517 H   0  0  0  0  0
    6.1558   10.0219   -0.3290 H   0  0  0  0  0
    3.8731    9.7480    0.6120 H   0  0  0  0  0
    2.4267    9.5913    2.5655 H   0  0  0  0  0
    4.0175    9.8438    6.4762 H   0  0  0  0  0
    6.3214   10.1223    5.6053 H   0  0  0  0  0
    8.1174    9.0270    5.8038 H   0  0  0  0  0
    8.1622    7.1533    3.9734 H   0  0  0  0  0
    9.5403    7.2469    5.1476 H   0  0  0  0  0
   10.2780    8.9862    3.1328 H   0  0  0  0  0
    9.4920    7.6528    2.2458 H   0  0  0  0  0
   11.3559    6.5321    2.5526 H   0  0  0  0  0
   11.0337    6.4632    4.1659 H   0  0  0  0  0
   12.4526    8.6609    2.7941 H   0  0  0  0  0
   12.1041    8.5864    4.5388 H   0  0  0  0  0
   13.2115    7.4032    3.8007 H   0  0  0  0  0
  1 11  1  0  0  0
  1 10  4  0  0  0
  1  2  4  0  0  0
  2  3  4  0  0  0
  3  4  4  0  0  0
  4  5  4  0  0  0
  5 10  4  0  0  0
  5  6  4  0  0  0
  6  7  4  0  0  0
  7  8  4  0  0  0
  8  9  4  0  0  0
  9 10  4  0  0  0
 11 14  1  0  0  0
 11 13  2  0  0  0
 11 12  2  0  0  0
 14 15  1  0  0  0
 15 16  1  0  0  0
 16 17  1  0  0  0
 17 18  1  0  0  0
  2 19  1  0  0  0
  3 20  1  0  0  0
  4 21  1  0  0  0
  6 22  1  0  0  0
  8 23  1  0  0  0
  9 24  1  0  0  0
 14 25  1  0  0  0
 15 26  1  0  0  0
 15 27  1  0  0  0
 16 28  1  0  0  0
 16 29  1  0  0  0
 17 30  1  0  0  0
 17 31  1  0  0  0
 18 32  1  0  0  0
 18 33  1  0  0  0
 18 34  1  0  0  0
M  END
$$$$
