6np3_ligand
  -I-interpret- 

 75 77  0  0  0  0  0  0  0  0999 V2000
  108.5670  -18.1180   -7.5980 C   0  0  0  0  0
  109.4690  -18.0780   -6.4760 O   0  0  0  0  0
  107.2310  -18.6950   -7.1130 C   0  0  0  0  0
  107.4410  -19.7950   -6.1920 N   0  3  0  0  0
  106.4930  -19.2870   -8.2930 C   0  0  0  0  0
  107.2810  -20.5460   -8.7060 C   0  0  0  0  0
  108.7850  -20.3030   -8.5140 C   0  0  0  0  0
  109.0710  -18.9230   -8.6670 O   0  0  0  0  0
  109.5010  -21.1150   -9.5910 C   0  0  0  0  0
  110.7060  -20.4350  -10.0790 N   0  3  0  0  0
  112.5090  -15.2930   -5.6240 C   0  0  0  0  0
  113.7520  -14.5230   -5.5480 N   0  3  0  0  0
  112.7580  -16.7620   -5.2950 C   0  0  0  0  0
  111.4110  -17.4720   -5.2980 C   0  0  0  0  0
  111.6030  -18.8790   -4.9370 N   0  3  0  0  0
  110.7280  -17.4160   -6.6660 C   0  0  0  0  0
  110.5950  -15.9560   -7.1100 C   0  0  0  0  0
  110.1440  -15.9290   -8.4550 O   0  0  0  0  0
  111.9190  -15.1960   -7.0340 C   0  0  0  0  0
  111.6490  -13.8260   -7.3000 O   0  0  0  0  0
  112.4530  -13.2110   -8.3090 C   0  0  0  0  0
  112.5790  -11.7400   -7.9110 C   0  0  0  0  0
  113.1170  -11.6810   -6.5990 O   0  0  0  0  0
  111.1960  -11.0700   -7.8800 C   0  0  0  0  0
  111.3480   -9.6240   -7.6150 N   0  3  0  0  0
  110.5170  -11.2910   -9.2410 C   0  0  0  0  0
  111.2290  -10.5190  -10.2000 O   0  0  0  0  0
  110.5410  -12.7780   -9.6140 C   0  0  0  0  0
  111.8560  -13.3130   -9.6110 O   0  0  0  0  0
  109.0560  -10.8350   -9.1830 C   0  0  0  0  0
  110.5050   -9.2330   -6.4690 C   0  0  0  0  0
  108.4472  -17.1058   -7.9842 H   0  0  0  0  0
  106.6800  -17.8871   -6.6316 H   0  0  0  0  0
  107.9386  -19.4569   -5.3683 H   0  0  0  0  0
  106.5386  -20.1792   -5.9117 H   0  0  0  0  0
  107.9930  -20.5200   -6.6504 H   0  0  0  0  0
  106.4317  -18.5745   -9.1156 H   0  0  0  0  0
  105.4652  -19.5360   -8.0288 H   0  0  0  0  0
  107.0823  -20.7682   -9.7544 H   0  0  0  0  0
  106.9692  -21.3864   -8.0859 H   0  0  0  0  0
  109.1126  -20.6037   -7.5188 H   0  0  0  0  0
  108.8185  -21.2453  -10.4308 H   0  0  0  0  0
  109.7993  -22.0695   -9.1574 H   0  0  0  0  0
  111.1526  -21.0088  -10.7943 H   0  0  0  0  0
  110.4477  -19.5324  -10.4777 H   0  0  0  0  0
  111.3525  -20.2927   -9.3030 H   0  0  0  0  0
  111.8112  -14.8773   -4.8971 H   0  0  0  0  0
  113.5598  -13.5465   -5.7715 H   0  0  0  0  0
  114.1338  -14.5883   -4.6044 H   0  0  0  0  0
  114.4252  -14.8997   -6.2153 H   0  0  0  0  0
  113.2344  -16.8566   -4.3192 H   0  0  0  0  0
  113.4237  -17.2085   -6.0336 H   0  0  0  0  0
  110.7745  -16.9606   -4.5760 H   0  0  0  0  0
  110.7011  -19.3554   -4.9388 H   0  0  0  0  0
  112.2237  -19.3211   -5.6150 H   0  0  0  0  0
  112.0174  -18.9366   -4.0068 H   0  0  0  0  0
  111.2874  -17.9078   -7.4618 H   0  0  0  0  0
  109.8900  -15.4711   -6.4348 H   0  0  0  0  0
  110.0570  -15.0177   -8.7439 H   0  0  0  0  0
  112.6226  -15.6189   -7.7511 H   0  0  0  0  0
  113.4207  -13.7086   -8.3733 H   0  0  0  0  0
  113.2155  -11.2287   -8.6332 H   0  0  0  0  0
  113.2037  -10.7633   -6.3309 H   0  0  0  0  0
  110.5850  -11.5044   -7.0887 H   0  0  0  0  0
  111.0594   -9.0983   -8.4401 H   0  0  0  0  0
  112.3243   -9.4220   -7.3993 H   0  0  0  0  0
  110.8281  -10.6357  -11.0645 H   0  0  0  0  0
  110.1364  -12.8807  -10.6209 H   0  0  0  0  0
  109.9530  -13.3217   -8.8746 H   0  0  0  0  0
  108.5274  -11.4094   -8.4222 H   0  0  0  0  0
  109.0173   -9.7750   -8.9320 H   0  0  0  0  0
  108.5873  -10.9973  -10.1536 H   0  0  0  0  0
  109.4613   -9.4500   -6.6966 H   0  0  0  0  0
  110.8103   -9.7952   -5.5865 H   0  0  0  0  0
  110.6228   -8.1659   -6.2803 H   0  0  0  0  0
  2  1  1  0  0  0
  1  3  1  0  0  0
  1  8  1  0  0  0
 16  2  1  0  0  0
  3  4  1  0  0  0
  3  5  1  0  0  0
  5  6  1  0  0  0
  7  6  1  0  0  0
  8  7  1  0  0  0
  7  9  1  0  0  0
  9 10  1  0  0  0
 11 12  1  0  0  0
 13 11  1  0  0  0
 11 19  1  0  0  0
 14 13  1  0  0  0
 14 15  1  0  0  0
 14 16  1  0  0  0
 16 17  1  0  0  0
 17 18  1  0  0  0
 17 19  1  0  0  0
 19 20  1  0  0  0
 20 21  1  0  0  0
 21 22  1  0  0  0
 21 29  1  0  0  0
 22 23  1  0  0  0
 22 24  1  0  0  0
 24 25  1  0  0  0
 24 26  1  0  0  0
 25 31  1  0  0  0
 26 27  1  0  0  0
 26 28  1  0  0  0
 26 30  1  0  0  0
 28 29  1  0  0  0
  1 32  1  0  0  0
  3 33  1  0  0  0
  4 34  1  0  0  0
  4 35  1  0  0  0
  4 36  1  0  0  0
  5 37  1  0  0  0
  5 38  1  0  0  0
  6 39  1  0  0  0
  6 40  1  0  0  0
  7 41  1  0  0  0
  9 42  1  0  0  0
  9 43  1  0  0  0
 10 44  1  0  0  0
 10 45  1  0  0  0
 10 46  1  0  0  0
 11 47  1  0  0  0
 12 48  1  0  0  0
 12 49  1  0  0  0
 12 50  1  0  0  0
 13 51  1  0  0  0
 13 52  1  0  0  0
 14 53  1  0  0  0
 15 54  1  0  0  0
 15 55  1  0  0  0
 15 56  1  0  0  0
 16 57  1  0  0  0
 17 58  1  0  0  0
 18 59  1  0  0  0
 19 60  1  0  0  0
 21 61  1  0  0  0
 22 62  1  0  0  0
 23 63  1  0  0  0
 24 64  1  0  0  0
 25 65  1  0  0  0
 25 66  1  0  0  0
 27 67  1  0  0  0
 28 68  1  0  0  0
 28 69  1  0  0  0
 30 70  1  0  0  0
 30 71  1  0  0  0
 30 72  1  0  0  0
 31 73  1  0  0  0
 31 74  1  0  0  0
 31 75  1  0  0  0
M  END
$$$$
