4auy_ligand
  -I-interpret- 

 40 41  0  0  0  0  0  0  0  0999 V2000
   15.5870  -59.6380   20.9280 O   0  0  0  0  0
   15.8800  -60.8920   20.3850 C   0  0  0  0  0
   14.9540  -61.9230   20.7340 C   0  0  0  0  0
   14.7350  -61.9160   22.1970 O   0  0  0  0  0
   13.6110  -61.7360   20.0180 C   0  0  0  0  0
   13.8340  -61.7690   18.6030 O   0  0  0  0  0
   12.6930  -62.7240   20.4240 C   0  0  0  0  0
   11.4590  -62.4720   19.7490 O   0  0  0  0  0
   12.4700  -62.6890   21.8880 C   0  0  0  0  0
   11.8970  -61.5230   22.3250 O   0  0  0  0  0
   21.9120  -68.9520   24.1170 O   0  0  0  0  0
   21.5270  -67.6050   24.1590 C   0  0  0  0  0
   20.1350  -67.1490   23.6690 C   0  0  0  0  0
   19.0270  -66.8250   23.2630 C   0  0  0  0  0
   17.7180  -66.2390   22.9050 C   0  0  0  0  0
   17.4180  -65.0690   23.4970 C   0  0  0  0  0
   16.2200  -64.3470   23.3000 C   0  0  0  0  0
   15.2890  -64.8680   22.4500 C   0  0  0  0  0
   14.0740  -64.2070   22.2090 O   0  0  0  0  0
   13.8190  -62.9070   22.5900 C   0  0  0  0  0
   15.5660  -66.0640   21.8640 C   0  0  0  0  0
   16.7850  -66.7840   22.0560 C   0  0  0  0  0
   16.2526  -59.0056   20.6474 H   0  0  0  0  0
   16.8514  -61.1902   20.7795 H   0  0  0  0  0
   15.8434  -60.7854   19.3008 H   0  0  0  0  0
   15.3771  -62.8776   20.4213 H   0  0  0  0  0
   13.1783  -60.7713   20.2828 H   0  0  0  0  0
   14.4628  -61.0843   18.3632 H   0  0  0  0  0
   13.0888  -63.7087   20.1753 H   0  0  0  0  0
   11.6040  -62.4948   18.8003 H   0  0  0  0  0
   11.7635  -63.4817   22.1339 H   0  0  0  0  0
   11.7794  -61.5627   23.2769 H   0  0  0  0  0
   22.8041  -69.0395   24.4608 H   0  0  0  0  0
   22.2181  -67.1149   23.4733 H   0  0  0  0  0
   21.5188  -67.3693   25.2232 H   0  0  0  0  0
   18.1547  -64.6463   24.1801 H   0  0  0  0  0
   16.0446  -63.4010   23.8123 H   0  0  0  0  0
   13.8633  -62.8041   23.6742 H   0  0  0  0  0
   14.8121  -66.4995   21.2081 H   0  0  0  0  0
   16.9682  -67.7307   21.5478 H   0  0  0  0  0
  2  1  1  0  0  0
  3  2  1  0  0  0
  4  3  1  0  0  0
  3  5  1  0  0  0
 20  4  1  0  0  0
  5  6  1  0  0  0
  7  5  1  0  0  0
  7  8  1  0  0  0
  9  7  1  0  0  0
  9 10  1  0  0  0
 20  9  1  0  0  0
 12 11  1  0  0  0
 13 12  1  0  0  0
 14 13  3  0  0  0
 15 14  1  0  0  0
 16 15  4  0  0  0
 15 22  4  0  0  0
 17 16  4  0  0  0
 18 17  4  0  0  0
 19 18  1  0  0  0
 18 21  4  0  0  0
 19 20  1  0  0  0
 21 22  4  0  0  0
  1 23  1  0  0  0
  2 24  1  0  0  0
  2 25  1  0  0  0
  3 26  1  0  0  0
  5 27  1  0  0  0
  6 28  1  0  0  0
  7 29  1  0  0  0
  8 30  1  0  0  0
  9 31  1  0  0  0
 10 32  1  0  0  0
 11 33  1  0  0  0
 12 34  1  0  0  0
 12 35  1  0  0  0
 16 36  1  0  0  0
 17 37  1  0  0  0
 20 38  1  0  0  0
 21 39  1  0  0  0
 22 40  1  0  0  0
M  END
$$$$
