6aom_ligand
  -I-interpret- 

 49 51  0  0  0  0  0  0  0  0999 V2000
 -120.2510    4.5830   95.4510 O   0  0  0  0  0
 -120.4770    5.0410   96.6780 C   0  0  0  0  0
 -120.8400    6.3780   96.8540 C   0  0  0  0  0
 -121.0750    6.8430   98.1380 C   0  0  0  0  0
 -121.4280    8.1200   98.3280 O   0  0  0  0  0
 -120.9450    5.9630   99.2110 C   0  0  0  0  0
 -121.2550    6.6200  100.7500 Cl  0  0  0  0  0
 -120.5900    4.6310   99.0820 C   0  0  0  0  0
 -120.4640    3.7760  100.3320 C   0  0  0  0  0
 -119.0140    3.4240  100.7410 C   0  0  0  0  0
 -118.5960    3.3050  102.2030 C   0  0  0  0  0
 -117.4980    2.4790  102.6190 C   0  0  0  0  0
 -116.6680    1.5860  101.6380 C   0  0  0  0  0
 -115.6790    2.1770  100.5680 C   0  0  0  0  0
 -116.0120    3.1160   99.5610 C   0  0  0  0  0
 -115.0830    3.5800   98.6230 C   0  0  0  0  0
 -113.7770    3.1120   98.6410 C   0  0  0  0  0
 -113.4200    2.1820   99.6080 C   0  0  0  0  0
 -114.3540    1.7260  100.5350 C   0  0  0  0  0
 -117.1990    2.4370  104.0000 C   0  0  0  0  0
 -117.9000    3.1850  104.9520 C   0  0  0  0  0
 -118.9500    4.0030  104.5380 C   0  0  0  0  0
 -119.2820    4.0550  103.1760 C   0  0  0  0  0
 -120.3480    4.1640   97.7870 C   0  0  0  0  0
 -119.9400    2.7480   97.3990 C   0  0  0  0  0
 -118.6570    2.3340   97.8720 O   0  0  0  0  0
 -118.2930    0.9810   97.6270 C   0  0  0  0  0
 -120.5920    2.0310   96.7420 O   0  0  0  0  0
 -120.0134    3.6540   95.4962 H   0  0  0  0  0
 -120.9368    7.0440   95.9965 H   0  0  0  0  0
 -121.5524    8.2802   99.2663 H   0  0  0  0  0
 -120.9686    2.8333  100.1203 H   0  0  0  0  0
 -120.8906    4.3534  101.1522 H   0  0  0  0  0
 -118.4311    4.2691  100.3748 H   0  0  0  0  0
 -118.8741    2.4160  100.3506 H   0  0  0  0  0
 -117.4353    1.1083  101.0288 H   0  0  0  0  0
 -116.0082    1.0320  102.3057 H   0  0  0  0  0
 -117.0338    3.4926   99.5149 H   0  0  0  0  0
 -115.3867    4.3123   97.8749 H   0  0  0  0  0
 -113.0478    3.4664   97.9125 H   0  0  0  0  0
 -112.3979    1.8047   99.6421 H   0  0  0  0  0
 -114.0389    0.9839  101.2685 H   0  0  0  0  0
 -116.3866    1.7936  104.3379 H   0  0  0  0  0
 -117.6281    3.1287  106.0060 H   0  0  0  0  0
 -119.5067    4.5954  105.2641 H   0  0  0  0  0
 -120.1016    4.7002  102.8598 H   0  0  0  0  0
 -119.0142    0.3195   98.1069 H   0  0  0  0  0
 -118.2874    0.7964   96.5528 H   0  0  0  0  0
 -117.2994    0.7939   98.0343 H   0  0  0  0  0
  1  2  1  0  0  0
  2  3  4  0  0  0
  2 24  4  0  0  0
  3  4  4  0  0  0
  4  5  1  0  0  0
  4  6  4  0  0  0
  6  7  1  0  0  0
  6  8  4  0  0  0
  8  9  1  0  0  0
  8 24  4  0  0  0
  9 10  1  0  0  0
 10 11  1  0  0  0
 11 12  4  0  0  0
 11 23  4  0  0  0
 12 13  1  0  0  0
 12 20  4  0  0  0
 13 14  1  0  0  0
 14 15  4  0  0  0
 14 19  4  0  0  0
 15 16  4  0  0  0
 16 17  4  0  0  0
 17 18  4  0  0  0
 18 19  4  0  0  0
 20 21  4  0  0  0
 21 22  4  0  0  0
 22 23  4  0  0  0
 24 25  1  0  0  0
 25 26  1  0  0  0
 25 28  2  0  0  0
 26 27  1  0  0  0
  1 29  1  0  0  0
  3 30  1  0  0  0
  5 31  1  0  0  0
  9 32  1  0  0  0
  9 33  1  0  0  0
 10 34  1  0  0  0
 10 35  1  0  0  0
 13 36  1  0  0  0
 13 37  1  0  0  0
 15 38  1  0  0  0
 16 39  1  0  0  0
 17 40  1  0  0  0
 18 41  1  0  0  0
 19 42  1  0  0  0
 20 43  1  0  0  0
 21 44  1  0  0  0
 22 45  1  0  0  0
 23 46  1  0  0  0
 27 47  1  0  0  0
 27 48  1  0  0  0
 27 49  1  0  0  0
M  END
$$$$
