2xe4_ligand
  -I-interpret- 

 89 89  0  0  0  0  0  0  0  0999 V2000
   -3.5310   24.2540   67.4760 C   0  0  0  0  0
   -3.7450   22.9060   67.1500 C   0  0  0  0  0
   -4.4130   22.5740   65.9770 C   0  0  0  0  0
   -4.8680   23.5960   65.1230 C   0  0  0  0  0
   -4.6640   24.9470   65.4650 C   0  0  0  0  0
   -3.9970   25.2840   66.6640 C   0  0  0  0  0
   -3.7720   26.7790   67.0450 C   0  0  0  0  0
   -3.8270   27.0900   68.5840 C   0  0  0  0  0
   -3.7760   28.6370   68.8900 C   0  0  0  0  0
   -3.5640   29.0220   70.0930 O   0  0  0  0  0
   -4.0210   29.3910   67.9320 O   0  0  0  0  0
   -5.0430   26.5660   69.2790 N   0  0  0  0  0
   -5.0930   26.4850   70.6370 C   0  0  0  0  0
   -4.1030   26.8640   71.3010 O   0  0  0  0  0
   -6.2240   25.9640   71.2350 N   0  0  0  0  0
   -6.4750   25.8520   72.7050 C   0  0  0  0  0
   -5.7520   24.5030   73.1310 C   0  0  0  0  0
   -6.3630   23.4780   73.5020 O   0  0  0  0  0
   -7.9670   25.6240   72.9410 C   0  0  0  0  0
   -8.7800   26.8910   72.7380 C   0  0  0  0  0
  -10.3340   26.5640   72.8860 C   0  0  0  0  0
  -10.8520   25.9250   74.2530 N   0  0  0  0  0
  -11.1950   24.7790   75.0580 C   0  0  0  0  0
  -11.6200   23.3510   74.7900 N   0  0  0  0  0
  -11.3460   25.3200   76.3390 N   0  0  0  0  0
   -4.4400   24.4790   73.0300 N   0  0  0  0  0
   -3.6670   23.2590   73.2650 C   0  0  0  0  0
   -2.8530   23.4040   74.5240 C   0  0  0  0  0
   -2.5020   24.4950   74.9430 O   0  0  0  0  0
   -2.7600   22.9390   71.9890 C   0  0  0  0  0
   -3.7730   22.5520   70.7830 C   0  0  0  0  0
   -1.7700   24.1130   71.6820 C   0  0  0  0  0
   -2.4120   22.2230   74.9770 N   0  0  0  0  0
   -1.4650   22.1680   76.1230 C   0  0  0  0  0
   -0.0800   22.3510   75.4320 C   0  0  0  0  0
    0.2710   21.2790   74.5170 O   0  0  0  0  0
   -1.4950   20.8250   76.8900 C   0  0  0  0  0
   -2.9840   20.7780   77.5020 C   0  0  0  0  0
   -3.0690   19.4630   78.3310 C   0  0  0  0  0
   -4.4500   19.0820   78.5430 N   0  0  0  0  0
   -5.2000   19.2860   79.6930 C   0  0  0  0  0
   -4.7650   20.1190   80.6800 N   0  0  0  0  0
   -6.3570   18.5760   79.6780 N   0  0  0  0  0
   -2.9865   24.5005   68.3875 H   0  0  0  0  0
   -3.3879   22.1203   67.8157 H   0  0  0  0  0
   -4.5834   21.5285   65.7202 H   0  0  0  0  0
   -5.3795   23.3414   64.1947 H   0  0  0  0  0
   -5.0219   25.7351   64.8025 H   0  0  0  0  0
   -4.5792   27.3460   66.5812 H   0  0  0  0  0
   -2.7694   27.0414   66.7074 H   0  0  0  0  0
   -2.9431   26.5779   68.9643 H   0  0  0  0  0
   -3.3984   28.2566   70.6483 H   0  0  0  0  0
   -5.8466   26.2649   68.7276 H   0  0  0  0  0
   -6.9583   25.6230   70.6145 H   0  0  0  0  0
   -6.1358   26.7376   73.2424 H   0  0  0  0  0
   -8.1012   25.2964   73.9719 H   0  0  0  0  0
   -8.3140   24.8798   72.2242 H   0  0  0  0  0
   -8.5880   27.2869   71.7408 H   0  0  0  0  0
   -8.4933   27.6277   73.4884 H   0  0  0  0  0
  -10.5403   25.8121   72.1243 H   0  0  0  0  0
  -10.8358   27.5290   72.8149 H   0  0  0  0  0
  -11.0283   26.7260   74.8594 H   0  0  0  0  0
  -12.0150   22.7867   75.5423 H   0  0  0  0  0
  -11.5114   22.9531   73.8571 H   0  0  0  0  0
  -11.2076   26.3192   76.4902 H   0  0  0  0  0
   -3.9473   25.3365   72.7804 H   0  0  0  0  0
   -4.3392   22.4129   73.4079 H   0  0  0  0  0
   -2.0937   22.0928   72.1568 H   0  0  0  0  0
   -4.3613   21.6804   71.0699 H   0  0  0  0  0
   -4.4387   23.3923   70.5856 H   0  0  0  0  0
   -3.1975   22.3242   69.8858 H   0  0  0  0  0
   -2.3372   25.0226   71.4844 H   0  0  0  0  0
   -1.1170   24.2698   72.5405 H   0  0  0  0  0
   -1.1692   23.8609   70.8082 H   0  0  0  0  0
   -2.7263   21.3592   74.5350 H   0  0  0  0  0
   -1.7091   22.9170   76.8763 H   0  0  0  0  0
    0.6743   22.3640   76.2188 H   0  0  0  0  0
   -0.1291   23.2704   74.8486 H   0  0  0  0  0
    1.1315   21.4582   74.1310 H   0  0  0  0  0
   -0.7243   20.7643   77.6584 H   0  0  0  0  0
   -1.2791   19.9711   76.2478 H   0  0  0  0  0
   -3.7351   20.7949   76.7122 H   0  0  0  0  0
   -3.1812   21.6500   78.1255 H   0  0  0  0  0
   -2.5948   19.6247   79.2990 H   0  0  0  0  0
   -2.5633   18.6674   77.7838 H   0  0  0  0  0
   -4.9200   18.6156   77.7672 H   0  0  0  0  0
   -5.3317   20.2580   81.5166 H   0  0  0  0  0
   -3.8727   20.6034   80.5821 H   0  0  0  0  0
   -6.5809   17.9827   78.8791 H   0  0  0  0  0
  1  2  4  0  0  0
  1  6  4  0  0  0
  2  3  4  0  0  0
  3  4  4  0  0  0
  4  5  4  0  0  0
  5  6  4  0  0  0
  6  7  1  0  0  0
  7  8  1  0  0  0
  8  9  1  0  0  0
  8 12  1  0  0  0
  9 10  1  0  0  0
  9 11  2  0  0  0
 12 13  1  0  0  0
 13 14  2  0  0  0
 13 15  1  0  0  0
 15 16  1  0  0  0
 16 17  1  0  0  0
 16 19  1  0  0  0
 17 18  2  0  0  0
 17 26  1  0  0  0
 19 20  1  0  0  0
 20 21  1  0  0  0
 21 22  1  0  0  0
 22 23  1  0  0  0
 23 24  1  0  0  0
 23 25  2  0  0  0
 26 27  1  0  0  0
 27 28  1  0  0  0
 27 30  1  0  0  0
 28 29  2  0  0  0
 28 33  1  0  0  0
 30 31  1  0  0  0
 30 32  1  0  0  0
 33 34  1  0  0  0
 34 35  1  0  0  0
 34 37  1  0  0  0
 35 36  1  0  0  0
 37 38  1  0  0  0
 38 39  1  0  0  0
 39 40  1  0  0  0
 40 41  1  0  0  0
 41 42  1  0  0  0
 41 43  2  0  0  0
  1 44  1  0  0  0
  2 45  1  0  0  0
  3 46  1  0  0  0
  4 47  1  0  0  0
  5 48  1  0  0  0
  7 49  1  0  0  0
  7 50  1  0  0  0
  8 51  1  0  0  0
 10 52  1  0  0  0
 12 53  1  0  0  0
 15 54  1  0  0  0
 16 55  1  0  0  0
 19 56  1  0  0  0
 19 57  1  0  0  0
 20 58  1  0  0  0
 20 59  1  0  0  0
 21 60  1  0  0  0
 21 61  1  0  0  0
 22 62  1  0  0  0
 24 63  1  0  0  0
 24 64  1  0  0  0
 25 65  1  0  0  0
 26 66  1  0  0  0
 27 67  1  0  0  0
 30 68  1  0  0  0
 31 69  1  0  0  0
 31 70  1  0  0  0
 31 71  1  0  0  0
 32 72  1  0  0  0
 32 73  1  0  0  0
 32 74  1  0  0  0
 33 75  1  0  0  0
 34 76  1  0  0  0
 35 77  1  0  0  0
 35 78  1  0  0  0
 36 79  1  0  0  0
 37 80  1  0  0  0
 37 81  1  0  0  0
 38 82  1  0  0  0
 38 83  1  0  0  0
 39 84  1  0  0  0
 39 85  1  0  0  0
 40 86  1  0  0  0
 42 87  1  0  0  0
 42 88  1  0  0  0
 43 89  1  0  0  0
M  END
$$$$
