4rrn_ligand
  -I-interpret- 

 47 51  0  0  0  0  0  0  0  0999 V2000
   25.2580   14.3130    8.9900 C   0  0  0  0  0
   26.1010   13.2200    8.6550 C   0  0  0  0  0
   27.5050   13.3480    8.7960 C   0  0  0  0  0
   28.0840   14.5560    9.2580 C   0  0  0  0  0
   27.2430   15.6530    9.5970 C   0  0  0  0  0
   25.8380   15.5220    9.4470 C   0  0  0  0  0
   23.7370   14.2120    8.8220 C   0  0  0  0  0
   23.2910   12.7610    8.6210 C   0  0  0  0  0
   24.2480   11.9930    7.6880 C   0  0  0  0  0
   25.5750   12.0230    8.2060 O   0  0  0  0  0
   21.9360   12.6930    8.1770 O   0  0  0  0  0
   21.4060   11.3690    8.0390 C   0  0  0  0  0
   22.2840   10.5030    7.1110 C   0  0  0  0  0
   23.7670   10.5310    7.5580 C   0  0  0  0  0
   27.7810   16.8960   10.0260 C   0  0  0  0  0
   27.3340   17.5990   11.1780 C   0  0  0  0  0
   27.8280   18.7990   11.5590 N   0  0  0  0  0
   28.7950   19.3720   10.8100 C   0  0  0  0  0
   29.3070   18.7590    9.6360 C   0  0  0  0  0
   28.7840   17.5050    9.2230 C   0  0  0  0  0
   26.3790   17.0780   11.9700 F   0  0  0  0  0
   22.9580   14.7530    9.9300 N   0  0  0  0  0
   22.2650   15.7610    9.5280 C   0  0  0  0  0
   22.4280   16.0760    8.2160 N   0  0  0  0  0
   23.3120   15.1800    7.6950 C   0  0  0  0  0
   23.7240   15.1310    6.5290 O   0  0  0  0  0
   21.7820   17.1650    7.4750 C   0  0  0  0  0
   21.3980   16.4910   10.3080 N   0  0  0  0  0
   28.1490   12.5051    8.5455 H   0  0  0  0  0
   29.1662   14.6445    9.3531 H   0  0  0  0  0
   25.1932   16.3672    9.6878 H   0  0  0  0  0
   23.3368   12.2649    9.5905 H   0  0  0  0  0
   24.2490   12.4670    6.7065 H   0  0  0  0  0
   20.4089   11.4395    7.6045 H   0  0  0  0  0
   21.3799   10.9029    9.0240 H   0  0  0  0  0
   22.2179   10.9006    6.0982 H   0  0  0  0  0
   21.9267    9.4741    7.1538 H   0  0  0  0  0
   23.8614   10.0338    8.5234 H   0  0  0  0  0
   24.3766   10.0162    6.8154 H   0  0  0  0  0
   29.1960   20.3379   11.1173 H   0  0  0  0  0
   30.0928   19.2456    9.0582 H   0  0  0  0  0
   29.1422   17.0218    8.3140 H   0  0  0  0  0
   22.9616   14.3871   10.8821 H   0  0  0  0  0
   20.7006   17.0312    7.5042 H   0  0  0  0  0
   22.0438   18.1192    7.9323 H   0  0  0  0  0
   22.1233   17.1509    6.4399 H   0  0  0  0  0
   20.8777   17.2685    9.9016 H   0  0  0  0  0
  1  2  4  0  0  0
  1  6  4  0  0  0
  1  7  1  0  0  0
  2  3  4  0  0  0
  2 10  1  0  0  0
  3  4  4  0  0  0
  4  5  4  0  0  0
  5  6  4  0  0  0
  5 15  1  0  0  0
  7  8  1  0  0  0
  7 22  1  0  0  0
  7 25  1  0  0  0
  8  9  1  0  0  0
  8 11  1  0  0  0
  9 10  1  0  0  0
  9 14  1  0  0  0
 11 12  1  0  0  0
 12 13  1  0  0  0
 13 14  1  0  0  0
 15 16  4  0  0  0
 15 20  4  0  0  0
 16 17  4  0  0  0
 16 21  1  0  0  0
 17 18  4  0  0  0
 18 19  4  0  0  0
 19 20  4  0  0  0
 22 23  1  0  0  0
 23 24  4  0  0  0
 23 28  2  0  0  0
 24 25  1  0  0  0
 24 27  1  0  0  0
 25 26  2  0  0  0
  3 29  1  0  0  0
  4 30  1  0  0  0
  6 31  1  0  0  0
  8 32  1  0  0  0
  9 33  1  0  0  0
 12 34  1  0  0  0
 12 35  1  0  0  0
 13 36  1  0  0  0
 13 37  1  0  0  0
 14 38  1  0  0  0
 14 39  1  0  0  0
 18 40  1  0  0  0
 19 41  1  0  0  0
 20 42  1  0  0  0
 22 43  1  0  0  0
 27 44  1  0  0  0
 27 45  1  0  0  0
 27 46  1  0  0  0
 28 47  1  0  0  0
M  END
$$$$
