6bjo_ligand
  -I-interpret- 

 79 82  0  0  0  0  0  0  0  0999 V2000
  -14.8060   37.3090   -8.7530 C   0  0  0  0  0
  -14.1850   36.1160   -9.5200 C   0  0  0  0  0
  -16.4200   35.5110  -10.5300 C   0  0  0  0  0
   -8.7970   38.4910   -4.3330 O   0  0  0  0  0
  -18.2590   35.1660   -7.4070 C   0  0  0  0  0
  -18.9360   34.1530   -9.4490 C   0  0  0  0  0
  -13.3710   39.4210   -3.7490 O   0  0  0  0  0
  -18.7930   36.5940   -9.3700 C   0  0  0  0  0
  -14.4300   36.3570  -11.8160 C   0  0  0  0  0
  -13.0120   36.8280  -11.5200 C   0  0  0  0  0
  -12.7850   36.2930  -10.1070 C   0  0  0  0  0
  -10.8420   37.4870   -3.5850 C   0  0  0  0  0
  -10.3980   37.7610   -2.1500 C   0  0  0  0  0
  -11.4330   38.0580   -1.0120 C   0  0  0  0  0
  -11.9830   36.7030   -0.5670 C   0  0  0  0  0
  -10.8340   35.7380   -0.8350 C   0  0  0  0  0
   -9.7870   36.5060   -1.6430 C   0  0  0  0  0
   -9.7610   37.7040   -4.5880 C   0  0  0  0  0
  -15.5340   38.1700   -9.2520 O   0  0  0  0  0
  -15.0940   35.9710  -10.6170 N   0  0  0  0  0
  -16.8680   35.1810   -9.2730 O   0  0  0  0  0
  -18.1010   35.3100   -8.9190 C   0  0  0  0  0
  -17.1510   35.4210  -11.5040 O   0  0  0  0  0
  -14.6150   37.3100   -7.3630 N   0  0  0  0  0
  -14.9600   38.4980   -6.5940 C   0  0  0  0  0
  -15.4640   38.1640   -5.2170 C   0  0  0  0  0
  -14.4960   37.2910   -4.4230 C   0  0  0  0  0
  -13.3710   38.2420   -4.1120 C   0  0  0  0  0
  -12.0690   38.0550   -3.8890 N   0  0  0  0  0
   -9.9470   36.8510   -5.4750 O   0  0  0  0  0
  -15.0220   36.8900   -3.0360 C   0  0  0  0  0
  -15.2830   35.5530   -2.6980 C   0  0  0  0  0
  -15.6550   35.2110   -1.4180 C   0  0  0  0  0
  -15.8550   36.2600   -0.5190 C   0  0  0  0  0
  -16.4580   35.9000    1.3100 Br  0  0  0  0  0
  -15.6660   37.5930   -0.7740 C   0  0  0  0  0
  -15.2530   37.8640   -2.0810 C   0  0  0  0  0
  -14.1050   36.1480   -5.4310 C   0  0  0  0  0
  -13.5370   36.6050   -6.7920 C   0  0  0  0  0
  -14.0581   35.2846   -8.8266 H   0  0  0  0  0
   -9.0094   39.0143   -3.5567 H   0  0  0  0  0
  -17.9092   34.1808   -7.0986 H   0  0  0  0  0
  -17.6705   35.9350   -6.9066 H   0  0  0  0  0
  -19.3097   35.2798   -7.1403 H   0  0  0  0  0
  -18.8810   34.1356  -10.5375 H   0  0  0  0  0
  -18.5501   33.2152   -9.0494 H   0  0  0  0  0
  -19.9727   34.2826   -9.1383 H   0  0  0  0  0
  -18.2660   37.4538   -8.9564 H   0  0  0  0  0
  -18.7815   36.6483  -10.4586 H   0  0  0  0  0
  -19.8239   36.5933   -9.0158 H   0  0  0  0  0
  -14.3829   35.4974  -12.4846 H   0  0  0  0  0
  -14.9835   37.1750  -12.2771 H   0  0  0  0  0
  -12.8926   37.9088  -11.5957 H   0  0  0  0  0
  -12.2787   36.4659  -12.2406 H   0  0  0  0  0
  -12.2293   35.3553  -10.1150 H   0  0  0  0  0
  -12.1803   36.9752   -9.5096 H   0  0  0  0  0
  -11.0324   36.4160   -3.6543 H   0  0  0  0  0
   -9.8109   38.6688   -2.2891 H   0  0  0  0  0
  -12.2324   38.7072   -1.3691 H   0  0  0  0  0
  -10.9615   38.5817   -0.1804 H   0  0  0  0  0
  -12.8904   36.4270   -1.1041 H   0  0  0  0  0
  -12.2894   36.7029    0.4790 H   0  0  0  0  0
  -11.1833   34.8649   -1.3862 H   0  0  0  0  0
  -10.4093   35.3737    0.1004 H   0  0  0  0  0
   -8.9320   36.7417   -1.0093 H   0  0  0  0  0
   -9.4473   35.8965   -2.4804 H   0  0  0  0  0
  -15.7533   39.0244   -7.1247 H   0  0  0  0  0
  -14.0596   39.1027   -6.4858 H   0  0  0  0  0
  -16.3954   37.6091   -5.3299 H   0  0  0  0  0
  -15.5892   39.1003   -4.6731 H   0  0  0  0  0
  -11.7497   39.0061   -4.0731 H   0  0  0  0  0
  -15.1900   34.7770   -3.4578 H   0  0  0  0  0
  -15.7872   34.1708   -1.1204 H   0  0  0  0  0
  -15.8233   38.3703   -0.0262 H   0  0  0  0  0
  -15.1038   38.9056   -2.3654 H   0  0  0  0  0
  -15.0258   35.6079   -5.6511 H   0  0  0  0  0
  -13.3143   35.5736   -4.9484 H   0  0  0  0  0
  -12.6386   37.2141   -6.6924 H   0  0  0  0  0
  -13.2005   35.7731   -7.4107 H   0  0  0  0  0
  1  2  1  0  0  0
  1 19  2  0  0  0
 24  1  1  0  0  0
  2 11  1  0  0  0
  2 20  1  0  0  0
 20  3  1  0  0  0
  3 21  1  0  0  0
  3 23  2  0  0  0
 18  4  1  0  0  0
 22  5  1  0  0  0
 22  6  1  0  0  0
 28  7  2  0  0  0
 22  8  1  0  0  0
  9 10  1  0  0  0
 20  9  1  0  0  0
 11 10  1  0  0  0
 12 13  1  0  0  0
 12 18  1  0  0  0
 29 12  1  0  0  0
 13 14  1  0  0  0
 13 17  1  0  0  0
 14 15  1  0  0  0
 16 15  1  0  0  0
 17 16  1  0  0  0
 18 30  2  0  0  0
 21 22  1  0  0  0
 25 24  1  0  0  0
 24 39  1  0  0  0
 26 25  1  0  0  0
 27 26  1  0  0  0
 28 27  1  0  0  0
 27 31  1  0  0  0
 27 38  1  0  0  0
 28 29  1  0  0  0
 31 32  4  0  0  0
 31 37  4  0  0  0
 32 33  4  0  0  0
 33 34  4  0  0  0
 34 35  1  0  0  0
 34 36  4  0  0  0
 36 37  4  0  0  0
 38 39  1  0  0  0
  2 40  1  0  0  0
  4 41  1  0  0  0
  5 42  1  0  0  0
  5 43  1  0  0  0
  5 44  1  0  0  0
  6 45  1  0  0  0
  6 46  1  0  0  0
  6 47  1  0  0  0
  8 48  1  0  0  0
  8 49  1  0  0  0
  8 50  1  0  0  0
  9 51  1  0  0  0
  9 52  1  0  0  0
 10 53  1  0  0  0
 10 54  1  0  0  0
 11 55  1  0  0  0
 11 56  1  0  0  0
 12 57  1  0  0  0
 13 58  1  0  0  0
 14 59  1  0  0  0
 14 60  1  0  0  0
 15 61  1  0  0  0
 15 62  1  0  0  0
 16 63  1  0  0  0
 16 64  1  0  0  0
 17 65  1  0  0  0
 17 66  1  0  0  0
 25 67  1  0  0  0
 25 68  1  0  0  0
 26 69  1  0  0  0
 26 70  1  0  0  0
 29 71  1  0  0  0
 32 72  1  0  0  0
 33 73  1  0  0  0
 36 74  1  0  0  0
 37 75  1  0  0  0
 38 76  1  0  0  0
 38 77  1  0  0  0
 39 78  1  0  0  0
 39 79  1  0  0  0
M  END
$$$$
