6s9c_ligand
  -I-interpret- 

 51 54  0  0  0  0  0  0  0  0999 V2000
  -18.6160  -48.1380   -1.5630 C   0  0  0  0  0
  -19.5260  -49.2580   -2.0930 C   0  0  0  0  0
  -20.8220  -48.6170   -2.6370 C   0  0  0  0  0
  -19.9680  -50.3300   -1.0790 C   0  0  0  0  0
  -17.8010  -50.9230    0.3820 C   0  0  0  0  0
  -16.6440  -50.1910    0.0660 C   0  0  0  0  0
  -16.4770  -52.0650    2.1060 C   0  0  0  0  0
  -17.6890  -51.8740    1.4270 C   0  0  0  0  0
  -18.8870  -52.4700    1.5800 N   0  0  0  0  0
  -21.7520  -53.2890    1.3410 C   0  0  0  0  0
  -23.1850  -53.5890    0.9980 C   0  0  0  0  0
  -23.8280  -54.7090    1.5550 C   0  0  0  0  0
  -23.9220  -52.8640    0.0320 C   0  0  0  0  0
  -26.0370  -52.4390   -1.3260 C   0  0  0  0  0
  -27.5550  -51.0330   -3.2420 C   0  0  0  0  0
  -18.8840  -49.9280   -3.1800 O   0  0  0  0  0
  -19.1360  -51.0120   -0.0530 N   0  0  0  0  0
  -15.4500  -50.3910    0.7390 C   0  0  0  0  0
  -15.3650  -51.3270    1.7610 C   0  0  0  0  0
  -19.7380  -51.9810    0.7280 C   0  0  0  0  0
  -21.0760  -52.3670    0.6020 N   0  0  0  0  0
  -21.1810  -53.9350    2.2070 O   0  0  0  0  0
  -25.1330  -55.0120    1.1900 C   0  0  0  0  0
  -25.7820  -54.2870    0.2920 N   0  0  0  0  0
  -25.2430  -53.2180   -0.3050 C   0  0  0  0  0
  -25.4380  -51.4950   -2.1970 C   0  0  0  0  0
  -26.1930  -50.8030   -3.1320 C   0  0  0  0  0
  -28.1630  -51.9590   -2.4090 C   0  0  0  0  0
  -27.4230  -52.6580   -1.4690 C   0  0  0  0  0
  -17.6758  -48.5682   -1.2179 H   0  0  0  0  0
  -18.4184  -47.4235   -2.3621 H   0  0  0  0  0
  -19.1108  -47.6310   -0.7346 H   0  0  0  0  0
  -20.5716  -47.9077   -3.4258 H   0  0  0  0  0
  -21.4699  -49.3958   -3.0392 H   0  0  0  0  0
  -21.3357  -48.0968   -1.8285 H   0  0  0  0  0
  -20.2085  -51.1611   -1.7420 H   0  0  0  0  0
  -20.6503  -49.7575   -0.4507 H   0  0  0  0  0
  -16.6872  -49.4467   -0.7291 H   0  0  0  0  0
  -16.4140  -52.7993    2.9091 H   0  0  0  0  0
  -23.3023  -55.3387    2.2727 H   0  0  0  0  0
  -23.4566  -52.0116   -0.4629 H   0  0  0  0  0
  -28.1449  -50.4888   -3.9795 H   0  0  0  0  0
  -18.5976  -49.2810   -3.8289 H   0  0  0  0  0
  -14.5703  -49.8091    0.4642 H   0  0  0  0  0
  -14.4230  -51.4776    2.2883 H   0  0  0  0  0
  -21.6099  -51.9017   -0.1321 H   0  0  0  0  0
  -25.6330  -55.8634    1.6518 H   0  0  0  0  0
  -24.3659  -51.3098   -2.1309 H   0  0  0  0  0
  -25.7122  -50.0739   -3.7842 H   0  0  0  0  0
  -29.2346  -52.1392   -2.4943 H   0  0  0  0  0
  -27.9196  -53.3884   -0.8302 H   0  0  0  0  0
  2  1  1  0  0  0
  2  3  1  0  0  0
  4  2  1  0  0  0
  2 16  1  0  0  0
 17  4  1  0  0  0
  5  6  4  0  0  0
  5  8  4  0  0  0
 17  5  4  0  0  0
  6 18  4  0  0  0
  8  7  4  0  0  0
  7 19  4  0  0  0
  9  8  4  0  0  0
 20  9  4  0  0  0
 11 10  1  0  0  0
 10 21  1  0  0  0
 10 22  2  0  0  0
 11 12  4  0  0  0
 13 11  4  0  0  0
 23 12  4  0  0  0
 25 13  4  0  0  0
 14 25  1  0  0  0
 26 14  4  0  0  0
 14 29  4  0  0  0
 27 15  4  0  0  0
 15 28  4  0  0  0
 20 17  4  0  0  0
 18 19  4  0  0  0
 21 20  1  0  0  0
 24 23  4  0  0  0
 25 24  4  0  0  0
 26 27  4  0  0  0
 28 29  4  0  0  0
  1 30  1  0  0  0
  1 31  1  0  0  0
  1 32  1  0  0  0
  3 33  1  0  0  0
  3 34  1  0  0  0
  3 35  1  0  0  0
  4 36  1  0  0  0
  4 37  1  0  0  0
  6 38  1  0  0  0
  7 39  1  0  0  0
 12 40  1  0  0  0
 13 41  1  0  0  0
 15 42  1  0  0  0
 16 43  1  0  0  0
 18 44  1  0  0  0
 19 45  1  0  0  0
 21 46  1  0  0  0
 23 47  1  0  0  0
 26 48  1  0  0  0
 27 49  1  0  0  0
 28 50  1  0  0  0
 29 51  1  0  0  0
M  END
$$$$
