5ke0_ligand
  -I-interpret- 

 44 47  0  0  0  0  0  0  0  0999 V2000
   50.0450   17.2430    9.0120 O   0  0  0  0  0
   49.5720   16.1150    9.1480 C   0  0  0  0  0
   48.4810   15.8760    9.9140 N   0  0  0  0  0
   47.8080   16.9220   10.6780 C   0  0  0  0  0
   46.6480   17.5940    9.9870 C   0  0  0  0  0
   46.2960   18.8940   10.3280 C   0  0  0  0  0
   45.2190   19.5190    9.7250 C   0  0  0  0  0
   44.4670   18.8490    8.7860 C   0  0  0  0  0
   44.8100   17.5600    8.4280 C   0  0  0  0  0
   45.8980   16.9390    9.0200 C   0  0  0  0  0
   50.1520   15.0010    8.5820 N   0  0  0  0  0
   49.8590   13.6240    8.6010 C   0  0  0  0  0
   48.7630   13.2820    9.3050 N   0  0  0  0  0
   48.4520   11.9830    9.4020 C   0  0  0  0  0
   50.6720   12.6880    7.9510 C   0  0  0  0  0
   50.3160   11.3470    8.0880 C   0  0  0  0  0
   50.9190   10.2070    7.6550 N   0  0  0  0  0
   50.2390    9.0760    8.0560 N   0  0  0  0  0
   49.2010    9.5030    8.7690 C   0  0  0  0  0
   49.1860   10.9460    8.8290 C   0  0  0  0  0
   48.2300    8.5680    9.4060 C   0  0  0  0  0
   47.8870    7.3700    8.7840 C   0  0  0  0  0
   46.8840    6.5710    9.3240 C   0  0  0  0  0
   46.4140    5.3210    8.6440 C   0  0  0  0  0
   46.2540    6.9190   10.4610 N   0  0  0  0  0
   46.5990    8.0680   11.0650 C   0  0  0  0  0
   47.5700    8.9190   10.5770 C   0  0  0  0  0
   48.1142   14.9253    9.9589 H   0  0  0  0  0
   48.5512   17.6986   10.8587 H   0  0  0  0  0
   47.4006   16.4408   11.5672 H   0  0  0  0  0
   46.8759   19.4285   11.0804 H   0  0  0  0  0
   44.9651   20.5443    9.9939 H   0  0  0  0  0
   43.6051   19.3337    8.3274 H   0  0  0  0  0
   44.2233   17.0298    7.6778 H   0  0  0  0  0
   46.1678   15.9255    8.7232 H   0  0  0  0  0
   50.9773   15.2232    8.0253 H   0  0  0  0  0
   47.5604   11.7176    9.9701 H   0  0  0  0  0
   51.5403   12.9925    7.3667 H   0  0  0  0  0
   48.4033    7.0589    7.8759 H   0  0  0  0  0
   46.0236    5.5705    7.6574 H   0  0  0  0  0
   47.2496    4.6287    8.5411 H   0  0  0  0  0
   45.6281    4.8578    9.2407 H   0  0  0  0  0
   46.0863    8.3422   11.9870 H   0  0  0  0  0
   47.8133    9.8449   11.0982 H   0  0  0  0  0
  1  2  2  0  0  0
  2  3  1  0  0  0
  2 11  1  0  0  0
  3  4  1  0  0  0
  4  5  1  0  0  0
  5  6  4  0  0  0
  5 10  4  0  0  0
  6  7  4  0  0  0
  7  8  4  0  0  0
  8  9  4  0  0  0
  9 10  4  0  0  0
 11 12  1  0  0  0
 12 13  4  0  0  0
 12 15  4  0  0  0
 13 14  4  0  0  0
 14 20  4  0  0  0
 15 16  4  0  0  0
 16 17  4  0  0  0
 16 20  4  0  0  0
 17 18  4  0  0  0
 18 19  4  0  0  0
 19 20  4  0  0  0
 19 21  1  0  0  0
 21 22  4  0  0  0
 21 27  4  0  0  0
 22 23  4  0  0  0
 23 24  1  0  0  0
 23 25  4  0  0  0
 25 26  4  0  0  0
 26 27  4  0  0  0
  3 28  1  0  0  0
  4 29  1  0  0  0
  4 30  1  0  0  0
  6 31  1  0  0  0
  7 32  1  0  0  0
  8 33  1  0  0  0
  9 34  1  0  0  0
 10 35  1  0  0  0
 11 36  1  0  0  0
 14 37  1  0  0  0
 15 38  1  0  0  0
 22 39  1  0  0  0
 24 40  1  0  0  0
 24 41  1  0  0  0
 24 42  1  0  0  0
 26 43  1  0  0  0
 27 44  1  0  0  0
M  END
$$$$
