5ech_ligand
  -I-interpret- 

 33 33  0  0  0  0  0  0  0  0999 V2000
    3.8280   22.4500  -51.1040 O   0  0  0  0  0
    8.5670   27.5840  -50.3890 O   0  0  0  0  0
    6.4940   27.9380  -50.0700 O   0  0  0  0  0
    5.9410   25.2520  -50.5650 C   0  0  0  0  0
    5.6920   23.6100  -50.5110 C   0  0  0  0  0
    5.4560   25.5740  -51.6580 C   0  0  0  0  0
    4.0570   24.9020  -51.5140 C   0  0  0  0  0
    4.4900   23.4390  -51.0090 C   0  0  0  0  0
    5.9630   23.6230  -49.0520 C   0  0  0  0  0
    7.3200   25.7190  -50.5820 C   0  0  0  0  0
    5.3650   22.4510  -48.3560 C   0  0  0  0  0
    7.4260   27.1710  -50.3240 C   0  0  0  0  0
    4.9650   22.7360  -47.1420 C   0  0  0  0  0
    5.0490   24.1910  -46.8690 C   0  0  0  0  0
    4.6010   24.6390  -45.6100 C   0  0  0  0  0
    5.6700   27.4456  -50.0584 H   0  0  0  0  0
    5.5142   25.6807  -49.6582 H   0  0  0  0  0
    6.2262   22.8167  -51.0339 H   0  0  0  0  0
    6.0311   25.2549  -52.5272 H   0  0  0  0  0
    5.4323   26.6464  -51.8515 H   0  0  0  0  0
    3.4647   24.9020  -52.4290 H   0  0  0  0  0
    3.3773   25.4243  -50.8408 H   0  0  0  0  0
    5.5201   24.5269  -48.6338 H   0  0  0  0  0
    7.0429   23.5869  -48.9083 H   0  0  0  0  0
    7.7310   25.5213  -51.5720 H   0  0  0  0  0
    7.8631   25.1959  -49.7950 H   0  0  0  0  0
    6.1298   21.6776  -48.2841 H   0  0  0  0  0
    4.4953   22.1289  -48.9286 H   0  0  0  0  0
    4.6142   21.9963  -46.4224 H   0  0  0  0  0
    5.4412   24.8858  -47.6117 H   0  0  0  0  0
    3.5494   24.3801  -45.4868 H   0  0  0  0  0
    5.1884   24.1615  -44.8257 H   0  0  0  0  0
    4.7200   25.7207  -45.5472 H   0  0  0  0  0
  8  1  2  0  0  0
 12  2  2  0  0  0
 12  3  1  0  0  0
  4  5  1  0  0  0
  4  6  1  0  0  0
 10  4  1  0  0  0
  5  8  1  0  0  0
  5  9  1  0  0  0
  6  7  1  0  0  0
  7  8  1  0  0  0
  9 11  1  0  0  0
 10 12  1  0  0  0
 11 13  1  0  0  0
 13 14  2  0  0  0
 14 15  1  0  0  0
  3 16  1  0  0  0
  4 17  1  0  0  0
  5 18  1  0  0  0
  6 19  1  0  0  0
  6 20  1  0  0  0
  7 21  1  0  0  0
  7 22  1  0  0  0
  9 23  1  0  0  0
  9 24  1  0  0  0
 10 25  1  0  0  0
 10 26  1  0  0  0
 11 27  1  0  0  0
 11 28  1  0  0  0
 13 29  1  0  0  0
 14 30  1  0  0  0
 15 31  1  0  0  0
 15 32  1  0  0  0
 15 33  1  0  0  0
M  END
$$$$
