4z9l_ligand
  -I-interpret- 

 70 74  0  0  0  0  0  0  0  0999 V2000
   22.2000   11.0150   30.7570 N   0  0  0  0  0
   22.2780   12.3860   30.7190 C   0  0  0  0  0
   21.4500   12.9460   31.5580 N   0  0  0  0  0
   20.8010   11.9110   32.2000 C   0  0  0  0  0
   21.2360   10.6860   31.7150 C   0  0  0  0  0
   22.9600   10.1030   29.8940 C   0  0  0  0  0
   24.3340    9.7400   30.4480 C   0  0  0  0  0
   24.7860   10.5230   31.6420 C   0  0  0  0  0
   23.2050   13.2110   29.8620 C   0  0  0  0  0
   22.3890   13.9220   28.7790 C   0  0  0  0  0
   23.2900   14.7370   27.8720 C   0  0  0  0  0
   24.0620   15.7320   28.6670 N   0  3  0  0  0
   24.8680   15.0900   29.7450 C   0  0  0  0  0
   23.9780   14.2670   30.6570 C   0  0  0  0  0
   19.7100   12.2760   33.1270 C   0  0  0  0  0
   20.7530    9.3180   32.0230 C   0  0  0  0  0
   19.6460   11.7290   34.4060 C   0  0  0  0  0
   18.6620   12.1450   35.2840 C   0  0  0  0  0
   17.7160   13.0860   34.8910 C   0  0  0  0  0
   17.7710   13.6230   33.6150 C   0  0  0  0  0
   18.7660   13.2260   32.7420 C   0  0  0  0  0
   18.6690   11.5180   36.8940 Cl  0  0  0  0  0
   16.4790   13.6230   35.9830 Cl  0  0  0  0  0
   19.4600    9.0730   32.4670 C   0  0  0  0  0
   19.1530    7.7670   32.7920 C   0  0  0  0  0
   20.0120    6.7470   32.6450 N   0  0  0  0  0
   21.2050    7.0730   32.1200 C   0  0  0  0  0
   21.6360    8.3230   31.8330 N   0  0  0  0  0
   22.0030    6.0430   31.7830 N   0  0  0  0  0
   23.3160    6.0850   31.1410 C   0  0  0  0  0
   24.1360    4.8510   31.5010 C   0  0  0  0  0
   25.4950    4.8780   30.8090 C   0  0  0  0  0
   25.3430    4.9950   29.2960 C   0  0  0  0  0
   24.4960    6.2110   28.9180 C   0  0  0  0  0
   23.1450    6.1920   29.6310 C   0  0  0  0  0
   23.1153   10.6087   28.9410 H   0  0  0  0  0
   22.3872    9.1794   29.8102 H   0  0  0  0  0
   25.0504    9.9505   29.6539 H   0  0  0  0  0
   24.2705    8.7003   30.7690 H   0  0  0  0  0
   24.8316   11.5813   31.3849 H   0  0  0  0  0
   24.0800   10.3765   32.4595 H   0  0  0  0  0
   25.7742   10.1791   31.9476 H   0  0  0  0  0
   23.9331   12.5235   29.4315 H   0  0  0  0  0
   21.6763   14.5921   29.2598 H   0  0  0  0  0
   21.8730   13.1722   28.1793 H   0  0  0  0  0
   22.6761   15.2646   27.1421 H   0  0  0  0  0
   23.9867   14.0671   27.3680 H   0  0  0  0  0
   23.3987   16.3711   29.1051 H   0  0  0  0  0
   24.7028   16.2134   28.0361 H   0  0  0  0  0
   25.3547   15.8677   30.3335 H   0  0  0  0  0
   25.6099   14.4344   29.2891 H   0  0  0  0  0
   24.6033   13.7621   31.3934 H   0  0  0  0  0
   23.2635   14.9322   31.1418 H   0  0  0  0  0
   20.3699   10.9747   34.7143 H   0  0  0  0  0
   17.0302   14.3579   33.3000 H   0  0  0  0  0
   18.8128   13.6599   31.7432 H   0  0  0  0  0
   18.7241    9.8724   32.5545 H   0  0  0  0  0
   18.1606    7.5532   33.1889 H   0  0  0  0  0
   21.6459    5.1134   32.0039 H   0  0  0  0  0
   23.8550    6.9611   31.5016 H   0  0  0  0  0
   23.5944    3.9633   31.1743 H   0  0  0  0  0
   24.2926    4.8372   32.5796 H   0  0  0  0  0
   26.0183    3.9488   31.0347 H   0  0  0  0  0
   26.0516    5.7428   31.1701 H   0  0  0  0  0
   24.8480    4.0973   28.9255 H   0  0  0  0  0
   26.3330    5.1096   28.8546 H   0  0  0  0  0
   24.3203    6.1899   27.8425 H   0  0  0  0  0
   25.0319    7.1123   29.2154 H   0  0  0  0  0
   22.6216    7.1214   29.4065 H   0  0  0  0  0
   22.5821    5.3256   29.2838 H   0  0  0  0  0
  1  2  4  0  0  0
  1  5  4  0  0  0
  1  6  1  0  0  0
  2  3  4  0  0  0
  2  9  1  0  0  0
  3  4  4  0  0  0
  4  5  4  0  0  0
  4 15  1  0  0  0
  5 16  1  0  0  0
  6  7  1  0  0  0
  7  8  1  0  0  0
  9 10  1  0  0  0
  9 14  1  0  0  0
 10 11  1  0  0  0
 11 12  1  0  0  0
 12 13  1  0  0  0
 13 14  1  0  0  0
 15 17  4  0  0  0
 15 21  4  0  0  0
 16 24  4  0  0  0
 16 28  4  0  0  0
 17 18  4  0  0  0
 18 19  4  0  0  0
 18 22  1  0  0  0
 19 20  4  0  0  0
 19 23  1  0  0  0
 20 21  4  0  0  0
 24 25  4  0  0  0
 25 26  4  0  0  0
 26 27  4  0  0  0
 27 28  4  0  0  0
 27 29  1  0  0  0
 29 30  1  0  0  0
 30 31  1  0  0  0
 30 35  1  0  0  0
 31 32  1  0  0  0
 32 33  1  0  0  0
 33 34  1  0  0  0
 34 35  1  0  0  0
  6 36  1  0  0  0
  6 37  1  0  0  0
  7 38  1  0  0  0
  7 39  1  0  0  0
  8 40  1  0  0  0
  8 41  1  0  0  0
  8 42  1  0  0  0
  9 43  1  0  0  0
 10 44  1  0  0  0
 10 45  1  0  0  0
 11 46  1  0  0  0
 11 47  1  0  0  0
 12 48  1  0  0  0
 12 49  1  0  0  0
 13 50  1  0  0  0
 13 51  1  0  0  0
 14 52  1  0  0  0
 14 53  1  0  0  0
 17 54  1  0  0  0
 20 55  1  0  0  0
 21 56  1  0  0  0
 24 57  1  0  0  0
 25 58  1  0  0  0
 29 59  1  0  0  0
 30 60  1  0  0  0
 31 61  1  0  0  0
 31 62  1  0  0  0
 32 63  1  0  0  0
 32 64  1  0  0  0
 33 65  1  0  0  0
 33 66  1  0  0  0
 34 67  1  0  0  0
 34 68  1  0  0  0
 35 69  1  0  0  0
 35 70  1  0  0  0
M  END
$$$$
