4qew_ligand
  -I-interpret- 

 54 57  0  0  0  0  0  0  0  0999 V2000
   71.8690  -10.9580   73.0410 C   0  0  0  0  0
   70.6180  -10.2800   72.8620 O   0  0  0  0  0
   70.7890   -8.9740   72.5880 C   0  0  0  0  0
   71.7470   -8.3100   73.0030 O   0  0  0  0  0
   69.7950   -8.4140   71.5570 C   0  0  0  0  0
   70.4690   -8.8750   70.2790 C   0  0  0  0  0
   70.1300   -8.0220   69.0730 C   0  0  0  0  0
   69.7500   -6.8940   71.7130 C   0  0  0  0  0
   69.6120   -6.3750   73.1110 N   0  0  0  0  0
   68.7830   -6.1880   70.9600 C   0  0  0  0  0
   67.6250   -6.6560   70.4560 N   0  0  0  0  0
   67.0530   -5.6840   69.8560 N   0  0  0  0  0
   67.8350   -4.5930   69.9640 C   0  0  0  0  0
   67.5190   -3.2290   69.3700 C   0  0  0  0  0
   68.9280   -4.8900   70.6650 N   0  0  0  0  0
   70.0210   -4.2160   71.0890 C   0  0  0  0  0
   70.6500   -3.3800   70.1590 C   0  0  0  0  0
   71.8070   -2.6780   70.5160 C   0  0  0  0  0
   72.3570   -2.8120   71.7950 C   0  0  0  0  0
   73.4810   -2.1630   72.2360 O   0  0  0  0  0
   74.2530   -1.4040   71.2890 C   0  0  0  0  0
   71.7360   -3.6510   72.7130 C   0  0  0  0  0
   70.5750   -4.3370   72.3790 C   0  0  0  0  0
   70.0690   -5.1390   73.4070 C   0  0  0  0  0
   69.9350   -4.6290   74.7170 C   0  0  0  0  0
   69.6890   -3.2660   74.9560 C   0  0  0  0  0
   69.5580   -2.7780   76.2630 C   0  0  0  0  0
   69.6590   -3.6480   77.3370 C   0  0  0  0  0
   69.4930   -3.0730   78.9630 Cl  0  0  0  0  0
   69.9050   -5.0000   77.1110 C   0  0  0  0  0
   70.0390   -5.4880   75.8120 C   0  0  0  0  0
   72.4597  -10.8748   72.1287 H   0  0  0  0  0
   72.4119  -10.5033   73.8696 H   0  0  0  0  0
   71.6829  -12.0094   73.2602 H   0  0  0  0  0
   68.7552   -8.7336   71.6257 H   0  0  0  0  0
   70.1205   -9.8869   70.0722 H   0  0  0  0  0
   71.5457   -8.8079   70.4347 H   0  0  0  0  0
   69.0538   -8.0481   68.9020 H   0  0  0  0  0
   70.4453   -6.9948   69.2559 H   0  0  0  0  0
   70.6479   -8.4118   68.1967 H   0  0  0  0  0
   70.7449   -6.6959   71.3143 H   0  0  0  0  0
   67.4265   -3.3181   68.2876 H   0  0  0  0  0
   66.5816   -2.8609   69.7870 H   0  0  0  0  0
   68.3232   -2.5339   69.6112 H   0  0  0  0  0
   70.2381   -3.2756   69.1552 H   0  0  0  0  0
   72.2844   -2.0201   69.7898 H   0  0  0  0  0
   74.6057   -2.0647   70.4971 H   0  0  0  0  0
   73.6295   -0.6201   70.8591 H   0  0  0  0  0
   75.1068   -0.9541   71.7957 H   0  0  0  0  0
   72.1654   -3.7722   73.7075 H   0  0  0  0  0
   69.5990   -2.5798   74.1139 H   0  0  0  0  0
   69.3771   -1.7169   76.4345 H   0  0  0  0  0
   69.9935   -5.6821   77.9566 H   0  0  0  0  0
   70.2266   -6.5495   75.6502 H   0  0  0  0  0
  1  2  1  0  0  0
  2  3  1  0  0  0
  3  4  2  0  0  0
  3  5  1  0  0  0
  5  6  1  0  0  0
  5  8  1  0  0  0
  6  7  1  0  0  0
  8  9  1  0  0  0
  8 10  1  0  0  0
  9 24  2  0  0  0
 10 11  4  0  0  0
 10 15  4  0  0  0
 11 12  4  0  0  0
 12 13  4  0  0  0
 13 14  1  0  0  0
 13 15  4  0  0  0
 15 16  1  0  0  0
 16 17  4  0  0  0
 16 23  4  0  0  0
 17 18  4  0  0  0
 18 19  4  0  0  0
 19 20  1  0  0  0
 19 22  4  0  0  0
 20 21  1  0  0  0
 22 23  4  0  0  0
 23 24  1  0  0  0
 24 25  1  0  0  0
 25 26  4  0  0  0
 25 31  4  0  0  0
 26 27  4  0  0  0
 27 28  4  0  0  0
 28 29  1  0  0  0
 28 30  4  0  0  0
 30 31  4  0  0  0
  1 32  1  0  0  0
  1 33  1  0  0  0
  1 34  1  0  0  0
  5 35  1  0  0  0
  6 36  1  0  0  0
  6 37  1  0  0  0
  7 38  1  0  0  0
  7 39  1  0  0  0
  7 40  1  0  0  0
  8 41  1  0  0  0
 14 42  1  0  0  0
 14 43  1  0  0  0
 14 44  1  0  0  0
 17 45  1  0  0  0
 18 46  1  0  0  0
 21 47  1  0  0  0
 21 48  1  0  0  0
 21 49  1  0  0  0
 22 50  1  0  0  0
 26 51  1  0  0  0
 27 52  1  0  0  0
 30 53  1  0  0  0
 31 54  1  0  0  0
M  END
$$$$
