3u6a_ligand
  -I-interpret- 

 44 46  0  0  0  0  0  0  0  0999 V2000
    4.3730  -44.6220   29.3360 C   0  0  0  0  0
    3.8340  -44.0510   28.2360 N   0  0  0  0  0
    2.8460  -42.6060   26.0700 O   0  0  0  0  0
    6.3980  -45.2620   31.0640 Cl  0  0  0  0  0
    6.9180  -45.1250   19.5480 C   0  0  0  0  0
    7.2500  -43.9240   20.3210 N   0  0  0  0  0
    6.0390  -42.5680   18.9560 O   0  0  0  0  0
    8.1400  -44.1400   21.4760 C   0  0  0  0  0
    9.8880  -42.9140   22.6990 N   0  0  0  0  0
    8.7730  -42.8760   21.9660 C   0  0  0  0  0
    8.3130  -41.6780   21.5910 N   0  0  0  0  0
    7.0530  -41.4850   20.8710 C   0  0  0  0  0
    4.9930  -42.3360   25.2960 N   0  0  0  0  0
    7.1990  -40.1710   20.0580 C   0  0  0  0  0
    6.7480  -42.7130   19.9710 C   0  0  0  0  0
    5.8620  -41.3510   21.8350 C   0  0  0  0  0
    4.6880  -40.6780   21.4230 C   0  0  0  0  0
    3.5980  -40.5480   22.2940 C   0  0  0  0  0
    3.6610  -41.0790   23.5910 C   0  0  0  0  0
    4.8280  -41.7500   24.0210 C   0  0  0  0  0
    5.9160  -41.8770   23.1450 C   0  0  0  0  0
    4.0700  -42.7120   26.1910 C   0  0  0  0  0
    4.6580  -43.3350   27.4210 C   0  0  0  0  0
    6.0300  -43.1950   27.6630 C   0  0  0  0  0
    6.5760  -43.7830   28.8030 C   0  0  0  0  0
    5.7360  -44.5110   29.6580 C   0  0  0  0  0
    3.7237  -45.1920   30.0005 H   0  0  0  0  0
    7.8334  -45.5664   19.1539 H   0  0  0  0  0
    6.4154  -45.8443   20.1946 H   0  0  0  0  0
    6.2593  -44.8539   18.7229 H   0  0  0  0  0
    8.9381  -44.8121   21.1608 H   0  0  0  0  0
    7.5388  -44.5485   22.2883 H   0  0  0  0  0
   10.3163  -43.8105   22.9299 H   0  0  0  0  0
    8.8698  -40.8543   21.8188 H   0  0  0  0  0
    5.9602  -42.4969   25.5772 H   0  0  0  0  0
    7.3867  -39.3420   20.7404 H   0  0  0  0  0
    8.0326  -40.2665   19.3622 H   0  0  0  0  0
    6.2799  -39.9850   19.5024 H   0  0  0  0  0
    4.6307  -40.2569   20.4193 H   0  0  0  0  0
    2.6970  -40.0319   21.9623 H   0  0  0  0  0
    2.8114  -40.9742   24.2658 H   0  0  0  0  0
    6.8175  -42.3897   23.4803 H   0  0  0  0  0
    6.6605  -42.6357   26.9717 H   0  0  0  0  0
    7.6378  -43.6787   29.0260 H   0  0  0  0  0
  2  1  4  0  0  0
  1 26  4  0  0  0
 23  2  4  0  0  0
 22  3  2  0  0  0
 26  4  1  0  0  0
  6  5  1  0  0  0
  6  8  1  0  0  0
 15  6  1  0  0  0
 15  7  2  0  0  0
 10  8  1  0  0  0
 10  9  2  0  0  0
 11 10  1  0  0  0
 12 11  1  0  0  0
 12 14  1  0  0  0
 12 15  1  0  0  0
 16 12  1  0  0  0
 13 20  1  0  0  0
 22 13  1  0  0  0
 16 17  4  0  0  0
 21 16  4  0  0  0
 18 17  4  0  0  0
 19 18  4  0  0  0
 20 19  4  0  0  0
 20 21  4  0  0  0
 22 23  1  0  0  0
 23 24  4  0  0  0
 24 25  4  0  0  0
 25 26  4  0  0  0
  1 27  1  0  0  0
  5 28  1  0  0  0
  5 29  1  0  0  0
  5 30  1  0  0  0
  8 31  1  0  0  0
  8 32  1  0  0  0
  9 33  1  0  0  0
 11 34  1  0  0  0
 13 35  1  0  0  0
 14 36  1  0  0  0
 14 37  1  0  0  0
 14 38  1  0  0  0
 17 39  1  0  0  0
 18 40  1  0  0  0
 19 41  1  0  0  0
 21 42  1  0  0  0
 24 43  1  0  0  0
 25 44  1  0  0  0
M  END
$$$$
