### 
### Created by X-TOOL on Mon Sep 10 21:13:06 2018
### 

@<TRIPOS>MOLECULE
3u6a_ligand
   44    46     1     0     0
SMALL
GAST_HUCK


@<TRIPOS>ATOM
      1 C           4.3730  -44.6220   29.3360 C.ar      1 18P         0.0309
      2 N           3.8340  -44.0510   28.2360 N.ar      1 18P        -0.2754
      3 O           2.8460  -42.6060   26.0700 O.2       1 18P        -0.3673
      4 CL          6.3980  -45.2620   31.0640 Cl        1 18P        -0.0569
      5 C01         6.9180  -45.1250   19.5480 C.3       1 18P         0.0254
      6 N01         7.2500  -43.9240   20.3210 N.am      1 18P        -0.2592
      7 O01         6.0390  -42.5680   18.9560 O.2       1 18P        -0.3632
      8 C02         8.1400  -44.1400   21.4760 C.3       1 18P         0.1137
      9 N02         9.8880  -42.9140   22.6990 N.2       1 18P        -0.3912
     10 C03         8.7730  -42.8760   21.9660 C.2       1 18P         0.1035
     11 N03         8.3130  -41.6780   21.5910 N.pl3     1 18P        -0.3062
     12 C04         7.0530  -41.4850   20.8710 C.3       1 18P         0.1224
     13 N04         4.9930  -42.3360   25.2960 N.am      1 18P        -0.2252
     14 C05         7.1990  -40.1710   20.0580 C.3       1 18P        -0.0535
     15 C06         6.7480  -42.7130   19.9710 C.2       1 18P         0.1942
     16 C07         5.8620  -41.3510   21.8350 C.ar      1 18P        -0.0301
     17 C08         4.6880  -40.6780   21.4230 C.ar      1 18P        -0.0503
     18 C09         3.5980  -40.5480   22.2940 C.ar      1 18P        -0.0428
     19 C10         3.6610  -41.0790   23.5910 C.ar      1 18P        -0.0104
     20 C11         4.8280  -41.7500   24.0210 C.ar      1 18P         0.0951
     21 C12         5.9160  -41.8770   23.1450 C.ar      1 18P        -0.0182
     22 C13         4.0700  -42.7120   26.1910 C.2       1 18P         0.2515
     23 C14         4.6580  -43.3350   27.4210 C.ar      1 18P         0.1284
     24 C15         6.0300  -43.1950   27.6630 C.ar      1 18P        -0.0132
     25 C16         6.5760  -43.7830   28.8030 C.ar      1 18P        -0.0227
     26 C17         5.7360  -44.5110   29.6580 C.ar      1 18P         0.0732
     27 H1          3.7272  -45.1888   29.9969 H         1 18P         0.0847
     28 H2          7.4211  -45.9970   19.9912 H         1 18P         0.0490
     29 H3          7.2544  -44.9967   18.5086 H         1 18P         0.0490
     30 H4          5.8294  -45.2823   19.5643 H         1 18P         0.0490
     31 H5          8.9357  -44.8395   21.1803 H         1 18P         0.0825
     32 H6          7.5518  -44.5788   22.2954 H         1 18P         0.0825
     33 H7         10.3067  -42.0567   23.0243 H         1 18P         0.0592
     34 H8          8.8753  -40.8462   21.8210 H         1 18P         0.1808
     35 H9          5.9412  -42.4937   25.5717 H         1 18P         0.2259
     36 H10         6.2720  -39.9821   19.4968 H         1 18P         0.0152
     37 H11         8.0400  -40.2660   19.3554 H         1 18P         0.0152
     38 H12         7.3884  -39.3335   20.7455 H         1 18P         0.0152
     39 H13         4.6310  -40.2592   20.4248 H         1 18P         0.0742
     40 H14         2.7020  -40.0348   21.9641 H         1 18P         0.0667
     41 H15         2.8161  -40.9748   24.2621 H         1 18P         0.0766
     42 H16         6.8126  -42.3869   23.4785 H         1 18P         0.0704
     43 H17         6.6570  -42.6388   26.9756 H         1 18P         0.0762
     44 H18         7.6320  -43.6792   29.0248 H         1 18P         0.0753
@<TRIPOS>BOND
     1    2    1 ar 
     2    1   26 ar 
     3   23    2 ar 
     4   22    3 2  
     5   26    4 1  
     6    6    5 1  
     7    6    8 1  
     8   15    6 am 
     9   15    7 2  
    10   10    8 1  
    11   10    9 2  
    12   11   10 1  
    13   12   11 1  
    14   12   14 1  
    15   12   15 1  
    16   16   12 1  
    17   13   20 1  
    18   22   13 am 
    19   16   17 ar 
    20   21   16 ar 
    21   18   17 ar 
    22   19   18 ar 
    23   20   19 ar 
    24   20   21 ar 
    25   22   23 1  
    26   23   24 ar 
    27   24   25 ar 
    28   25   26 ar 
    29    1   27 1  
    30    5   28 1  
    31    5   29 1  
    32    5   30 1  
    33    8   31 1  
    34    8   32 1  
    35    9   33 1  
    36   11   34 1  
    37   13   35 1  
    38   14   36 1  
    39   14   37 1  
    40   14   38 1  
    41   17   39 1  
    42   18   40 1  
    43   19   41 1  
    44   21   42 1  
    45   24   43 1  
    46   25   44 1  
@<TRIPOS>SUBSTRUCTURE
     1 18P         1

