5eni_ligand
  -I-interpret- 

 23 23  0  0  0  0  0  0  0  0999 V2000
  -28.1710    0.7390   -5.2430 C   0  0  0  0  0
  -26.9670    0.3750   -5.8190 C   0  0  0  0  0
  -26.3720    1.2200   -6.7450 C   0  0  0  0  0
  -23.8670    3.8570   -8.0020 C   0  0  0  0  0
  -22.7540    4.3530   -7.0760 C   0  0  0  0  0
  -23.5650    3.3550   -9.0820 O   0  0  0  0  0
  -23.1900    4.3560   -5.7320 O   0  0  0  0  0
  -25.1250    4.0050   -7.5740 N   0  0  0  0  0
  -26.2750    3.3350   -8.1690 C   0  0  0  0  0
  -26.9410    2.4380   -7.1440 C   0  0  0  0  0
  -24.8420    0.7590   -7.4160 Cl  0  0  0  0  0
  -28.7800    1.9350   -5.5880 C   0  0  0  0  0
  -28.1740    2.7660   -6.5190 C   0  0  0  0  0
  -28.9770    4.2600   -6.8860 Cl  0  0  0  0  0
  -28.6434    0.0812   -4.5135 H   0  0  0  0  0
  -26.4901   -0.5669   -5.5479 H   0  0  0  0  0
  -22.4834    5.3694   -7.3619 H   0  0  0  0  0
  -21.8956    3.6875   -7.1674 H   0  0  0  0  0
  -22.4799    4.6695   -5.1671 H   0  0  0  0  0
  -25.2905    4.6255   -6.7816 H   0  0  0  0  0
  -25.9407    2.7297   -9.0116 H   0  0  0  0  0
  -26.9903    4.0842   -8.5082 H   0  0  0  0  0
  -29.7277    2.2206   -5.1315 H   0  0  0  0  0
  2  1  4  0  0  0
  1 12  4  0  0  0
  3  2  4  0  0  0
 10  3  4  0  0  0
  3 11  1  0  0  0
  4  5  1  0  0  0
  4  6  2  0  0  0
  8  4  1  0  0  0
  5  7  1  0  0  0
  9  8  1  0  0  0
  9 10  1  0  0  0
 10 13  4  0  0  0
 12 13  4  0  0  0
 13 14  1  0  0  0
  1 15  1  0  0  0
  2 16  1  0  0  0
  5 17  1  0  0  0
  5 18  1  0  0  0
  7 19  1  0  0  0
  8 20  1  0  0  0
  9 21  1  0  0  0
  9 22  1  0  0  0
 12 23  1  0  0  0
M  END
$$$$
