1r5h_ligand
  -I-interpret- 

 50 51  0  0  0  0  0  0  0  0999 V2000
   20.9010   32.3400   16.5720 C   0  0  0  0  0
   20.2150   33.5960   16.0020 C   0  0  0  0  0
   18.6840   33.4570   15.8950 C   0  0  0  0  0
   18.2570   32.1840   15.1410 C   0  0  0  0  0
   18.9230   30.9000   15.6740 C   0  0  0  0  0
   20.4660   31.0170   15.8890 C   0  0  0  0  0
   21.1260   29.7950   16.5690 C   0  0  0  0  0
   20.4430   28.4390   16.3310 C   0  0  0  0  0
   21.4470   27.7750   15.6210 N   0  3  0  0  0
   20.0640   27.6310   17.7040 C   0  0  0  0  0
   20.0680   26.1760   17.6010 O   0  0  0  0  0
   18.7110   28.2140   18.1190 C   0  0  0  0  0
   18.5400   29.3630   18.4610 O   0  0  0  0  0
   17.6320   27.2680   18.0740 N   0  0  0  0  0
   16.2470   27.5620   18.4180 N   0  0  0  0  0
   15.6510   28.0170   19.5800 C   0  0  0  0  0
   14.3770   28.7120   19.6130 C   0  0  0  0  0
   13.8220   29.1530   20.8440 C   0  0  0  0  0
   14.5210   28.9160   22.0850 C   0  0  0  0  0
   15.7860   28.2240   22.0560 C   0  0  0  0  0
   16.3450   27.7820   20.8320 C   0  0  0  0  0
   13.9180   29.3910   23.3840 C   0  0  0  0  0
   20.6210   32.2680   17.6230 H   0  0  0  0  0
   21.9721   32.4529   16.4043 H   0  0  0  0  0
   20.6029   33.7560   14.9960 H   0  0  0  0  0
   20.4246   34.4230   16.6804 H   0  0  0  0  0
   18.3067   34.3172   15.3420 H   0  0  0  0  0
   18.2807   33.3996   16.9060 H   0  0  0  0  0
   18.5603   32.3025   14.1008 H   0  0  0  0  0
   17.1805   32.0724   15.2706 H   0  0  0  0  0
   18.7614   30.1218   14.9281 H   0  0  0  0  0
   18.4790   30.6887   16.6468 H   0  0  0  0  0
   20.8511   31.0338   14.8694 H   0  0  0  0  0
   21.0754   29.9783   17.6423 H   0  0  0  0  0
   22.1262   29.7121   16.1438 H   0  0  0  0  0
   19.4796   28.5282   15.8291 H   0  0  0  0  0
   21.1304   26.8343   15.3862 H   0  0  0  0  0
   21.6531   28.2893   14.7646 H   0  0  0  0  0
   22.2877   27.7185   16.1958 H   0  0  0  0  0
   20.8348   27.7771   18.4607 H   0  0  0  0  0
   19.8353   25.7955   18.4511 H   0  0  0  0  0
   17.8519   26.3168   17.7785 H   0  0  0  0  0
   15.5902   27.4012   17.6543 H   0  0  0  0  0
   13.8402   28.8976   18.6827 H   0  0  0  0  0
   12.8639   29.6728   20.8518 H   0  0  0  0  0
   16.3190   28.0387   22.9885 H   0  0  0  0  0
   17.3029   27.2619   20.8308 H   0  0  0  0  0
   13.7920   30.4732   23.3503 H   0  0  0  0  0
   12.9480   28.9153   23.5282 H   0  0  0  0  0
   14.5800   29.1265   24.2086 H   0  0  0  0  0
  1  2  1  0  0  0
  1  6  1  0  0  0
  2  3  1  0  0  0
  3  4  1  0  0  0
  4  5  1  0  0  0
  5  6  1  0  0  0
  6  7  1  0  0  0
  7  8  1  0  0  0
  8  9  1  0  0  0
  8 10  1  0  0  0
 10 11  1  0  0  0
 10 12  1  0  0  0
 12 13  2  0  0  0
 12 14  1  0  0  0
 14 15  1  0  0  0
 15 16  1  0  0  0
 16 17  4  0  0  0
 16 21  4  0  0  0
 17 18  4  0  0  0
 18 19  4  0  0  0
 19 20  4  0  0  0
 19 22  1  0  0  0
 20 21  4  0  0  0
  1 23  1  0  0  0
  1 24  1  0  0  0
  2 25  1  0  0  0
  2 26  1  0  0  0
  3 27  1  0  0  0
  3 28  1  0  0  0
  4 29  1  0  0  0
  4 30  1  0  0  0
  5 31  1  0  0  0
  5 32  1  0  0  0
  6 33  1  0  0  0
  7 34  1  0  0  0
  7 35  1  0  0  0
  8 36  1  0  0  0
  9 37  1  0  0  0
  9 38  1  0  0  0
  9 39  1  0  0  0
 10 40  1  0  0  0
 11 41  1  0  0  0
 14 42  1  0  0  0
 15 43  1  0  0  0
 17 44  1  0  0  0
 18 45  1  0  0  0
 20 46  1  0  0  0
 21 47  1  0  0  0
 22 48  1  0  0  0
 22 49  1  0  0  0
 22 50  1  0  0  0
M  END
$$$$
