4n6h_ligand
  -I-interpret- 

 57 64  0  0  0  0  0  0  0  0999 V2000
   -6.2170  -65.8630   71.5100 C   0  0  0  0  0
   -6.8570  -67.0210   71.1040 C   0  0  0  0  0
   -7.7160  -68.8490   69.8180 C   0  0  0  0  0
   -6.7520  -69.0270   68.7740 C   0  0  0  0  0
   -5.5200  -69.6670   68.8950 C   0  0  0  0  0
   -4.8560  -69.4920   67.7250 C   0  0  0  0  0
   -3.6160  -69.8700   67.3110 C   0  0  0  0  0
   -3.1530  -69.5700   66.0210 C   0  0  0  0  0
   -3.9780  -68.8000   65.1880 C   0  0  0  0  0
   -5.2350  -68.4110   65.6570 C   0  0  0  0  0
   -5.6310  -68.7660   66.9030 C   0  0  0  0  0
   -5.0890  -70.3410   70.0880 C   0  0  0  0  0
   -6.2310  -70.5970   71.0880 C   0  0  0  0  0
   -5.7380  -70.8350   72.5040 C   0  0  0  0  0
   -7.8760  -70.2150   73.4650 C   0  0  0  0  0
   -8.3340  -69.6940   72.1470 C   0  0  0  0  0
   -7.1990  -69.3510   71.1610 C   0  0  0  0  0
   -6.4490  -68.2130   71.6690 C   0  0  0  0  0
   -5.4660  -68.3450   72.5850 C   0  0  0  0  0
   -4.8120  -67.1720   73.0070 C   0  0  0  0  0
   -5.1810  -65.9180   72.4600 C   0  0  0  0  0
   -6.7660  -68.5140   67.5360 N   0  0  0  0  0
   -6.8900  -71.3460   73.3550 N   0  3  0  0  0
   -6.6150  -64.6770   70.9250 O   0  0  0  0  0
   -7.8440  -67.2600   70.1540 O   0  0  0  0  0
   -6.9650  -71.8500   70.6610 O   0  0  0  0  0
   -5.1360  -69.6390   73.0820 C   0  0  0  0  0
   -6.5950  -71.8760   74.7000 C   0  0  0  0  0
   -5.5530  -73.0170   74.6130 C   0  0  0  0  0
   -4.0700  -72.7160   74.9220 C   0  0  0  0  0
   -4.8990  -73.4520   75.9530 C   0  0  0  0  0
   -8.6183  -69.3531   69.4717 H   0  0  0  0  0
   -2.9687  -70.4175   67.9961 H   0  0  0  0  0
   -2.1815  -69.9246   65.6765 H   0  0  0  0  0
   -3.6440  -68.5101   64.1918 H   0  0  0  0  0
   -5.8965  -67.8225   65.0212 H   0  0  0  0  0
   -4.3560  -69.7024   70.5810 H   0  0  0  0  0
   -4.6863  -71.3098   69.7922 H   0  0  0  0  0
   -4.9508  -71.5884   72.4767 H   0  0  0  0  0
   -8.7529  -70.5953   73.9890 H   0  0  0  0  0
   -7.3783  -69.3966   73.9852 H   0  0  0  0  0
   -8.8756  -68.7684   72.3422 H   0  0  0  0  0
   -8.9298  -70.4807   71.6842 H   0  0  0  0  0
   -4.0212  -67.2284   73.7550 H   0  0  0  0  0
   -4.6687  -65.0077   72.7714 H   0  0  0  0  0
   -7.2339  -72.1754   72.8711 H   0  0  0  0  0
   -6.0995  -63.9534   71.2885 H   0  0  0  0  0
   -7.6819  -72.0245   71.2752 H   0  0  0  0  0
   -4.0729  -69.7445   72.8656 H   0  0  0  0  0
   -5.4967  -69.6295   74.1105 H   0  0  0  0  0
   -7.5139  -72.2666   75.1373 H   0  0  0  0  0
   -6.1921  -71.0733   75.3176 H   0  0  0  0  0
   -6.0758  -73.4985   73.7866 H   0  0  0  0  0
   -3.3938  -71.8618   74.8877 H   0  0  0  0  0
   -3.1028  -72.8278   74.4321 H   0  0  0  0  0
   -4.8237  -74.3484   76.5685 H   0  0  0  0  0
   -5.1122  -73.3907   77.0202 H   0  0  0  0  0
  2  1  4  0  0  0
  1 21  4  0  0  0
  1 24  1  0  0  0
  2 18  4  0  0  0
 25  2  1  0  0  0
  3  4  1  0  0  0
 17  3  1  0  0  0
  3 25  1  0  0  0
  5  4  4  0  0  0
  4 22  4  0  0  0
  5  6  4  0  0  0
 12  5  1  0  0  0
  6  7  4  0  0  0
  6 11  4  0  0  0
  7  8  4  0  0  0
  8  9  4  0  0  0
 10  9  4  0  0  0
 11 10  4  0  0  0
 22 11  4  0  0  0
 13 12  1  0  0  0
 14 13  1  0  0  0
 13 17  1  0  0  0
 13 26  1  0  0  0
 23 14  1  0  0  0
 14 27  1  0  0  0
 15 16  1  0  0  0
 15 23  1  0  0  0
 16 17  1  0  0  0
 17 18  1  0  0  0
 18 19  4  0  0  0
 19 20  4  0  0  0
 19 27  1  0  0  0
 20 21  4  0  0  0
 23 28  1  0  0  0
 28 29  1  0  0  0
 29 30  1  0  0  0
 29 31  1  0  0  0
 30 31  1  0  0  0
  3 32  1  0  0  0
  7 33  1  0  0  0
  8 34  1  0  0  0
  9 35  1  0  0  0
 10 36  1  0  0  0
 12 37  1  0  0  0
 12 38  1  0  0  0
 14 39  1  0  0  0
 15 40  1  0  0  0
 15 41  1  0  0  0
 16 42  1  0  0  0
 16 43  1  0  0  0
 20 44  1  0  0  0
 21 45  1  0  0  0
 23 46  1  0  0  0
 24 47  1  0  0  0
 26 48  1  0  0  0
 27 49  1  0  0  0
 27 50  1  0  0  0
 28 51  1  0  0  0
 28 52  1  0  0  0
 29 53  1  0  0  0
 30 54  1  0  0  0
 30 55  1  0  0  0
 31 56  1  0  0  0
 31 57  1  0  0  0
M  END
$$$$
