6ooz_ligand
  -I-interpret- 

 47 50  0  0  0  0  0  0  0  0999 V2000
  -14.5480   -0.5320   19.7160 C   0  0  0  0  0
  -15.9100   -0.7730   19.5620 C   0  0  0  0  0
   -9.0160   -0.3970   16.8310 C   0  0  0  0  0
  -16.5460   -0.5580   18.3430 C   0  0  0  0  0
  -15.8320   -0.1010   17.2660 C   0  0  0  0  0
  -14.4780    0.1490   17.3910 C   0  0  0  0  0
  -13.5220    0.6040   16.4400 N   0  0  0  0  0
   -8.3320   -1.6020   16.6240 C   0  0  0  0  0
  -10.0470   -2.3100   15.0840 C   0  0  0  0  0
  -11.4200    0.2250   19.3960 C   0  0  0  0  0
  -11.1250   -2.7230   21.8800 C   0  0  0  0  0
  -11.2490   -1.1760   20.0070 C   0  0  0  0  0
  -11.3140   -1.4250   21.3880 C   0  0  0  0  0
  -10.8760   -3.7800   21.0160 C   0  0  0  0  0
  -10.9910   -2.2450   19.1480 C   0  0  0  0  0
  -10.5480   -4.6840   18.6850 C   0  0  0  0  0
  -10.2610    2.1060   17.0880 O   0  0  0  0  0
  -11.0300    1.1310   16.3860 C   0  0  0  0  0
  -10.2390   -0.1320   16.1580 C   0  0  0  0  0
   -8.8450   -2.5520   15.7580 N   0  0  0  0  0
  -10.7490   -1.1110   15.2920 C   0  0  0  0  0
  -12.3350    0.7570   17.1400 C   0  0  0  0  0
  -12.5350    0.2440   18.4120 N   0  0  0  0  0
  -13.8390   -0.0730   18.6350 C   0  0  0  0  0
  -11.5640   -0.3150   22.3810 C   0  0  0  0  0
  -10.8100   -3.5460   19.6430 C   0  0  0  0  0
  -14.0560   -0.7040   20.6733 H   0  0  0  0  0
  -16.4888   -1.1365   20.4111 H   0  0  0  0  0
   -8.6056    0.3452   17.5157 H   0  0  0  0  0
  -17.6138   -0.7534   18.2446 H   0  0  0  0  0
  -16.3314    0.0652   16.3115 H   0  0  0  0  0
   -7.3941   -1.7917   17.1459 H   0  0  0  0  0
  -10.4409   -3.0559   14.3937 H   0  0  0  0  0
  -10.4972    0.4988   18.8846 H   0  0  0  0  0
  -11.6468    0.9302   20.1956 H   0  0  0  0  0
  -11.1741   -2.9047   22.9536 H   0  0  0  0  0
  -10.7329   -4.7869   21.4082 H   0  0  0  0  0
  -10.9290   -2.0668   18.0745 H   0  0  0  0  0
   -9.5852   -5.1389   18.9178 H   0  0  0  0  0
  -11.3369   -5.4296   18.7840 H   0  0  0  0  0
  -10.5335   -4.3019   17.6643 H   0  0  0  0  0
  -10.7901    2.8965   17.2177 H   0  0  0  0  0
  -11.2883    1.5877   15.4306 H   0  0  0  0  0
  -11.6949   -0.9404   14.7779 H   0  0  0  0  0
  -12.4671   -0.5351   22.9503 H   0  0  0  0  0
  -10.7146   -0.2384   23.0598 H   0  0  0  0  0
  -11.6901    0.6269   21.8470 H   0  0  0  0  0
  1  2  4  0  0  0
 24  1  4  0  0  0
  4  2  4  0  0  0
  3  8  4  0  0  0
 19  3  4  0  0  0
  5  4  4  0  0  0
  6  5  4  0  0  0
  7  6  4  0  0  0
  6 24  4  0  0  0
 22  7  4  0  0  0
  8 20  4  0  0  0
  9 20  4  0  0  0
 21  9  4  0  0  0
 10 12  1  0  0  0
 23 10  1  0  0  0
 13 11  4  0  0  0
 11 14  4  0  0  0
 12 13  4  0  0  0
 12 15  4  0  0  0
 13 25  1  0  0  0
 26 14  4  0  0  0
 15 26  4  0  0  0
 26 16  1  0  0  0
 18 17  1  0  0  0
 18 19  1  0  0  0
 22 18  1  0  0  0
 19 21  4  0  0  0
 22 23  4  0  0  0
 23 24  4  0  0  0
  1 27  1  0  0  0
  2 28  1  0  0  0
  3 29  1  0  0  0
  4 30  1  0  0  0
  5 31  1  0  0  0
  8 32  1  0  0  0
  9 33  1  0  0  0
 10 34  1  0  0  0
 10 35  1  0  0  0
 11 36  1  0  0  0
 14 37  1  0  0  0
 15 38  1  0  0  0
 16 39  1  0  0  0
 16 40  1  0  0  0
 16 41  1  0  0  0
 17 42  1  0  0  0
 18 43  1  0  0  0
 21 44  1  0  0  0
 25 45  1  0  0  0
 25 46  1  0  0  0
 25 47  1  0  0  0
M  END
$$$$
