5f08_ligand
  -I-interpret- 

 50 52  0  0  0  0  0  0  0  0999 V2000
   28.8630   14.6990   -1.5790 N   0  0  0  0  0
   29.2060   15.6880   -0.5520 C   0  0  0  0  0
   27.7300   13.3690   -0.1060 O   0  0  0  0  0
   28.1870   13.6240   -1.2820 C   0  0  0  0  0
   29.2830   14.9780   -2.9620 C   0  0  0  0  0
   29.9980   16.3270   -2.8030 C   0  0  0  0  0
   30.1330   16.6090   -1.3100 C   0  0  0  0  0
   28.0700   12.6480   -2.4270 C   0  0  0  0  0
   27.2630   11.4600   -1.9710 C   0  0  0  0  0
   27.0180   10.4370   -3.0610 C   0  0  0  0  0
   26.2810    9.3370   -2.3490 C   0  0  0  0  0
   25.9170    8.2580   -3.3730 C   0  0  0  0  0
   27.0880    7.7910   -4.0990 N   0  0  0  0  0
   27.8970    8.7690   -4.7910 C   0  0  0  0  0
   28.2800    9.8430   -3.7350 C   0  0  0  0  0
   27.2440    6.3360   -4.0540 C   0  0  0  0  0
   28.3150    5.6620   -4.5420 C   0  0  0  0  0
   28.3590    4.2510   -4.4580 C   0  0  0  0  0
   27.2940    3.5220   -3.8790 C   0  0  0  0  0
   26.1860    4.1970   -3.3990 C   0  0  0  0  0
   26.2090    5.5940   -3.4970 C   0  0  0  0  0
   27.3320    2.0020   -3.7880 C   0  0  0  0  0
   29.6599   15.2509    0.3374 H   0  0  0  0  0
   28.3382   16.1957   -0.1311 H   0  0  0  0  0
   28.4553   15.0054   -3.6707 H   0  0  0  0  0
   29.9140   14.1992   -3.3903 H   0  0  0  0  0
   29.4260   17.1182   -3.2877 H   0  0  0  0  0
   30.9812   16.2922   -3.2723 H   0  0  0  0  0
   31.1620   16.4373   -0.9943 H   0  0  0  0  0
   29.8693   17.6467   -1.1058 H   0  0  0  0  0
   29.0627   12.3229   -2.7385 H   0  0  0  0  0
   27.5766   13.1275   -3.2724 H   0  0  0  0  0
   26.2906   11.8310   -1.6472 H   0  0  0  0  0
   27.8279   10.9657   -1.1807 H   0  0  0  0  0
   26.4893   10.9153   -3.8855 H   0  0  0  0  0
   25.3768    9.7324   -1.8862 H   0  0  0  0  0
   26.9099    8.9120   -1.5667 H   0  0  0  0  0
   25.2159    8.6860   -4.0895 H   0  0  0  0  0
   25.4816    7.4119   -2.8414 H   0  0  0  0  0
   27.3496    9.2137   -5.6221 H   0  0  0  0  0
   28.7858    8.3085   -5.2223 H   0  0  0  0  0
   28.8970    9.3741   -2.9684 H   0  0  0  0  0
   28.8196   10.6472   -4.2352 H   0  0  0  0  0
   29.1410    6.2073   -4.9985 H   0  0  0  0  0
   29.2268    3.7171   -4.8453 H   0  0  0  0  0
   25.3371    3.6679   -2.9660 H   0  0  0  0  0
   25.3504    6.1406   -3.1070 H   0  0  0  0  0
   27.4083    1.5811   -4.7905 H   0  0  0  0  0
   28.1956    1.6961   -3.1975 H   0  0  0  0  0
   26.4192    1.6449   -3.3111 H   0  0  0  0  0
  1  2  1  0  0  0
  1  4  1  0  0  0
  1  5  1  0  0  0
  2  7  1  0  0  0
  4  3  2  0  0  0
  4  8  1  0  0  0
  5  6  1  0  0  0
  6  7  1  0  0  0
  8  9  1  0  0  0
  9 10  1  0  0  0
 10 11  1  0  0  0
 10 15  1  0  0  0
 11 12  1  0  0  0
 12 13  1  0  0  0
 13 14  1  0  0  0
 13 16  1  0  0  0
 14 15  1  0  0  0
 16 17  4  0  0  0
 16 21  4  0  0  0
 17 18  4  0  0  0
 18 19  4  0  0  0
 19 20  4  0  0  0
 19 22  1  0  0  0
 20 21  4  0  0  0
  2 23  1  0  0  0
  2 24  1  0  0  0
  5 25  1  0  0  0
  5 26  1  0  0  0
  6 27  1  0  0  0
  6 28  1  0  0  0
  7 29  1  0  0  0
  7 30  1  0  0  0
  8 31  1  0  0  0
  8 32  1  0  0  0
  9 33  1  0  0  0
  9 34  1  0  0  0
 10 35  1  0  0  0
 11 36  1  0  0  0
 11 37  1  0  0  0
 12 38  1  0  0  0
 12 39  1  0  0  0
 14 40  1  0  0  0
 14 41  1  0  0  0
 15 42  1  0  0  0
 15 43  1  0  0  0
 17 44  1  0  0  0
 18 45  1  0  0  0
 20 46  1  0  0  0
 21 47  1  0  0  0
 22 48  1  0  0  0
 22 49  1  0  0  0
 22 50  1  0  0  0
M  END
$$$$
