2xjg_ligand
  -I-interpret- 

 44 46  0  0  0  0  0  0  0  0999 V2000
   14.0990   -1.2060    8.9180 C   0  0  0  0  0
   13.8360   -1.7880   10.3100 C   0  0  0  0  0
   14.7110   -1.0830   11.3320 C   0  0  0  0  0
   14.0460   -3.2980   10.3390 C   0  0  0  0  0
   15.1080   -3.8480    9.6140 C   0  0  0  0  0
   15.3360   -5.2220    9.6040 C   0  0  0  0  0
   16.4980   -5.7500    8.8540 C   0  0  0  0  0
   17.5030   -6.0330    9.4770 O   0  0  0  0  0
   16.4330   -5.8750    7.4860 N   0  0  0  0  0
   17.5350   -6.4160    6.6740 C   0  0  0  0  0
   16.8640   -6.6500    5.3460 C   0  0  0  0  0
   17.3110   -7.3450    4.2310 C   0  0  0  0  0
   16.5080   -7.4380    3.1030 C   0  0  0  0  0
   15.2600   -6.8350    3.0890 C   0  0  0  0  0
   14.8130   -6.1230    4.1940 C   0  0  0  0  0
   15.6150   -6.0100    5.3230 C   0  0  0  0  0
   15.3490   -5.3330    6.6450 C   0  0  0  0  0
   14.4950   -6.0680   10.3460 C   0  0  0  0  0
   14.6810   -7.4160   10.3600 O   0  0  0  0  0
   13.4390   -5.5450   11.0660 C   0  0  0  0  0
   13.1980   -4.1890   11.0700 C   0  0  0  0  0
   12.1650   -3.6460   11.7560 O   0  0  0  0  0
   11.3330   -4.5470   12.5150 C   0  0  0  0  0
   15.1282   -1.4155    8.6265 H   0  0  0  0  0
   13.4169   -1.6617    8.2003 H   0  0  0  0  0
   13.9385   -0.1281    8.9400 H   0  0  0  0  0
   12.7907   -1.6155   10.5662 H   0  0  0  0  0
   14.4664   -1.4463   12.3301 H   0  0  0  0  0
   15.7591   -1.2898   11.1154 H   0  0  0  0  0
   14.5333   -0.0088   11.2812 H   0  0  0  0  0
   15.7679   -3.1908    9.0477 H   0  0  0  0  0
   17.9791   -7.3172    7.0967 H   0  0  0  0  0
   18.3925   -5.7461    6.6110 H   0  0  0  0  0
   18.2930   -7.8179    4.2413 H   0  0  0  0  0
   16.8587   -7.9852    2.2280 H   0  0  0  0  0
   14.6264   -6.9202    2.2062 H   0  0  0  0  0
   13.8304   -5.6515    4.1758 H   0  0  0  0  0
   15.3518   -4.2448    6.5828 H   0  0  0  0  0
   14.3530   -5.5317    7.0408 H   0  0  0  0  0
   14.0145   -7.8241   10.9176 H   0  0  0  0  0
   12.7909   -6.2109   11.6358 H   0  0  0  0  0
   10.8849   -5.2789   11.8430 H   0  0  0  0  0
   11.9409   -5.0603   13.2600 H   0  0  0  0  0
   10.5466   -3.9804   13.0136 H   0  0  0  0  0
  1  2  1  0  0  0
  2  3  1  0  0  0
  2  4  1  0  0  0
  4  5  4  0  0  0
  4 21  4  0  0  0
  5  6  4  0  0  0
  6  7  1  0  0  0
  6 18  4  0  0  0
  7  8  2  0  0  0
  7  9  1  0  0  0
  9 10  1  0  0  0
  9 17  1  0  0  0
 10 11  1  0  0  0
 11 12  4  0  0  0
 11 16  4  0  0  0
 12 13  4  0  0  0
 13 14  4  0  0  0
 14 15  4  0  0  0
 15 16  4  0  0  0
 16 17  1  0  0  0
 18 19  1  0  0  0
 18 20  4  0  0  0
 20 21  4  0  0  0
 21 22  1  0  0  0
 22 23  1  0  0  0
  1 24  1  0  0  0
  1 25  1  0  0  0
  1 26  1  0  0  0
  2 27  1  0  0  0
  3 28  1  0  0  0
  3 29  1  0  0  0
  3 30  1  0  0  0
  5 31  1  0  0  0
 10 32  1  0  0  0
 10 33  1  0  0  0
 12 34  1  0  0  0
 13 35  1  0  0  0
 14 36  1  0  0  0
 15 37  1  0  0  0
 17 38  1  0  0  0
 17 39  1  0  0  0
 19 40  1  0  0  0
 20 41  1  0  0  0
 23 42  1  0  0  0
 23 43  1  0  0  0
 23 44  1  0  0  0
M  END
$$$$
