### 
### Created by X-TOOL on Mon Sep 10 21:12:50 2018
### 

@<TRIPOS>MOLECULE
1njf_ligand
   44    46     1     0     0
SMALL
GAST_HUCK


@<TRIPOS>ATOM
      1 PG          1.0390   21.9600   38.7370 P.3       1 AGS         0.2197
      2 O1G         1.9400   23.1630   38.3100 O.co2     1 AGS        -0.6077
      3 O2G        -0.3240   22.1490   38.1560 O.co2     1 AGS        -0.6077
      4 S3G         1.7880   20.4990   38.2240 S.3       1 AGS        -0.0461
      5 PB          1.7840   21.6820   41.6690 P.3       1 AGS         0.3347
      6 O1B         3.1270   22.2640   41.3270 O.co2     1 AGS        -0.6076
      7 O2B         1.7010   20.2760   42.2050 O.co2     1 AGS        -0.6076
      8 O3B         0.8480   21.8650   40.3860 O.3       1 AGS        -0.1434
      9 PA          1.5460   24.0440   43.3900 P.3       1 AGS         0.2978
     10 O1A         2.5630   23.6910   44.4450 O.co2     1 AGS        -0.6127
     11 O2A         2.0240   25.0130   42.3310 O.co2     1 AGS        -0.6127
     12 O3A         1.0870   22.6620   42.7070 O.3       1 AGS        -0.1263
     13 O5          0.1500   24.4710   44.0970 O.3       1 AGS        -0.2476
     14 C5         -0.5860   25.5850   43.5060 C.3       1 AGS         0.1128
     15 C4         -1.4120   26.3110   44.5700 C.3       1 AGS         0.1189
     16 O4         -2.2640   25.2860   45.2020 O.3       1 AGS        -0.3364
     17 C3         -0.5780   26.8970   45.7420 C.3       1 AGS         0.1149
     18 O3         -0.2200   28.2590   45.5640 O.3       1 AGS        -0.3864
     19 C2         -1.4330   26.6200   46.9800 C.3       1 AGS         0.1385
     20 O2         -2.2570   27.6920   47.3820 O.3       1 AGS        -0.3836
     21 C1         -2.2480   25.4200   46.6390 C.3       1 AGS         0.2010
     22 N9         -1.6890   24.1220   47.2120 N.pl3     1 AGS        -0.1919
     23 C8         -1.3380   23.0640   46.3910 C.2       1 AGS         0.1123
     24 N7         -0.8690   21.9920   47.0020 N.2       1 AGS        -0.2958
     25 C5         -0.8990   22.3370   48.3250 C.ar      1 AGS         0.1045
     26 C6         -0.5260   21.6320   49.5220 C.ar      1 AGS         0.1298
     27 N6         -0.0390   20.3710   49.5190 N.pl3     1 AGS        -0.3152
     28 N1         -0.6870   22.2910   50.7240 N.ar      1 AGS        -0.2698
     29 C2         -1.1840   23.5730   50.7410 C.ar      1 AGS         0.0533
     30 N3         -1.5670   24.3320   49.6710 N.ar      1 AGS        -0.2714
     31 C4         -1.4010   23.6630   48.4830 C.ar      1 AGS         0.1613
     32 H1          2.7008   20.4248   38.6452 H         1 AGS         0.1255
     33 H2         -1.2596   25.1999   42.7263 H         1 AGS         0.0648
     34 H3          0.1274   26.2922   43.0578 H         1 AGS         0.0648
     35 H4         -2.0100   27.1046   44.0983 H         1 AGS         0.0651
     36 H5          0.3608   26.3302   45.8284 H         1 AGS         0.0648
     37 H6         -1.0075   28.7847   45.4865 H         1 AGS         0.2100
     38 H7         -0.7656   26.3812   47.8212 H         1 AGS         0.0676
     39 H8         -1.7166   28.4464   47.5850 H         1 AGS         0.2101
     40 H9         -3.2709   25.5660   47.0163 H         1 AGS         0.0996
     41 H10        -1.4424   23.1131   45.3081 H         1 AGS         0.1349
     42 H11         0.2123   19.9139   50.4071 H         1 AGS         0.1820
     43 H12         0.0808   19.8673   48.6286 H         1 AGS         0.1820
     44 H13        -1.2836   24.0353   51.7164 H         1 AGS         0.0996
@<TRIPOS>BOND
     1    1    2 ar 
     2    1    3 ar 
     3    1    4 1  
     4    8    1 1  
     5    5    6 ar 
     6    5    7 ar 
     7    5    8 1  
     8   12    5 1  
     9    9   10 ar 
    10    9   11 ar 
    11    9   12 1  
    12    9   13 1  
    13   13   14 1  
    14   14   15 1  
    15   15   16 1  
    16   15   17 1  
    17   16   21 1  
    18   17   18 1  
    19   17   19 1  
    20   19   20 1  
    21   19   21 1  
    22   21   22 1  
    23   22   23 1  
    24   22   31 1  
    25   23   24 2  
    26   24   25 1  
    27   25   26 ar 
    28   25   31 ar 
    29   26   27 1  
    30   26   28 ar 
    31   28   29 ar 
    32   29   30 ar 
    33   30   31 ar 
    34    4   32 1  
    35   14   33 1  
    36   14   34 1  
    37   15   35 1  
    38   17   36 1  
    39   18   37 1  
    40   19   38 1  
    41   20   39 1  
    42   21   40 1  
    43   23   41 1  
    44   27   42 1  
    45   27   43 1  
    46   29   44 1  
@<TRIPOS>SUBSTRUCTURE
     1 AGS         1

