1njf_ligand
  -I-interpret- 

 47 49  0  0  0  0  0  0  0  0999 V2000
    1.0390   21.9600   38.7370 P   0  0  0  0  0
    1.9400   23.1630   38.3100 O   0  0  0  0  0
   -0.3240   22.1490   38.1560 O   0  0  0  0  0
    1.7880   20.4990   38.2240 S   0  0  0  0  0
    1.7840   21.6820   41.6690 P   0  0  0  0  0
    3.1270   22.2640   41.3270 O   0  0  0  0  0
    1.7010   20.2760   42.2050 O   0  0  0  0  0
    0.8480   21.8650   40.3860 O   0  0  0  0  0
    1.5460   24.0440   43.3900 P   0  0  0  0  0
    2.5630   23.6910   44.4450 O   0  0  0  0  0
    2.0240   25.0130   42.3310 O   0  0  0  0  0
    1.0870   22.6620   42.7070 O   0  0  0  0  0
    0.1500   24.4710   44.0970 O   0  0  0  0  0
   -0.5860   25.5850   43.5060 C   0  0  0  0  0
   -1.4120   26.3110   44.5700 C   0  0  0  0  0
   -2.2640   25.2860   45.2020 O   0  0  0  0  0
   -0.5780   26.8970   45.7420 C   0  0  0  0  0
   -0.2200   28.2590   45.5640 O   0  0  0  0  0
   -1.4330   26.6200   46.9800 C   0  0  0  0  0
   -2.2570   27.6920   47.3820 O   0  0  0  0  0
   -2.2480   25.4200   46.6390 C   0  0  0  0  0
   -1.6890   24.1220   47.2120 N   0  0  0  0  0
   -1.3380   23.0640   46.3910 C   0  0  0  0  0
   -0.8690   21.9920   47.0020 N   0  0  0  0  0
   -0.8990   22.3370   48.3250 C   0  0  0  0  0
   -0.5260   21.6320   49.5220 C   0  0  0  0  0
   -0.0390   20.3710   49.5190 N   0  0  0  0  0
   -0.6870   22.2910   50.7240 N   0  0  0  0  0
   -1.1840   23.5730   50.7410 C   0  0  0  0  0
   -1.5670   24.3320   49.6710 N   0  0  0  0  0
   -1.4010   23.6630   48.4830 C   0  0  0  0  0
    2.8189   23.0500   38.6793 H   0  0  0  0  0
    2.9923   20.4012   38.7798 H   0  0  0  0  0
    0.7826   20.0526   42.3733 H   0  0  0  0  0
    1.3142   25.1781   41.7061 H   0  0  0  0  0
   -1.2587   25.1972   42.7410 H   0  0  0  0  0
    0.1256   26.2873   43.0719 H   0  0  0  0  0
   -1.9274   27.1288   44.0665 H   0  0  0  0  0
    0.4036   26.4302   45.8243 H   0  0  0  0  0
    0.2911   28.5558   46.3205 H   0  0  0  0  0
   -0.7803   26.4652   47.8391 H   0  0  0  0  0
   -2.7563   27.4357   48.1608 H   0  0  0  0  0
   -3.2383   25.5722   47.0681 H   0  0  0  0  0
   -1.4425   23.1132   45.3071 H   0  0  0  0  0
    0.0796   19.8722   48.6372 H   0  0  0  0  0
    0.2098   19.9183   50.3985 H   0  0  0  0  0
   -1.2841   24.0378   51.7218 H   0  0  0  0  0
  1  2  1  0  0  0
  1  3  2  0  0  0
  1  4  1  0  0  0
  8  1  1  0  0  0
  5  6  2  0  0  0
  5  7  1  0  0  0
  5  8  1  0  0  0
 12  5  1  0  0  0
  9 10  2  0  0  0
  9 11  1  0  0  0
  9 12  1  0  0  0
  9 13  1  0  0  0
 13 14  1  0  0  0
 14 15  1  0  0  0
 15 16  1  0  0  0
 15 17  1  0  0  0
 16 21  1  0  0  0
 17 18  1  0  0  0
 17 19  1  0  0  0
 19 20  1  0  0  0
 19 21  1  0  0  0
 21 22  1  0  0  0
 22 23  4  0  0  0
 22 31  4  0  0  0
 23 24  4  0  0  0
 24 25  4  0  0  0
 25 26  4  0  0  0
 25 31  4  0  0  0
 26 27  1  0  0  0
 26 28  4  0  0  0
 28 29  4  0  0  0
 29 30  4  0  0  0
 30 31  4  0  0  0
  2 32  1  0  0  0
  4 33  1  0  0  0
  7 34  1  0  0  0
 11 35  1  0  0  0
 14 36  1  0  0  0
 14 37  1  0  0  0
 15 38  1  0  0  0
 17 39  1  0  0  0
 18 40  1  0  0  0
 19 41  1  0  0  0
 20 42  1  0  0  0
 21 43  1  0  0  0
 23 44  1  0  0  0
 27 45  1  0  0  0
 27 46  1  0  0  0
 29 47  1  0  0  0
M  END
$$$$
