6nw3_ligand
  -I-interpret- 

 96 98  0  0  0  0  0  0  0  0999 V2000
   -3.8700  -13.9560   29.2640 C   0  0  0  0  0
   -3.4970  -12.8720   30.0570 C   0  0  0  0  0
   -3.6630  -12.9260   31.4410 C   0  0  0  0  0
   -4.2010  -14.0530   32.0550 C   0  0  0  0  0
   -4.5990  -15.1470   31.2790 C   0  0  0  0  0
   -1.2940  -17.7150   33.0450 O   0  0  0  0  0
   -1.5800  -17.4070   31.8910 C   0  0  0  0  0
   -0.4730  -17.2120   30.8800 C   0  0  0  0  0
   -0.6830  -16.3820   29.7780 C   0  0  0  0  0
    0.3250  -16.1640   28.8370 C   0  0  0  0  0
    0.0310  -15.2680   27.6570 C   0  0  0  0  0
   -1.1350  -14.2870   27.8610 C   0  0  0  0  0
   -2.4790  -14.6850   27.2020 C   0  0  0  0  0
   -3.6970  -13.9130   27.7610 C   0  0  0  0  0
   -5.1700  -16.3830   31.9360 C   0  0  0  0  0
   -4.0720  -17.3280   32.4670 C   0  0  0  0  0
   -4.5430  -18.8100   32.7130 C   0  0  0  0  0
   -3.4310  -19.5700   33.3670 N   0  3  0  0  0
   -3.7070  -20.2460   34.6530 C   0  0  0  0  0
   -3.8950  -19.2400   35.8100 C   0  0  0  0  0
   -5.0580  -19.3490   36.5540 N   0  0  0  0  0
   -5.3460  -18.4490   37.6780 C   0  0  0  0  0
   -5.6070  -19.2270   38.9810 C   0  0  0  0  0
   -5.6740  -18.3180   40.2100 C   0  0  0  0  0
   -6.8780  -20.0680   38.8910 C   0  0  0  0  0
   -3.0500  -18.3800   36.0580 O   0  0  0  0  0
   -2.6150  -21.2950   35.0050 C   0  0  0  0  0
   -2.7850  -22.0000   36.3480 C   0  0  0  0  0
   -1.6750  -23.0080   36.6610 C   0  0  0  0  0
   -1.8640  -23.6690   38.0160 C   0  0  0  0  0
   -2.9160  -17.2250   31.5560 N   0  0  0  0  0
   -4.4170  -15.0900   29.8870 C   0  0  0  0  0
    1.5710  -16.7770   28.9960 C   0  0  0  0  0
    1.8220  -17.6100   30.0980 C   0  0  0  0  0
    3.1160  -18.2450   30.2620 N   0  0  0  0  0
    3.8480  -18.2040   31.5680 C   0  0  0  0  0
    4.0820  -16.7870   32.1760 C   0  0  0  0  0
    4.4250  -15.6930   31.1620 C   0  0  0  0  0
    3.8090  -19.0550   28.9840 S   0  0  0  0  0
    4.6130  -20.0710   29.5480 O   0  0  0  0  0
    4.8380  -17.9800   28.1800 C   0  0  0  0  0
    2.7820  -19.3660   28.0570 O   0  0  0  0  0
    0.7840  -17.8110   31.0310 C   0  0  0  0  0
   -3.0746  -11.9799   29.5945 H   0  0  0  0  0
   -3.3668  -12.0725   32.0508 H   0  0  0  0  0
   -4.3122  -14.0834   33.1389 H   0  0  0  0  0
   -1.6501  -15.8958   29.6498 H   0  0  0  0  0
   -0.2471  -15.9196   26.8286 H   0  0  0  0  0
    0.9237  -14.6654   27.4892 H   0  0  0  0  0
   -0.8314  -13.3492   27.3958 H   0  0  0  0  0
   -1.3194  -14.2492   28.9346 H   0  0  0  0  0
   -2.6417  -15.7433   27.4062 H   0  0  0  0  0
   -2.4037  -14.4509   26.1401 H   0  0  0  0  0
   -3.5452  -12.8661   27.4982 H   0  0  0  0  0
   -4.5826  -14.3849   27.3353 H   0  0  0  0  0
   -5.7488  -16.9253   31.1883 H   0  0  0  0  0
   -5.7786  -16.0643   32.7822 H   0  0  0  0  0
   -3.7892  -17.0057   33.4691 H   0  0  0  0  0
   -4.7997  -19.2776   31.7625 H   0  0  0  0  0
   -5.4219  -18.8151   33.3577 H   0  0  0  0  0
   -2.7168  -18.8729   33.5778 H   0  0  0  0  0
   -3.1973  -20.3186   32.7147 H   0  0  0  0  0
   -4.6492  -20.7784   34.5230 H   0  0  0  0  0
   -5.7335  -20.0748   36.3145 H   0  0  0  0  0
   -6.2405  -17.8748   37.4367 H   0  0  0  0  0
   -4.4805  -17.8044   37.8313 H   0  0  0  0  0
   -4.7514  -19.8909   39.1044 H   0  0  0  0  0
   -4.7276  -17.7888   40.3209 H   0  0  0  0  0
   -6.4820  -17.5974   40.0838 H   0  0  0  0  0
   -5.8599  -18.9225   41.0977 H   0  0  0  0  0
   -7.7310  -19.4160   38.7031 H   0  0  0  0  0
   -6.7807  -20.7851   38.0759 H   0  0  0  0  0
   -7.0266  -20.6012   39.8300 H   0  0  0  0  0
   -1.6709  -20.7527   35.0578 H   0  0  0  0  0
   -2.6720  -22.0693   34.2399 H   0  0  0  0  0
   -3.7241  -22.5519   36.3091 H   0  0  0  0  0
   -2.7572  -21.2343   37.1232 H   0  0  0  0  0
   -0.7255  -22.4730   36.6746 H   0  0  0  0  0
   -1.6991  -23.7862   35.8981 H   0  0  0  0  0
   -1.8586  -22.9064   38.7948 H   0  0  0  0  0
   -2.8166  -24.1985   38.0308 H   0  0  0  0  0
   -1.0519  -24.3746   38.1911 H   0  0  0  0  0
   -3.1180  -16.9973   30.5825 H   0  0  0  0  0
   -4.7069  -15.9452   29.2766 H   0  0  0  0  0
    2.3548  -16.6068   28.2579 H   0  0  0  0  0
    4.8363  -18.6229   31.3784 H   0  0  0  0  0
    3.2289  -18.7456   32.2832 H   0  0  0  0  0
    4.9365  -16.8712   32.8475 H   0  0  0  0  0
    3.1468  -16.4916   32.6516 H   0  0  0  0  0
    5.3410  -15.9614   30.6358 H   0  0  0  0  0
    3.6089  -15.5941   30.4462 H   0  0  0  0  0
    4.5684  -14.7472   31.6845 H   0  0  0  0  0
    5.5457  -17.5553   28.8919 H   0  0  0  0  0
    5.3812  -18.5136   27.4001 H   0  0  0  0  0
    4.2478  -17.1808   27.7317 H   0  0  0  0  0
    0.9651  -18.4510   31.8946 H   0  0  0  0  0
  1  2  4  0  0  0
 14  1  1  0  0  0
  1 32  4  0  0  0
  2  3  4  0  0  0
  3  4  4  0  0  0
  5  4  4  0  0  0
  5 15  1  0  0  0
 32  5  4  0  0  0
  7  6  2  0  0  0
  8  7  1  0  0  0
  7 31  1  0  0  0
  9  8  4  0  0  0
  8 43  4  0  0  0
 10  9  4  0  0  0
 11 10  1  0  0  0
 10 33  4  0  0  0
 12 11  1  0  0  0
 13 12  1  0  0  0
 13 14  1  0  0  0
 15 16  1  0  0  0
 16 17  1  0  0  0
 16 31  1  0  0  0
 17 18  1  0  0  0
 18 19  1  0  0  0
 19 20  1  0  0  0
 19 27  1  0  0  0
 20 21  1  0  0  0
 20 26  2  0  0  0
 21 22  1  0  0  0
 22 23  1  0  0  0
 23 24  1  0  0  0
 23 25  1  0  0  0
 27 28  1  0  0  0
 28 29  1  0  0  0
 29 30  1  0  0  0
 33 34  4  0  0  0
 34 35  1  0  0  0
 34 43  4  0  0  0
 35 36  1  0  0  0
 35 39  1  0  0  0
 36 37  1  0  0  0
 37 38  1  0  0  0
 39 40  2  0  0  0
 39 41  1  0  0  0
 39 42  2  0  0  0
  2 44  1  0  0  0
  3 45  1  0  0  0
  4 46  1  0  0  0
  9 47  1  0  0  0
 11 48  1  0  0  0
 11 49  1  0  0  0
 12 50  1  0  0  0
 12 51  1  0  0  0
 13 52  1  0  0  0
 13 53  1  0  0  0
 14 54  1  0  0  0
 14 55  1  0  0  0
 15 56  1  0  0  0
 15 57  1  0  0  0
 16 58  1  0  0  0
 17 59  1  0  0  0
 17 60  1  0  0  0
 18 61  1  0  0  0
 18 62  1  0  0  0
 19 63  1  0  0  0
 21 64  1  0  0  0
 22 65  1  0  0  0
 22 66  1  0  0  0
 23 67  1  0  0  0
 24 68  1  0  0  0
 24 69  1  0  0  0
 24 70  1  0  0  0
 25 71  1  0  0  0
 25 72  1  0  0  0
 25 73  1  0  0  0
 27 74  1  0  0  0
 27 75  1  0  0  0
 28 76  1  0  0  0
 28 77  1  0  0  0
 29 78  1  0  0  0
 29 79  1  0  0  0
 30 80  1  0  0  0
 30 81  1  0  0  0
 30 82  1  0  0  0
 31 83  1  0  0  0
 32 84  1  0  0  0
 33 85  1  0  0  0
 36 86  1  0  0  0
 36 87  1  0  0  0
 37 88  1  0  0  0
 37 89  1  0  0  0
 38 90  1  0  0  0
 38 91  1  0  0  0
 38 92  1  0  0  0
 41 93  1  0  0  0
 41 94  1  0  0  0
 41 95  1  0  0  0
 43 96  1  0  0  0
M  END
$$$$
