5we9_ligand
  -I-interpret- 

 56 59  0  0  0  0  0  0  0  0999 V2000
  -10.3010   82.0280   13.8620 C   0  0  0  0  0
   -7.8010   84.4230   18.8540 C   0  0  0  0  0
   -6.7090   83.6070   19.1160 C   0  0  0  0  0
   -5.4890   83.8320   18.4990 C   0  0  0  0  0
   -5.3460   84.8730   17.6110 C   0  0  0  0  0
   -6.4170   85.6910   17.3400 C   0  0  0  0  0
   -7.6390   85.4680   17.9570 C   0  0  0  0  0
  -10.0940   78.8300   16.9820 C   0  0  0  0  0
   -9.5230   77.9460   16.0660 C   0  0  0  0  0
   -5.4650   80.0950   15.3440 C   0  0  0  0  0
   -5.4200   81.3900   16.1380 C   0  0  0  0  0
   -9.1170   81.5610   13.3110 C   0  0  0  0  0
   -5.8930   82.3960   15.1130 C   0  0  0  0  0
   -9.2110   80.4340   12.5090 C   0  0  0  0  0
  -10.3990   79.7810   12.2820 C   0  0  0  0  0
  -11.5400   80.2760   12.8700 C   0  0  0  0  0
  -11.5090   81.4020   13.6660 C   0  0  0  0  0
   -7.8020   82.2440   13.5490 C   0  0  0  0  0
   -6.8380   80.1970   14.6640 C   0  0  0  0  0
   -7.9970   79.6840   15.4900 C   0  0  0  0  0
   -9.5860   80.0910   17.1160 C   0  0  0  0  0
  -10.1380   81.1000   18.0880 C   0  0  0  0  0
  -10.1390   83.4920   18.6410 C   0  0  0  0  0
   -9.1300   84.1780   19.5330 C   0  0  0  0  0
  -10.2830   83.1320   14.6420 F   0  0  0  0  0
   -8.0910   79.9340   11.9400 F   0  0  0  0  0
   -6.9190   81.6460   14.3660 N   0  0  0  0  0
   -8.5540   80.5180   16.3680 N   0  0  0  0  0
   -9.5870   82.3130   17.9810 N   0  0  0  0  0
   -8.4650   78.4210   15.3220 N   0  0  0  0  0
   -7.5810   83.3520   13.0710 O   0  0  0  0  0
  -11.0180   80.8020   18.9020 O   0  0  0  0  0
  -11.1330   78.3390   17.6750 O   0  0  0  0  0
   -9.9180   76.7790   15.8980 O   0  0  0  0  0
   -6.8127   82.7783   19.8164 H   0  0  0  0  0
   -4.6410   83.1830   18.7176 H   0  0  0  0  0
   -4.3868   85.0486   17.1240 H   0  0  0  0  0
   -6.3055   86.5174   16.6381 H   0  0  0  0  0
   -8.4821   86.1220   17.7341 H   0  0  0  0  0
   -5.3492   79.2028   15.9594 H   0  0  0  0  0
   -4.6385   79.9859   14.6418 H   0  0  0  0  0
   -4.4343   81.6156   16.5450 H   0  0  0  0  0
   -6.0324   81.3680   17.0394 H   0  0  0  0  0
   -5.0879   82.7620   14.4758 H   0  0  0  0  0
   -6.2804   83.3097   15.5637 H   0  0  0  0  0
  -10.4362   78.8926   11.6515 H   0  0  0  0  0
  -12.4894   79.7672   12.7032 H   0  0  0  0  0
  -12.4189   81.7855   14.1277 H   0  0  0  0  0
   -6.9199   79.5580   13.7848 H   0  0  0  0  0
  -10.4430   84.1993   17.8693 H   0  0  0  0  0
  -10.9749   83.1705   19.2623 H   0  0  0  0  0
   -9.5418   85.1481   19.8112 H   0  0  0  0  0
   -8.9484   83.5260   20.3874 H   0  0  0  0  0
   -8.7455   82.4192   17.4144 H   0  0  0  0  0
   -8.0252   77.8120   14.6320 H   0  0  0  0  0
  -11.2987   77.4335   17.4025 H   0  0  0  0  0
 12  1  4  0  0  0
  1 17  4  0  0  0
  1 25  1  0  0  0
  2  3  4  0  0  0
  2  7  4  0  0  0
 24  2  1  0  0  0
  3  4  4  0  0  0
  4  5  4  0  0  0
  6  5  4  0  0  0
  7  6  4  0  0  0
  8  9  1  0  0  0
 21  8  2  0  0  0
  8 33  1  0  0  0
  9 30  1  0  0  0
  9 34  2  0  0  0
 10 11  1  0  0  0
 19 10  1  0  0  0
 13 11  1  0  0  0
 12 14  4  0  0  0
 18 12  1  0  0  0
 27 13  1  0  0  0
 14 15  4  0  0  0
 14 26  1  0  0  0
 15 16  4  0  0  0
 17 16  4  0  0  0
 27 18  1  0  0  0
 18 31  2  0  0  0
 20 19  1  0  0  0
 19 27  1  0  0  0
 28 20  2  0  0  0
 20 30  1  0  0  0
 22 21  1  0  0  0
 21 28  1  0  0  0
 29 22  1  0  0  0
 22 32  2  0  0  0
 23 24  1  0  0  0
 23 29  1  0  0  0
  3 35  1  0  0  0
  4 36  1  0  0  0
  5 37  1  0  0  0
  6 38  1  0  0  0
  7 39  1  0  0  0
 10 40  1  0  0  0
 10 41  1  0  0  0
 11 42  1  0  0  0
 11 43  1  0  0  0
 13 44  1  0  0  0
 13 45  1  0  0  0
 15 46  1  0  0  0
 16 47  1  0  0  0
 17 48  1  0  0  0
 19 49  1  0  0  0
 23 50  1  0  0  0
 23 51  1  0  0  0
 24 52  1  0  0  0
 24 53  1  0  0  0
 29 54  1  0  0  0
 30 55  1  0  0  0
 33 56  1  0  0  0
M  END
$$$$
