6g6w_ligand
  -I-interpret- 

 66 71  0  0  0  0  0  0  0  0999 V2000
   35.4260   10.4890   28.4430 C   0  0  0  0  0
   33.8740   10.7430   31.1190 C   0  0  0  0  0
   34.1580   12.0510   31.3710 C   0  0  0  0  0
   33.1680   12.9500   31.6420 C   0  0  0  0  0
   32.5560   10.2820   31.1100 C   0  0  0  0  0
   34.6940   16.2690   32.4000 C   0  0  0  0  0
   36.7120   16.5420   33.4550 C   0  0  0  0  0
   37.1770   11.0170   34.2880 C   0  0  0  0  0
   41.1680   12.1480   29.7800 C   0  0  0  0  0
   42.6260   12.4630   29.5520 C   0  0  0  0  0
   40.4490   12.3470   30.9330 C   0  0  0  0  0
   40.7810   12.8960   32.2480 C   0  0  0  0  0
   40.1170   13.4930   34.4270 C   0  0  0  0  0
   40.6510   12.6600   35.4130 C   0  0  0  0  0
   40.9670   13.1960   36.6460 C   0  0  0  0  0
   40.7540   14.5510   36.8930 C   0  0  0  0  0
   40.2250   15.3800   35.9120 C   0  0  0  0  0
   35.4700    9.1730   29.6770 S   0  0  0  0  0
   34.3980    8.2330   29.6100 O   0  0  0  0  0
   36.8010    8.8110   30.0020 O   0  0  0  0  0
   35.0450   10.0180   30.9770 N   0  0  0  0  0
   31.8410   12.5280   31.6170 C   0  0  0  0  0
   31.5250   11.2010   31.3650 C   0  0  0  0  0
   30.1990   10.8400   31.3640 O   0  0  0  0  0
   33.5810   14.3470   31.8650 C   0  0  0  0  0
   32.8700   15.4120   31.4440 C   0  0  0  0  0
   33.5310   16.5540   31.7600 N   0  0  0  0  0
   35.6500   17.0570   32.8840 N   0  0  0  0  0
   36.8620   15.2410   33.5990 N   0  0  0  0  0
   35.9680   14.3660   33.1530 C   0  0  0  0  0
   36.1850   13.0230   33.3930 N   0  0  0  0  0
   37.4270   12.4870   33.9230 C   0  0  0  0  0
   38.5130   12.5080   32.8920 C   0  0  0  0  0
   38.2000   12.0150   31.7350 N   0  0  0  0  0
   39.1460   11.9320   30.7070 N   0  0  0  0  0
   39.0660   11.4640   29.4520 C   0  0  0  0  0
   40.2790   11.5880   28.8610 C   0  0  0  0  0
   41.9120   13.2850   32.4880 O   0  0  0  0  0
   39.7900   12.9660   33.1770 N   0  0  0  0  0
   39.9080   14.8500   34.6750 C   0  0  0  0  0
   34.8050   14.8700   32.5130 C   0  0  0  0  0
   35.4614   10.0512   27.4454 H   0  0  0  0  0
   34.5058   11.0619   28.5573 H   0  0  0  0  0
   36.2843   11.1460   28.5836 H   0  0  0  0  0
   35.1952   12.3858   31.3559 H   0  0  0  0  0
   32.3327    9.2341   30.9099 H   0  0  0  0  0
   37.4927   17.2089   33.8208 H   0  0  0  0  0
   36.3866   10.9591   35.0363 H   0  0  0  0  0
   36.8751   10.4687   33.3957 H   0  0  0  0  0
   38.0924   10.5831   34.6903 H   0  0  0  0  0
   42.7936   13.5296   29.7013 H   0  0  0  0  0
   43.2335   11.8962   30.2575 H   0  0  0  0  0
   42.9004   12.1899   28.5331 H   0  0  0  0  0
   40.8160   11.6015   35.2120 H   0  0  0  0  0
   41.3832   12.5589   37.4264 H   0  0  0  0  0
   41.0059   14.9658   37.8690 H   0  0  0  0  0
   40.0614   16.4383   36.1155 H   0  0  0  0  0
   35.6934   10.0202   31.7644 H   0  0  0  0  0
   31.0426   13.2478   31.7973 H   0  0  0  0  0
   29.6589   11.6093   31.5590 H   0  0  0  0  0
   31.9108   15.3632   30.9286 H   0  0  0  0  0
   35.4294   12.3698   33.1861 H   0  0  0  0  0
   37.7337   13.0895   34.7780 H   0  0  0  0  0
   38.1718   11.0517   28.9846 H   0  0  0  0  0
   40.5204   11.2986   27.8382 H   0  0  0  0  0
   39.4958   15.4907   33.8955 H   0  0  0  0  0
 18  1  1  0  0  0
  3  2  4  0  0  0
  2  5  4  0  0  0
  2 21  1  0  0  0
  4  3  4  0  0  0
  4 22  4  0  0  0
 25  4  1  0  0  0
 23  5  4  0  0  0
  6 27  4  0  0  0
  6 28  4  0  0  0
 41  6  4  0  0  0
  7 28  4  0  0  0
 29  7  4  0  0  0
 32  8  1  0  0  0
  9 10  1  0  0  0
 11  9  4  0  0  0
  9 37  4  0  0  0
 12 11  1  0  0  0
 11 35  4  0  0  0
 12 38  2  0  0  0
 39 12  1  0  0  0
 13 14  4  0  0  0
 39 13  1  0  0  0
 13 40  4  0  0  0
 14 15  4  0  0  0
 15 16  4  0  0  0
 17 16  4  0  0  0
 40 17  4  0  0  0
 18 19  2  0  0  0
 18 20  2  0  0  0
 21 18  1  0  0  0
 22 23  4  0  0  0
 23 24  1  0  0  0
 25 26  4  0  0  0
 41 25  4  0  0  0
 26 27  4  0  0  0
 30 29  4  0  0  0
 31 30  1  0  0  0
 30 41  4  0  0  0
 32 31  1  0  0  0
 33 32  1  0  0  0
 33 34  2  0  0  0
 33 39  1  0  0  0
 34 35  1  0  0  0
 35 36  4  0  0  0
 36 37  4  0  0  0
  1 42  1  0  0  0
  1 43  1  0  0  0
  1 44  1  0  0  0
  3 45  1  0  0  0
  5 46  1  0  0  0
  7 47  1  0  0  0
  8 48  1  0  0  0
  8 49  1  0  0  0
  8 50  1  0  0  0
 10 51  1  0  0  0
 10 52  1  0  0  0
 10 53  1  0  0  0
 14 54  1  0  0  0
 15 55  1  0  0  0
 16 56  1  0  0  0
 17 57  1  0  0  0
 21 58  1  0  0  0
 22 59  1  0  0  0
 24 60  1  0  0  0
 26 61  1  0  0  0
 31 62  1  0  0  0
 32 63  1  0  0  0
 36 64  1  0  0  0
 37 65  1  0  0  0
 40 66  1  0  0  0
M  END
$$$$
