5mf6_ligand
  -I-interpret- 

 32 35  0  0  0  0  0  0  0  0999 V2000
  116.8690   22.8820  -24.3280 N   0  0  0  0  0
  116.6650   24.1250  -23.9850 C   0  0  0  0  0
  116.2700   21.9310  -23.5820 C   0  0  0  0  0
  115.3940   22.2320  -22.5560 C   0  0  0  0  0
  115.1890   23.5540  -22.2320 C   0  0  0  0  0
  115.8340   24.5390  -22.9720 C   0  0  0  0  0
  115.7470   26.0310  -22.6800 C   0  0  0  0  0
  114.8610   26.6890  -23.6380 N   0  0  0  0  0
  115.2700   26.3550  -21.2770 C   0  0  0  0  0
  114.5890   28.0320  -23.4530 C   0  0  0  0  0
  114.4940   28.5400  -22.1450 C   0  0  0  0  0
  114.7090   27.6220  -21.0780 N   0  0  0  0  0
  114.2450   29.9090  -21.9340 C   0  0  0  0  0
  114.4040   27.7500  -19.7250 C   0  0  0  0  0
  114.7830   26.5990  -19.0840 C   0  0  0  0  0
  115.3920   25.7540  -20.0470 C   0  0  0  0  0
  114.0660   30.7470  -23.0270 C   0  0  0  0  0
  114.1520   30.2350  -24.3400 C   0  0  0  0  0
  114.4080   28.8820  -24.5480 C   0  0  0  0  0
  117.1953   24.8945  -24.5460 H   0  0  0  0  0
  116.4852   20.8842  -23.7967 H   0  0  0  0  0
  114.8767   21.4396  -22.0151 H   0  0  0  0  0
  114.5303   23.8250  -21.4069 H   0  0  0  0  0
  116.7670   26.4042  -22.7717 H   0  0  0  0  0
  114.4557   26.1733  -24.4192 H   0  0  0  0  0
  114.1931   30.3083  -20.9211 H   0  0  0  0  0
  113.9421   28.6184  -19.2553 H   0  0  0  0  0
  114.6421   26.3741  -18.0268 H   0  0  0  0  0
  115.8723   24.7963  -19.8467 H   0  0  0  0  0
  113.8580   31.8054  -22.8704 H   0  0  0  0  0
  114.0177   30.9003  -25.1929 H   0  0  0  0  0
  114.4671   28.4867  -25.5621 H   0  0  0  0  0
  1  2  4  0  0  0
  1  3  4  0  0  0
  2  6  4  0  0  0
  3  4  4  0  0  0
  4  5  4  0  0  0
  5  6  4  0  0  0
  6  7  1  0  0  0
  7  8  1  0  0  0
  7  9  1  0  0  0
  8 10  1  0  0  0
  9 12  4  0  0  0
  9 16  4  0  0  0
 10 11  4  0  0  0
 10 19  4  0  0  0
 11 12  1  0  0  0
 11 13  4  0  0  0
 12 14  4  0  0  0
 13 17  4  0  0  0
 14 15  4  0  0  0
 15 16  4  0  0  0
 17 18  4  0  0  0
 18 19  4  0  0  0
  2 20  1  0  0  0
  3 21  1  0  0  0
  4 22  1  0  0  0
  5 23  1  0  0  0
  7 24  1  0  0  0
  8 25  1  0  0  0
 13 26  1  0  0  0
 14 27  1  0  0  0
 15 28  1  0  0  0
 16 29  1  0  0  0
 17 30  1  0  0  0
 18 31  1  0  0  0
 19 32  1  0  0  0
M  END
$$$$
