4mvy_ligand
  -I-interpret- 

 44 45  0  0  0  0  0  0  0  0999 V2000
  -41.9890  -14.4320   -7.0530 C   0  0  0  0  0
  -41.3790  -15.6670   -7.0880 C   0  0  0  0  0
  -42.3680  -17.0950   -7.0700 Cl  0  0  0  0  0
  -40.0080  -15.8070   -7.1170 C   0  0  0  0  0
  -39.2410  -14.6610   -7.0880 C   0  0  0  0  0
  -37.4840  -14.8160   -6.9820 Cl  0  0  0  0  0
  -39.8180  -13.4030   -7.0700 C   0  0  0  0  0
  -41.2110  -13.2820   -7.0470 C   0  0  0  0  0
  -41.8910  -11.9350   -6.9420 C   0  0  0  0  0
  -42.2800  -11.3070   -8.2120 N   0  3  0  0  0
  -43.4380  -11.9390   -8.8610 C   0  0  0  0  0
  -43.9140  -11.1620  -10.0820 C   0  0  0  0  0
  -44.8270  -11.9310  -11.0190 C   0  0  0  0  0
  -44.1060  -12.7650  -11.9730 N   0  0  0  0  0
  -44.7550  -13.6210  -12.7790 C   0  0  0  0  0
  -45.9760  -13.6200  -12.8700 O   0  0  0  0  0
  -43.9450  -14.4400  -13.5290 N   0  0  0  0  0
  -44.3360  -15.4950  -14.4050 C   0  0  0  0  0
  -45.6280  -15.6340  -14.8980 C   0  0  0  0  0
  -43.3790  -16.4500  -14.7300 C   0  0  0  0  0
  -43.7200  -17.5270  -15.5340 C   0  0  0  0  0
  -45.0140  -17.6770  -16.0030 C   0  0  0  0  0
  -45.9680  -16.7290  -15.6790 C   0  0  0  0  0
  -47.2530  -16.8720  -16.1090 O   0  0  0  0  0
  -43.0763  -14.3582   -7.0302 H   0  0  0  0  0
  -39.5445  -16.7925   -7.1615 H   0  0  0  0  0
  -39.1903  -12.5119   -7.0737 H   0  0  0  0  0
  -41.1685  -11.2635   -6.4780 H   0  0  0  0  0
  -42.8149  -12.1017   -6.3881 H   0  0  0  0  0
  -41.4889  -11.3977   -8.8494 H   0  0  0  0  0
  -42.5378  -10.3419   -8.0060 H   0  0  0  0  0
  -44.2548  -11.9681   -8.1399 H   0  0  0  0  0
  -43.1391  -12.9343   -9.1897 H   0  0  0  0  0
  -43.0239  -10.9017  -10.6548 H   0  0  0  0  0
  -44.4888  -10.3140   -9.7097 H   0  0  0  0  0
  -45.4030  -11.2019  -11.5889 H   0  0  0  0  0
  -45.4459  -12.5889  -10.4088 H   0  0  0  0  0
  -43.0898  -12.6971  -12.0293 H   0  0  0  0  0
  -42.9420  -14.2727  -13.4492 H   0  0  0  0  0
  -46.3790  -14.8778  -14.6695 H   0  0  0  0  0
  -42.3610  -16.3520  -14.3528 H   0  0  0  0  0
  -42.9614  -18.2633  -15.7996 H   0  0  0  0  0
  -45.2787  -18.5343  -16.6219 H   0  0  0  0  0
  -47.3265  -17.6726  -16.6337 H   0  0  0  0  0
  1  2  4  0  0  0
  1  8  4  0  0  0
  2  3  1  0  0  0
  2  4  4  0  0  0
  4  5  4  0  0  0
  5  6  1  0  0  0
  5  7  4  0  0  0
  7  8  4  0  0  0
  8  9  1  0  0  0
  9 10  1  0  0  0
 10 11  1  0  0  0
 11 12  1  0  0  0
 12 13  1  0  0  0
 13 14  1  0  0  0
 14 15  1  0  0  0
 15 16  2  0  0  0
 15 17  1  0  0  0
 17 18  1  0  0  0
 18 19  4  0  0  0
 18 20  4  0  0  0
 19 23  4  0  0  0
 20 21  4  0  0  0
 21 22  4  0  0  0
 22 23  4  0  0  0
 23 24  1  0  0  0
  1 25  1  0  0  0
  4 26  1  0  0  0
  7 27  1  0  0  0
  9 28  1  0  0  0
  9 29  1  0  0  0
 10 30  1  0  0  0
 10 31  1  0  0  0
 11 32  1  0  0  0
 11 33  1  0  0  0
 12 34  1  0  0  0
 12 35  1  0  0  0
 13 36  1  0  0  0
 13 37  1  0  0  0
 14 38  1  0  0  0
 17 39  1  0  0  0
 19 40  1  0  0  0
 20 41  1  0  0  0
 21 42  1  0  0  0
 22 43  1  0  0  0
 24 44  1  0  0  0
M  END
$$$$
