5aei_ligand
  -I-interpret- 

229228  0  0  0  0  0  0  0  0999 V2000
   10.3980   50.6580   -3.6840 N   0  3  0  0  0
   10.8760   49.3450   -4.1610 C   0  0  0  0  0
    9.9380   48.7360   -5.1940 C   0  0  0  0  0
   10.2850   47.6400   -5.6880 O   0  0  0  0  0
   11.0950   48.4570   -2.9570 C   0  0  0  0  0
   12.0010   49.0480   -1.9340 C   0  0  0  0  0
   13.4140   49.3000   -2.4590 C   0  0  0  0  0
   14.3980   49.7450   -1.4050 C   0  0  0  0  0
   14.1360   51.0890   -1.0980 N   0  3  0  0  0
    8.8220   49.4060   -5.5800 N   0  0  0  0  0
    7.8590   48.8250   -6.5180 C   0  0  0  0  0
    8.2290   49.2100   -7.9750 C   0  0  0  0  0
    8.3890   50.3610   -8.2420 O   0  0  0  0  0
    6.4280   49.2550   -6.2170 C   0  0  0  0  0
    5.8260   48.5430   -5.0210 C   0  0  0  0  0
    4.3390   48.8580   -5.0960 C   0  0  0  0  0
    4.1190   50.1610   -4.5580 N   0  0  0  0  0
    3.0840   50.9720   -4.8280 C   0  0  0  0  0
    2.1400   50.7270   -5.7270 N   0  0  0  0  0
    3.0350   52.0950   -4.1230 N   0  0  0  0  0
    8.4020   48.2220   -8.8520 N   0  0  0  0  0
    8.8750   48.4420  -10.2200 C   0  0  0  0  0
    7.7710   48.0310  -11.1730 C   0  0  0  0  0
    7.0540   47.0930  -10.9120 O   0  0  0  0  0
   10.1000   47.5660  -10.4750 C   0  0  0  0  0
   11.2980   47.9000   -9.6120 C   0  0  0  0  0
   12.3970   46.8930   -9.5960 C   0  0  0  0  0
   13.6130   47.1410   -8.7430 C   0  0  0  0  0
   14.3410   48.3620   -9.0790 N   0  3  0  0  0
    7.7760   48.6140  -12.3140 N   0  0  0  0  0
    6.8300   48.2200  -13.3430 C   0  0  0  0  0
    7.4280   48.3240  -14.7400 C   0  0  0  0  0
    8.1300   49.2770  -15.0310 O   0  0  0  0  0
    5.6520   49.1950  -13.3620 C   0  0  0  0  0
    4.7230   49.0040  -12.1710 C   0  0  0  0  0
    3.7820   50.1580  -12.0860 C   0  0  0  0  0
    4.5620   51.4140  -11.7990 N   0  0  0  0  0
    4.0050   52.6370  -11.7400 C   0  0  0  0  0
    2.6440   52.7180  -11.8690 N   0  0  0  0  0
    4.7250   53.7030  -11.5160 N   0  0  0  0  0
    7.0250   47.3860  -15.5900 N   0  0  0  0  0
    7.4560   47.3370  -17.0190 C   0  0  0  0  0
    6.2400   47.5330  -17.9080 C   0  0  0  0  0
    5.1300   47.1040  -17.5750 O   0  0  0  0  0
    8.1020   45.9690  -17.2890 C   0  0  0  0  0
    9.4930   45.8510  -16.6800 C   0  0  0  0  0
   10.0030   44.3960  -16.6290 C   0  0  0  0  0
   11.4950   44.2270  -16.4420 C   0  0  0  0  0
   11.9410   44.8610  -15.1610 N   0  3  0  0  0
    6.4220   48.0840  -19.0650 N   0  0  0  0  0
    5.4110   48.1890  -20.0660 C   0  0  0  0  0
    5.9080   47.5930  -21.3710 C   0  0  0  0  0
    6.8730   48.0380  -21.9060 O   0  0  0  0  0
    5.1900   49.6710  -20.4380 C   0  0  0  0  0
    4.0430   49.9660  -21.4190 C   0  0  0  0  0
    2.7040   49.9490  -20.7210 C   0  0  0  0  0
    1.7670   50.5370  -21.6900 N   0  0  0  0  0
    1.0600   49.7920  -22.5700 C   0  0  0  0  0
    1.0590   48.4420  -22.4440 N   0  0  0  0  0
    0.2730   50.3920  -23.4580 N   0  0  0  0  0
    5.1240   46.6890  -21.9610 N   0  0  0  0  0
    5.4850   46.1500  -23.2480 C   0  0  0  0  0
    4.8080   46.9560  -24.3380 C   0  0  0  0  0
    3.8350   47.6150  -24.1230 O   0  0  0  0  0
    5.2290   44.6220  -23.3420 C   0  0  0  0  0
    6.0420   43.8340  -22.3690 C   0  0  0  0  0
    5.9220   42.3520  -22.6960 C   0  0  0  0  0
    6.7400   41.4720  -21.7770 C   0  0  0  0  0
    6.4240   40.0460  -22.1130 N   0  3  0  0  0
    5.3440   46.8280  -25.5540 N   0  0  0  0  0
    4.7940   47.5130  -26.7210 C   0  0  0  0  0
    4.3520   46.4420  -27.6730 C   0  0  0  0  0
    5.1700   45.8950  -28.3660 O   0  0  0  0  0
    5.8220   48.4250  -27.3640 C   0  0  0  0  0
    6.5860   49.3200  -26.3610 C   0  0  0  0  0
    5.7400   50.1360  -25.4320 C   0  0  0  0  0
    4.9460   51.0920  -26.1820 N   0  0  0  0  0
    3.6340   51.1800  -26.1790 C   0  0  0  0  0
    2.8880   50.4030  -25.3980 N   0  0  0  0  0
    3.0510   52.0740  -26.9000 N   0  0  0  0  0
    3.0540   46.1710  -27.7360 N   0  0  0  0  0
    2.5850   45.0150  -28.5160 C   0  0  0  0  0
    1.5040   45.4440  -29.4280 C   0  0  0  0  0
    0.7550   46.4130  -29.0580 O   0  0  0  0  0
    1.9290   43.9950  -27.6160 C   0  0  0  0  0
    2.7870   43.3460  -26.6170 C   0  0  0  0  0
    1.9110   42.2750  -25.9050 C   0  0  0  0  0
    2.6710   41.7860  -24.7710 C   0  0  0  0  0
    1.8960   40.8060  -23.9160 N   0  3  0  0  0
    1.4440   44.8260  -30.6120 N   0  0  0  0  0
    0.3010   45.0160  -31.4890 C   0  0  0  0  0
   -0.5630   43.7620  -31.4420 C   0  0  0  0  0
   -0.2130   42.6560  -30.8860 O   0  0  0  0  0
    0.6970   45.7130  -32.9000 C   0  0  0  0  0
    1.5530   44.9400  -33.7970 C   0  0  0  0  0
    1.7730   45.5040  -35.2020 C   0  0  0  0  0
    2.3050   46.8580  -35.1420 N   0  0  0  0  0
    3.5930   47.1990  -34.9300 C   0  0  0  0  0
    4.5490   46.2810  -34.8870 N   0  0  0  0  0
    3.9060   48.5300  -34.9250 N   0  0  0  0  0
   -1.7850   43.7660  -31.6360 O   0  0  0  0  0
   10.2439   51.2731   -4.4829 H   0  0  0  0  0
    9.5231   50.5353   -3.1741 H   0  0  0  0  0
   11.0979   51.0695   -3.0666 H   0  0  0  0  0
   11.8238   49.4619   -4.6865 H   0  0  0  0  0
   11.5596   47.5368   -3.3111 H   0  0  0  0  0
   10.1249   48.3044   -2.4839 H   0  0  0  0  0
   12.0755   48.3399   -1.1087 H   0  0  0  0  0
   11.5820   50.0091   -1.6359 H   0  0  0  0  0
   13.3450   50.1031   -3.1928 H   0  0  0  0  0
   13.7800   48.3552   -2.8610 H   0  0  0  0  0
   15.4174   49.6377   -1.7757 H   0  0  0  0  0
   14.2929   49.1297   -0.5114 H   0  0  0  0  0
   14.7927   51.4081   -0.3857 H   0  0  0  0  0
   14.2431   51.6558   -1.9392 H   0  0  0  0  0
   13.1824   51.1766   -0.7467 H   0  0  0  0  0
    8.6496   50.3394   -5.2065 H   0  0  0  0  0
    7.9090   47.7426   -6.4001 H   0  0  0  0  0
    5.8201   49.0081   -7.0874 H   0  0  0  0  0
    6.4453   50.3212   -5.9910 H   0  0  0  0  0
    6.2670   48.8784   -4.0823 H   0  0  0  0  0
    6.0173   47.4702   -5.0463 H   0  0  0  0  0
    3.7754   48.1213   -4.5235 H   0  0  0  0  0
    4.0056   48.8248   -6.1332 H   0  0  0  0  0
    4.8179   50.5112   -3.9028 H   0  0  0  0  0
    2.1683   49.8671   -6.2749 H   0  0  0  0  0
    2.2766   52.7599   -4.2750 H   0  0  0  0  0
    3.7558   52.2934   -3.4291 H   0  0  0  0  0
    8.1953   47.2679   -8.5566 H   0  0  0  0  0
    9.1379   49.4897  -10.3658 H   0  0  0  0  0
   10.3976   47.7260  -11.5113 H   0  0  0  0  0
    9.8139   46.5403  -10.2421 H   0  0  0  0  0
   10.9282   47.9641   -8.5886 H   0  0  0  0  0
   11.7268   48.8128  -10.0257 H   0  0  0  0  0
   12.7737   46.8765  -10.6187 H   0  0  0  0  0
   11.9438   45.9937   -9.1790 H   0  0  0  0  0
   14.2945   46.3056   -8.9038 H   0  0  0  0  0
   13.2684   47.2448   -7.7141 H   0  0  0  0  0
   15.1461   48.4576   -8.4601 H   0  0  0  0  0
   14.6588   48.3115  -10.0469 H   0  0  0  0  0
   13.7246   49.1665   -8.9638 H   0  0  0  0  0
    8.4478   49.3585  -12.5005 H   0  0  0  0  0
    6.5427   47.1944  -13.1110 H   0  0  0  0  0
    5.0779   49.0134  -14.2706 H   0  0  0  0  0
    6.0515   50.2083  -13.3196 H   0  0  0  0  0
    5.3121   48.9467  -11.2557 H   0  0  0  0  0
    4.1566   48.0811  -12.2958 H   0  0  0  0  0
    3.0619   49.9843  -11.2864 H   0  0  0  0  0
    3.2499   50.2661  -13.0311 H   0  0  0  0  0
    5.5664   51.3329  -11.6409 H   0  0  0  0  0
    2.1771   53.6215  -11.7903 H   0  0  0  0  0
    2.0972   51.8749  -12.0438 H   0  0  0  0  0
    5.7326   53.6189  -11.3813 H   0  0  0  0  0
    6.3900   46.6638  -15.2499 H   0  0  0  0  0
    8.1791   48.1246  -17.2309 H   0  0  0  0  0
    8.1959   45.8484  -18.3682 H   0  0  0  0  0
    7.4708   45.2038  -16.8371 H   0  0  0  0  0
    9.4415   46.2223  -15.6565 H   0  0  0  0  0
   10.1797   46.4233  -17.3037 H   0  0  0  0  0
    9.7616   43.9513  -17.5944 H   0  0  0  0  0
    9.5300   43.9344  -15.7622 H   0  0  0  0  0
   12.0117   44.7079  -17.2726 H   0  0  0  0  0
   11.7284   43.1628  -16.4093 H   0  0  0  0  0
   12.9477   44.7364  -15.0538 H   0  0  0  0  0
   11.7207   45.8567  -15.1811 H   0  0  0  0  0
   11.4574   44.4203  -14.3785 H   0  0  0  0  0
    7.3443   48.4664  -19.2737 H   0  0  0  0  0
    4.5226   47.6977  -19.6692 H   0  0  0  0  0
    6.1040   49.9982  -20.9337 H   0  0  0  0  0
    4.9330   50.1810  -19.5096 H   0  0  0  0  0
    4.0410   49.1966  -22.1911 H   0  0  0  0  0
    4.1985   50.9567  -21.8460 H   0  0  0  0  0
    2.7265   50.5101  -19.7868 H   0  0  0  0  0
    2.4095   48.9398  -20.4332 H   0  0  0  0  0
    1.6451   51.5497  -21.6988 H   0  0  0  0  0
    0.4500   47.8752  -23.0341 H   0  0  0  0  0
    1.6672   47.9933  -21.7591 H   0  0  0  0  0
    0.2045   51.4096  -23.4734 H   0  0  0  0  0
    4.2682   46.3790  -21.5007 H   0  0  0  0  0
    6.5614   46.2481  -23.3892 H   0  0  0  0  0
    5.5072   44.2996  -24.3454 H   0  0  0  0  0
    4.1774   44.4467  -23.1151 H   0  0  0  0  0
    5.6771   44.0151  -21.3580 H   0  0  0  0  0
    7.0864   44.1387  -22.4355 H   0  0  0  0  0
    6.2931   42.2061  -23.7104 H   0  0  0  0  0
    4.8755   42.0710  -22.5779 H   0  0  0  0  0
    6.4954   41.6798  -20.7353 H   0  0  0  0  0
    7.8038   41.6672  -21.9121 H   0  0  0  0  0
    6.9631   39.4276  -21.5069 H   0  0  0  0  0
    5.4278   39.8776  -21.9728 H   0  0  0  0  0
    6.6668   39.8656  -23.0871 H   0  0  0  0  0
    6.1639   46.2328  -25.6719 H   0  0  0  0  0
    3.9591   48.1530  -26.4355 H   0  0  0  0  0
    5.2857   49.0871  -28.0438 H   0  0  0  0  0
    6.5582   47.7872  -27.8532 H   0  0  0  0  0
    7.1573   50.0305  -26.9584 H   0  0  0  0  0
    7.1688   48.6467  -25.7324 H   0  0  0  0  0
    6.3884   50.6758  -24.7419 H   0  0  0  0  0
    5.0723   49.4720  -24.8830 H   0  0  0  0  0
    5.4529   51.7574  -26.7657 H   0  0  0  0  0
    1.8751   50.5218  -25.3785 H   0  0  0  0  0
    3.3290   49.6886  -24.8187 H   0  0  0  0  0
    3.6068   52.7108  -27.4709 H   0  0  0  0  0
    2.3836   46.7626  -27.2450 H   0  0  0  0  0
    3.4508   44.6055  -29.0363 H   0  0  0  0  0
    1.5776   43.1985  -28.2720 H   0  0  0  0  0
    1.1699   44.5371  -27.0522 H   0  0  0  0  0
    3.1695   44.0738  -25.9014 H   0  0  0  0  0
    3.6551   42.8866  -27.0897 H   0  0  0  0  0
    1.6710   41.4595  -26.5872 H   0  0  0  0  0
    0.9661   42.7079  -25.5765 H   0  0  0  0  0
    2.9236   42.6431  -24.1467 H   0  0  0  0  0
    3.5477   41.2669  -25.1584 H   0  0  0  0  0
    2.4802   40.4992  -23.1382 H   0  0  0  0  0
    1.0578   41.2610  -23.5543 H   0  0  0  0  0
    1.6297   39.9999  -24.4814 H   0  0  0  0  0
    2.2077   44.2154  -30.9025 H   0  0  0  0  0
   -0.3833   45.7901  -31.1419 H   0  0  0  0  0
    0.7356   42.6595  -30.7384 H   0  0  0  0  0
    1.2625   46.6089  -32.6438 H   0  0  0  0  0
   -0.2411   45.8619  -33.4348 H   0  0  0  0  0
    1.0517   43.9821  -33.9354 H   0  0  0  0  0
    2.5361   44.9194  -33.3267 H   0  0  0  0  0
    0.8164   45.5265  -35.7240 H   0  0  0  0  0
    2.4881   44.8697  -35.7259 H   0  0  0  0  0
    1.6409   47.6211  -35.2726 H   0  0  0  0  0
    4.3165   45.2962  -35.0154 H   0  0  0  0  0
    4.8819   48.8243  -34.8880 H   0  0  0  0  0
    3.1636   49.2286  -34.9583 H   0  0  0  0  0
  1  2  1  0  0  0
  2  3  1  0  0  0
  2  5  1  0  0  0
  3  4  2  0  0  0
  3 10  1  0  0  0
  5  6  1  0  0  0
  6  7  1  0  0  0
  7  8  1  0  0  0
  8  9  1  0  0  0
 10 11  1  0  0  0
 11 12  1  0  0  0
 11 14  1  0  0  0
 12 13  2  0  0  0
 12 21  1  0  0  0
 14 15  1  0  0  0
 15 16  1  0  0  0
 16 17  1  0  0  0
 17 18  1  0  0  0
 18 19  2  0  0  0
 18 20  1  0  0  0
 21 22  1  0  0  0
 22 23  1  0  0  0
 22 25  1  0  0  0
 23 24  2  0  0  0
 23 30  1  0  0  0
 25 26  1  0  0  0
 26 27  1  0  0  0
 27 28  1  0  0  0
 28 29  1  0  0  0
 30 31  1  0  0  0
 31 32  1  0  0  0
 31 34  1  0  0  0
 32 33  2  0  0  0
 32 41  1  0  0  0
 34 35  1  0  0  0
 35 36  1  0  0  0
 36 37  1  0  0  0
 37 38  1  0  0  0
 38 39  1  0  0  0
 38 40  2  0  0  0
 41 42  1  0  0  0
 42 43  1  0  0  0
 42 45  1  0  0  0
 43 44  2  0  0  0
 43 50  1  0  0  0
 45 46  1  0  0  0
 46 47  1  0  0  0
 47 48  1  0  0  0
 48 49  1  0  0  0
 50 51  1  0  0  0
 51 52  1  0  0  0
 51 54  1  0  0  0
 52 53  2  0  0  0
 52 61  1  0  0  0
 54 55  1  0  0  0
 55 56  1  0  0  0
 56 57  1  0  0  0
 57 58  1  0  0  0
 58 59  1  0  0  0
 58 60  2  0  0  0
 61 62  1  0  0  0
 62 63  1  0  0  0
 62 65  1  0  0  0
 63 64  2  0  0  0
 63 70  1  0  0  0
 65 66  1  0  0  0
 66 67  1  0  0  0
 67 68  1  0  0  0
 68 69  1  0  0  0
 70 71  1  0  0  0
 71 72  1  0  0  0
 71 74  1  0  0  0
 72 73  2  0  0  0
 72 81  1  0  0  0
 74 75  1  0  0  0
 75 76  1  0  0  0
 76 77  1  0  0  0
 77 78  1  0  0  0
 78 79  1  0  0  0
 78 80  2  0  0  0
 81 82  1  0  0  0
 82 83  1  0  0  0
 82 85  1  0  0  0
 83 84  2  0  0  0
 83 90  1  0  0  0
 85 86  1  0  0  0
 86 87  1  0  0  0
 87 88  1  0  0  0
 88 89  1  0  0  0
 90 91  1  0  0  0
 91 92  1  0  0  0
 91 94  1  0  0  0
 92 93  1  0  0  0
 92101  2  0  0  0
 94 95  1  0  0  0
 95 96  1  0  0  0
 96 97  1  0  0  0
 97 98  1  0  0  0
 98 99  2  0  0  0
 98100  1  0  0  0
  1102  1  0  0  0
  1103  1  0  0  0
  1104  1  0  0  0
  2105  1  0  0  0
  5106  1  0  0  0
  5107  1  0  0  0
  6108  1  0  0  0
  6109  1  0  0  0
  7110  1  0  0  0
  7111  1  0  0  0
  8112  1  0  0  0
  8113  1  0  0  0
  9114  1  0  0  0
  9115  1  0  0  0
  9116  1  0  0  0
 10117  1  0  0  0
 11118  1  0  0  0
 14119  1  0  0  0
 14120  1  0  0  0
 15121  1  0  0  0
 15122  1  0  0  0
 16123  1  0  0  0
 16124  1  0  0  0
 17125  1  0  0  0
 19126  1  0  0  0
 20127  1  0  0  0
 20128  1  0  0  0
 21129  1  0  0  0
 22130  1  0  0  0
 25131  1  0  0  0
 25132  1  0  0  0
 26133  1  0  0  0
 26134  1  0  0  0
 27135  1  0  0  0
 27136  1  0  0  0
 28137  1  0  0  0
 28138  1  0  0  0
 29139  1  0  0  0
 29140  1  0  0  0
 29141  1  0  0  0
 30142  1  0  0  0
 31143  1  0  0  0
 34144  1  0  0  0
 34145  1  0  0  0
 35146  1  0  0  0
 35147  1  0  0  0
 36148  1  0  0  0
 36149  1  0  0  0
 37150  1  0  0  0
 39151  1  0  0  0
 39152  1  0  0  0
 40153  1  0  0  0
 41154  1  0  0  0
 42155  1  0  0  0
 45156  1  0  0  0
 45157  1  0  0  0
 46158  1  0  0  0
 46159  1  0  0  0
 47160  1  0  0  0
 47161  1  0  0  0
 48162  1  0  0  0
 48163  1  0  0  0
 49164  1  0  0  0
 49165  1  0  0  0
 49166  1  0  0  0
 50167  1  0  0  0
 51168  1  0  0  0
 54169  1  0  0  0
 54170  1  0  0  0
 55171  1  0  0  0
 55172  1  0  0  0
 56173  1  0  0  0
 56174  1  0  0  0
 57175  1  0  0  0
 59176  1  0  0  0
 59177  1  0  0  0
 60178  1  0  0  0
 61179  1  0  0  0
 62180  1  0  0  0
 65181  1  0  0  0
 65182  1  0  0  0
 66183  1  0  0  0
 66184  1  0  0  0
 67185  1  0  0  0
 67186  1  0  0  0
 68187  1  0  0  0
 68188  1  0  0  0
 69189  1  0  0  0
 69190  1  0  0  0
 69191  1  0  0  0
 70192  1  0  0  0
 71193  1  0  0  0
 74194  1  0  0  0
 74195  1  0  0  0
 75196  1  0  0  0
 75197  1  0  0  0
 76198  1  0  0  0
 76199  1  0  0  0
 77200  1  0  0  0
 79201  1  0  0  0
 79202  1  0  0  0
 80203  1  0  0  0
 81204  1  0  0  0
 82205  1  0  0  0
 85206  1  0  0  0
 85207  1  0  0  0
 86208  1  0  0  0
 86209  1  0  0  0
 87210  1  0  0  0
 87211  1  0  0  0
 88212  1  0  0  0
 88213  1  0  0  0
 89214  1  0  0  0
 89215  1  0  0  0
 89216  1  0  0  0
 90217  1  0  0  0
 91218  1  0  0  0
 93219  1  0  0  0
 94220  1  0  0  0
 94221  1  0  0  0
 95222  1  0  0  0
 95223  1  0  0  0
 96224  1  0  0  0
 96225  1  0  0  0
 97226  1  0  0  0
 99227  1  0  0  0
100228  1  0  0  0
100229  1  0  0  0
M  END
$$$$
