### 
### Created by X-TOOL on Mon Sep 10 21:13:26 2018
### 

@<TRIPOS>MOLECULE
5aei_ligand
  233   232     1     0     0
SMALL
GAST_HUCK


@<TRIPOS>ATOM
      1 N          10.3980   50.6580   -3.6840 N.4       1 LYS         0.2379
      2 CA         10.8760   49.3450   -4.1610 C.3       1 LYS         0.0650
      3 C           9.9380   48.7360   -5.1940 C.2       1 LYS         0.2267
      4 O          10.2850   47.6400   -5.6880 O.2       1 LYS        -0.3907
      5 CB         11.0950   48.4570   -2.9570 C.3       1 LYS         0.0080
      6 CG         12.0010   49.0480   -1.9340 C.3       1 LYS        -0.0410
      7 CD         13.4140   49.3000   -2.4590 C.3       1 LYS        -0.0123
      8 CE         14.3980   49.7450   -1.4050 C.3       1 LYS        -0.0354
      9 NZ         14.1360   51.0890   -1.0980 N.4       1 LYS         0.2185
     10 N           8.8220   49.4060   -5.5800 N.am      1 ARG        -0.2610
     11 CA          7.8590   48.8250   -6.5180 C.3       1 ARG         0.1312
     12 C           8.2290   49.2100   -7.9750 C.2       1 ARG         0.2039
     13 O           8.3890   50.3610   -8.2420 O.2       1 ARG        -0.3944
     14 CB          6.4280   49.2550   -6.2170 C.3       1 ARG        -0.0092
     15 CG          5.8260   48.5430   -5.0210 C.3       1 ARG        -0.0156
     16 CD          4.3390   48.8580   -5.0960 C.3       1 ARG         0.0627
     17 NE          4.1190   50.1610   -4.5580 N.pl3     1 ARG        -0.2723
     18 CZ          3.0840   50.9720   -4.8280 C.cat     1 ARG         0.2882
     19 NH1         2.1400   50.7270   -5.7270 N.pl3     1 ARG        -0.2849
     20 NH2         3.0350   52.0950   -4.1230 N.pl3     1 ARG        -0.2849
     21 N           8.4020   48.2220   -8.8520 N.am      1 LYS        -0.2637
     22 CA          8.8750   48.4420  -10.2200 C.3       1 LYS         0.1310
     23 C           7.7710   48.0310  -11.1730 C.2       1 LYS         0.2039
     24 O           7.0540   47.0930  -10.9120 O.2       1 LYS        -0.3944
     25 CB         10.1000   47.5660  -10.4750 C.3       1 LYS        -0.0122
     26 CG         11.2980   47.9000   -9.6120 C.3       1 LYS        -0.0440
     27 CD         12.3970   46.8930   -9.5960 C.3       1 LYS        -0.0124
     28 CE         13.6130   47.1410   -8.7430 C.3       1 LYS        -0.0354
     29 NZ         14.3410   48.3620   -9.0790 N.4       1 LYS         0.2185
     30 N           7.7760   48.6140  -12.3140 N.am      1 ARG        -0.2637
     31 CA          6.8300   48.2200  -13.3430 C.3       1 ARG         0.1311
     32 C           7.4280   48.3240  -14.7400 C.2       1 ARG         0.2039
     33 O           8.1300   49.2770  -15.0310 O.2       1 ARG        -0.3944
     34 CB          5.6520   49.1950  -13.3620 C.3       1 ARG        -0.0092
     35 CG          4.7230   49.0040  -12.1710 C.3       1 ARG        -0.0156
     36 CD          3.7820   50.1580  -12.0860 C.3       1 ARG         0.0627
     37 NE          4.5620   51.4140  -11.7990 N.pl3     1 ARG        -0.2723
     38 CZ          4.0050   52.6370  -11.7400 C.cat     1 ARG         0.2882
     39 NH1         2.6440   52.7180  -11.8690 N.pl3     1 ARG        -0.2849
     40 NH2         4.7250   53.7030  -11.5160 N.pl3     1 ARG        -0.2849
     41 N           7.0250   47.3860  -15.5900 N.am      1 LYS        -0.2637
     42 CA          7.4560   47.3370  -17.0190 C.3       1 LYS         0.1310
     43 C           6.2400   47.5330  -17.9080 C.2       1 LYS         0.2039
     44 O           5.1300   47.1040  -17.5750 O.2       1 LYS        -0.3944
     45 CB          8.1020   45.9690  -17.2890 C.3       1 LYS        -0.0122
     46 CG          9.4930   45.8510  -16.6800 C.3       1 LYS        -0.0440
     47 CD         10.0030   44.3960  -16.6290 C.3       1 LYS        -0.0124
     48 CE         11.4950   44.2270  -16.4420 C.3       1 LYS        -0.0354
     49 NZ         11.9410   44.8610  -15.1610 N.4       1 LYS         0.2185
     50 N           6.4220   48.0840  -19.0650 N.am      1 ARG        -0.2637
     51 CA          5.4110   48.1890  -20.0660 C.3       1 ARG         0.1311
     52 C           5.9080   47.5930  -21.3710 C.2       1 ARG         0.2039
     53 O           6.8730   48.0380  -21.9060 O.2       1 ARG        -0.3944
     54 CB          5.1900   49.6710  -20.4380 C.3       1 ARG        -0.0092
     55 CG          4.0430   49.9660  -21.4190 C.3       1 ARG        -0.0156
     56 CD          2.7040   49.9490  -20.7210 C.3       1 ARG         0.0627
     57 NE          1.7670   50.5370  -21.6900 N.pl3     1 ARG        -0.2723
     58 CZ          1.0600   49.7920  -22.5700 C.cat     1 ARG         0.2882
     59 NH1         1.0590   48.4420  -22.4440 N.pl3     1 ARG        -0.2849
     60 NH2         0.2730   50.3920  -23.4580 N.pl3     1 ARG        -0.2849
     61 N           5.1240   46.6890  -21.9610 N.am      1 LYS        -0.2637
     62 CA          5.4850   46.1500  -23.2480 C.3       1 LYS         0.1310
     63 C           4.8080   46.9560  -24.3380 C.2       1 LYS         0.2039
     64 O           3.8350   47.6150  -24.1230 O.2       1 LYS        -0.3944
     65 CB          5.2290   44.6220  -23.3420 C.3       1 LYS        -0.0122
     66 CG          6.0420   43.8340  -22.3690 C.3       1 LYS        -0.0440
     67 CD          5.9220   42.3520  -22.6960 C.3       1 LYS        -0.0124
     68 CE          6.7400   41.4720  -21.7770 C.3       1 LYS        -0.0354
     69 NZ          6.4240   40.0460  -22.1130 N.4       1 LYS         0.2185
     70 N           5.3440   46.8280  -25.5540 N.am      1 ARG        -0.2637
     71 CA          4.7940   47.5130  -26.7210 C.3       1 ARG         0.1311
     72 C           4.3520   46.4420  -27.6730 C.2       1 ARG         0.2039
     73 O           5.1700   45.8950  -28.3660 O.2       1 ARG        -0.3944
     74 CB          5.8220   48.4250  -27.3640 C.3       1 ARG        -0.0092
     75 CG          6.5860   49.3200  -26.3610 C.3       1 ARG        -0.0156
     76 CD          5.7400   50.1360  -25.4320 C.3       1 ARG         0.0627
     77 NE          4.9460   51.0920  -26.1820 N.pl3     1 ARG        -0.2723
     78 CZ          3.6340   51.1800  -26.1790 C.cat     1 ARG         0.2882
     79 NH1         2.8880   50.4030  -25.3980 N.pl3     1 ARG        -0.2849
     80 NH2         3.0510   52.0740  -26.9000 N.pl3     1 ARG        -0.2849
     81 N           3.0540   46.1710  -27.7360 N.am      1 LYS        -0.2637
     82 CA          2.5850   45.0150  -28.5160 C.3       1 LYS         0.1309
     83 C           1.5040   45.4440  -29.4280 C.2       1 LYS         0.2033
     84 O           0.7550   46.4130  -29.0580 O.2       1 LYS        -0.3944
     85 CB          1.9290   43.9950  -27.6160 C.3       1 LYS        -0.0122
     86 CG          2.7870   43.3460  -26.6170 C.3       1 LYS        -0.0440
     87 CD          1.9110   42.2750  -25.9050 C.3       1 LYS        -0.0124
     88 CE          2.6710   41.7860  -24.7710 C.3       1 LYS        -0.0354
     89 NZ          1.8960   40.8060  -23.9160 N.4       1 LYS         0.2185
     90 N           1.4440   44.8260  -30.6120 N.am      1 ARG        -0.2695
     91 CA          0.3010   45.0160  -31.4890 C.3       1 ARG         0.0945
     92 C          -0.5630   43.7620  -31.4420 C.2       1 ARG         0.0601
     93 O          -0.2130   42.6560  -30.8860 O.co2     1 ARG        -0.5666
     94 CB          0.6970   45.7130  -32.9000 C.3       1 ARG        -0.0148
     95 CG          1.5530   44.9400  -33.7970 C.3       1 ARG        -0.0162
     96 CD          1.7730   45.5040  -35.2020 C.3       1 ARG         0.0627
     97 NE          2.3050   46.8580  -35.1420 N.pl3     1 ARG        -0.2723
     98 CZ          3.5930   47.1990  -34.9300 C.cat     1 ARG         0.2882
     99 NH1         4.5490   46.2810  -34.8870 N.pl3     1 ARG        -0.2849
    100 NH2         3.9060   48.5300  -34.9250 N.pl3     1 ARG        -0.2849
    101 OXT        -1.7850   43.7660  -31.6360 O.co2     1 ARG        -0.5666
    102 H1         11.0456   51.0246   -3.0041 H         1 LYS         0.2015
    103 H2          9.4900   50.5511   -3.2596 H         1 LYS         0.2015
    104 H3         10.3321   51.2947   -4.4626 H         1 LYS         0.2015
    105 H4         11.8485   49.4928   -4.6533 H         1 LYS         0.1098
    106 H5         11.5317   47.5076   -3.3005 H         1 LYS         0.0346
    107 H6         10.1198   48.2631   -2.4866 H         1 LYS         0.0346
    108 H7         12.0628   48.3574   -1.0801 H         1 LYS         0.0270
    109 H8         11.5753   50.0060   -1.6008 H         1 LYS         0.0270
    110 H9         13.3602   50.0810   -3.2317 H         1 LYS         0.0317
    111 H10        13.7869   48.3668   -2.9062 H         1 LYS         0.0317
    112 H11        15.4243   49.6441   -1.7878 H         1 LYS         0.0813
    113 H12        14.2809   49.1275   -0.5022 H         1 LYS         0.0813
    114 H13        14.7844   51.4054   -0.3941 H         1 LYS         0.1994
    115 H14        13.1938   51.1768   -0.7506 H         1 LYS         0.1994
    116 H15        14.2416   51.6502   -1.9286 H         1 LYS         0.1994
    117 H16         8.6530   50.3211   -5.2139 H         1 ARG         0.1884
    118 H17         7.9123   47.7304   -6.4236 H         1 ARG         0.0800
    119 H18         5.8066   49.0417   -7.0992 H         1 ARG         0.0313
    120 H19         6.4232   50.3368   -6.0179 H         1 ARG         0.0313
    121 H20         6.2572   48.9251   -4.0839 H         1 ARG         0.0301
    122 H21         5.9971   47.4585   -5.0880 H         1 ARG         0.0301
    123 H22         3.7738   48.1165   -4.5124 H         1 ARG         0.0689
    124 H23         4.0072   48.8297   -6.1444 H         1 ARG         0.0689
    125 H24         4.8248   50.5146   -3.8964 H         1 ARG         0.2642
    126 H25         1.3783   51.4051   -5.8718 H         1 ARG         0.2615
    127 H26         2.1686   49.8587   -6.2803 H         1 ARG         0.2615
    128 H27         3.7628   52.2953   -3.4223 H         1 ARG         0.2615
    129 H28         2.2691   52.7664   -4.2765 H         1 ARG         0.2615
    130 H29         8.1993   47.2866   -8.5623 H         1 LYS         0.1883
    131 H30         9.1314   49.5014  -10.3678 H         1 LYS         0.0800
    132 H31        10.3924   47.6817  -11.5291 H         1 LYS         0.0312
    133 H32         9.8201   46.5193  -10.2849 H         1 LYS         0.0312
    134 H33        10.9429   48.0260   -8.5786 H         1 LYS         0.0269
    135 H34        11.7182   48.8500   -9.9738 H         1 LYS         0.0269
    136 H35        12.7490   46.7860  -10.6326 H         1 LYS         0.0317
    137 H36        11.9568   45.9432   -9.2583 H         1 LYS         0.0317
    138 H37        14.2972   46.2879   -8.8612 H         1 LYS         0.0813
    139 H38        13.2902   47.2095   -7.6937 H         1 LYS         0.0813
    140 H39        15.1369   48.4575   -8.4679 H         1 LYS         0.1994
    141 H40        13.7329   49.1578   -8.9655 H         1 LYS         0.1994
    142 H41        14.6556   48.3132  -10.0354 H         1 LYS         0.1994
    143 H42         8.4346   49.3439  -12.4968 H         1 ARG         0.1883
    144 H43         6.4863   47.1934  -13.1483 H         1 ARG         0.0800
    145 H44         5.0778   49.0377  -14.2869 H         1 ARG         0.0313
    146 H45         6.0434   50.2228  -13.3437 H         1 ARG         0.0313
    147 H46         5.3176   48.9467  -11.2473 H         1 ARG         0.0301
    148 H47         4.1511   48.0729  -12.2973 H         1 ARG         0.0301
    149 H48         3.0570   49.9826  -11.2776 H         1 ARG         0.0689
    150 H49         3.2471   50.2675  -13.0409 H         1 ARG         0.0689
    151 H50         5.5763   51.3321  -11.6393 H         1 ARG         0.2642
    152 H51         2.1766   53.6350  -11.8298 H         1 ARG         0.2615
    153 H52         2.0877   51.8619  -12.0053 H         1 ARG         0.2615
    154 H53         5.7476   53.6233  -11.4217 H         1 ARG         0.2615
    155 H54         4.2704   54.6236  -11.4336 H         1 ARG         0.2615
    156 H55         6.4025   46.6780  -15.2566 H         1 LYS         0.1883
    157 H56         8.1872   48.1348  -17.2162 H         1 LYS         0.0800
    158 H57         8.1796   45.8239  -18.3766 H         1 LYS         0.0312
    159 H58         7.4611   45.1851  -16.8592 H         1 LYS         0.0312
    160 H59         9.4625   46.2486  -15.6548 H         1 LYS         0.0269
    161 H60        10.1926   46.4474  -17.2840 H         1 LYS         0.0269
    162 H61         9.7239   43.9073  -17.5741 H         1 LYS         0.0317
    163 H62         9.4987   43.8908  -15.7921 H         1 LYS         0.0317
    164 H63        12.0209   44.7027  -17.2829 H         1 LYS         0.0813
    165 H64        11.7370   43.1542  -16.4178 H         1 LYS         0.0813
    166 H65        12.9358   44.7384  -15.0540 H         1 LYS         0.1994
    167 H66        11.4637   44.4262  -14.3869 H         1 LYS         0.1994
    168 H67        11.7238   45.8451  -15.1797 H         1 LYS         0.1994
    169 H68         7.3262   48.4589  -19.2696 H         1 ARG         0.1883
    170 H69         4.4820   47.7093  -19.7241 H         1 ARG         0.0800
    171 H70         6.1208   50.0452  -20.8892 H         1 ARG         0.0313
    172 H71         4.9855   50.2225  -19.5085 H         1 ARG         0.0313
    173 H72         4.0437   49.2024  -22.2108 H         1 ARG         0.0301
    174 H73         4.2009   50.9584  -21.8665 H         1 ARG         0.0301
    175 H74         2.7389   50.5514  -19.8013 H         1 ARG         0.0689
    176 H75         2.4092   48.9186  -20.4734 H         1 ARG         0.0689
    177 H76         1.6439   51.5596  -21.6989 H         1 ARG         0.2642
    178 H77         0.5247   47.8632  -23.1076 H         1 ARG         0.2615
    179 H78         1.5926   47.9952  -21.6847 H         1 ARG         0.2615
    180 H79         0.2827   51.4183  -23.5443 H         1 ARG         0.2615
    181 H80        -0.3464   49.8305  -24.0596 H         1 ARG         0.2615
    182 H81         4.2850   46.3851  -21.5098 H         1 LYS         0.1883
    183 H82         6.5690   46.2914  -23.3698 H         1 LYS         0.0800
    184 H83         5.4781   44.2867  -24.3596 H         1 LYS         0.0312
    185 H84         4.1638   44.4321  -23.1437 H         1 LYS         0.0312
    186 H85         5.6725   44.0162  -21.3491 H         1 LYS         0.0269
    187 H86         7.0960   44.1410  -22.4374 H         1 LYS         0.0269
    188 H87         6.2646   42.1928  -23.7291 H         1 LYS         0.0317
    189 H88         4.8650   42.0595  -22.6110 H         1 LYS         0.0317
    190 H89         6.4766   41.6773  -20.7289 H         1 LYS         0.0813
    191 H90         7.8122   41.6644  -21.9301 H         1 LYS         0.0813
    192 H91         6.9563   39.4339  -21.5146 H         1 LYS         0.1994
    193 H92         6.6636   39.8665  -23.0755 H         1 LYS         0.1994
    194 H93         5.4397   39.8784  -21.9748 H         1 LYS         0.1994
    195 H94         6.1478   46.2444  -25.6696 H         1 ARG         0.1883
    196 H95         3.9272   48.1187  -26.4180 H         1 ARG         0.0800
    197 H96         5.3042   49.0763  -28.0835 H         1 ARG         0.0313
    198 H97         6.5539   47.7997  -27.8962 H         1 ARG         0.0313
    199 H98         7.2149   50.0128  -26.9394 H         1 ARG         0.0301
    200 H99         7.2261   48.6683  -25.7482 H         1 ARG         0.0301
    201 H100        6.3908   50.6770  -24.7293 H         1 ARG         0.0689
    202 H101        5.0695   49.4684  -24.8710 H         1 ARG         0.0689
    203 H102        5.4579   51.7640  -26.7714 H         1 ARG         0.2642
    204 H103        1.8619   50.4908  -25.4135 H         1 ARG         0.2615
    205 H104        3.3366   49.7137  -24.7779 H         1 ARG         0.2615
    206 H105        3.6091   52.6864  -27.5119 H         1 ARG         0.2615
    207 H106        2.0267   52.1765  -26.8647 H         1 ARG         0.2615
    208 H107        2.3968   46.7510  -27.2546 H         1 LYS         0.1883
    209 H108        3.4237   44.5702  -29.0715 H         1 LYS         0.0800
    210 H109        1.5093   43.2060  -28.2573 H         1 LYS         0.0312
    211 H110        1.1147   44.5013  -27.0770 H         1 LYS         0.0312
    212 H111        3.1476   44.0867  -25.8881 H         1 LYS         0.0269
    213 H112        3.6465   42.8671  -27.1089 H         1 LYS         0.0269
    214 H113        1.6906   41.4480  -26.5960 H         1 LYS         0.0317
    215 H114        0.9688   42.7265  -25.5610 H         1 LYS         0.0317
    216 H115        2.9592   42.6442  -24.1462 H         1 LYS         0.0813
    217 H116        3.5757   41.2848  -25.1455 H         1 LYS         0.0813
    218 H117        2.4724   40.5021  -23.1470 H         1 LYS         0.1994
    219 H118        1.6323   40.0089  -24.4737 H         1 LYS         0.1994
    220 H119        1.0674   41.2546  -23.5580 H         1 LYS         0.1994
    221 H120        2.1927   44.2274  -30.8968 H         1 ARG         0.1875
    222 H121       -0.3201   45.7812  -31.0004 H         1 ARG         0.0726
    223 H122        1.2177   46.6547  -32.6719 H         1 ARG         0.0307
    224 H123       -0.2375   45.9316  -33.4375 H         1 ARG         0.0307
    225 H124        1.1039   43.9418  -33.9064 H         1 ARG         0.0301
    226 H125        2.5389   44.8480  -33.3179 H         1 ARG         0.0301
    227 H126        0.8129   45.5180  -35.7387 H         1 ARG         0.0689
    228 H127        2.4848   44.8612  -35.7406 H         1 ARG         0.0689
    229 H128        1.6344   47.6286  -35.2739 H         1 ARG         0.2642
    230 H129        5.5263   46.5624  -34.7239 H         1 ARG         0.2615
    231 H130        4.3143   45.2865  -35.0167 H         1 ARG         0.2615
    232 H131        3.1563   49.2355  -34.9586 H         1 ARG         0.2615
    233 H132        4.8915   48.8272  -34.8876 H         1 ARG         0.2615
@<TRIPOS>BOND
     1    1    2 1  
     2    2    3 1  
     3    2    5 1  
     4    3    4 2  
     5    3   10 am 
     6    5    6 1  
     7    6    7 1  
     8    7    8 1  
     9    8    9 1  
    10   10   11 1  
    11   11   12 1  
    12   11   14 1  
    13   12   13 2  
    14   12   21 am 
    15   14   15 1  
    16   15   16 1  
    17   16   17 1  
    18   17   18 ar 
    19   18   19 ar 
    20   18   20 ar 
    21   21   22 1  
    22   22   23 1  
    23   22   25 1  
    24   23   24 2  
    25   23   30 am 
    26   25   26 1  
    27   26   27 1  
    28   27   28 1  
    29   28   29 1  
    30   30   31 1  
    31   31   32 1  
    32   31   34 1  
    33   32   33 2  
    34   32   41 am 
    35   34   35 1  
    36   35   36 1  
    37   36   37 1  
    38   37   38 ar 
    39   38   39 ar 
    40   38   40 ar 
    41   41   42 1  
    42   42   43 1  
    43   42   45 1  
    44   43   44 2  
    45   43   50 am 
    46   45   46 1  
    47   46   47 1  
    48   47   48 1  
    49   48   49 1  
    50   50   51 1  
    51   51   52 1  
    52   51   54 1  
    53   52   53 2  
    54   52   61 am 
    55   54   55 1  
    56   55   56 1  
    57   56   57 1  
    58   57   58 ar 
    59   58   59 ar 
    60   58   60 ar 
    61   61   62 1  
    62   62   63 1  
    63   62   65 1  
    64   63   64 2  
    65   63   70 am 
    66   65   66 1  
    67   66   67 1  
    68   67   68 1  
    69   68   69 1  
    70   70   71 1  
    71   71   72 1  
    72   71   74 1  
    73   72   73 2  
    74   72   81 am 
    75   74   75 1  
    76   75   76 1  
    77   76   77 1  
    78   77   78 ar 
    79   78   79 ar 
    80   78   80 ar 
    81   81   82 1  
    82   82   83 1  
    83   82   85 1  
    84   83   84 2  
    85   83   90 am 
    86   85   86 1  
    87   86   87 1  
    88   87   88 1  
    89   88   89 1  
    90   90   91 1  
    91   91   92 1  
    92   91   94 1  
    93   92   93 ar 
    94   92  101 ar 
    95   94   95 1  
    96   95   96 1  
    97   96   97 1  
    98   97   98 ar 
    99   98   99 ar 
   100   98  100 ar 
   101    1  102 1  
   102    1  103 1  
   103    1  104 1  
   104    2  105 1  
   105    5  106 1  
   106    5  107 1  
   107    6  108 1  
   108    6  109 1  
   109    7  110 1  
   110    7  111 1  
   111    8  112 1  
   112    8  113 1  
   113    9  114 1  
   114    9  115 1  
   115    9  116 1  
   116   10  117 1  
   117   11  118 1  
   118   14  119 1  
   119   14  120 1  
   120   15  121 1  
   121   15  122 1  
   122   16  123 1  
   123   16  124 1  
   124   17  125 1  
   125   19  126 1  
   126   19  127 1  
   127   20  128 1  
   128   20  129 1  
   129   21  130 1  
   130   22  131 1  
   131   25  132 1  
   132   25  133 1  
   133   26  134 1  
   134   26  135 1  
   135   27  136 1  
   136   27  137 1  
   137   28  138 1  
   138   28  139 1  
   139   29  140 1  
   140   29  141 1  
   141   29  142 1  
   142   30  143 1  
   143   31  144 1  
   144   34  145 1  
   145   34  146 1  
   146   35  147 1  
   147   35  148 1  
   148   36  149 1  
   149   36  150 1  
   150   37  151 1  
   151   39  152 1  
   152   39  153 1  
   153   40  154 1  
   154   40  155 1  
   155   41  156 1  
   156   42  157 1  
   157   45  158 1  
   158   45  159 1  
   159   46  160 1  
   160   46  161 1  
   161   47  162 1  
   162   47  163 1  
   163   48  164 1  
   164   48  165 1  
   165   49  166 1  
   166   49  167 1  
   167   49  168 1  
   168   50  169 1  
   169   51  170 1  
   170   54  171 1  
   171   54  172 1  
   172   55  173 1  
   173   55  174 1  
   174   56  175 1  
   175   56  176 1  
   176   57  177 1  
   177   59  178 1  
   178   59  179 1  
   179   60  180 1  
   180   60  181 1  
   181   61  182 1  
   182   62  183 1  
   183   65  184 1  
   184   65  185 1  
   185   66  186 1  
   186   66  187 1  
   187   67  188 1  
   188   67  189 1  
   189   68  190 1  
   190   68  191 1  
   191   69  192 1  
   192   69  193 1  
   193   69  194 1  
   194   70  195 1  
   195   71  196 1  
   196   74  197 1  
   197   74  198 1  
   198   75  199 1  
   199   75  200 1  
   200   76  201 1  
   201   76  202 1  
   202   77  203 1  
   203   79  204 1  
   204   79  205 1  
   205   80  206 1  
   206   80  207 1  
   207   81  208 1  
   208   82  209 1  
   209   85  210 1  
   210   85  211 1  
   211   86  212 1  
   212   86  213 1  
   213   87  214 1  
   214   87  215 1  
   215   88  216 1  
   216   88  217 1  
   217   89  218 1  
   218   89  219 1  
   219   89  220 1  
   220   90  221 1  
   221   91  222 1  
   222   94  223 1  
   223   94  224 1  
   224   95  225 1  
   225   95  226 1  
   226   96  227 1  
   227   96  228 1  
   228   97  229 1  
   229   99  230 1  
   230   99  231 1  
   231  100  232 1  
   232  100  233 1  
@<TRIPOS>SUBSTRUCTURE
     1 LYS         1

