4io3_ligand
  -I-interpret- 

 17 16  0  0  0  0  0  0  0  0999 V2000
    3.4210   49.3240   -7.7980 N   0  3  0  0  0
    2.9470   50.7230   -7.9640 C   0  0  0  0  0
    1.5240   50.8590   -7.4850 C   0  0  0  0  0
    0.7880   49.8510   -7.2810 O   0  0  0  0  0
    3.0110   51.1810   -9.4340 C   0  0  0  0  0
    4.4010   51.5830   -9.8630 C   0  0  0  0  0
    4.7380   51.3930  -11.0750 O   0  0  0  0  0
    5.1620   52.1030   -9.0080 O   0  0  0  0  0
    1.0720   51.9980   -7.3040 O   0  0  0  0  0
    3.3626   49.0610   -6.8142 H   0  0  0  0  0
    2.8358   48.6999   -8.3533 H   0  0  0  0  0
    4.3887   49.2545   -8.1129 H   0  0  0  0  0
    3.6093   51.3516   -7.3687 H   0  0  0  0  0
    1.2850   49.0507   -7.4657 H   0  0  0  0  0
    2.3645   52.0521   -9.5401 H   0  0  0  0  0
    2.6989   50.3435  -10.0579 H   0  0  0  0  0
    4.0089   50.9861  -11.5487 H   0  0  0  0  0
  1  2  1  0  0  0
  2  3  1  0  0  0
  2  5  1  0  0  0
  3  4  1  0  0  0
  3  9  2  0  0  0
  5  6  1  0  0  0
  6  7  1  0  0  0
  6  8  2  0  0  0
  1 10  1  0  0  0
  1 11  1  0  0  0
  1 12  1  0  0  0
  2 13  1  0  0  0
  4 14  1  0  0  0
  5 15  1  0  0  0
  5 16  1  0  0  0
  7 17  1  0  0  0
M  END
$$$$
