6a94_ligand
  -I-interpret- 

 41 43  0  0  0  0  0  0  0  0999 V2000
   14.0110   -1.9420   54.5620 C   0  0  0  0  0
   18.4130   -1.1980   57.5500 C   0  0  0  0  0
   18.8740   -0.7830   56.3070 C   0  0  0  0  0
   16.4640   -0.7290   55.0270 C   0  0  0  0  0
   16.0090   -0.9080   53.7240 C   0  0  0  0  0
   14.7870   -1.5260   53.4900 C   0  0  0  0  0
   20.2030   -0.9970   55.9510 C   0  0  0  0  0
   21.0600   -1.6680   56.8170 C   0  0  0  0  0
   20.5910   -2.1120   58.0500 C   0  0  0  0  0
   19.2680   -1.8780   58.4110 C   0  0  0  0  0
   14.4470   -1.7370   55.8580 C   0  0  0  0  0
   15.6650   -1.1200   56.0950 C   0  0  0  0  0
   15.9040   -1.0530   57.4630 C   0  0  0  0  0
   14.8600   -0.0420   59.2400 C   0  0  0  0  0
   13.6020    0.8250   59.2030 C   0  0  0  0  0
   11.8540    1.8460   60.4840 C   0  0  0  0  0
   12.7960   -0.2780   61.1630 C   0  0  0  0  0
   17.1410   -1.1050   58.1050 C   0  0  0  0  0
   13.0790    1.0340   60.5570 N   0  3  0  0  0
   14.7650   -1.0240   58.2100 O   0  0  0  0  0
   18.0230    0.0930   55.0460 S   0  0  0  0  0
   12.5070   -2.6990   54.3070 Cl  0  0  0  0  0
   16.6129   -0.5624   52.8850 H   0  0  0  0  0
   14.4396   -1.6833   52.4689 H   0  0  0  0  0
   20.5729   -0.6376   54.9907 H   0  0  0  0  0
   22.0966   -1.8457   56.5307 H   0  0  0  0  0
   21.2581   -2.6413   58.7304 H   0  0  0  0  0
   18.8992   -2.2297   59.3745 H   0  0  0  0  0
   13.8305   -2.0618   56.6962 H   0  0  0  0  0
   14.9469   -0.5294   60.2111 H   0  0  0  0  0
   15.7429    0.5775   59.0824 H   0  0  0  0  0
   12.8429    0.3205   58.6052 H   0  0  0  0  0
   13.8526    1.7925   58.7680 H   0  0  0  0  0
   12.0845    2.8089   60.0281 H   0  0  0  0  0
   11.1101    1.3257   59.8807 H   0  0  0  0  0
   11.4631    2.0028   61.4894 H   0  0  0  0  0
   12.0579   -0.8046   60.5580 H   0  0  0  0  0
   13.7151   -0.8623   61.2071 H   0  0  0  0  0
   12.4063   -0.1348   62.1708 H   0  0  0  0  0
   17.1061   -1.0675   59.1938 H   0  0  0  0  0
   13.7626    1.5269   61.1315 H   0  0  0  0  0
  1  6  4  0  0  0
 11  1  4  0  0  0
  1 22  1  0  0  0
  2  3  4  0  0  0
  2 10  4  0  0  0
 18  2  1  0  0  0
  3  7  4  0  0  0
  3 21  1  0  0  0
  4  5  4  0  0  0
 12  4  4  0  0  0
  4 21  1  0  0  0
  5  6  4  0  0  0
  7  8  4  0  0  0
  9  8  4  0  0  0
 10  9  4  0  0  0
 12 11  4  0  0  0
 13 12  1  0  0  0
 13 18  2  0  0  0
 20 13  1  0  0  0
 14 15  1  0  0  0
 14 20  1  0  0  0
 15 19  1  0  0  0
 19 16  1  0  0  0
 19 17  1  0  0  0
  5 23  1  0  0  0
  6 24  1  0  0  0
  7 25  1  0  0  0
  8 26  1  0  0  0
  9 27  1  0  0  0
 10 28  1  0  0  0
 11 29  1  0  0  0
 14 30  1  0  0  0
 14 31  1  0  0  0
 15 32  1  0  0  0
 15 33  1  0  0  0
 16 34  1  0  0  0
 16 35  1  0  0  0
 16 36  1  0  0  0
 17 37  1  0  0  0
 17 38  1  0  0  0
 17 39  1  0  0  0
 18 40  1  0  0  0
 19 41  1  0  0  0
M  END
$$$$
