4kzl_ligand
  -I-interpret- 

 27 29  0  0  0  0  0  0  0  0999 V2000
   -7.4930  -38.2130   12.9610 C   0  0  0  0  0
   -7.4790  -37.9220   14.3150 C   0  0  0  0  0
   -8.2570  -38.4830   15.1300 O   0  0  0  0  0
   -6.6260  -36.8830   14.7380 C   0  0  0  0  0
   -6.4880  -36.6180   16.0900 C   0  0  0  0  0
   -5.6410  -35.5940   16.5350 C   0  0  0  0  0
   -4.9320  -34.7930   15.6280 C   0  0  0  0  0
   -5.0660  -35.0760   14.2740 C   0  0  0  0  0
   -5.8940  -36.1140   13.8270 C   0  0  0  0  0
   -5.9860  -36.3910   12.4760 O   0  0  0  0  0
   -6.7130  -37.4800   12.0490 C   0  0  0  0  0
   -6.6690  -37.7220   10.6400 C   0  0  0  0  0
   -5.8820  -36.8980    9.8310 C   0  0  0  0  0
   -5.8130  -37.0880    8.4640 C   0  0  0  0  0
   -6.5070  -38.1300    7.8450 C   0  0  0  0  0
   -6.4220  -38.2650    6.5290 F   0  0  0  0  0
   -7.2970  -38.9770    8.6120 C   0  0  0  0  0
   -7.3960  -38.7630    9.9880 C   0  0  0  0  0
   -8.1206  -39.0257   12.5953 H   0  0  0  0  0
   -7.0438  -37.2119   16.8156 H   0  0  0  0  0
   -5.5313  -35.4170   17.6049 H   0  0  0  0  0
   -4.2977  -33.9766   15.9732 H   0  0  0  0  0
   -4.5165  -34.4791   13.5460 H   0  0  0  0  0
   -5.3112  -36.0893   10.2874 H   0  0  0  0  0
   -5.2070  -36.4136    7.8589 H   0  0  0  0  0
   -7.8348  -39.8013    8.1436 H   0  0  0  0  0
   -8.0455  -39.4078   10.5800 H   0  0  0  0  0
  1  2  1  0  0  0
  1 11  2  0  0  0
  2  3  2  0  0  0
  2  4  1  0  0  0
  4  5  4  0  0  0
  4  9  4  0  0  0
  5  6  4  0  0  0
  6  7  4  0  0  0
  7  8  4  0  0  0
  8  9  4  0  0  0
  9 10  1  0  0  0
 10 11  1  0  0  0
 11 12  1  0  0  0
 12 13  4  0  0  0
 12 18  4  0  0  0
 13 14  4  0  0  0
 14 15  4  0  0  0
 15 16  1  0  0  0
 15 17  4  0  0  0
 17 18  4  0  0  0
  1 19  1  0  0  0
  5 20  1  0  0  0
  6 21  1  0  0  0
  7 22  1  0  0  0
  8 23  1  0  0  0
 13 24  1  0  0  0
 14 25  1  0  0  0
 17 26  1  0  0  0
 18 27  1  0  0  0
M  END
$$$$
