2y1w_ligand
  -I-interpret- 

 57 60  0  0  0  0  0  0  0  0999 V2000
   28.8430  -28.9630  -78.6770 C   0  0  0  0  0
   28.2160  -27.6680  -78.4820 C   0  0  0  0  0
   28.3160  -26.6770  -79.5130 C   0  0  0  0  0
   29.0100  -26.9200  -80.7160 C   0  0  0  0  0
   29.5490  -29.2090  -79.8970 C   0  0  0  0  0
   29.6270  -28.1870  -80.9030 C   0  0  0  0  0
   30.3600  -28.6350  -81.9940 N   0  0  0  0  0
   30.7720  -29.9790  -81.6790 C   0  0  0  0  0
   30.2500  -30.3120  -80.3740 C   0  0  0  0  0
   31.5700  -30.8040  -82.5640 C   0  0  0  0  0
   27.4460  -27.3520  -77.1490 C   0  0  0  0  0
   27.6330  -28.3820  -75.9620 C   0  0  0  0  0
   26.6630  -29.6170  -75.9280 C   0  0  0  0  0
   25.2030  -29.2370  -76.2010 N   0  3  0  0  0
   25.0290  -28.3930  -77.4450 C   0  0  0  0  0
   25.9070  -27.1120  -77.3760 C   0  0  0  0  0
   24.2700  -30.4660  -76.2170 C   0  0  0  0  0
   24.7380  -31.5930  -77.1830 C   0  0  0  0  0
   23.7030  -32.6670  -77.3380 N   0  3  0  0  0
   23.9280  -33.5950  -78.4870 C   0  0  0  0  0
   31.1790  -31.0230  -83.9470 C   0  0  0  0  0
   32.0110  -31.8490  -84.7950 C   0  0  0  0  0
   33.1980  -32.4470  -84.2920 C   0  0  0  0  0
   33.5830  -32.2370  -82.9460 C   0  0  0  0  0
   32.7900  -31.4330  -82.0950 C   0  0  0  0  0
   29.9800  -30.4090  -84.4120 O   0  0  0  0  0
   29.2730  -30.6490  -85.6630 C   0  0  0  0  0
   30.4050  -31.4910  -79.7010 F   0  0  0  0  0
   28.7771  -29.7332  -77.9085 H   0  0  0  0  0
   27.8416  -25.7072  -79.3625 H   0  0  0  0  0
   29.0722  -26.1520  -81.4870 H   0  0  0  0  0
   27.9329  -26.4306  -76.8296 H   0  0  0  0  0
   27.4330  -27.8220  -75.0485 H   0  0  0  0  0
   28.6349  -28.7944  -76.0816 H   0  0  0  0  0
   26.7126  -30.0518  -74.9297 H   0  0  0  0  0
   26.9782  -30.3094  -76.7086 H   0  0  0  0  0
   24.9231  -28.6517  -75.4139 H   0  0  0  0  0
   23.9830  -28.0964  -77.5230 H   0  0  0  0  0
   25.3340  -28.9799  -78.3114 H   0  0  0  0  0
   25.8105  -26.6188  -78.3432 H   0  0  0  0  0
   25.5534  -26.5409  -76.5176 H   0  0  0  0  0
   23.2917  -30.1285  -76.5591 H   0  0  0  0  0
   24.2615  -30.8824  -75.2097 H   0  0  0  0  0
   25.6385  -32.0453  -76.7676 H   0  0  0  0  0
   24.9176  -31.1493  -78.1623 H   0  0  0  0  0
   22.8132  -32.1978  -77.5068 H   0  0  0  0  0
   23.7352  -33.2331  -76.4901 H   0  0  0  0  0
   23.9319  -33.0259  -79.4166 H   0  0  0  0  0
   24.8870  -34.0982  -78.3635 H   0  0  0  0  0
   23.1287  -34.3355  -78.5162 H   0  0  0  0  0
   31.7236  -32.0148  -85.8333 H   0  0  0  0  0
   33.8128  -33.0681  -84.9434 H   0  0  0  0  0
   34.4944  -32.6969  -82.5641 H   0  0  0  0  0
   33.1030  -31.2823  -81.0618 H   0  0  0  0  0
   29.9310  -30.4181  -86.5008 H   0  0  0  0  0
   28.9717  -31.6953  -85.7136 H   0  0  0  0  0
   28.3893  -30.0125  -85.7073 H   0  0  0  0  0
  1  2  4  0  0  0
  1  5  4  0  0  0
  2  3  4  0  0  0
  2 11  1  0  0  0
  3  4  4  0  0  0
  4  6  4  0  0  0
  5  6  4  0  0  0
  5  9  4  0  0  0
  6  7  4  0  0  0
  7  8  4  0  0  0
  8  9  4  0  0  0
  8 10  1  0  0  0
  9 28  1  0  0  0
 10 21  4  0  0  0
 10 25  4  0  0  0
 11 12  1  0  0  0
 11 16  1  0  0  0
 12 13  1  0  0  0
 13 14  1  0  0  0
 14 15  1  0  0  0
 14 17  1  0  0  0
 15 16  1  0  0  0
 17 18  1  0  0  0
 18 19  1  0  0  0
 19 20  1  0  0  0
 21 22  4  0  0  0
 21 26  1  0  0  0
 22 23  4  0  0  0
 23 24  4  0  0  0
 24 25  4  0  0  0
 26 27  1  0  0  0
  1 29  1  0  0  0
  3 30  1  0  0  0
  4 31  1  0  0  0
 11 32  1  0  0  0
 12 33  1  0  0  0
 12 34  1  0  0  0
 13 35  1  0  0  0
 13 36  1  0  0  0
 14 37  1  0  0  0
 15 38  1  0  0  0
 15 39  1  0  0  0
 16 40  1  0  0  0
 16 41  1  0  0  0
 17 42  1  0  0  0
 17 43  1  0  0  0
 18 44  1  0  0  0
 18 45  1  0  0  0
 19 46  1  0  0  0
 19 47  1  0  0  0
 20 48  1  0  0  0
 20 49  1  0  0  0
 20 50  1  0  0  0
 22 51  1  0  0  0
 23 52  1  0  0  0
 24 53  1  0  0  0
 25 54  1  0  0  0
 27 55  1  0  0  0
 27 56  1  0  0  0
 27 57  1  0  0  0
M  END
$$$$
