### 
### Created by X-TOOL on Mon Sep 10 21:13:07 2018
### 

@<TRIPOS>MOLECULE
2y1w_ligand
   57    60     1     0     0
SMALL
GAST_HUCK


@<TRIPOS>ATOM
      1 C1         28.8430  -28.9630  -78.6770 C.ar      1 849        -0.0719
      2 C2         28.2160  -27.6680  -78.4820 C.ar      1 849        -0.0574
      3 C3         28.3160  -26.6770  -79.5130 C.ar      1 849        -0.0733
      4 C4         29.0100  -26.9200  -80.7160 C.ar      1 849        -0.0483
      5 C5         29.5490  -29.2090  -79.8970 C.ar      1 849         0.0031
      6 C6         29.6270  -28.1870  -80.9030 C.ar      1 849         0.0579
      7 N7         30.3600  -28.6350  -81.9940 N.pl3     1 849        -0.2813
      8 C8         30.7720  -29.9790  -81.6790 C.2       1 849         0.0908
      9 C9         30.2500  -30.3120  -80.3740 C.2       1 849         0.1320
     10 C10        31.5700  -30.8040  -82.5640 C.ar      1 849         0.0332
     11 C11        27.4460  -27.3520  -77.1490 C.3       1 849        -0.0174
     12 C12        27.6330  -28.3820  -75.9620 C.3       1 849        -0.0607
     13 C13        26.6630  -29.6170  -75.9280 C.3       1 849        -0.1109
     14 N14        25.2030  -29.2370  -76.2010 N.4       1 849         0.4066
     15 C15        25.0290  -28.3930  -77.4450 C.3       1 849        -0.1109
     16 C16        25.9070  -27.1120  -77.3760 C.3       1 849        -0.0607
     17 C17        24.2700  -30.4660  -76.2170 C.3       1 849        -0.0713
     18 C18        24.7380  -31.5930  -77.1830 C.3       1 849        -0.0529
     19 N19        23.7030  -32.6670  -77.3380 N.4       1 849         0.2233
     20 C20        23.9280  -33.5950  -78.4870 C.3       1 849        -0.0449
     21 C21        31.1790  -31.0230  -83.9470 C.ar      1 849         0.1016
     22 C22        32.0110  -31.8490  -84.7950 C.ar      1 849        -0.0331
     23 C23        33.1980  -32.4470  -84.2920 C.ar      1 849        -0.0721
     24 C24        33.5830  -32.2370  -82.9460 C.ar      1 849        -0.0740
     25 C25        32.7900  -31.4330  -82.0950 C.ar      1 849        -0.0621
     26 O26        29.9800  -30.4090  -84.4120 O.3       1 849        -0.3190
     27 C27        29.2730  -30.6490  -85.6630 C.3       1 849         0.0603
     28 F28        30.4050  -31.4910  -79.7010 F         1 849        -0.2135
     29 H          28.7771  -29.7332  -77.9085 H         1 849         0.0459
     30 H          27.8416  -25.7072  -79.3625 H         1 849         0.0487
     31 H          29.0722  -26.1520  -81.4870 H         1 849         0.0528
     32 H          30.5656  -28.1162  -82.8478 H         1 849         0.2191
     33 H          27.9329  -26.4306  -76.8296 H         1 849         0.0438
     34 H          27.4330  -27.8220  -75.0485 H         1 849         0.0268
     35 H          28.6349  -28.7944  -76.0816 H         1 849         0.0268
     36 H          26.7126  -30.0518  -74.9297 H         1 849         0.0019
     37 H          26.9782  -30.3094  -76.7086 H         1 849         0.0019
     38 H          23.9830  -28.0964  -77.5230 H         1 849         0.0019
     39 H          25.3340  -28.9799  -78.3114 H         1 849         0.0019
     40 H          25.8105  -26.6188  -78.3432 H         1 849         0.0268
     41 H          25.5534  -26.5409  -76.5176 H         1 849         0.0268
     42 H          23.2917  -30.1285  -76.5591 H         1 849         0.0069
     43 H          24.2615  -30.8824  -75.2097 H         1 849         0.0069
     44 H          25.6385  -32.0453  -76.7676 H         1 849         0.0793
     45 H          24.9176  -31.1493  -78.1623 H         1 849         0.0793
     46 H          22.8132  -32.1978  -77.5068 H         1 849         0.2010
     47 H          23.7352  -33.2331  -76.4901 H         1 849         0.2010
     48 H          23.9319  -33.0259  -79.4166 H         1 849         0.0777
     49 H          24.8870  -34.0982  -78.3635 H         1 849         0.0777
     50 H          23.1287  -34.3355  -78.5162 H         1 849         0.0777
     51 H          31.7236  -32.0148  -85.8333 H         1 849         0.0535
     52 H          33.8128  -33.0681  -84.9434 H         1 849         0.0575
     53 H          34.4944  -32.6969  -82.5641 H         1 849         0.0522
     54 H          33.1030  -31.2823  -81.0618 H         1 849         0.0575
     55 H          29.9310  -30.4181  -86.5008 H         1 849         0.0580
     56 H          28.9717  -31.6953  -85.7136 H         1 849         0.0580
     57 H          28.3893  -30.0125  -85.7073 H         1 849         0.0580
@<TRIPOS>BOND
     1    1    2 ar 
     2    1    5 ar 
     3    2    3 ar 
     4    2   11 1  
     5    3    4 ar 
     6    4    6 ar 
     7    5    6 ar 
     8    5    9 1  
     9    6    7 1  
    10    7    8 1  
    11    8    9 2  
    12    8   10 1  
    13    9   28 1  
    14   10   21 ar 
    15   10   25 ar 
    16   11   12 1  
    17   11   16 1  
    18   12   13 1  
    19   13   14 1  
    20   14   15 1  
    21   14   17 1  
    22   15   16 1  
    23   17   18 1  
    24   18   19 1  
    25   19   20 1  
    26   21   22 ar 
    27   21   26 1  
    28   22   23 ar 
    29   23   24 ar 
    30   24   25 ar 
    31   26   27 1  
    32    1   29 1  
    33    3   30 1  
    34    4   31 1  
    35    7   32 1  
    36   11   33 1  
    37   12   34 1  
    38   12   35 1  
    39   13   36 1  
    40   13   37 1  
    41   15   38 1  
    42   15   39 1  
    43   16   40 1  
    44   16   41 1  
    45   17   42 1  
    46   17   43 1  
    47   18   44 1  
    48   18   45 1  
    49   19   46 1  
    50   19   47 1  
    51   20   48 1  
    52   20   49 1  
    53   20   50 1  
    54   22   51 1  
    55   23   52 1  
    56   24   53 1  
    57   25   54 1  
    58   27   55 1  
    59   27   56 1  
    60   27   57 1  
@<TRIPOS>SUBSTRUCTURE
     1 849         1

