4qsw_ligand
  -I-interpret- 

 32 33  0  0  0  0  0  0  0  0999 V2000
   28.3340   44.4720  -12.7040 O   0  0  0  0  0
   27.3170   44.5790  -12.0070 C   0  0  0  0  0
   26.2940   43.7250  -12.3280 N   0  0  0  0  0
   25.0670   43.7310  -11.6440 C   0  0  0  0  0
   24.2750   42.8900  -12.0400 O   0  0  0  0  0
   24.8570   44.6220  -10.6040 C   0  0  0  0  0
   23.6520   44.6620   -9.8460 C   0  0  0  0  0
   25.9160   45.5060  -10.2860 C   0  0  0  0  0
   27.1460   45.4730  -10.9970 N   0  0  0  0  0
   28.2490   46.4180  -10.6730 C   0  0  0  0  0
   28.1620   46.9920   -9.3010 O   0  0  0  0  0
   27.8870   48.4340   -9.4480 C   0  0  0  0  0
   26.9430   48.9610   -8.3790 C   0  0  0  0  0
   25.6950   48.3380   -8.6880 O   0  0  0  0  0
   27.2890   48.5760  -10.8810 C   0  0  0  0  0
   27.3890   49.9560  -11.3950 O   0  0  0  0  0
   28.1850   47.6210  -11.6540 C   0  0  0  0  0
   29.5090   48.2230  -11.8960 O   0  0  0  0  0
   26.4285   43.0614  -13.0908 H   0  0  0  0  0
   23.5480   45.3712   -9.0249 H   0  0  0  0  0
   22.8338   43.9834  -10.0870 H   0  0  0  0  0
   26.1940   45.2259   -9.2699 H   0  0  0  0  0
   25.5100   46.4920  -10.5119 H   0  0  0  0  0
   29.1713   45.8425  -10.7518 H   0  0  0  0  0
   28.7905   49.0301   -9.3196 H   0  0  0  0  0
   26.8760   50.0489   -8.3847 H   0  0  0  0  0
   27.2854   48.7262   -7.3712 H   0  0  0  0  0
   25.0323   48.6194   -8.0531 H   0  0  0  0  0
   26.2236   48.3550  -10.9450 H   0  0  0  0  0
   27.0102   49.9963  -12.2762 H   0  0  0  0  0
   27.8282   47.3539  -12.6487 H   0  0  0  0  0
   29.4180   48.9590  -12.5057 H   0  0  0  0  0
  1  2  2  0  0  0
  2  3  1  0  0  0
  2  9  1  0  0  0
  3  4  1  0  0  0
  4  5  2  0  0  0
  4  6  1  0  0  0
  6  7  2  0  0  0
  6  8  1  0  0  0
  8  9  1  0  0  0
  9 10  1  0  0  0
 10 11  1  0  0  0
 10 17  1  0  0  0
 11 12  1  0  0  0
 12 13  1  0  0  0
 12 15  1  0  0  0
 13 14  1  0  0  0
 15 16  1  0  0  0
 15 17  1  0  0  0
 17 18  1  0  0  0
  3 19  1  0  0  0
  7 20  1  0  0  0
  7 21  1  0  0  0
  8 22  1  0  0  0
  8 23  1  0  0  0
 10 24  1  0  0  0
 12 25  1  0  0  0
 13 26  1  0  0  0
 13 27  1  0  0  0
 14 28  1  0  0  0
 15 29  1  0  0  0
 16 30  1  0  0  0
 17 31  1  0  0  0
 18 32  1  0  0  0
M  END
$$$$
