1ofz_ligand
  -I-interpret- 

 23 23  0  0  0  0  0  0  0  0999 V2000
   26.1910   39.5350   36.7490 C   0  0  0  0  0
   26.7860   38.6170   37.8200 C   0  0  0  0  0
   25.7490   37.6980   38.2290 O   0  0  0  0  0
   27.9850   37.8500   37.2840 C   0  0  0  0  0
   28.5020   36.9650   38.2670 O   0  0  0  0  0
   29.0330   38.8200   36.7580 C   0  0  0  0  0
   29.6500   39.5520   37.7810 O   0  0  0  0  0
   28.3190   39.7260   35.7560 C   0  0  0  0  0
   29.3000   40.7080   35.1150 C   0  0  0  0  0
   27.2980   40.4370   36.4820 O   0  0  0  0  0
   25.2380   40.4350   37.2690 O   0  0  0  0  0
   25.7601   38.9365   35.9463 H   0  0  0  0  0
   27.1354   39.2110   38.6645 H   0  0  0  0  0
   24.9984   38.1932   38.5651 H   0  0  0  0  0
   27.6682   37.2286   36.4464 H   0  0  0  0  0
   27.8044   36.3766   38.5649 H   0  0  0  0  0
   29.8475   38.2759   36.2799 H   0  0  0  0  0
   30.0856   38.9482   38.3870 H   0  0  0  0  0
   27.8835   39.1352   34.9501 H   0  0  0  0  0
   28.7622   41.3592   34.4260 H   0  0  0  0  0
   29.7705   41.3094   35.8928 H   0  0  0  0  0
   30.0642   40.1531   34.5708 H   0  0  0  0  0
   24.4363   39.9566   37.4926 H   0  0  0  0  0
  1  2  1  0  0  0
  1 10  1  0  0  0
  1 11  1  0  0  0
  2  3  1  0  0  0
  2  4  1  0  0  0
  4  5  1  0  0  0
  4  6  1  0  0  0
  6  7  1  0  0  0
  6  8  1  0  0  0
  8  9  1  0  0  0
  8 10  1  0  0  0
  1 12  1  0  0  0
  2 13  1  0  0  0
  3 14  1  0  0  0
  4 15  1  0  0  0
  5 16  1  0  0  0
  6 17  1  0  0  0
  7 18  1  0  0  0
  8 19  1  0  0  0
  9 20  1  0  0  0
  9 21  1  0  0  0
  9 22  1  0  0  0
 11 23  1  0  0  0
M  END
$$$$
