5x4m_ligand
  -I-interpret- 

 23 24  0  0  0  0  0  0  0  0999 V2000
   39.4130   -8.3110  -15.1210 C   0  0  0  0  0
   39.1060   -6.2250  -13.9910 C   0  0  0  0  0
   38.8880   -7.4400  -10.0400 C   0  0  0  0  0
   38.7930   -7.5650  -14.1460 C   0  0  0  0  0
   37.0450   -8.6880   -9.9320 C   0  0  0  0  0
   36.9470   -8.8070  -11.2660 N   0  0  0  0  0
   40.6650   -6.3980  -15.7840 C   0  0  0  0  0
   40.3520   -7.7320  -15.9410 C   0  0  0  0  0
   40.0430   -5.6410  -14.8100 C   0  0  0  0  0
   37.8970   -8.1660  -11.9390 C   0  0  0  0  0
   37.9900   -8.0270   -9.2560 N   0  0  0  0  0
   38.8860   -7.4650  -11.3660 N   0  0  0  0  0
   36.0840   -9.3130   -9.1960 N   0  0  0  0  0
   37.8450   -8.2190  -13.3370 N   0  0  0  0  0
   39.1591   -9.3639  -15.2438 H   0  0  0  0  0
   38.6102   -5.6342  -13.2208 H   0  0  0  0  0
   39.6941   -6.8918   -9.5523 H   0  0  0  0  0
   41.4091   -5.9372  -16.4337 H   0  0  0  0  0
   40.8466   -8.3239  -16.7111 H   0  0  0  0  0
   40.2937   -4.5869  -14.6916 H   0  0  0  0  0
   35.3430   -9.8355   -9.6632 H   0  0  0  0  0
   36.1055   -9.2585   -8.1777 H   0  0  0  0  0
   37.0962   -8.7485  -13.7835 H   0  0  0  0  0
  4  1  4  0  0  0
  1  8  4  0  0  0
  4  2  4  0  0  0
  2  9  4  0  0  0
  3 11  4  0  0  0
 12  3  4  0  0  0
 14  4  1  0  0  0
  6  5  4  0  0  0
  5 11  4  0  0  0
  5 13  1  0  0  0
 10  6  4  0  0  0
  8  7  4  0  0  0
  9  7  4  0  0  0
 10 12  4  0  0  0
 10 14  1  0  0  0
  1 15  1  0  0  0
  2 16  1  0  0  0
  3 17  1  0  0  0
  7 18  1  0  0  0
  8 19  1  0  0  0
  9 20  1  0  0  0
 13 21  1  0  0  0
 13 22  1  0  0  0
 14 23  1  0  0  0
M  END
$$$$
