6dgx_ligand
  -I-interpret- 

 75 78  0  0  0  0  0  0  0  0999 V2000
   65.3310   52.0760   12.5950 N   0  0  0  0  0
   66.3260   52.7360   13.4830 C   0  0  0  0  0
   67.4070   52.0240   13.9590 C   0  0  0  0  0
   68.3230   52.6390   14.7790 C   0  0  0  0  0
   68.1460   53.9790   15.1290 C   0  0  0  0  0
   67.0810   54.6880   14.6580 C   0  0  0  0  0
   66.1530   54.0660   13.8290 C   0  0  0  0  0
   69.3680   54.8090   16.2180 S   0  0  0  0  0
   69.9060   53.9180   17.2270 O   0  0  0  0  0
   68.7120   55.8800   17.0100 O   0  0  0  0  0
   70.6060   55.4540   15.1970 N   0  0  0  0  0
   71.3880   54.4820   14.4100 C   0  0  0  0  0
   72.8840   54.8030   14.4830 C   0  0  0  0  0
   73.4190   54.7140   15.9550 C   0  0  0  0  0
   73.6780   53.8830   13.5290 C   0  0  0  0  0
   70.2950   56.8190   14.5520 C   0  0  0  0  0
   71.2090   57.9360   15.1440 C   0  0  0  0  0
   71.0590   59.0800   14.3880 O   0  0  0  0  0
   70.8520   58.2470   16.6070 C   0  0  0  0  0
   71.7800   59.2520   17.0710 N   0  0  0  0  0
   72.8160   58.9420   18.0620 C   0  0  0  0  0
   72.8750   57.8690   18.5790 O   0  0  0  0  0
   73.7050   59.9720   18.3610 O   0  0  0  0  0
   74.4470   59.8840   19.5640 C   0  0  0  0  0
   75.9630   60.4660   19.2340 C   0  0  0  0  0
   75.7870   61.7890   19.1380 O   0  0  0  0  0
   74.6290   62.1170   20.1590 C   0  0  0  0  0
   73.7290   62.8040   19.6160 O   0  0  0  0  0
   72.3020   62.0350   19.7920 C   0  0  0  0  0
   72.5110   60.9520   20.5130 C   0  0  0  0  0
   73.9920   60.7100   20.5160 C   0  0  0  0  0
   69.4530   58.8450   16.7380 C   0  0  0  0  0
   68.8990   58.4540   19.1580 C   0  0  0  0  0
   68.6600   58.9120   20.4650 C   0  0  0  0  0
   68.7210   60.2880   20.7520 C   0  0  0  0  0
   69.0150   61.1880   19.7510 C   0  0  0  0  0
   69.2530   60.7320   18.4470 C   0  0  0  0  0
   69.1910   59.3480   18.1580 C   0  0  0  0  0
   65.4480   51.0959   12.3377 H   0  0  0  0  0
   64.5319   52.6036   12.2436 H   0  0  0  0  0
   67.5347   50.9766   13.6858 H   0  0  0  0  0
   69.1827   52.0836   15.1539 H   0  0  0  0  0
   66.9573   55.7364   14.9295 H   0  0  0  0  0
   65.2942   54.6224   13.4537 H   0  0  0  0  0
   71.0676   54.5327   13.3694 H   0  0  0  0  0
   71.2218   53.4846   14.8171 H   0  0  0  0  0
   73.0294   55.8328   14.1566 H   0  0  0  0  0
   72.8812   55.4274   16.5794 H   0  0  0  0  0
   73.2627   53.7050   16.3367 H   0  0  0  0  0
   74.4835   54.9479   15.9681 H   0  0  0  0  0
   73.5225   52.8431   13.8161 H   0  0  0  0  0
   73.3307   54.0349   12.5071 H   0  0  0  0  0
   74.7390   54.1242   13.5931 H   0  0  0  0  0
   69.2547   57.0735   14.7547 H   0  0  0  0  0
   70.4768   56.7493   13.4795 H   0  0  0  0  0
   72.2405   57.5848   15.1174 H   0  0  0  0  0
   71.6182   59.7738   14.7451 H   0  0  0  0  0
   70.8955   57.3193   17.1776 H   0  0  0  0  0
   71.7133   60.2000   16.7006 H   0  0  0  0  0
   74.3954   58.8496   19.9037 H   0  0  0  0  0
   76.3814   60.0373   18.3233 H   0  0  0  0  0
   76.6852   60.1998   20.0058 H   0  0  0  0  0
   75.0155   62.6676   21.0167 H   0  0  0  0  0
   71.8955   61.7664   18.8170 H   0  0  0  0  0
   71.5817   62.6854   20.2883 H   0  0  0  0  0
   71.9804   60.0983   20.0915 H   0  0  0  0  0
   72.1388   61.0857   21.5287 H   0  0  0  0  0
   74.2441   60.2659   21.4790 H   0  0  0  0  0
   68.7225   58.0702   16.5053 H   0  0  0  0  0
   69.3717   59.6881   16.0520 H   0  0  0  0  0
   68.8524   57.3874   18.9380 H   0  0  0  0  0
   68.4271   58.2004   21.2572 H   0  0  0  0  0
   68.5357   60.6420   21.7661 H   0  0  0  0  0
   69.0625   62.2541   19.9730 H   0  0  0  0  0
   69.4860   61.4438   17.6551 H   0  0  0  0  0
  2  1  1  0  0  0
  3  2  4  0  0  0
  7  2  4  0  0  0
  4  3  4  0  0  0
  5  4  4  0  0  0
  5  6  4  0  0  0
  8  5  1  0  0  0
  6  7  4  0  0  0
  8  9  2  0  0  0
  8 10  2  0  0  0
 11  8  1  0  0  0
 11 12  1  0  0  0
 16 11  1  0  0  0
 12 13  1  0  0  0
 13 14  1  0  0  0
 13 15  1  0  0  0
 17 16  1  0  0  0
 17 18  1  0  0  0
 19 17  1  0  0  0
 19 20  1  0  0  0
 32 19  1  0  0  0
 20 21  1  0  0  0
 21 22  2  0  0  0
 21 23  1  0  0  0
 23 24  1  0  0  0
 24 25  1  0  0  0
 24 31  1  0  0  0
 25 26  1  0  0  0
 27 26  1  0  0  0
 27 28  1  0  0  0
 31 27  1  0  0  0
 29 28  1  0  0  0
 30 29  1  0  0  0
 31 30  1  0  0  0
 38 32  1  0  0  0
 33 34  4  0  0  0
 33 38  4  0  0  0
 34 35  4  0  0  0
 35 36  4  0  0  0
 36 37  4  0  0  0
 37 38  4  0  0  0
  1 39  1  0  0  0
  1 40  1  0  0  0
  3 41  1  0  0  0
  4 42  1  0  0  0
  6 43  1  0  0  0
  7 44  1  0  0  0
 12 45  1  0  0  0
 12 46  1  0  0  0
 13 47  1  0  0  0
 14 48  1  0  0  0
 14 49  1  0  0  0
 14 50  1  0  0  0
 15 51  1  0  0  0
 15 52  1  0  0  0
 15 53  1  0  0  0
 16 54  1  0  0  0
 16 55  1  0  0  0
 17 56  1  0  0  0
 18 57  1  0  0  0
 19 58  1  0  0  0
 20 59  1  0  0  0
 24 60  1  0  0  0
 25 61  1  0  0  0
 25 62  1  0  0  0
 27 63  1  0  0  0
 29 64  1  0  0  0
 29 65  1  0  0  0
 30 66  1  0  0  0
 30 67  1  0  0  0
 31 68  1  0  0  0
 32 69  1  0  0  0
 32 70  1  0  0  0
 33 71  1  0  0  0
 34 72  1  0  0  0
 35 73  1  0  0  0
 36 74  1  0  0  0
 37 75  1  0  0  0
M  END
$$$$
