4r92_ligand
  -I-interpret- 

 69 72  0  0  0  0  0  0  0  0999 V2000
   21.3210   11.8320   23.2280 C   0  0  0  0  0
   20.9120   10.7230   22.2730 C   0  0  0  0  0
   21.4960    9.5480   22.9030 N   0  0  0  0  0
   22.1270    9.8900   24.0750 C   0  0  0  0  0
   22.0400   11.2540   24.2480 N   0  0  0  0  0
   20.9910   12.9990   23.1300 O   0  0  0  0  0
   19.3960   10.5560   22.2220 C   0  0  0  0  0
   22.9290   11.0380   20.6940 C   0  0  0  0  0
   18.6980   10.5200   23.5880 C   0  0  0  0  0
   17.2440   10.0750   23.5440 C   0  0  0  0  0
   23.3790   12.1880   19.8090 C   0  0  0  0  0
   24.8990   12.1330   19.6430 C   0  0  0  0  0
   25.3860   10.7850   19.1240 C   0  0  0  0  0
   24.9360    9.6890   20.0660 C   0  0  0  0  0
   23.4120    9.7060   20.1310 C   0  0  0  0  0
   16.8070    9.7490   24.9690 C   0  0  0  0  0
   15.3400    9.3440   25.0860 C   0  0  0  0  0
   14.4240   10.3670   24.4230 C   0  0  0  0  0
   14.8820   10.7200   23.0120 C   0  0  0  0  0
   16.3460   11.1520   22.9480 C   0  0  0  0  0
   22.7340    9.1050   24.9020 N   0  0  0  0  0
   25.3890   13.2070   18.8180 N   0  0  0  0  0
   25.7620   14.3990   19.4200 C   0  0  0  0  0
   21.4150   10.9760   20.8540 C   0  0  0  0  0
   22.6500   12.0160   25.3330 C   0  0  0  0  0
   25.6810   14.6460   20.6200 O   0  0  0  0  0
   26.3040   15.4100   18.5030 C   0  0  0  0  0
   26.4830   16.7050   18.9550 C   0  0  0  0  0
   27.0000   17.6220   18.0610 C   0  0  0  0  0
   26.6360   15.0760   17.2070 C   0  0  0  0  0
   27.1570   16.0680   16.4020 C   0  0  0  0  0
   27.3490   17.3360   16.7970 N   0  0  0  0  0
   21.4441    8.6014   22.5266 H   0  0  0  0  0
   19.2023    9.5950   21.7455 H   0  0  0  0  0
   19.0027   11.4233   21.6917 H   0  0  0  0  0
   23.3696   11.2202   21.6742 H   0  0  0  0  0
   18.7077   11.5380   23.9774 H   0  0  0  0  0
   19.2343    9.7952   24.2005 H   0  0  0  0  0
   17.1545    9.1966   22.9048 H   0  0  0  0  0
   23.0961   13.1349   20.2689 H   0  0  0  0  0
   22.9019   12.1054   18.8324 H   0  0  0  0  0
   25.3137   12.2605   20.6429 H   0  0  0  0  0
   26.4744   10.7898   19.0658 H   0  0  0  0  0
   24.9699   10.6055   18.1327 H   0  0  0  0  0
   25.3536    9.8557   21.0589 H   0  0  0  0  0
   25.2832    8.7209   19.7050 H   0  0  0  0  0
   23.0087    9.5736   19.1270 H   0  0  0  0  0
   23.0716    8.8982   20.7789 H   0  0  0  0  0
   16.9437   10.6511   25.5653 H   0  0  0  0  0
   17.4057    8.9032   25.3071 H   0  0  0  0  0
   15.0817    9.2828   26.1432 H   0  0  0  0  0
   15.2055    8.3847   24.5863 H   0  0  0  0  0
   14.4409   11.2769   25.0229 H   0  0  0  0  0
   13.4249    9.9361   24.3577 H   0  0  0  0  0
   14.2744   11.5561   22.6659 H   0  0  0  0  0
   14.7725    9.8280   22.3952 H   0  0  0  0  0
   16.6244   11.3098   21.9060 H   0  0  0  0  0
   16.4697   12.0729   23.5179 H   0  0  0  0  0
   23.1808    9.4886   25.7348 H   0  0  0  0  0
   25.4605   13.0926   17.8070 H   0  0  0  0  0
   21.0322   11.9531   20.5593 H   0  0  0  0  0
   21.0739   10.1352   20.2500 H   0  0  0  0  0
   22.2605   11.6621   26.2875 H   0  0  0  0  0
   23.7312   11.8802   25.3075 H   0  0  0  0  0
   22.4123   13.0728   25.2115 H   0  0  0  0  0
   26.2264   16.9901   19.9753 H   0  0  0  0  0
   27.1337   18.6475   18.4053 H   0  0  0  0  0
   26.4918   14.0630   16.8314 H   0  0  0  0  0
   27.4300   15.8050   15.3801 H   0  0  0  0  0
  2  1  1  0  0  0
  1  5  1  0  0  0
  1  6  2  0  0  0
  2  3  1  0  0  0
  2  7  1  0  0  0
 24  2  1  0  0  0
  3  4  1  0  0  0
  4  5  4  0  0  0
  4 21  2  0  0  0
  5 25  1  0  0  0
  7  9  1  0  0  0
  8 11  1  0  0  0
  8 15  1  0  0  0
  8 24  1  0  0  0
  9 10  1  0  0  0
 10 16  1  0  0  0
 10 20  1  0  0  0
 11 12  1  0  0  0
 12 13  1  0  0  0
 12 22  1  0  0  0
 13 14  1  0  0  0
 14 15  1  0  0  0
 16 17  1  0  0  0
 17 18  1  0  0  0
 18 19  1  0  0  0
 19 20  1  0  0  0
 22 23  1  0  0  0
 23 26  2  0  0  0
 23 27  1  0  0  0
 27 28  4  0  0  0
 27 30  4  0  0  0
 28 29  4  0  0  0
 29 32  4  0  0  0
 30 31  4  0  0  0
 31 32  4  0  0  0
  3 33  1  0  0  0
  7 34  1  0  0  0
  7 35  1  0  0  0
  8 36  1  0  0  0
  9 37  1  0  0  0
  9 38  1  0  0  0
 10 39  1  0  0  0
 11 40  1  0  0  0
 11 41  1  0  0  0
 12 42  1  0  0  0
 13 43  1  0  0  0
 13 44  1  0  0  0
 14 45  1  0  0  0
 14 46  1  0  0  0
 15 47  1  0  0  0
 15 48  1  0  0  0
 16 49  1  0  0  0
 16 50  1  0  0  0
 17 51  1  0  0  0
 17 52  1  0  0  0
 18 53  1  0  0  0
 18 54  1  0  0  0
 19 55  1  0  0  0
 19 56  1  0  0  0
 20 57  1  0  0  0
 20 58  1  0  0  0
 21 59  1  0  0  0
 22 60  1  0  0  0
 24 61  1  0  0  0
 24 62  1  0  0  0
 25 63  1  0  0  0
 25 64  1  0  0  0
 25 65  1  0  0  0
 28 66  1  0  0  0
 29 67  1  0  0  0
 30 68  1  0  0  0
 31 69  1  0  0  0
M  END
$$$$
