3e51_ligand
  -I-interpret- 

 63 66  0  0  0  0  0  0  0  0999 V2000
   95.2570    8.9480   59.1710 C   0  0  0  0  0
   95.8990    9.3180   61.8860 C   0  0  0  0  0
   96.0900    8.0420   59.8340 C   0  0  0  0  0
   95.5570    8.4810   55.5320 C   0  0  0  0  0
   96.1620    7.7070   54.6020 C   0  0  0  0  0
   96.3120    8.2730   53.2150 C   0  0  0  0  0
   98.4750    7.4930   50.3430 C   0  0  0  0  0
   97.3690    8.3310   50.9740 C   0  0  0  0  0
   91.2350   10.3850   54.3870 C   0  0  0  0  0
   94.2360   11.2490   53.3580 C   0  0  0  0  0
   92.0010    9.8820   53.1600 C   0  0  0  0  0
   95.9500    7.0280   63.7500 O   0  0  0  0  0
   96.4050    8.2580   64.3420 S   0  0  0  0  0
   95.9290    8.6290   65.6640 O   0  0  0  0  0
   98.1770    8.1780   64.5060 C   0  0  0  0  0
   96.1870    9.5690   63.2670 N   0  0  0  0  0
   95.0640   10.2210   61.2350 C   0  0  0  0  0
   96.4340    8.2130   61.1910 C   0  0  0  0  0
   96.7070    6.6620   58.9340 S   0  0  0  0  0
   98.1090    6.5800   59.2500 O   0  0  0  0  0
   95.8100    5.5480   59.1710 O   0  0  0  0  0
   96.5600    7.1620   57.3200 N   0  0  0  0  0
   95.6430    8.1950   56.9740 C   0  0  0  0  0
   94.8950    8.8380   57.8270 N   0  0  0  0  0
   94.7510   10.0470   59.8920 C   0  0  0  0  0
   94.7450    9.6410   55.0980 C   0  0  0  0  0
   94.0400   10.2280   55.9200 O   0  0  0  0  0
   94.9000   10.0320   53.7830 N   0  0  0  0  0
   92.9580   10.9350   52.5770 C   0  0  0  0  0
   91.0180    9.3900   52.0920 C   0  0  0  0  0
   95.6830    9.3740   52.8810 N   0  0  0  0  0
   96.5430    6.4040   54.8350 O   0  0  0  0  0
   97.0630    7.6740   52.2420 N   0  0  0  0  0
   98.0460    6.6220   52.4840 C   0  0  0  0  0
   99.2080    6.9910   51.5720 C   0  0  0  0  0
   99.1081    8.0517   49.6537 H   0  0  0  0  0
   98.1059    6.6959   49.6977 H   0  0  0  0  0
   96.4916    8.3877   50.3297 H   0  0  0  0  0
   97.6839    9.3638   51.1232 H   0  0  0  0  0
   91.9434   10.6590   55.1688 H   0  0  0  0  0
   90.6414   11.2566   54.1110 H   0  0  0  0  0
   90.5769    9.5962   54.7514 H   0  0  0  0  0
   94.9121   11.8076   52.7107 H   0  0  0  0  0
   93.9710   11.8289   54.2421 H   0  0  0  0  0
   92.6244    9.0509   53.4899 H   0  0  0  0  0
   98.4439    7.3347   65.1430 H   0  0  0  0  0
   98.6262    8.0478   63.5214 H   0  0  0  0  0
   98.5413    9.1027   64.9536 H   0  0  0  0  0
   96.2617   10.5275   63.6077 H   0  0  0  0  0
   94.6530   11.0698   61.7815 H   0  0  0  0  0
   97.0978    7.5078   61.6912 H   0  0  0  0  0
   97.1290    6.7224   56.5965 H   0  0  0  0  0
   94.1065   10.7694   59.3910 H   0  0  0  0  0
   93.2930   10.5269   51.6234 H   0  0  0  0  0
   92.3911   11.8658   52.5611 H   0  0  0  0  0
   90.4185    8.5758   52.4993 H   0  0  0  0  0
   90.3648   10.2107   51.7955 H   0  0  0  0  0
   91.5740    9.0348   51.2243 H   0  0  0  0  0
   96.9512    6.0448   54.0438 H   0  0  0  0  0
   97.6509    5.6288   52.2704 H   0  0  0  0  0
   98.3431    6.5656   53.5312 H   0  0  0  0  0
   99.8890    7.7236   52.0052 H   0  0  0  0  0
   99.8858    6.1618   51.3692 H   0  0  0  0  0
  1  3  4  0  0  0
 24  1  1  0  0  0
  1 25  4  0  0  0
  2 16  1  0  0  0
 17  2  4  0  0  0
 18  2  4  0  0  0
  3 18  4  0  0  0
 19  3  1  0  0  0
  4  5  2  0  0  0
  4 23  1  0  0  0
 26  4  1  0  0  0
  5  6  1  0  0  0
  5 32  1  0  0  0
  6 31  2  0  0  0
  6 33  1  0  0  0
  8  7  1  0  0  0
  7 35  1  0  0  0
 33  8  1  0  0  0
 11  9  1  0  0  0
 28 10  1  0  0  0
 10 29  1  0  0  0
 29 11  1  0  0  0
 11 30  1  0  0  0
 13 12  2  0  0  0
 13 14  2  0  0  0
 13 15  1  0  0  0
 16 13  1  0  0  0
 25 17  4  0  0  0
 19 20  2  0  0  0
 19 21  2  0  0  0
 22 19  1  0  0  0
 23 22  1  0  0  0
 23 24  2  0  0  0
 26 27  2  0  0  0
 26 28  1  0  0  0
 28 31  1  0  0  0
 33 34  1  0  0  0
 34 35  1  0  0  0
  7 36  1  0  0  0
  7 37  1  0  0  0
  8 38  1  0  0  0
  8 39  1  0  0  0
  9 40  1  0  0  0
  9 41  1  0  0  0
  9 42  1  0  0  0
 10 43  1  0  0  0
 10 44  1  0  0  0
 11 45  1  0  0  0
 15 46  1  0  0  0
 15 47  1  0  0  0
 15 48  1  0  0  0
 16 49  1  0  0  0
 17 50  1  0  0  0
 18 51  1  0  0  0
 22 52  1  0  0  0
 25 53  1  0  0  0
 29 54  1  0  0  0
 29 55  1  0  0  0
 30 56  1  0  0  0
 30 57  1  0  0  0
 30 58  1  0  0  0
 32 59  1  0  0  0
 34 60  1  0  0  0
 34 61  1  0  0  0
 35 62  1  0  0  0
 35 63  1  0  0  0
M  END
$$$$
