### 
### Created by X-TOOL on Mon Sep 10 21:12:52 2018
### 

@<TRIPOS>MOLECULE
1u0h_ligand
   61    64     1     0     0
SMALL
GAST_HUCK


@<TRIPOS>ATOM
      1 CA7        66.8580  -14.4240   54.9170 C.3       1 ONM         0.0140
      2 NA1        65.4120  -14.7320   54.7430 N.pl3     1 ONM        -0.3212
      3 CA6        64.7860  -15.9480   54.8580 C.ar      1 ONM         0.0606
      4 CA5        65.5510  -17.2200   55.2080 C.ar      1 ONM        -0.0378
      5 CA4        64.8440  -18.6490   55.3530 C.ar      1 ONM        -0.0689
      6 CA3        63.4210  -18.6220   55.1270 C.ar      1 ONM        -0.0690
      7 CA2        62.6900  -17.2810   54.7710 C.ar      1 ONM        -0.0520
      8 CA1        63.3740  -16.0280   54.6560 C.ar      1 ONM         0.0789
      9 CA         62.4940  -14.7910   54.3010 C.2       1 ONM         0.2550
     10 OA         63.0890  -13.5840   53.7090 O.2       1 ONM        -0.3648
     11 O3         61.1410  -14.8310   54.5560 O.3       1 ONM        -0.2709
     12 C3         60.1790  -13.7380   54.2840 C.3       1 ONM         0.1458
     13 C2         59.2500  -14.1810   53.1400 C.3       1 ONM         0.1431
     14 O2         59.9090  -15.0080   52.1700 O.3       1 ONM        -0.3832
     15 C4         59.1800  -13.4610   55.4610 C.3       1 ONM         0.1234
     16 C5         58.5110  -12.1060   55.8230 C.3       1 ONM         0.1134
     17 O5         58.6640  -10.9680   54.9710 O.3       1 ONM        -0.2441
     18 PA         57.4030   -9.9320   54.7210 P.3       1 ONM         0.3266
     19 O3A        57.9050   -9.1960   53.3450 O.co2     1 ONM        -0.5692
     20 O2A        56.1700  -10.7730   54.5040 O.co2     1 ONM        -0.5692
     21 O1A        57.5200   -8.7950   55.8940 O.3       1 ONM        -0.1171
     22 PB         56.8660   -9.0140   57.3940 P.3       1 ONM         0.3553
     23 O3B        55.8570  -10.3100   57.2820 O.co2     1 ONM        -0.5652
     24 O2B        55.8860   -7.9400   57.7520 O.co2     1 ONM        -0.5652
     25 O1B        57.8650   -9.4620   58.4590 O.3       1 ONM        -0.1546
     26 PG         58.8200   -8.2330   58.6430 P.3       1 ONM         0.1879
     27 O2G        60.3990   -8.4330   58.4690 O.co2     1 ONM        -0.6091
     28 O3G        58.2970   -6.7650   59.0560 O.co2     1 ONM        -0.6091
     29 O1G        58.5520   -8.3160   60.0990 O.co2     1 ONM        -0.6091
     30 O4         58.1570  -14.4640   55.3030 O.3       1 ONM        -0.3359
     31 C1         58.2050  -14.9390   53.9240 C.3       1 ONM         0.1996
     32 N9         56.8360  -15.0630   53.3440 N.pl3     1 ONM        -0.2101
     33 C8         55.8720  -14.1460   53.1430 C.2       1 ONM         0.0957
     34 N7         54.8260  -14.7160   52.5200 N.2       1 ONM        -0.3235
     35 C5         55.1400  -15.9980   52.2910 C.2       1 ONM         0.0926
     36 C4         56.4270  -16.2070   52.7980 C.2       1 ONM         0.1159
     37 N3         57.0540  -17.4410   52.7080 N.2       1 ONM        -0.2765
     38 C2         56.4630  -18.5270   52.1260 C.2       1 ONM         0.2340
     39 N2         57.1040  -19.6850   52.0680 N.pl3     1 ONM        -0.2807
     40 N1         55.1570  -18.3910   51.5970 N.am      1 ONM        -0.1839
     41 C6         54.4970  -17.1280   51.6750 C.2       1 ONM         0.2135
     42 O6         53.3660  -17.0690   51.1950 O.2       1 ONM        -0.4091
     43 H1         67.0260  -13.3491   54.7546 H         1 ONM         0.0479
     44 H2         67.4461  -15.0013   54.1884 H         1 ONM         0.0479
     45 H3         67.1703  -14.6939   55.9366 H         1 ONM         0.0479
     46 H4         64.8060  -13.9333   54.5070 H         1 ONM         0.1779
     47 H5         66.6214  -17.1536   55.3657 H         1 ONM         0.0529
     48 H6         65.3865  -19.5547   55.5989 H         1 ONM         0.0621
     49 H7         62.8490  -19.5396   55.2040 H         1 ONM         0.0519
     50 H8         61.6191  -17.3035   54.6045 H         1 ONM         0.0637
     51 H9         60.7309  -12.8223   54.0255 H         1 ONM         0.0702
     52 H10        58.8119  -13.3128   52.6259 H         1 ONM         0.0680
     53 H11        60.2381  -15.7915   52.5947 H         1 ONM         0.2102
     54 H12        59.7560  -13.7074   56.3651 H         1 ONM         0.0655
     55 H13        58.9022  -11.8155   56.8092 H         1 ONM         0.0648
     56 H14        57.4307  -12.2989   55.8993 H         1 ONM         0.0648
     57 H15        58.5819  -15.9714   53.9687 H         1 ONM         0.0998
     58 H16        55.9304  -13.1000   53.4402 H         1 ONM         0.1179
     59 H17        58.0539  -19.7679   52.4574 H         1 ONM         0.1897
     60 H18        56.6524  -20.5024   51.6335 H         1 ONM         0.1897
     61 H19        54.7009  -19.1731   51.1724 H         1 ONM         0.2515
@<TRIPOS>BOND
     1    1    2 1  
     2    2    3 1  
     3    3    4 ar 
     4    3    8 ar 
     5    4    5 ar 
     6    5    6 ar 
     7    6    7 ar 
     8    7    8 ar 
     9    8    9 1  
    10    9   10 2  
    11    9   11 1  
    12   11   12 1  
    13   12   13 1  
    14   12   15 1  
    15   13   14 1  
    16   13   31 1  
    17   15   16 1  
    18   15   30 1  
    19   16   17 1  
    20   17   18 1  
    21   18   19 ar 
    22   18   20 ar 
    23   18   21 1  
    24   21   22 1  
    25   22   23 ar 
    26   22   24 ar 
    27   22   25 1  
    28   25   26 1  
    29   26   27 ar 
    30   26   28 ar 
    31   26   29 ar 
    32   30   31 1  
    33   31   32 1  
    34   32   33 1  
    35   32   36 1  
    36   33   34 2  
    37   34   35 1  
    38   35   36 2  
    39   35   41 1  
    40   36   37 1  
    41   37   38 2  
    42   38   39 1  
    43   38   40 am 
    44   40   41 am 
    45   41   42 2  
    46    1   43 1  
    47    1   44 1  
    48    1   45 1  
    49    2   46 1  
    50    4   47 1  
    51    5   48 1  
    52    6   49 1  
    53    7   50 1  
    54   12   51 1  
    55   13   52 1  
    56   14   53 1  
    57   15   54 1  
    58   16   55 1  
    59   16   56 1  
    60   31   57 1  
    61   33   58 1  
    62   39   59 1  
    63   39   60 1  
    64   40   61 1  
@<TRIPOS>SUBSTRUCTURE
     1 ONM         1

