4y2s_ligand
  -I-interpret- 

 23 24  0  0  0  0  0  0  0  0999 V2000
  -17.5180   -8.9490   68.2100 C   0  0  0  0  0
  -17.8540  -10.2710   68.0150 C   0  0  0  0  0
  -16.9740   -8.5340   69.4150 C   0  0  0  0  0
  -17.1120  -10.7740   70.2660 C   0  0  0  0  0
  -15.7710   -8.8770   73.7520 C   0  0  0  0  0
  -15.5810   -7.7500   71.8240 C   0  0  0  0  0
  -17.6400  -11.1700   69.0390 C   0  0  0  0  0
  -16.7790   -9.4380   70.4430 C   0  0  0  0  0
  -15.2570   -7.6840   73.1660 C   0  0  0  0  0
  -18.0090  -12.5830   68.8020 C   0  0  0  0  0
  -16.3740   -9.6440   72.8320 N   0  0  0  0  0
  -16.2530   -8.9520   71.6680 N   0  0  0  0  0
  -14.5780   -6.6740   73.7590 O   0  0  0  0  0
  -17.9240  -12.9620   67.5180 F   0  0  0  0  0
  -17.2470  -13.4650   69.5050 F   0  0  0  0  0
  -19.3030  -12.8250   69.0790 F   0  0  0  0  0
  -17.6811   -8.2252   67.4115 H   0  0  0  0  0
  -18.2815  -10.6006   67.0680 H   0  0  0  0  0
  -16.6981   -7.4886   69.5533 H   0  0  0  0  0
  -16.9638  -11.4966   71.0685 H   0  0  0  0  0
  -15.6853   -9.1323   74.8082 H   0  0  0  0  0
  -15.3559   -7.0135   71.0526 H   0  0  0  0  0
  -14.3635   -6.0061   73.1037 H   0  0  0  0  0
  1  2  4  0  0  0
  3  1  4  0  0  0
  7  2  4  0  0  0
  8  3  4  0  0  0
  4  7  4  0  0  0
  8  4  4  0  0  0
  9  5  4  0  0  0
  5 11  4  0  0  0
  6  9  4  0  0  0
 12  6  4  0  0  0
  7 10  1  0  0  0
  8 12  1  0  0  0
  9 13  1  0  0  0
 10 14  1  0  0  0
 10 15  1  0  0  0
 10 16  1  0  0  0
 11 12  4  0  0  0
  1 17  1  0  0  0
  2 18  1  0  0  0
  3 19  1  0  0  0
  4 20  1  0  0  0
  5 21  1  0  0  0
  6 22  1  0  0  0
 13 23  1  0  0  0
M  END
$$$$
