2hyy_ligand
  -I-interpret- 

 70 74  0  0  0  0  0  0  0  0999 V2000
   22.8270   11.7250   13.7800 C   0  0  0  0  0
   22.0360   12.1770   14.8390 C   0  0  0  0  0
   20.6680   11.8090   14.9590 C   0  0  0  0  0
   20.1400   11.0010   13.9470 C   0  0  0  0  0
   20.8920   10.5700   12.9040 N   0  0  0  0  0
   22.1760   10.9310   12.8420 C   0  0  0  0  0
   19.7780   12.2610   16.1190 C   0  0  0  0  0
   20.2660   12.8280   17.2280 C   0  0  0  0  0
   19.3470   13.1770   18.2350 C   0  0  0  0  0
   18.0470   12.9440   18.0700 N   0  0  0  0  0
   17.5930   12.3830   16.9620 C   0  0  0  0  0
   18.4330   12.0210   15.9770 N   0  0  0  0  0
   16.2540   12.1250   16.6950 N   0  0  0  0  0
   15.3460   12.2710   17.7100 C   0  0  0  0  0
   15.2340   11.3050   18.7320 C   0  0  0  0  0
   14.2850   11.5390   19.7140 C   0  0  0  0  0
   13.4510   12.6990   19.6990 C   0  0  0  0  0
   13.5600   13.6330   18.6980 C   0  0  0  0  0
   14.5060   13.4010   17.6880 C   0  0  0  0  0
   12.6590   14.7350   18.8140 N   0  0  0  0  0
   12.5890   15.6820   17.8510 C   0  0  0  0  0
   11.4550   16.6420   17.9000 C   0  0  0  0  0
   11.0790   17.3300   16.7130 C   0  0  0  0  0
   10.0060   18.2850   16.6780 C   0  0  0  0  0
    9.2980   18.5360   17.8690 C   0  0  0  0  0
    9.6620   17.8540   19.0650 C   0  0  0  0  0
   10.7360   16.9080   19.1120 C   0  0  0  0  0
    8.1960   19.5290   17.8320 C   0  0  0  0  0
    8.1910   20.4060   18.9880 N   0  3  0  0  0
    9.4550   21.1520   19.1060 C   0  0  0  0  0
    9.4480   22.0490   20.4020 C   0  0  0  0  0
    8.1500   22.8120   20.4470 N   0  3  0  0  0
    8.1830   23.6190   21.6400 C   0  0  0  0  0
    6.9280   22.0290   20.3800 C   0  0  0  0  0
    6.9520   21.2300   19.0530 C   0  0  0  0  0
   13.3990   15.8030   16.9310 O   0  0  0  0  0
   16.0750   10.0530   18.8150 C   0  0  0  0  0
   23.8838   11.9778   13.6946 H   0  0  0  0  0
   22.4789   12.8284   15.5924 H   0  0  0  0  0
   19.0912   10.7085   13.9982 H   0  0  0  0  0
   22.7582   10.5764   11.9915 H   0  0  0  0  0
   21.3337   13.0125   17.3470 H   0  0  0  0  0
   19.7019   13.6408   19.1554 H   0  0  0  0  0
   15.9542   11.8336   15.7646 H   0  0  0  0  0
   14.1713   10.8165   20.5222 H   0  0  0  0  0
   12.7183   12.8447   20.4928 H   0  0  0  0  0
   14.5927   14.1124   16.8668 H   0  0  0  0  0
   12.0592   14.8090   19.6357 H   0  0  0  0  0
   11.6268   17.1245   15.7933 H   0  0  0  0  0
    9.7469   18.8016   15.7538 H   0  0  0  0  0
    9.1028   18.0595   19.9778 H   0  0  0  0  0
   10.9994   16.4046   20.0422 H   0  0  0  0  0
    7.2534   18.9817   17.8239 H   0  0  0  0  0
    8.3329   20.1469   16.9446 H   0  0  0  0  0
    8.1534   19.8346   19.8321 H   0  0  0  0  0
    9.5705   21.7933   18.2322 H   0  0  0  0  0
   10.2800   20.4426   19.1709 H   0  0  0  0  0
   10.2877   22.7436   20.3787 H   0  0  0  0  0
    9.5427   21.4226   21.2890 H   0  0  0  0  0
    8.1005   23.3644   19.5910 H   0  0  0  0  0
    8.2830   22.9724   22.5118 H   0  0  0  0  0
    9.0320   24.3009   21.5925 H   0  0  0  0  0
    7.2589   24.1921   21.7151 H   0  0  0  0  0
    6.0565   22.6829   20.4131 H   0  0  0  0  0
    6.8658   21.3499   21.2303 H   0  0  0  0  0
    6.0802   20.5773   19.0075 H   0  0  0  0  0
    6.9339   21.9236   18.2123 H   0  0  0  0  0
   15.9146    9.4492   17.9218 H   0  0  0  0  0
   17.1275   10.3278   18.8852 H   0  0  0  0  0
   15.7877    9.4817   19.6977 H   0  0  0  0  0
  1  2  4  0  0  0
  1  6  4  0  0  0
  2  3  4  0  0  0
  3  4  4  0  0  0
  3  7  1  0  0  0
  4  5  4  0  0  0
  5  6  4  0  0  0
  7  8  4  0  0  0
  7 12  4  0  0  0
  8  9  4  0  0  0
  9 10  4  0  0  0
 10 11  4  0  0  0
 11 12  4  0  0  0
 11 13  1  0  0  0
 13 14  1  0  0  0
 14 15  4  0  0  0
 14 19  4  0  0  0
 15 16  4  0  0  0
 15 37  1  0  0  0
 16 17  4  0  0  0
 17 18  4  0  0  0
 18 19  4  0  0  0
 18 20  1  0  0  0
 20 21  1  0  0  0
 21 22  1  0  0  0
 21 36  2  0  0  0
 22 23  4  0  0  0
 22 27  4  0  0  0
 23 24  4  0  0  0
 24 25  4  0  0  0
 25 26  4  0  0  0
 25 28  1  0  0  0
 26 27  4  0  0  0
 28 29  1  0  0  0
 29 30  1  0  0  0
 29 35  1  0  0  0
 30 31  1  0  0  0
 31 32  1  0  0  0
 32 33  1  0  0  0
 32 34  1  0  0  0
 34 35  1  0  0  0
  1 38  1  0  0  0
  2 39  1  0  0  0
  4 40  1  0  0  0
  6 41  1  0  0  0
  8 42  1  0  0  0
  9 43  1  0  0  0
 13 44  1  0  0  0
 16 45  1  0  0  0
 17 46  1  0  0  0
 19 47  1  0  0  0
 20 48  1  0  0  0
 23 49  1  0  0  0
 24 50  1  0  0  0
 26 51  1  0  0  0
 27 52  1  0  0  0
 28 53  1  0  0  0
 28 54  1  0  0  0
 29 55  1  0  0  0
 30 56  1  0  0  0
 30 57  1  0  0  0
 31 58  1  0  0  0
 31 59  1  0  0  0
 32 60  1  0  0  0
 33 61  1  0  0  0
 33 62  1  0  0  0
 33 63  1  0  0  0
 34 64  1  0  0  0
 34 65  1  0  0  0
 35 66  1  0  0  0
 35 67  1  0  0  0
 37 68  1  0  0  0
 37 69  1  0  0  0
 37 70  1  0  0  0
M  END
$$$$
