4qfl_ligand
  -I-interpret- 

 34 34  0  0  0  0  0  0  0  0999 V2000
   14.0680   -9.1800   12.4220 N   0  3  0  0  0
   13.3870   -7.8950   12.2910 C   0  0  0  0  0
   12.6140   -7.8220   10.9760 C   0  0  0  0  0
   13.0010   -8.4450    9.9880 O   0  0  0  0  0
   14.3920   -6.7440   12.3910 C   0  0  0  0  0
   11.5140   -7.0710   10.9700 N   0  0  0  0  0
   10.7420   -6.8330    9.7560 C   0  0  0  0  0
   11.5000   -5.9000    8.8400 C   0  0  0  0  0
   11.4300   -6.0250    7.6220 O   0  0  0  0  0
    9.4030   -6.1890   10.0980 C   0  0  0  0  0
    8.4400   -7.1100   10.7620 C   0  0  0  0  0
    8.1970   -8.3720   10.2450 C   0  0  0  0  0
    7.7700   -6.7160   11.8980 C   0  0  0  0  0
    7.3040   -9.2180   10.8420 C   0  0  0  0  0
    6.8730   -7.5560   12.5030 C   0  0  0  0  0
    6.6390   -8.8120   11.9800 C   0  0  0  0  0
   12.1930   -4.9940    9.3050 O   0  0  0  0  0
   13.3847   -9.9341   12.3531 H   0  0  0  0  0
   14.7578   -9.2754   11.6767 H   0  0  0  0  0
   14.5356   -9.2249   13.3274 H   0  0  0  0  0
   12.6727   -7.8017   13.1090 H   0  0  0  0  0
   15.0975   -6.8063   11.5624 H   0  0  0  0  0
   13.8599   -5.7938   12.3461 H   0  0  0  0  0
   14.9316   -6.8155   13.3354 H   0  0  0  0  0
   11.2011   -6.6482   11.8439 H   0  0  0  0  0
   10.5751   -7.7909    9.2634 H   0  0  0  0  0
    8.9495   -5.8684    9.1601 H   0  0  0  0  0
    9.6043   -5.3749   10.7943 H   0  0  0  0  0
    8.7258   -8.6956    9.3485 H   0  0  0  0  0
    7.9547   -5.7279   12.3194 H   0  0  0  0  0
    7.1190  -10.2064   10.4214 H   0  0  0  0  0
    6.3431   -7.2322   13.3988 H   0  0  0  0  0
    5.9296   -9.4819   12.4658 H   0  0  0  0  0
   12.1511   -5.0205   10.2637 H   0  0  0  0  0
  1  2  1  0  0  0
  2  3  1  0  0  0
  2  5  1  0  0  0
  3  4  2  0  0  0
  3  6  1  0  0  0
  6  7  1  0  0  0
  7  8  1  0  0  0
  7 10  1  0  0  0
  8  9  2  0  0  0
  8 17  1  0  0  0
 10 11  1  0  0  0
 11 12  4  0  0  0
 11 13  4  0  0  0
 12 14  4  0  0  0
 13 15  4  0  0  0
 14 16  4  0  0  0
 15 16  4  0  0  0
  1 18  1  0  0  0
  1 19  1  0  0  0
  1 20  1  0  0  0
  2 21  1  0  0  0
  5 22  1  0  0  0
  5 23  1  0  0  0
  5 24  1  0  0  0
  6 25  1  0  0  0
  7 26  1  0  0  0
 10 27  1  0  0  0
 10 28  1  0  0  0
 12 29  1  0  0  0
 13 30  1  0  0  0
 14 31  1  0  0  0
 15 32  1  0  0  0
 16 33  1  0  0  0
 17 34  1  0  0  0
M  END
$$$$
