2ohq_ligand
  -I-interpret- 

 43 45  0  0  0  0  0  0  0  0999 V2000
   71.0690   45.9020    1.0960 C   0  0  0  0  0
   71.0940   46.8910    2.1280 O   0  0  0  0  0
   71.8850   46.6510    3.2260 C   0  0  0  0  0
   72.7200   45.5530    3.3820 C   0  0  0  0  0
   73.4540   45.3940    4.5370 C   0  0  0  0  0
   73.3650   46.3230    5.5500 C   0  0  0  0  0
   72.5290   47.4280    5.4290 C   0  0  0  0  0
   71.7940   47.5810    4.2550 C   0  0  0  0  0
   72.4280   48.4190    6.5390 C   0  0  0  0  0
   73.4330   48.5070    7.4990 C   0  0  0  0  0
   73.3380   49.4120    8.5370 C   0  0  0  0  0
   72.2420   50.2400    8.6340 C   0  0  0  0  0
   71.2180   50.1660    7.7010 C   0  0  0  0  0
   70.0300   51.0860    7.8080 C   0  0  0  0  0
   69.1150   50.7320    8.9620 C   0  0  0  0  0
   68.2920   49.5100    8.6570 C   0  0  0  0  0
   68.3930   48.3490    9.4150 C   0  0  0  0  0
   67.6270   47.2480    9.0880 C   0  0  0  0  0
   66.7710   47.3060    8.0070 C   0  0  0  0  0
   66.6880   48.4690    7.2470 C   0  0  0  0  0
   65.8930   48.5460    6.1790 N   0  0  0  0  0
   67.4430   49.5480    7.5900 N   0  0  0  0  0
   71.3160   49.2510    6.6590 C   0  0  0  0  0
   72.0753   45.7668    0.6996 H   0  0  0  0  0
   70.7093   44.9588    1.5071 H   0  0  0  0  0
   70.4034   46.2290    0.2972 H   0  0  0  0  0
   72.7954   44.8123    2.5859 H   0  0  0  0  0
   74.1080   44.5293    4.6496 H   0  0  0  0  0
   73.9561   46.1908    6.4562 H   0  0  0  0  0
   71.1373   48.4436    4.1419 H   0  0  0  0  0
   74.3035   47.8546    7.4301 H   0  0  0  0  0
   74.1321   49.4713    9.2813 H   0  0  0  0  0
   72.1785   50.9594    9.4504 H   0  0  0  0  0
   69.4547   50.9966    6.8865 H   0  0  0  0  0
   70.4041   52.0958    7.9765 H   0  0  0  0  0
   68.4391   51.5692    9.1366 H   0  0  0  0  0
   69.7287   50.5254    9.8388 H   0  0  0  0  0
   69.0746   48.3081   10.2646 H   0  0  0  0  0
   67.6980   46.3364    9.6813 H   0  0  0  0  0
   66.1600   46.4411    7.7485 H   0  0  0  0  0
   65.3292   47.7417    5.9038 H   0  0  0  0  0
   67.3726   50.4028    7.0379 H   0  0  0  0  0
   70.5123   49.1832    5.9258 H   0  0  0  0  0
  1  2  1  0  0  0
  2  3  1  0  0  0
  3  4  4  0  0  0
  3  8  4  0  0  0
  4  5  4  0  0  0
  5  6  4  0  0  0
  6  7  4  0  0  0
  7  8  4  0  0  0
  7  9  1  0  0  0
  9 10  4  0  0  0
  9 23  4  0  0  0
 10 11  4  0  0  0
 11 12  4  0  0  0
 12 13  4  0  0  0
 13 14  1  0  0  0
 13 23  4  0  0  0
 14 15  1  0  0  0
 15 16  1  0  0  0
 16 17  2  0  0  0
 16 22  1  0  0  0
 17 18  1  0  0  0
 18 19  2  0  0  0
 19 20  1  0  0  0
 20 21  2  0  0  0
 20 22  1  0  0  0
  1 24  1  0  0  0
  1 25  1  0  0  0
  1 26  1  0  0  0
  4 27  1  0  0  0
  5 28  1  0  0  0
  6 29  1  0  0  0
  8 30  1  0  0  0
 10 31  1  0  0  0
 11 32  1  0  0  0
 12 33  1  0  0  0
 14 34  1  0  0  0
 14 35  1  0  0  0
 15 36  1  0  0  0
 15 37  1  0  0  0
 17 38  1  0  0  0
 18 39  1  0  0  0
 19 40  1  0  0  0
 21 41  1  0  0  0
 22 42  1  0  0  0
 23 43  1  0  0  0
M  END
$$$$
