### 
### Created by X-TOOL on Mon Sep 10 21:12:56 2018
### 

@<TRIPOS>MOLECULE
2ohq_ligand
   43    45     1     0     0
SMALL
GAST_HUCK


@<TRIPOS>ATOM
      1 C1         71.0690   45.9020    1.0960 C.3       1 7IP         0.0593
      2 O2         71.0940   46.8910    2.1280 O.3       1 7IP        -0.3214
      3 C3         71.8850   46.6510    3.2260 C.ar      1 7IP         0.0911
      4 C4         72.7200   45.5530    3.3820 C.ar      1 7IP        -0.0329
      5 C5         73.4540   45.3940    4.5370 C.ar      1 7IP        -0.0697
      6 C6         73.3650   46.3230    5.5500 C.ar      1 7IP        -0.0651
      7 C7         72.5290   47.4280    5.4290 C.ar      1 7IP        -0.0286
      8 C8         71.7940   47.5810    4.2550 C.ar      1 7IP        -0.0260
      9 C9         72.4280   48.4190    6.5390 C.ar      1 7IP        -0.0274
     10 C10        73.4330   48.5070    7.4990 C.ar      1 7IP        -0.0610
     11 C11        73.3380   49.4120    8.5370 C.ar      1 7IP        -0.0677
     12 C12        72.2420   50.2400    8.6340 C.ar      1 7IP        -0.0599
     13 C13        71.2180   50.1660    7.7010 C.ar      1 7IP        -0.0394
     14 C14        70.0300   51.0860    7.8080 C.3       1 7IP         0.0001
     15 C15        69.1150   50.7320    8.9620 C.3       1 7IP         0.0377
     16 C16        68.2920   49.5100    8.6570 C.2       1 7IP         0.0960
     17 C17        68.3930   48.3490    9.4150 C.2       1 7IP        -0.0199
     18 C18        67.6270   47.2480    9.0880 C.2       1 7IP        -0.0653
     19 C19        66.7710   47.3060    8.0070 C.2       1 7IP        -0.0267
     20 C20        66.6880   48.4690    7.2470 C.2       1 7IP         0.0858
     21 N21        65.8930   48.5460    6.1790 N.2       1 7IP        -0.4403
     22 N22        67.4430   49.5480    7.5900 N.pl3     1 7IP        -0.2279
     23 C23        71.3160   49.2510    6.6590 C.ar      1 7IP        -0.0528
     24 H1         70.3975   46.2309    0.2892 H         1 7IP         0.0577
     25 H2         70.7061   44.9495    1.5096 H         1 7IP         0.0577
     26 H3         72.0841   45.7646    0.6951 H         1 7IP         0.0577
     27 H4         72.7949   44.8163    2.5903 H         1 7IP         0.0545
     28 H5         74.1044   44.5340    4.6490 H         1 7IP         0.0590
     29 H6         73.9528   46.1915    6.4512 H         1 7IP         0.0532
     30 H7         71.1410   48.4389    4.1425 H         1 7IP         0.0544
     31 H8         74.2987   47.8582    7.4304 H         1 7IP         0.0567
     32 H9         74.1277   49.4710    9.2772 H         1 7IP         0.0600
     33 H10        72.1789   50.9554    9.4460 H         1 7IP         0.0559
     34 H11        69.4545   51.0270    6.8724 H         1 7IP         0.0461
     35 H12        70.3936   52.1143    7.9506 H         1 7IP         0.0461
     36 H13        68.4399   51.5785    9.1558 H         1 7IP         0.0581
     37 H14        69.7257   50.5378    9.8561 H         1 7IP         0.0581
     38 H15        69.0740   48.3082   10.2638 H         1 7IP         0.0420
     39 H16        67.6979   46.3372    9.6808 H         1 7IP         0.0738
     40 H17        66.1606   46.4419    7.7487 H         1 7IP         0.0441
     41 H18        65.8493   49.3990    5.6437 H         1 7IP         0.0230
     42 H19        67.3719   50.4111    7.0325 H         1 7IP         0.2479
     43 H20        70.5167   49.1836    5.9298 H         1 7IP         0.0560
@<TRIPOS>BOND
     1    1    2 1  
     2    2    3 1  
     3    3    4 ar 
     4    3    8 ar 
     5    4    5 ar 
     6    5    6 ar 
     7    6    7 ar 
     8    7    8 ar 
     9    7    9 1  
    10    9   10 ar 
    11    9   23 ar 
    12   10   11 ar 
    13   11   12 ar 
    14   12   13 ar 
    15   13   14 1  
    16   13   23 ar 
    17   14   15 1  
    18   15   16 1  
    19   16   17 2  
    20   16   22 1  
    21   17   18 1  
    22   18   19 2  
    23   19   20 1  
    24   20   21 2  
    25   20   22 1  
    26    1   24 1  
    27    1   25 1  
    28    1   26 1  
    29    4   27 1  
    30    5   28 1  
    31    6   29 1  
    32    8   30 1  
    33   10   31 1  
    34   11   32 1  
    35   12   33 1  
    36   14   34 1  
    37   14   35 1  
    38   15   36 1  
    39   15   37 1  
    40   17   38 1  
    41   18   39 1  
    42   19   40 1  
    43   21   41 1  
    44   22   42 1  
    45   23   43 1  
@<TRIPOS>SUBSTRUCTURE
     1 7IP         1

