### 
### Created by X-TOOL on Mon Sep 10 21:12:48 2018
### 

@<TRIPOS>MOLECULE
1j4p_ligand
  220   222     1     0     0
SMALL
GAST_HUCK


@<TRIPOS>ATOM
      1 N         -11.2800  -23.8830  -15.4320 N.4       1 LYS         0.2379
      2 CA        -10.5970  -22.6400  -15.8760 C.3       1 LYS         0.0650
      3 C          -9.1910  -22.9380  -16.3900 C.2       1 LYS         0.2267
      4 O          -8.6990  -22.2710  -17.2990 O.2       1 LYS        -0.3907
      5 CB        -10.5340  -21.6700  -14.6940 C.3       1 LYS         0.0080
      6 CG        -11.5420  -20.5350  -14.7850 C.3       1 LYS        -0.0410
      7 CD        -12.7890  -20.8290  -13.9680 C.3       1 LYS        -0.0123
      8 CE        -13.9020  -19.8420  -14.2750 C.3       1 LYS        -0.0354
      9 NZ        -14.7320  -19.5470  -13.0740 N.4       1 LYS         0.2185
     10 H1        -12.2041  -23.6577  -15.0983 H         1 LYS         0.2015
     11 H2        -10.7496  -24.3109  -14.6893 H         1 LYS         0.2015
     12 H3        -11.3496  -24.5234  -16.2073 H         1 LYS         0.2015
     13 H4        -11.1795  -22.1819  -16.6889 H         1 LYS         0.1098
     14 H5         -9.5241  -21.2360  -14.6534 H         1 LYS         0.0346
     15 H6        -10.7280  -22.2344  -13.7700 H         1 LYS         0.0346
     16 H7        -11.8293  -20.3959  -15.8377 H         1 LYS         0.0270
     17 H8        -11.0766  -19.6128  -14.4070 H         1 LYS         0.0270
     18 H9        -12.5391  -20.7644  -12.8987 H         1 LYS         0.0317
     19 H10       -13.1382  -21.8454  -14.2022 H         1 LYS         0.0317
     20 H11       -14.5478  -20.2669  -15.0575 H         1 LYS         0.0813
     21 H12       -13.4554  -18.9043  -14.6372 H         1 LYS         0.0813
     22 H13       -15.4565  -18.8905  -13.3193 H         1 LYS         0.1994
     23 H14       -14.1501  -19.1511  -12.3524 H         1 LYS         0.1994
     24 H15       -15.1512  -20.3997  -12.7375 H         1 LYS         0.1994
     25 N          -8.5530  -23.9450  -15.8000 N.am      1 LYS        -0.2610
     26 CA         -7.2040  -24.3350  -16.1960 C.3       1 LYS         0.1311
     27 C          -6.2090  -23.2050  -15.9340 C.2       1 LYS         0.2039
     28 O          -5.4900  -23.2200  -14.9340 O.2       1 LYS        -0.3944
     29 CB         -7.1750  -24.7360  -17.6750 C.3       1 LYS        -0.0122
     30 CG         -5.7850  -25.0640  -18.1950 C.3       1 LYS        -0.0440
     31 CD         -5.1490  -26.1980  -17.4100 C.3       1 LYS        -0.0124
     32 CE         -5.7970  -27.5350  -17.7350 C.3       1 LYS        -0.0354
     33 NZ         -4.7950  -28.6350  -17.8090 N.4       1 LYS         0.2185
     34 H16        -9.0097  -24.4478  -15.0661 H         1 LYS         0.1884
     35 H17        -6.9053  -25.2056  -15.5937 H         1 LYS         0.0800
     36 H18        -7.5793  -23.9026  -18.2682 H         1 LYS         0.0312
     37 H19        -7.8125  -25.6228  -17.8064 H         1 LYS         0.0312
     38 H20        -5.1507  -24.1696  -18.1078 H         1 LYS         0.0269
     39 H21        -5.8595  -25.3591  -19.2520 H         1 LYS         0.0269
     40 H22        -5.2649  -25.9970  -16.3348 H         1 LYS         0.0317
     41 H23        -4.0791  -26.2495  -17.6602 H         1 LYS         0.0317
     42 H24        -6.3096  -27.4552  -18.7050 H         1 LYS         0.0813
     43 H25        -6.5306  -27.7745  -16.9511 H         1 LYS         0.0813
     44 H26        -5.2625  -29.5013  -18.0256 H         1 LYS         0.1994
     45 H27        -4.3235  -28.7203  -16.9222 H         1 LYS         0.1994
     46 H28        -4.1210  -28.4277  -18.5293 H         1 LYS         0.1994
     47 N          -6.1730  -22.2290  -16.8350 N.am      1 MET        -0.2637
     48 CA         -5.2670  -21.0940  -16.6980 C.3       1 MET         0.1317
     49 C          -5.4600  -20.1040  -17.8430 C.2       1 MET         0.2040
     50 O          -4.5780  -19.9310  -18.6850 O.2       1 MET        -0.3944
     51 CB         -3.8140  -21.5740  -16.6590 C.3       1 MET        -0.0034
     52 CG         -2.9190  -20.7350  -15.7630 C.3       1 MET        -0.0024
     53 SD         -1.4740  -21.6420  -15.1800 S.3       1 MET        -0.1639
     54 CE         -0.1510  -20.6180  -15.8200 C.3       1 MET        -0.0181
     55 H29        -6.7822  -22.2737  -17.6267 H         1 MET         0.1883
     56 H30        -5.4925  -20.5811  -15.7514 H         1 MET         0.0800
     57 H31        -3.4099  -21.5422  -17.6816 H         1 MET         0.0320
     58 H32        -3.8002  -22.6106  -16.2913 H         1 MET         0.0320
     59 H33        -3.5031  -20.4053  -14.8912 H         1 MET         0.0378
     60 H34        -2.5780  -19.8560  -16.3296 H         1 MET         0.0378
     61 H35         0.8189  -21.0537  -15.5382 H         1 MET         0.0340
     62 H36        -0.2344  -19.6054  -15.3985 H         1 MET         0.0340
     63 H37        -0.2250  -20.5661  -16.9163 H         1 MET         0.0340
     64 N          -6.6200  -19.4550  -17.8660 N.am      1 THR        -0.2613
     65 CA         -6.9300  -18.4820  -18.9070 C.3       1 THR         0.1565
     66 C          -6.0610  -17.2370  -18.7660 C.2       1 THR         0.2066
     67 O          -6.5110  -16.2080  -18.2650 O.2       1 THR        -0.3943
     68 CB         -8.4090  -18.0960  -18.8500 C.3       1 THR         0.0924
     69 OG1        -8.6930  -17.3770  -17.6630 O.3       1 THR        -0.3874
     70 CG2        -9.3410  -19.2880  -18.9000 C.3       1 THR        -0.0346
     71 H38        -7.2961  -19.6384  -17.1524 H         1 THR         0.1884
     72 H39        -6.7246  -18.9419  -19.8849 H         1 THR         0.0826
     73 H40        -8.6222  -17.4525  -19.7162 H         1 THR         0.0639
     74 H41        -8.1674  -16.5860  -17.6398 H         1 THR         0.2101
     75 H42       -10.3836  -18.9403  -18.8553 H         1 THR         0.0257
     76 H43        -9.1378  -19.9485  -18.0442 H         1 THR         0.0257
     77 H44        -9.1789  -19.8412  -19.8368 H         1 THR         0.0257
     78 N          -4.8110  -17.3410  -19.2110 N.am      1 PHE        -0.2619
     79 CA         -3.8720  -16.2230  -19.1350 C.3       1 PHE         0.1404
     80 C          -4.4620  -14.9600  -19.7610 C.2       1 PHE         0.2060
     81 O          -4.3170  -14.7220  -20.9600 O.2       1 PHE        -0.3942
     82 CB         -2.5470  -16.5750  -19.8230 C.3       1 PHE         0.0214
     83 CG         -2.6820  -17.4560  -21.0390 C.ar      1 PHE        -0.0386
     84 CD1        -1.6630  -18.3270  -21.3900 C.ar      1 PHE        -0.0601
     85 CD2        -3.8220  -17.4140  -21.8320 C.ar      1 PHE        -0.0601
     86 CE1        -1.7740  -19.1360  -22.5040 C.ar      1 PHE        -0.0686
     87 CE2        -3.9380  -18.2230  -22.9460 C.ar      1 PHE        -0.0686
     88 CZ         -2.9130  -19.0840  -23.2830 C.ar      1 PHE        -0.0687
     89 H45        -4.5060  -18.2067  -19.6078 H         1 PHE         0.1885
     90 H46        -3.6682  -16.0195  -18.0734 H         1 PHE         0.0823
     91 H47        -1.9094  -17.0947  -19.0927 H         1 PHE         0.0474
     92 H48        -2.0617  -15.6373  -20.1317 H         1 PHE         0.0474
     93 H49        -0.7667  -18.3741  -20.7821 H         1 PHE         0.0557
     94 H50        -4.6297  -16.7388  -21.5737 H         1 PHE         0.0557
     95 H51        -0.9676  -19.8112  -22.7666 H         1 PHE         0.0599
     96 H52        -4.8337  -18.1816  -23.5552 H         1 PHE         0.0599
     97 H53        -3.0020  -19.7182  -24.1576 H         1 PHE         0.0559
     98 N          -5.1240  -14.1510  -18.9380 N.am      1 GLN        -0.2634
     99 CA         -5.7360  -12.9110  -19.4070 C.3       1 GLN         0.1330
    100 C          -4.7550  -12.0890  -20.2380 C.2       1 GLN         0.2041
    101 O          -5.1540  -11.3580  -21.1440 O.2       1 GLN        -0.3944
    102 CB         -6.2300  -12.0830  -18.2190 C.3       1 GLN         0.0045
    103 CG         -7.3590  -12.7430  -17.4430 C.3       1 GLN         0.0412
    104 CD         -7.3370  -12.3870  -15.9690 C.2       1 GLN         0.1737
    105 OE1        -6.6680  -11.4410  -15.5560 O.2       1 GLN        -0.3973
    106 NE2        -8.0720  -13.1480  -15.1670 N.am      1 GLN        -0.3009
    107 H54        -5.2046  -14.3987  -17.9725 H         1 GLN         0.1883
    108 H55        -6.5983  -13.1678  -20.0398 H         1 GLN         0.0801
    109 H56        -6.5878  -11.1135  -18.5959 H         1 GLN         0.0337
    110 H57        -5.3854  -11.9208  -17.5332 H         1 GLN         0.0337
    111 H58        -7.2652  -13.8344  -17.5436 H         1 GLN         0.0504
    112 H59        -8.3186  -12.4165  -17.8703 H         1 GLN         0.0504
    113 H60        -8.0968  -12.9613  -14.1849 H         1 GLN         0.1814
    114 H61        -8.6008  -13.9079  -15.5450 H         1 GLN         0.1814
    115 N          -3.4700  -12.2150  -19.9220 N.am      1 TPO        -0.2611
    116 CA         -2.4340  -11.4830  -20.6420 C.3       1 TPO         0.1614
    117 CB         -2.4260   -9.9920  -20.2470 C.3       1 TPO         0.1262
    118 CG2        -1.3230   -9.2390  -20.9780 C.3       1 TPO        -0.0298
    119 OG1        -3.6650   -9.4120  -20.5460 O.3       1 TPO        -0.2685
    120 P          -4.5470   -8.9170  -19.3580 P.3       1 TPO         0.2014
    121 O1P        -4.0250   -7.4890  -19.0490 O.co2     1 TPO        -0.5537
    122 O2P        -5.9780   -8.8170  -19.9450 O.co2     1 TPO        -0.5537
    123 O3P        -4.4750   -9.8260  -18.1670 O.co2     1 TPO        -0.5537
    124 C          -1.0540  -12.0790  -20.3680 C.2       1 TPO         0.2093
    125 O          -0.3880  -11.7050  -19.4020 O.2       1 TPO        -0.3941
    126 H62        -3.2078  -12.8250  -19.1742 H         1 TPO         0.1884
    127 H63        -2.6434  -11.5598  -21.7191 H         1 TPO         0.0830
    128 H64        -2.2480   -9.9160  -19.1642 H         1 TPO         0.0695
    129 H65        -1.3405   -8.1808  -20.6780 H         1 TPO         0.0260
    130 H66        -1.4843   -9.3151  -22.0634 H         1 TPO         0.0260
    131 H67        -0.3473   -9.6769  -20.7206 H         1 TPO         0.0260
    132 N          -0.6010  -13.0170  -21.2190 N.am      1 PRO        -0.2498
    133 CA          0.7090  -13.6570  -21.0610 C.3       1 PRO         0.1338
    134 C           1.8320  -12.6380  -20.9090 C.2       1 PRO         0.2042
    135 O           1.8540  -11.6170  -21.5970 O.2       1 PRO        -0.3944
    136 CB          0.8770  -14.4510  -22.3580 C.3       1 PRO        -0.0104
    137 CG         -0.5130  -14.7160  -22.8230 C.3       1 PRO        -0.0281
    138 CD         -1.3260  -13.5230  -22.4010 C.3       1 PRO         0.0369
    139 H68         0.7087  -14.3268  -20.1885 H         1 PRO         0.0802
    140 H69         1.4090  -15.3949  -22.1686 H         1 PRO         0.0313
    141 H70         1.4298  -13.8618  -23.1045 H         1 PRO         0.0313
    142 H71        -0.9050  -15.6307  -22.3543 H         1 PRO         0.0287
    143 H72        -0.5355  -14.8261  -23.9172 H         1 PRO         0.0287
    144 H73        -1.3568  -12.7656  -23.1981 H         1 PRO         0.0524
    145 H74        -2.3519  -13.8192  -22.1367 H         1 PRO         0.0524
    146 N           2.7640  -12.9200  -20.0040 N.am      1 THR        -0.2613
    147 CA          3.8900  -12.0250  -19.7620 C.3       1 THR         0.1565
    148 C           5.1280  -12.4800  -20.5290 C.2       1 THR         0.2066
    149 O           6.2570  -12.2080  -20.1200 O.2       1 THR        -0.3943
    150 CB          4.2000  -11.9560  -18.2670 C.3       1 THR         0.0924
    151 OG1         4.5310  -13.2390  -17.7640 O.3       1 THR        -0.3874
    152 CG2         3.0490  -11.4230  -17.4410 C.3       1 THR        -0.0346
    153 H75         2.6913  -13.7663  -19.4763 H         1 THR         0.1884
    154 H76         3.6146  -11.0187  -20.1105 H         1 THR         0.0826
    155 H77         5.0627  -11.2868  -18.1330 H         1 THR         0.0639
    156 H78         5.2950  -13.5698  -18.2215 H         1 THR         0.2101
    157 H79         3.3388  -11.4002  -16.3801 H         1 THR         0.0257
    158 H80         2.1732  -12.0763  -17.5679 H         1 THR         0.0257
    159 H81         2.7986  -10.4052  -17.7747 H         1 THR         0.0257
    160 N           4.9120  -13.1740  -21.6430 N.am      1 ASP        -0.2621
    161 CA          6.0140  -13.6640  -22.4650 C.3       1 ASP         0.1425
    162 C           6.9830  -14.5060  -21.6360 C.2       1 ASP         0.2081
    163 O           7.8680  -13.9680  -20.9690 O.2       1 ASP        -0.3941
    164 CB          6.7590  -12.4900  -23.1040 C.3       1 ASP         0.0406
    165 CG          7.1560  -12.7700  -24.5410 C.2       1 ASP         0.0393
    166 OD1         6.4830  -13.5970  -25.1920 O.co2     1 ASP        -0.5688
    167 OD2         8.1390  -12.1630  -25.0140 O.co2     1 ASP        -0.5688
    168 H82         3.9715  -13.3647  -21.9242 H         1 ASP         0.1884
    169 H83         5.5986  -14.2949  -23.2646 H         1 ASP         0.0819
    170 H84         7.6686  -12.2885  -22.5192 H         1 ASP         0.0478
    171 H85         6.1065  -11.6046  -23.0840 H         1 ASP         0.0478
    172 N           6.8330  -15.8430  -21.6640 N.am      1 PRO        -0.2497
    173 CA          7.7040  -16.7490  -20.9080 C.3       1 PRO         0.1338
    174 C           9.1400  -16.7330  -21.4240 C.2       1 PRO         0.2041
    175 O           9.5620  -17.6390  -22.1430 O.2       1 PRO        -0.3944
    176 CB          7.0710  -18.1260  -21.1260 C.3       1 PRO        -0.0104
    177 CG          6.2940  -17.9960  -22.3900 C.3       1 PRO        -0.0281
    178 CD          5.8080  -16.5750  -22.4320 C.3       1 PRO         0.0369
    179 H86         7.7018  -16.4826  -19.8408 H         1 PRO         0.0802
    180 H87         6.4063  -18.3833  -20.2881 H         1 PRO         0.0313
    181 H88         7.8485  -18.8975  -21.2275 H         1 PRO         0.0313
    182 H89         5.4419  -18.6916  -22.3883 H         1 PRO         0.0287
    183 H90         6.9370  -18.2059  -23.2574 H         1 PRO         0.0287
    184 H91         5.7541  -16.2075  -23.4674 H         1 PRO         0.0524
    185 H92         4.8197  -16.4824  -21.9581 H         1 PRO         0.0524
    186 N           9.8850  -15.6980  -21.0500 N.am      1 LEU        -0.2637
    187 CA         11.2730  -15.5630  -21.4730 C.3       1 LEU         0.1312
    188 C          12.1550  -16.6020  -20.7870 C.2       1 LEU         0.2034
    189 O          12.0580  -16.8120  -19.5780 O.2       1 LEU        -0.3944
    190 CB         11.7880  -14.1560  -21.1630 C.3       1 LEU        -0.0101
    191 CG         11.0240  -13.0220  -21.8480 C.3       1 LEU        -0.0425
    192 CD1        10.9230  -11.8140  -20.9290 C.3       1 LEU        -0.0625
    193 CD2        11.6990  -12.6430  -23.1570 C.3       1 LEU        -0.0625
    194 H93         9.4832  -14.9945  -20.4638 H         1 LEU         0.1883
    195 H94        11.3232  -15.7245  -22.5599 H         1 LEU         0.0800
    196 H95        12.8395  -14.0998  -21.4812 H         1 LEU         0.0315
    197 H96        11.7251  -14.0016  -20.0757 H         1 LEU         0.0315
    198 H97        10.0061  -13.3740  -22.0713 H         1 LEU         0.0298
    199 H98        10.3711  -11.0106  -21.4388 H         1 LEU         0.0232
    200 H99        11.9334  -11.4608  -20.6752 H         1 LEU         0.0232
    201 H100       10.3914  -12.0970  -20.0085 H         1 LEU         0.0232
    202 H101       11.7624  -13.5284  -23.8066 H         1 LEU         0.0232
    203 H102       12.7116  -12.2657  -22.9516 H         1 LEU         0.0232
    204 H103       11.1112  -11.8608  -23.6597 H         1 LEU         0.0232
    205 N          13.0140  -17.2500  -21.5670 N.am      1 GLU        -0.2694
    206 CA         13.9120  -18.2680  -21.0340 C.3       1 GLU         0.0959
    207 C          14.8500  -18.7880  -22.1190 C.2       1 GLU         0.0602
    208 O          15.9850  -18.2770  -22.2160 O.co2     1 GLU        -0.5666
    209 CB         13.1080  -19.4240  -20.4350 C.3       1 GLU        -0.0064
    210 CG         13.5680  -19.8280  -19.0440 C.3       1 GLU         0.0038
    211 CD         14.9650  -20.4150  -19.0400 C.2       1 GLU         0.0350
    212 OE1        15.1120  -21.6000  -19.4070 O.co2     1 GLU        -0.5690
    213 OE2        15.9130  -19.6910  -18.6700 O.co2     1 GLU        -0.5690
    214 OXT        14.4400  -19.7040  -22.8630 O.co2     1 GLU        -0.5666
    215 H104       13.0454  -17.0343  -22.5430 H         1 GLU         0.1875
    216 H105       14.5191  -17.8135  -20.2372 H         1 GLU         0.0727
    217 H106       13.2035  -20.2953  -21.0996 H         1 GLU         0.0323
    218 H107       12.0523  -19.1205  -20.3777 H         1 GLU         0.0323
    219 H108       12.8693  -20.5786  -18.6460 H         1 GLU         0.0432
    220 H109       13.5579  -18.9383  -18.3973 H         1 GLU         0.0432
@<TRIPOS>BOND
     1    1    2 1  
     2    1   10 1  
     3    1   11 1  
     4    1   12 1  
     5    2    3 1  
     6    2    5 1  
     7    2   13 1  
     8    3    4 2  
     9    3   25 am 
    10    5    6 1  
    11    5   14 1  
    12    5   15 1  
    13    6    7 1  
    14    6   16 1  
    15    6   17 1  
    16    7    8 1  
    17    7   18 1  
    18    7   19 1  
    19    8    9 1  
    20    8   20 1  
    21    8   21 1  
    22    9   22 1  
    23    9   23 1  
    24    9   24 1  
    25   25   26 1  
    26   25   34 1  
    27   26   27 1  
    28   26   29 1  
    29   26   35 1  
    30   27   28 2  
    31   27   47 am 
    32   29   30 1  
    33   29   36 1  
    34   29   37 1  
    35   30   31 1  
    36   30   38 1  
    37   30   39 1  
    38   31   32 1  
    39   31   40 1  
    40   31   41 1  
    41   32   33 1  
    42   32   42 1  
    43   32   43 1  
    44   33   44 1  
    45   33   45 1  
    46   33   46 1  
    47   47   48 1  
    48   47   55 1  
    49   48   49 1  
    50   48   51 1  
    51   48   56 1  
    52   49   50 2  
    53   49   64 am 
    54   51   52 1  
    55   51   57 1  
    56   51   58 1  
    57   52   53 1  
    58   52   59 1  
    59   52   60 1  
    60   53   54 1  
    61   54   61 1  
    62   54   62 1  
    63   54   63 1  
    64   64   65 1  
    65   64   71 1  
    66   65   66 1  
    67   65   68 1  
    68   65   72 1  
    69   66   67 2  
    70   66   78 am 
    71   68   69 1  
    72   68   70 1  
    73   68   73 1  
    74   69   74 1  
    75   70   75 1  
    76   70   76 1  
    77   70   77 1  
    78   78   79 1  
    79   78   89 1  
    80   79   80 1  
    81   79   82 1  
    82   79   90 1  
    83   80   81 2  
    84   80   98 am 
    85   82   83 1  
    86   82   91 1  
    87   82   92 1  
    88   83   84 ar 
    89   83   85 ar 
    90   84   86 ar 
    91   84   93 1  
    92   85   87 ar 
    93   85   94 1  
    94   86   88 ar 
    95   86   95 1  
    96   87   88 ar 
    97   87   96 1  
    98   88   97 1  
    99   98   99 1  
   100   98  107 1  
   101   99  100 1  
   102   99  102 1  
   103   99  108 1  
   104  100  101 2  
   105  100  115 am 
   106  102  103 1  
   107  102  109 1  
   108  102  110 1  
   109  103  104 1  
   110  103  111 1  
   111  103  112 1  
   112  104  105 2  
   113  104  106 am 
   114  106  113 1  
   115  106  114 1  
   116  115  116 1  
   117  115  126 1  
   118  116  117 1  
   119  116  124 1  
   120  116  127 1  
   121  117  118 1  
   122  117  119 1  
   123  117  128 1  
   124  118  129 1  
   125  118  130 1  
   126  118  131 1  
   127  119  120 1  
   128  120  121 ar 
   129  120  122 ar 
   130  120  123 ar 
   131  124  125 2  
   132  124  132 am 
   133  132  133 1  
   134  132  138 1  
   135  133  134 1  
   136  133  136 1  
   137  133  139 1  
   138  134  135 2  
   139  134  146 am 
   140  136  137 1  
   141  136  140 1  
   142  136  141 1  
   143  137  138 1  
   144  137  142 1  
   145  137  143 1  
   146  138  144 1  
   147  138  145 1  
   148  146  147 1  
   149  146  153 1  
   150  147  148 1  
   151  147  150 1  
   152  147  154 1  
   153  148  149 2  
   154  148  160 am 
   155  150  151 1  
   156  150  152 1  
   157  150  155 1  
   158  151  156 1  
   159  152  157 1  
   160  152  158 1  
   161  152  159 1  
   162  160  161 1  
   163  160  168 1  
   164  161  162 1  
   165  161  164 1  
   166  161  169 1  
   167  162  163 2  
   168  162  172 am 
   169  164  165 1  
   170  164  170 1  
   171  164  171 1  
   172  165  166 ar 
   173  165  167 ar 
   174  172  173 1  
   175  172  178 1  
   176  173  174 1  
   177  173  176 1  
   178  173  179 1  
   179  174  175 2  
   180  174  186 am 
   181  176  177 1  
   182  176  180 1  
   183  176  181 1  
   184  177  178 1  
   185  177  182 1  
   186  177  183 1  
   187  178  184 1  
   188  178  185 1  
   189  186  187 1  
   190  186  194 1  
   191  187  188 1  
   192  187  190 1  
   193  187  195 1  
   194  188  189 2  
   195  188  205 am 
   196  190  191 1  
   197  190  196 1  
   198  190  197 1  
   199  191  192 1  
   200  191  193 1  
   201  191  198 1  
   202  192  199 1  
   203  192  200 1  
   204  192  201 1  
   205  193  202 1  
   206  193  203 1  
   207  193  204 1  
   208  205  206 1  
   209  205  215 1  
   210  206  207 1  
   211  206  209 1  
   212  206  216 1  
   213  207  208 ar 
   214  207  214 ar 
   215  209  210 1  
   216  209  217 1  
   217  209  218 1  
   218  210  211 1  
   219  210  219 1  
   220  210  220 1  
   221  211  212 ar 
   222  211  213 ar 
@<TRIPOS>SUBSTRUCTURE
     1 LYS         1

