1j4p_ligand
  -I-interpret- 

225227  0  0  0  0  0  0  0  0999 V2000
  -11.2800  -23.8830  -15.4320 N   0  3  0  0  0
  -10.5970  -22.6400  -15.8760 C   0  0  0  0  0
   -9.1910  -22.9380  -16.3900 C   0  0  0  0  0
   -8.6990  -22.2710  -17.2990 O   0  0  0  0  0
  -10.5340  -21.6700  -14.6940 C   0  0  0  0  0
  -11.5420  -20.5350  -14.7850 C   0  0  0  0  0
  -12.7890  -20.8290  -13.9680 C   0  0  0  0  0
  -13.9020  -19.8420  -14.2750 C   0  0  0  0  0
  -14.7320  -19.5470  -13.0740 N   0  3  0  0  0
   -8.5530  -23.9450  -15.8000 N   0  0  0  0  0
   -7.2040  -24.3350  -16.1960 C   0  0  0  0  0
   -6.2090  -23.2050  -15.9340 C   0  0  0  0  0
   -5.4900  -23.2200  -14.9340 O   0  0  0  0  0
   -7.1750  -24.7360  -17.6750 C   0  0  0  0  0
   -5.7850  -25.0640  -18.1950 C   0  0  0  0  0
   -5.1490  -26.1980  -17.4100 C   0  0  0  0  0
   -5.7970  -27.5350  -17.7350 C   0  0  0  0  0
   -4.7950  -28.6350  -17.8090 N   0  3  0  0  0
   -6.1730  -22.2290  -16.8350 N   0  0  0  0  0
   -5.2670  -21.0940  -16.6980 C   0  0  0  0  0
   -5.4600  -20.1040  -17.8430 C   0  0  0  0  0
   -4.5780  -19.9310  -18.6850 O   0  0  0  0  0
   -3.8140  -21.5740  -16.6590 C   0  0  0  0  0
   -2.9190  -20.7350  -15.7630 C   0  0  0  0  0
   -1.4740  -21.6420  -15.1800 S   0  0  0  0  0
   -0.1510  -20.6180  -15.8200 C   0  0  0  0  0
   -6.6200  -19.4550  -17.8660 N   0  0  0  0  0
   -6.9300  -18.4820  -18.9070 C   0  0  0  0  0
   -6.0610  -17.2370  -18.7660 C   0  0  0  0  0
   -6.5110  -16.2080  -18.2650 O   0  0  0  0  0
   -8.4090  -18.0960  -18.8500 C   0  0  0  0  0
   -8.6930  -17.3770  -17.6630 O   0  0  0  0  0
   -9.3410  -19.2880  -18.9000 C   0  0  0  0  0
   -4.8110  -17.3410  -19.2110 N   0  0  0  0  0
   -3.8720  -16.2230  -19.1350 C   0  0  0  0  0
   -4.4620  -14.9600  -19.7610 C   0  0  0  0  0
   -4.3170  -14.7220  -20.9600 O   0  0  0  0  0
   -2.5470  -16.5750  -19.8230 C   0  0  0  0  0
   -2.6820  -17.4560  -21.0390 C   0  0  0  0  0
   -1.6630  -18.3270  -21.3900 C   0  0  0  0  0
   -3.8220  -17.4140  -21.8320 C   0  0  0  0  0
   -1.7740  -19.1360  -22.5040 C   0  0  0  0  0
   -3.9380  -18.2230  -22.9460 C   0  0  0  0  0
   -2.9130  -19.0840  -23.2830 C   0  0  0  0  0
   -5.1240  -14.1510  -18.9380 N   0  0  0  0  0
   -5.7360  -12.9110  -19.4070 C   0  0  0  0  0
   -4.7550  -12.0890  -20.2380 C   0  0  0  0  0
   -5.1540  -11.3580  -21.1440 O   0  0  0  0  0
   -6.2300  -12.0830  -18.2190 C   0  0  0  0  0
   -7.3590  -12.7430  -17.4430 C   0  0  0  0  0
   -7.3370  -12.3870  -15.9690 C   0  0  0  0  0
   -6.6680  -11.4410  -15.5560 O   0  0  0  0  0
   -8.0720  -13.1480  -15.1670 N   0  0  0  0  0
   -3.4700  -12.2150  -19.9220 N   0  0  0  0  0
   -2.4340  -11.4830  -20.6420 C   0  0  0  0  0
   -2.4260   -9.9920  -20.2470 C   0  0  0  0  0
   -1.3230   -9.2390  -20.9780 C   0  0  0  0  0
   -3.6650   -9.4120  -20.5460 O   0  0  0  0  0
   -4.5470   -8.9170  -19.3580 P   0  0  0  0  0
   -4.0250   -7.4890  -19.0490 O   0  0  0  0  0
   -5.9780   -8.8170  -19.9450 O   0  0  0  0  0
   -4.4750   -9.8260  -18.1670 O   0  0  0  0  0
   -1.0540  -12.0790  -20.3680 C   0  0  0  0  0
   -0.3880  -11.7050  -19.4020 O   0  0  0  0  0
   -0.6010  -13.0170  -21.2190 N   0  0  0  0  0
    0.7090  -13.6570  -21.0610 C   0  0  0  0  0
    1.8320  -12.6380  -20.9090 C   0  0  0  0  0
    1.8540  -11.6170  -21.5970 O   0  0  0  0  0
    0.8770  -14.4510  -22.3580 C   0  0  0  0  0
   -0.5130  -14.7160  -22.8230 C   0  0  0  0  0
   -1.3260  -13.5230  -22.4010 C   0  0  0  0  0
    2.7640  -12.9200  -20.0040 N   0  0  0  0  0
    3.8900  -12.0250  -19.7620 C   0  0  0  0  0
    5.1280  -12.4800  -20.5290 C   0  0  0  0  0
    6.2570  -12.2080  -20.1200 O   0  0  0  0  0
    4.2000  -11.9560  -18.2670 C   0  0  0  0  0
    4.5310  -13.2390  -17.7640 O   0  0  0  0  0
    3.0490  -11.4230  -17.4410 C   0  0  0  0  0
    4.9120  -13.1740  -21.6430 N   0  0  0  0  0
    6.0140  -13.6640  -22.4650 C   0  0  0  0  0
    6.9830  -14.5060  -21.6360 C   0  0  0  0  0
    7.8680  -13.9680  -20.9690 O   0  0  0  0  0
    6.7590  -12.4900  -23.1040 C   0  0  0  0  0
    7.1560  -12.7700  -24.5410 C   0  0  0  0  0
    6.4830  -13.5970  -25.1920 O   0  0  0  0  0
    8.1390  -12.1630  -25.0140 O   0  0  0  0  0
    6.8330  -15.8430  -21.6640 N   0  0  0  0  0
    7.7040  -16.7490  -20.9080 C   0  0  0  0  0
    9.1400  -16.7330  -21.4240 C   0  0  0  0  0
    9.5620  -17.6390  -22.1430 O   0  0  0  0  0
    7.0710  -18.1260  -21.1260 C   0  0  0  0  0
    6.2940  -17.9960  -22.3900 C   0  0  0  0  0
    5.8080  -16.5750  -22.4320 C   0  0  0  0  0
    9.8850  -15.6980  -21.0500 N   0  0  0  0  0
   11.2730  -15.5630  -21.4730 C   0  0  0  0  0
   12.1550  -16.6020  -20.7870 C   0  0  0  0  0
   12.0580  -16.8120  -19.5780 O   0  0  0  0  0
   11.7880  -14.1560  -21.1630 C   0  0  0  0  0
   11.0240  -13.0220  -21.8480 C   0  0  0  0  0
   10.9230  -11.8140  -20.9290 C   0  0  0  0  0
   11.6990  -12.6430  -23.1570 C   0  0  0  0  0
   13.0140  -17.2500  -21.5670 N   0  0  0  0  0
   13.9120  -18.2680  -21.0340 C   0  0  0  0  0
   14.8500  -18.7880  -22.1190 C   0  0  0  0  0
   15.9850  -18.2770  -22.2160 O   0  0  0  0  0
   13.1080  -19.4240  -20.4350 C   0  0  0  0  0
   13.5680  -19.8280  -19.0440 C   0  0  0  0  0
   14.9650  -20.4150  -19.0400 C   0  0  0  0  0
   15.1120  -21.6000  -19.4070 O   0  0  0  0  0
   15.9130  -19.6910  -18.6700 O   0  0  0  0  0
   14.4400  -19.7040  -22.8630 O   0  0  0  0  0
  -11.3290  -24.5395  -16.2111 H   0  0  0  0  0
  -10.7548  -24.3026  -14.6648 H   0  0  0  0  0
  -12.2232  -23.6570  -15.1164 H   0  0  0  0  0
  -11.1591  -22.1952  -16.6972 H   0  0  0  0  0
   -9.5392  -21.2245  -14.6889 H   0  0  0  0  0
  -10.7614  -22.2381  -13.7920 H   0  0  0  0  0
  -11.8336  -20.4157  -15.8285 H   0  0  0  0  0
  -11.0783  -19.6298  -14.3928 H   0  0  0  0  0
  -12.5364  -20.7463  -12.9109 H   0  0  0  0  0
  -13.1375  -21.8309  -14.2187 H   0  0  0  0  0
  -14.5471  -20.2811  -15.0360 H   0  0  0  0  0
  -13.4482  -18.9105  -14.6132 H   0  0  0  0  0
  -15.4647  -18.8827  -13.3234 H   0  0  0  0  0
  -15.1556  -20.4105  -12.7344 H   0  0  0  0  0
  -14.1421  -19.1465  -12.3446 H   0  0  0  0  0
   -9.0189  -24.4578  -15.0514 H   0  0  0  0  0
   -6.9103  -25.1946  -15.5936 H   0  0  0  0  0
   -7.5446  -23.8864  -18.2492 H   0  0  0  0  0
   -7.7816  -25.6355  -17.7797 H   0  0  0  0  0
   -5.1592  -24.1779  -18.0891 H   0  0  0  0  0
   -5.8704  -25.3715  -19.2372 H   0  0  0  0  0
   -5.2835  -25.9991  -16.3468 H   0  0  0  0  0
   -4.0936  -26.2525  -17.6769 H   0  0  0  0  0
   -6.2847  -27.4512  -18.7062 H   0  0  0  0  0
   -6.5068  -27.7722  -16.9426 H   0  0  0  0  0
   -5.2692  -29.5111  -18.0282 H   0  0  0  0  0
   -4.1136  -28.4241  -18.5381 H   0  0  0  0  0
   -4.3186  -28.7203  -16.9111 H   0  0  0  0  0
   -6.7944  -22.2746  -17.6426 H   0  0  0  0  0
   -5.4978  -20.5872  -15.7610 H   0  0  0  0  0
   -3.4196  -21.5033  -17.6727 H   0  0  0  0  0
   -3.8160  -22.5885  -16.2605 H   0  0  0  0  0
   -3.5019  -20.4372  -14.8914 H   0  0  0  0  0
   -2.5675  -19.8825  -16.3442 H   0  0  0  0  0
   -0.2255  -20.5674  -16.9063 H   0  0  0  0  0
   -0.2348  -19.6150  -15.4016 H   0  0  0  0  0
    0.8095  -21.0507  -15.5402 H   0  0  0  0  0
   -7.3096  -19.6421  -17.1381 H   0  0  0  0  0
   -6.7189  -18.9417  -19.8725 H   0  0  0  0  0
   -8.5827  -17.4830  -19.7344 H   0  0  0  0  0
   -9.6242  -17.1444  -17.6462 H   0  0  0  0  0
   -9.1793  -19.8353  -19.8287 H   0  0  0  0  0
   -9.1386  -19.9417  -18.0516 H   0  0  0  0  0
  -10.3737  -18.9422  -18.8556 H   0  0  0  0  0
   -4.4999  -18.2241  -19.6158 H   0  0  0  0  0
   -3.6812  -16.0286  -18.0796 H   0  0  0  0  0
   -1.9496  -17.1264  -19.0969 H   0  0  0  0  0
   -2.1053  -15.6368  -20.1588 H   0  0  0  0  0
   -0.7617  -18.3743  -20.7788 H   0  0  0  0  0
   -4.6342  -16.7350  -21.5723 H   0  0  0  0  0
   -0.9632  -19.8149  -22.7680 H   0  0  0  0  0
   -4.8386  -18.1814  -23.5586 H   0  0  0  0  0
   -3.0025  -19.7217  -24.1624 H   0  0  0  0  0
   -5.2062  -14.4037  -17.9532 H   0  0  0  0  0
   -6.5827  -13.1752  -20.0406 H   0  0  0  0  0
   -6.6120  -11.1415  -18.6136 H   0  0  0  0  0
   -5.3907  -11.9616  -17.5342 H   0  0  0  0  0
   -7.2399  -13.8230  -17.5297 H   0  0  0  0  0
   -8.3031  -12.3920  -17.8595 H   0  0  0  0  0
   -8.0970  -12.9578  -14.1652 H   0  0  0  0  0
   -8.6117  -13.9228  -15.5526 H   0  0  0  0  0
   -3.2026  -12.8372  -19.1593 H   0  0  0  0  0
   -2.6606  -11.5685  -21.7048 H   0  0  0  0  0
   -2.2392   -9.9267  -19.1751 H   0  0  0  0  0
   -0.3568   -9.6739  -20.7222 H   0  0  0  0  0
   -1.4839   -9.3152  -22.0534 H   0  0  0  0  0
   -1.3414   -8.1907  -20.6800 H   0  0  0  0  0
   -4.0913   -6.9474  -19.8389 H   0  0  0  0  0
   -5.9717   -8.2264  -20.7018 H   0  0  0  0  0
    0.7579  -14.2723  -20.1626 H   0  0  0  0  0
    1.4355  -15.3737  -22.2001 H   0  0  0  0  0
    1.4554  -13.9001  -23.0996 H   0  0  0  0  0
   -0.9061  -15.6352  -22.3886 H   0  0  0  0  0
   -0.5480  -14.8553  -23.9035 H   0  0  0  0  0
   -1.4145  -12.7760  -23.1898 H   0  0  0  0  0
   -2.3620  -13.7791  -22.1792 H   0  0  0  0  0
    2.6899  -13.7832  -19.4657 H   0  0  0  0  0
    3.6125  -11.0323  -20.1166 H   0  0  0  0  0
    5.0401  -11.2672  -18.1777 H   0  0  0  0  0
    4.7219  -13.1740  -16.8254 H   0  0  0  0  0
    2.8019  -10.4145  -17.7726 H   0  0  0  0  0
    2.1819  -12.0712  -17.5676 H   0  0  0  0  0
    3.3373  -11.4008  -16.3901 H   0  0  0  0  0
    3.9527  -13.3685  -21.9298 H   0  0  0  0  0
    5.5964  -14.2940  -23.2504 H   0  0  0  0  0
    7.6695  -12.3161  -22.5305 H   0  0  0  0  0
    6.0939  -11.6264  -23.1001 H   0  0  0  0  0
    5.7785  -13.9413  -24.6382 H   0  0  0  0  0
    7.7738  -16.4633  -19.8584 H   0  0  0  0  0
    6.4360  -18.4162  -20.2890 H   0  0  0  0  0
    7.8240  -18.9112  -21.1932 H   0  0  0  0  0
    5.4616  -18.6992  -22.4162 H   0  0  0  0  0
    6.9104  -18.2286  -23.2584 H   0  0  0  0  0
    5.6977  -16.1991  -23.4492 H   0  0  0  0  0
    4.8084  -16.4608  -22.0128 H   0  0  0  0  0
    9.4752  -14.9804  -20.4521 H   0  0  0  0  0
   11.3162  -15.7297  -22.5493 H   0  0  0  0  0
   12.8141  -14.1092  -21.5278 H   0  0  0  0  0
   11.6733  -14.0087  -20.0891 H   0  0  0  0  0
   10.0146  -13.3694  -22.0682 H   0  0  0  0  0
   10.3962  -12.0957  -20.0173 H   0  0  0  0  0
   11.9247  -11.4651  -20.6782 H   0  0  0  0  0
   10.3760  -11.0187  -21.4353 H   0  0  0  0  0
   12.7188  -12.3145  -22.9566 H   0  0  0  0  0
   11.7183  -13.5091  -23.8185 H   0  0  0  0  0
   11.1420  -11.8347  -23.6308 H   0  0  0  0  0
   13.0460  -17.0300  -22.5625 H   0  0  0  0  0
   14.5150  -17.8117  -20.2490 H   0  0  0  0  0
   13.2412  -20.2873  -21.0870 H   0  0  0  0  0
   12.0722  -19.0944  -20.3540 H   0  0  0  0  0
   12.8829  -20.5899  -18.6722 H   0  0  0  0  0
   13.5781  -18.9336  -18.4210 H   0  0  0  0  0
   14.2583  -21.9677  -19.6472 H   0  0  0  0  0
   13.5448  -19.9426  -22.6114 H   0  0  0  0  0
  1  2  1  0  0  0
  2  3  1  0  0  0
  2  5  1  0  0  0
  3  4  2  0  0  0
  3 10  1  0  0  0
  5  6  1  0  0  0
  6  7  1  0  0  0
  7  8  1  0  0  0
  8  9  1  0  0  0
 10 11  1  0  0  0
 11 12  1  0  0  0
 11 14  1  0  0  0
 12 13  2  0  0  0
 12 19  1  0  0  0
 14 15  1  0  0  0
 15 16  1  0  0  0
 16 17  1  0  0  0
 17 18  1  0  0  0
 19 20  1  0  0  0
 20 21  1  0  0  0
 20 23  1  0  0  0
 21 22  2  0  0  0
 21 27  1  0  0  0
 23 24  1  0  0  0
 24 25  1  0  0  0
 25 26  1  0  0  0
 27 28  1  0  0  0
 28 29  1  0  0  0
 28 31  1  0  0  0
 29 30  2  0  0  0
 29 34  1  0  0  0
 31 32  1  0  0  0
 31 33  1  0  0  0
 34 35  1  0  0  0
 35 36  1  0  0  0
 35 38  1  0  0  0
 36 37  2  0  0  0
 36 45  1  0  0  0
 38 39  1  0  0  0
 39 40  4  0  0  0
 39 41  4  0  0  0
 40 42  4  0  0  0
 41 43  4  0  0  0
 42 44  4  0  0  0
 43 44  4  0  0  0
 45 46  1  0  0  0
 46 47  1  0  0  0
 46 49  1  0  0  0
 47 48  2  0  0  0
 47 54  1  0  0  0
 49 50  1  0  0  0
 50 51  1  0  0  0
 51 52  2  0  0  0
 51 53  1  0  0  0
 54 55  1  0  0  0
 55 56  1  0  0  0
 55 63  1  0  0  0
 56 57  1  0  0  0
 56 58  1  0  0  0
 58 59  1  0  0  0
 59 60  1  0  0  0
 59 61  1  0  0  0
 59 62  2  0  0  0
 63 64  2  0  0  0
 63 65  1  0  0  0
 65 66  1  0  0  0
 65 71  1  0  0  0
 66 67  1  0  0  0
 66 69  1  0  0  0
 67 68  2  0  0  0
 67 72  1  0  0  0
 69 70  1  0  0  0
 70 71  1  0  0  0
 72 73  1  0  0  0
 73 74  1  0  0  0
 73 76  1  0  0  0
 74 75  2  0  0  0
 74 79  1  0  0  0
 76 77  1  0  0  0
 76 78  1  0  0  0
 79 80  1  0  0  0
 80 81  1  0  0  0
 80 83  1  0  0  0
 81 82  2  0  0  0
 81 87  1  0  0  0
 83 84  1  0  0  0
 84 85  1  0  0  0
 84 86  2  0  0  0
 87 88  1  0  0  0
 87 93  1  0  0  0
 88 89  1  0  0  0
 88 91  1  0  0  0
 89 90  2  0  0  0
 89 94  1  0  0  0
 91 92  1  0  0  0
 92 93  1  0  0  0
 94 95  1  0  0  0
 95 96  1  0  0  0
 95 98  1  0  0  0
 96 97  2  0  0  0
 96102  1  0  0  0
 98 99  1  0  0  0
 99100  1  0  0  0
 99101  1  0  0  0
102103  1  0  0  0
103104  1  0  0  0
103106  1  0  0  0
104105  2  0  0  0
104111  1  0  0  0
106107  1  0  0  0
107108  1  0  0  0
108109  1  0  0  0
108110  2  0  0  0
  1112  1  0  0  0
  1113  1  0  0  0
  1114  1  0  0  0
  2115  1  0  0  0
  5116  1  0  0  0
  5117  1  0  0  0
  6118  1  0  0  0
  6119  1  0  0  0
  7120  1  0  0  0
  7121  1  0  0  0
  8122  1  0  0  0
  8123  1  0  0  0
  9124  1  0  0  0
  9125  1  0  0  0
  9126  1  0  0  0
 10127  1  0  0  0
 11128  1  0  0  0
 14129  1  0  0  0
 14130  1  0  0  0
 15131  1  0  0  0
 15132  1  0  0  0
 16133  1  0  0  0
 16134  1  0  0  0
 17135  1  0  0  0
 17136  1  0  0  0
 18137  1  0  0  0
 18138  1  0  0  0
 18139  1  0  0  0
 19140  1  0  0  0
 20141  1  0  0  0
 23142  1  0  0  0
 23143  1  0  0  0
 24144  1  0  0  0
 24145  1  0  0  0
 26146  1  0  0  0
 26147  1  0  0  0
 26148  1  0  0  0
 27149  1  0  0  0
 28150  1  0  0  0
 31151  1  0  0  0
 32152  1  0  0  0
 33153  1  0  0  0
 33154  1  0  0  0
 33155  1  0  0  0
 34156  1  0  0  0
 35157  1  0  0  0
 38158  1  0  0  0
 38159  1  0  0  0
 40160  1  0  0  0
 41161  1  0  0  0
 42162  1  0  0  0
 43163  1  0  0  0
 44164  1  0  0  0
 45165  1  0  0  0
 46166  1  0  0  0
 49167  1  0  0  0
 49168  1  0  0  0
 50169  1  0  0  0
 50170  1  0  0  0
 53171  1  0  0  0
 53172  1  0  0  0
 54173  1  0  0  0
 55174  1  0  0  0
 56175  1  0  0  0
 57176  1  0  0  0
 57177  1  0  0  0
 57178  1  0  0  0
 60179  1  0  0  0
 61180  1  0  0  0
 66181  1  0  0  0
 69182  1  0  0  0
 69183  1  0  0  0
 70184  1  0  0  0
 70185  1  0  0  0
 71186  1  0  0  0
 71187  1  0  0  0
 72188  1  0  0  0
 73189  1  0  0  0
 76190  1  0  0  0
 77191  1  0  0  0
 78192  1  0  0  0
 78193  1  0  0  0
 78194  1  0  0  0
 79195  1  0  0  0
 80196  1  0  0  0
 83197  1  0  0  0
 83198  1  0  0  0
 85199  1  0  0  0
 88200  1  0  0  0
 91201  1  0  0  0
 91202  1  0  0  0
 92203  1  0  0  0
 92204  1  0  0  0
 93205  1  0  0  0
 93206  1  0  0  0
 94207  1  0  0  0
 95208  1  0  0  0
 98209  1  0  0  0
 98210  1  0  0  0
 99211  1  0  0  0
100212  1  0  0  0
100213  1  0  0  0
100214  1  0  0  0
101215  1  0  0  0
101216  1  0  0  0
101217  1  0  0  0
102218  1  0  0  0
103219  1  0  0  0
106220  1  0  0  0
106221  1  0  0  0
107222  1  0  0  0
107223  1  0  0  0
109224  1  0  0  0
111225  1  0  0  0
M  END
$$$$
