### 
### Created by X-TOOL on Sun Sep  9 21:51:19 2018
### 

@<TRIPOS>MOLECULE
2xah_ligand
  104   110     1     0     0
SMALL
GAST_HUCK


@<TRIPOS>ATOM
      1 PA         -6.5740   68.7580   88.2110 P.3       1 NON         0.2972
      2 O1A        -5.5480   69.1520   87.1250 O.co2     1 NON        -0.6127
      3 O2A        -7.9360   68.1110   87.9360 O.co2     1 NON        -0.6127
      4 O5B        -7.0070   70.1500   88.9570 O.3       1 NON        -0.2476
      5 C5B        -6.0990   71.2080   89.3160 C.3       1 NON         0.1128
      6 C4B        -6.7710   72.5530   89.0910 C.3       1 NON         0.1189
      7 O4B        -5.8420   73.5950   89.3730 O.3       1 NON        -0.3364
      8 C3B        -7.1840   72.7600   87.6550 C.3       1 NON         0.1149
      9 O3B        -8.5370   73.1860   87.6880 O.3       1 NON        -0.3864
     10 C2B        -6.2940   73.8720   87.1420 C.3       1 NON         0.1385
     11 O2B        -6.9270   74.6780   86.1530 O.3       1 NON        -0.3836
     12 C1B        -6.0050   74.6330   88.4160 C.3       1 NON         0.2010
     13 N9A        -4.7870   75.4520   88.3120 N.pl3     1 NON        -0.1919
     14 C8A        -3.6520   75.1090   87.6810 C.2       1 NON         0.1123
     15 N7A        -2.7650   76.1290   87.8060 N.2       1 NON        -0.2958
     16 C5A        -3.3720   77.1000   88.5400 C.ar      1 NON         0.1045
     17 C6A        -2.9470   78.3580   88.9820 C.ar      1 NON         0.1298
     18 N6A        -1.6900   78.7950   88.6540 N.pl3     1 NON        -0.3152
     19 N1A        -3.8300   79.1060   89.7130 N.ar      1 NON        -0.2698
     20 C2A        -5.0820   78.6540   90.0070 C.ar      1 NON         0.0533
     21 N3A        -5.5030   77.4520   89.5950 N.ar      1 NON        -0.2714
     22 C4A        -4.6620   76.6650   88.8590 C.ar      1 NON         0.1613
     23 N1         -8.4110   59.0030   85.5870 N.ar      1 NON        -0.2523
     24 C2         -9.4630   58.1460   85.7470 C.ar      1 NON         0.2023
     25 O2         -9.8830   57.8270   86.8740 O.3       1 NON        -0.3066
     26 N3        -10.1050   57.6100   84.6860 N.ar      1 NON        -0.2507
     27 C4         -9.7570   57.9050   83.4210 C.ar      1 NON         0.1752
     28 O4        -10.3970   57.3970   82.4790 O.3       1 NON        -0.3210
     29 C4X        -8.7110   58.7750   83.1820 C.ar      1 NON         0.1512
     30 N5         -8.2560   58.9780   81.8680 N.pl3     1 NON        -0.2552
     31 C5X        -7.5700   60.1900   81.6990 C.ar      1 NON         0.0716
     32 C6         -7.5780   60.7310   80.4180 C.ar      1 NON        -0.0542
     33 C7         -6.9430   61.9370   80.1730 C.ar      1 NON        -0.0669
     34 C7M        -6.9580   62.5130   78.7820 C.3       1 NON        -0.0419
     35 C8         -6.2980   62.6020   81.2130 C.ar      1 NON        -0.0668
     36 C8M        -5.6110   63.9260   80.9590 C.3       1 NON        -0.0422
     37 C9         -6.2900   62.0500   82.4980 C.ar      1 NON        -0.0532
     38 C9A        -6.9450   60.8420   82.7710 C.ar      1 NON         0.0754
     39 N10        -6.9020   60.2400   84.0820 N.pl3     1 NON        -0.2525
     40 C10        -7.9940   59.3630   84.3430 C.ar      1 NON         0.1514
     41 C1'        -6.4180   61.1550   85.1650 C.3       1 NON         0.0721
     42 C2'        -7.4000   62.0120   85.9560 C.3       1 NON         0.1067
     43 O2'        -8.2230   62.7680   85.0690 O.3       1 NON        -0.3868
     44 C3'        -6.6200   62.9890   86.8270 C.3       1 NON         0.1115
     45 O3'        -5.6660   62.2870   87.6310 O.3       1 NON        -0.3865
     46 C4'        -7.4940   63.8430   87.7590 C.3       1 NON         0.1118
     47 O4'        -8.7060   64.3830   87.1330 O.3       1 NON        -0.3865
     48 C5'        -6.5680   64.9000   88.4280 C.3       1 NON         0.1124
     49 O5'        -7.2700   65.7930   89.3140 O.3       1 NON        -0.2477
     50 P          -6.4440   66.8140   90.2270 P.3       1 NON         0.2972
     51 O1P        -7.6010   67.4810   90.9650 O.co2     1 NON        -0.6127
     52 O2P        -5.3470   66.1150   91.0370 O.co2     1 NON        -0.6127
     53 O3P        -5.7360   67.8940   89.2770 O.3       1 NON        -0.1319
     54 C          -5.2590   56.8210   82.5470 C.2       1 NON         0.1035
     55 O          -4.4730   55.9200   82.2280 O.2       1 NON        -0.3747
     56 CA         -5.8760   57.8060   81.5460 C.3       1 NON         0.0539
     57 CB         -7.3640   57.7580   81.8690 C.3       1 NON         0.0974
     58 CG         -7.9130   56.5710   81.1800 C.ar      1 NON        -0.0134
     59 CD1        -8.3560   56.6520   79.8650 C.ar      1 NON        -0.0578
     60 CE1        -8.8580   55.4730   79.2930 C.ar      1 NON        -0.0685
     61 CZ         -8.9300   54.2620   80.0080 C.ar      1 NON        -0.0687
     62 CE2        -8.4900   54.1850   81.3270 C.ar      1 NON        -0.0685
     63 CD2        -7.9780   55.3520   81.9040 C.ar      1 NON        -0.0578
     64 H          -5.1946   71.1417   88.6934 H         1 NON         0.0648
     65 H          -5.8224   71.1095   90.3761 H         1 NON         0.0648
     66 H          -7.6500   72.6312   89.7477 H         1 NON         0.0651
     67 H          -7.0701   71.8460   87.0537 H         1 NON         0.0648
     68 H          -8.6012   73.9949   88.1820 H         1 NON         0.2100
     69 H          -5.3670   73.4614   86.7153 H         1 NON         0.0676
     70 H          -7.7058   75.0774   86.5225 H         1 NON         0.2101
     71 H          -6.8525   75.2821   88.6811 H         1 NON         0.0996
     72 H          -3.4735   74.1709   87.1575 H         1 NON         0.1349
     73 H          -1.3663   79.7191   88.9737 H         1 NON         0.1820
     74 H          -1.0691   78.1993   88.0878 H         1 NON         0.1820
     75 H          -5.7503   79.2808   90.5863 H         1 NON         0.0996
     76 H         -10.6137   57.2273   86.7803 H         1 NON         0.2559
     77 H         -10.3324   56.4505   82.5278 H         1 NON         0.2509
     78 H          -8.0809   60.2091   79.6119 H         1 NON         0.0405
     79 H          -7.5146   61.8405   78.1127 H         1 NON         0.0353
     80 H          -5.9254   62.6201   78.4183 H         1 NON         0.0353
     81 H          -7.4451   63.4991   78.7987 H         1 NON         0.0353
     82 H          -5.1628   64.2919   81.8945 H         1 NON         0.0351
     83 H          -6.3475   64.6573   80.5947 H         1 NON         0.0351
     84 H          -4.8232   63.7913   80.2032 H         1 NON         0.0351
     85 H          -5.7682   62.5655   83.2962 H         1 NON         0.0413
     86 H          -5.7039   61.8476   84.6955 H         1 NON         0.0587
     87 H          -5.8908   60.5249   85.8965 H         1 NON         0.0587
     88 H          -8.0284   61.3655   86.5861 H         1 NON         0.0643
     89 H          -8.8293   63.2967   85.5745 H         1 NON         0.2100
     90 H          -6.0791   63.6705   86.1540 H         1 NON         0.0647
     91 H          -6.1197   61.6670   88.1899 H         1 NON         0.2100
     92 H          -7.8498   63.1794   88.5609 H         1 NON         0.0647
     93 H          -9.2484   63.6663   86.8254 H         1 NON         0.2100
     94 H          -6.0908   65.4969   87.6368 H         1 NON         0.0647
     95 H          -5.7951   64.3716   89.0053 H         1 NON         0.0647
     96 H          -5.5278   56.9202   83.5976 H         1 NON         0.1351
     97 H          -5.6880   57.4841   80.5111 H         1 NON         0.0541
     98 H          -5.4744   58.8194   81.6935 H         1 NON         0.0541
     99 H          -7.3739   57.4858   82.9347 H         1 NON         0.0773
    100 H          -8.3156   57.5812   79.3081 H         1 NON         0.0557
    101 H          -9.2022   55.4952   78.2653 H         1 NON         0.0599
    102 H          -9.3329   53.3788   79.5257 H         1 NON         0.0559
    103 H          -8.5422   53.2570   81.8848 H         1 NON         0.0599
    104 H          -7.6227   55.3246   82.9278 H         1 NON         0.0557
@<TRIPOS>BOND
     1    1    2 ar 
     2    1    3 ar 
     3    1    4 1  
     4   53    1 1  
     5    4    5 1  
     6    5    6 1  
     7    6    7 1  
     8    6    8 1  
     9    7   12 1  
    10    8    9 1  
    11    8   10 1  
    12   10   11 1  
    13   10   12 1  
    14   12   13 1  
    15   13   14 1  
    16   13   22 1  
    17   14   15 2  
    18   16   15 1  
    19   16   17 ar 
    20   22   16 ar 
    21   17   18 1  
    22   17   19 ar 
    23   20   19 ar 
    24   21   20 ar 
    25   22   21 ar 
    26   23   24 ar 
    27   40   23 ar 
    28   24   25 1  
    29   26   24 ar 
    30   27   26 ar 
    31   27   28 1  
    32   29   27 ar 
    33   30   29 1  
    34   29   40 ar 
    35   30   31 1  
    36   57   30 1  
    37   31   32 ar 
    38   31   38 ar 
    39   32   33 ar 
    40   33   34 1  
    41   33   35 ar 
    42   35   36 1  
    43   37   35 ar 
    44   38   37 ar 
    45   38   39 1  
    46   40   39 1  
    47   39   41 1  
    48   41   42 1  
    49   42   43 1  
    50   42   44 1  
    51   44   45 1  
    52   44   46 1  
    53   46   47 1  
    54   46   48 1  
    55   48   49 1  
    56   49   50 1  
    57   50   51 ar 
    58   50   52 ar 
    59   50   53 1  
    60   54   55 2  
    61   56   54 1  
    62   56   57 1  
    63   57   58 1  
    64   58   59 ar 
    65   58   63 ar 
    66   59   60 ar 
    67   60   61 ar 
    68   61   62 ar 
    69   62   63 ar 
    70    5   64 1  
    71    5   65 1  
    72    6   66 1  
    73    8   67 1  
    74    9   68 1  
    75   10   69 1  
    76   11   70 1  
    77   12   71 1  
    78   14   72 1  
    79   18   73 1  
    80   18   74 1  
    81   20   75 1  
    82   25   76 1  
    83   28   77 1  
    84   32   78 1  
    85   34   79 1  
    86   34   80 1  
    87   34   81 1  
    88   36   82 1  
    89   36   83 1  
    90   36   84 1  
    91   37   85 1  
    92   41   86 1  
    93   41   87 1  
    94   42   88 1  
    95   43   89 1  
    96   44   90 1  
    97   45   91 1  
    98   46   92 1  
    99   47   93 1  
   100   48   94 1  
   101   48   95 1  
   102   54   96 1  
   103   56   97 1  
   104   56   98 1  
   105   57   99 1  
   106   59  100 1  
   107   60  101 1  
   108   61  102 1  
   109   62  103 1  
   110   63  104 1  
@<TRIPOS>SUBSTRUCTURE
     1 NON         1

