2xah_ligand
  -I-interpret- 

106112  0  0  0  0  0  0  0  0999 V2000
   -6.5740   68.7580   88.2110 P   0  0  0  0  0
   -5.5480   69.1520   87.1250 O   0  0  0  0  0
   -7.9360   68.1110   87.9360 O   0  0  0  0  0
   -7.0070   70.1500   88.9570 O   0  0  0  0  0
   -6.0990   71.2080   89.3160 C   0  0  0  0  0
   -6.7710   72.5530   89.0910 C   0  0  0  0  0
   -5.8420   73.5950   89.3730 O   0  0  0  0  0
   -7.1840   72.7600   87.6550 C   0  0  0  0  0
   -8.5370   73.1860   87.6880 O   0  0  0  0  0
   -6.2940   73.8720   87.1420 C   0  0  0  0  0
   -6.9270   74.6780   86.1530 O   0  0  0  0  0
   -6.0050   74.6330   88.4160 C   0  0  0  0  0
   -4.7870   75.4520   88.3120 N   0  0  0  0  0
   -3.6520   75.1090   87.6810 C   0  0  0  0  0
   -2.7650   76.1290   87.8060 N   0  0  0  0  0
   -3.3720   77.1000   88.5400 C   0  0  0  0  0
   -2.9470   78.3580   88.9820 C   0  0  0  0  0
   -1.6900   78.7950   88.6540 N   0  0  0  0  0
   -3.8300   79.1060   89.7130 N   0  0  0  0  0
   -5.0820   78.6540   90.0070 C   0  0  0  0  0
   -5.5030   77.4520   89.5950 N   0  0  0  0  0
   -4.6620   76.6650   88.8590 C   0  0  0  0  0
   -8.4110   59.0030   85.5870 N   0  0  0  0  0
   -9.4630   58.1460   85.7470 C   0  0  0  0  0
   -9.8830   57.8270   86.8740 O   0  0  0  0  0
  -10.1050   57.6100   84.6860 N   0  0  0  0  0
   -9.7570   57.9050   83.4210 C   0  0  0  0  0
  -10.3970   57.3970   82.4790 O   0  0  0  0  0
   -8.7110   58.7750   83.1820 C   0  0  0  0  0
   -8.2560   58.9780   81.8680 N   0  0  0  0  0
   -7.5700   60.1900   81.6990 C   0  0  0  0  0
   -7.5780   60.7310   80.4180 C   0  0  0  0  0
   -6.9430   61.9370   80.1730 C   0  0  0  0  0
   -6.9580   62.5130   78.7820 C   0  0  0  0  0
   -6.2980   62.6020   81.2130 C   0  0  0  0  0
   -5.6110   63.9260   80.9590 C   0  0  0  0  0
   -6.2900   62.0500   82.4980 C   0  0  0  0  0
   -6.9450   60.8420   82.7710 C   0  0  0  0  0
   -6.9020   60.2400   84.0820 N   0  0  0  0  0
   -7.9940   59.3630   84.3430 C   0  0  0  0  0
   -6.4180   61.1550   85.1650 C   0  0  0  0  0
   -7.4000   62.0120   85.9560 C   0  0  0  0  0
   -8.2230   62.7680   85.0690 O   0  0  0  0  0
   -6.6200   62.9890   86.8270 C   0  0  0  0  0
   -5.6660   62.2870   87.6310 O   0  0  0  0  0
   -7.4940   63.8430   87.7590 C   0  0  0  0  0
   -8.7060   64.3830   87.1330 O   0  0  0  0  0
   -6.5680   64.9000   88.4280 C   0  0  0  0  0
   -7.2700   65.7930   89.3140 O   0  0  0  0  0
   -6.4440   66.8140   90.2270 P   0  0  0  0  0
   -7.6010   67.4810   90.9650 O   0  0  0  0  0
   -5.3470   66.1150   91.0370 O   0  0  0  0  0
   -5.7360   67.8940   89.2770 O   0  0  0  0  0
   -5.2590   56.8210   82.5470 C   0  0  0  0  0
   -4.4730   55.9200   82.2280 O   0  0  0  0  0
   -5.8760   57.8060   81.5460 C   0  0  0  0  0
   -7.3640   57.7580   81.8690 C   0  0  0  0  0
   -7.9130   56.5710   81.1800 C   0  0  0  0  0
   -8.3560   56.6520   79.8650 C   0  0  0  0  0
   -8.8580   55.4730   79.2930 C   0  0  0  0  0
   -8.9300   54.2620   80.0080 C   0  0  0  0  0
   -8.4900   54.1850   81.3270 C   0  0  0  0  0
   -7.9780   55.3520   81.9040 C   0  0  0  0  0
   -4.7745   69.5383   87.5422 H   0  0  0  0  0
   -5.2032   71.1423   88.6985 H   0  0  0  0  0
   -5.8256   71.1104   90.3666 H   0  0  0  0  0
   -7.6477   72.5699   89.7384 H   0  0  0  0  0
   -7.0933   71.8739   87.0268 H   0  0  0  0  0
   -9.0884   72.4714   88.0149 H   0  0  0  0  0
   -5.4021   73.5171   86.6255 H   0  0  0  0  0
   -6.3204   75.3638   85.8645 H   0  0  0  0  0
   -6.7928   75.3430   88.6676 H   0  0  0  0  0
   -3.4733   74.1701   87.1570 H   0  0  0  0  0
   -1.0751   78.2051   88.0933 H   0  0  0  0  0
   -1.3694   79.7101   88.9706 H   0  0  0  0  0
   -5.7540   79.2842   90.5895 H   0  0  0  0  0
  -10.6214   57.2209   86.7793 H   0  0  0  0  0
  -10.0320   57.7012   81.6448 H   0  0  0  0  0
   -8.0837   60.2062   79.6074 H   0  0  0  0  0
   -6.4816   61.8133   78.0953 H   0  0  0  0  0
   -7.9889   62.6835   78.4718 H   0  0  0  0  0
   -6.4143   63.4577   78.7754 H   0  0  0  0  0
   -4.8307   63.7912   80.2099 H   0  0  0  0  0
   -6.3418   64.6497   80.5981 H   0  0  0  0  0
   -5.1673   64.2875   81.8867 H   0  0  0  0  0
   -5.7653   62.5683   83.3006 H   0  0  0  0  0
   -5.7923   61.8790   84.6429 H   0  0  0  0  0
   -5.9894   60.4841   85.9095 H   0  0  0  0  0
   -8.0221   61.3579   86.5670 H   0  0  0  0  0
   -8.8356   63.3022   85.5798 H   0  0  0  0  0
   -6.1328   63.6663   86.1255 H   0  0  0  0  0
   -5.1829   62.9146   88.1735 H   0  0  0  0  0
   -7.9278   63.2114   88.5342 H   0  0  0  0  0
   -9.1938   64.9013   87.7772 H   0  0  0  0  0
   -6.1281   65.5027   87.6334 H   0  0  0  0  0
   -5.8282   64.3619   89.0207 H   0  0  0  0  0
   -4.6938   65.7465   90.4377 H   0  0  0  0  0
   -5.5281   56.9203   83.5986 H   0  0  0  0  0
   -5.6647   57.5366   80.5112 H   0  0  0  0  0
   -5.4611   58.8097   81.6384 H   0  0  0  0  0
   -7.3883   57.7007   82.9572 H   0  0  0  0  0
   -8.3154   57.5863   79.3051 H   0  0  0  0  0
   -9.2041   55.4954   78.2597 H   0  0  0  0  0
   -9.3352   53.3739   79.5230 H   0  0  0  0  0
   -8.5425   53.2519   81.8879 H   0  0  0  0  0
   -7.6207   55.3245   82.9334 H   0  0  0  0  0
  1  2  1  0  0  0
  1  3  2  0  0  0
  1  4  1  0  0  0
 53  1  1  0  0  0
  4  5  1  0  0  0
  5  6  1  0  0  0
  6  7  1  0  0  0
  6  8  1  0  0  0
  7 12  1  0  0  0
  8  9  1  0  0  0
  8 10  1  0  0  0
 10 11  1  0  0  0
 10 12  1  0  0  0
 12 13  1  0  0  0
 13 14  4  0  0  0
 13 22  4  0  0  0
 14 15  4  0  0  0
 16 15  4  0  0  0
 16 17  4  0  0  0
 22 16  4  0  0  0
 17 18  1  0  0  0
 17 19  4  0  0  0
 20 19  4  0  0  0
 21 20  4  0  0  0
 22 21  4  0  0  0
 23 24  4  0  0  0
 40 23  4  0  0  0
 24 25  1  0  0  0
 26 24  4  0  0  0
 27 26  4  0  0  0
 27 28  1  0  0  0
 29 27  4  0  0  0
 30 29  1  0  0  0
 29 40  4  0  0  0
 30 31  1  0  0  0
 57 30  1  0  0  0
 31 32  4  0  0  0
 31 38  4  0  0  0
 32 33  4  0  0  0
 33 34  1  0  0  0
 33 35  4  0  0  0
 35 36  1  0  0  0
 37 35  4  0  0  0
 38 37  4  0  0  0
 38 39  1  0  0  0
 40 39  1  0  0  0
 39 41  1  0  0  0
 41 42  1  0  0  0
 42 43  1  0  0  0
 42 44  1  0  0  0
 44 45  1  0  0  0
 44 46  1  0  0  0
 46 47  1  0  0  0
 46 48  1  0  0  0
 48 49  1  0  0  0
 49 50  1  0  0  0
 50 51  2  0  0  0
 50 52  1  0  0  0
 50 53  1  0  0  0
 54 55  2  0  0  0
 56 54  1  0  0  0
 56 57  1  0  0  0
 57 58  1  0  0  0
 58 59  4  0  0  0
 58 63  4  0  0  0
 59 60  4  0  0  0
 60 61  4  0  0  0
 61 62  4  0  0  0
 62 63  4  0  0  0
  2 64  1  0  0  0
  5 65  1  0  0  0
  5 66  1  0  0  0
  6 67  1  0  0  0
  8 68  1  0  0  0
  9 69  1  0  0  0
 10 70  1  0  0  0
 11 71  1  0  0  0
 12 72  1  0  0  0
 14 73  1  0  0  0
 18 74  1  0  0  0
 18 75  1  0  0  0
 20 76  1  0  0  0
 25 77  1  0  0  0
 28 78  1  0  0  0
 32 79  1  0  0  0
 34 80  1  0  0  0
 34 81  1  0  0  0
 34 82  1  0  0  0
 36 83  1  0  0  0
 36 84  1  0  0  0
 36 85  1  0  0  0
 37 86  1  0  0  0
 41 87  1  0  0  0
 41 88  1  0  0  0
 42 89  1  0  0  0
 43 90  1  0  0  0
 44 91  1  0  0  0
 45 92  1  0  0  0
 46 93  1  0  0  0
 47 94  1  0  0  0
 48 95  1  0  0  0
 48 96  1  0  0  0
 52 97  1  0  0  0
 54 98  1  0  0  0
 56 99  1  0  0  0
 56100  1  0  0  0
 57101  1  0  0  0
 59102  1  0  0  0
 60103  1  0  0  0
 61104  1  0  0  0
 62105  1  0  0  0
 63106  1  0  0  0
M  END
$$$$
