2q15_ligand
  -I-interpret- 

 79 83  0  0  0  0  0  0  0  0999 V2000
   72.9440   46.5280    7.9080 C   0  0  0  0  0
   71.6390   47.1820    7.9130 N   0  0  0  0  0
   70.5450   46.4070    8.2060 C   0  0  0  0  0
   70.6760   45.2200    8.4690 O   0  0  0  0  0
   69.1630   47.0130    8.2000 C   0  0  0  0  0
   68.0710   46.0970    8.7240 C   0  0  0  0  0
   66.7820   46.6280    8.0820 C   0  0  0  0  0
   65.5940   46.0060    8.8160 C   0  0  0  0  0
   64.3970   46.8590    8.4240 C   0  0  0  0  0
   63.0950   46.3500    9.0180 C   0  0  0  0  0
   62.8450   44.9020    8.5990 C   0  0  0  0  0
   64.0590   44.0910    9.0320 C   0  0  0  0  0
   65.3300   44.5750    8.3270 C   0  0  0  0  0
   66.6720   48.0860    8.2110 N   0  0  0  0  0
   66.4230   48.5630    9.5710 C   0  0  0  0  0
   67.3960   49.6950    9.8370 C   0  0  0  0  0
   67.9260   49.8730   11.1350 C   0  0  0  0  0
   68.8100   50.9270   11.3860 C   0  0  0  0  0
   69.3110   51.2060   12.6370 O   0  0  0  0  0
   70.5180   50.6750   12.9980 C   0  0  0  0  0
   71.0850   49.6390   12.2950 C   0  0  0  0  0
   72.2900   49.1130   12.6840 C   0  0  0  0  0
   72.9640   49.6180   13.7850 C   0  0  0  0  0
   72.3970   50.6470   14.4630 C   0  0  0  0  0
   71.1810   51.1870   14.1060 C   0  0  0  0  0
   69.0810   51.7950   10.3390 C   0  0  0  0  0
   68.5620   51.6150    9.0620 C   0  0  0  0  0
   67.7070   50.5580    8.7660 C   0  0  0  0  0
   67.2080   50.3360    7.4740 N   0  0  0  0  0
   66.8550   49.0520    7.1830 C   0  0  0  0  0
   66.6720   48.6580    5.8740 N   0  0  0  0  0
   71.5370   48.6230    7.6680 C   0  0  0  0  0
   72.8960   49.1760    7.3060 C   0  0  0  0  0
   72.7130   50.6730    7.3220 C   0  0  0  0  0
   71.8790   50.9280    6.0660 C   0  0  0  0  0
   70.4620   50.4540    6.3600 C   0  0  0  0  0
   70.5940   48.9600    6.5230 C   0  0  0  0  0
   73.4126   46.6625    6.9331 H   0  0  0  0  0
   73.5739   46.9708    8.6795 H   0  0  0  0  0
   72.8165   45.4640    8.1076 H   0  0  0  0  0
   68.9186   47.2393    7.1621 H   0  0  0  0  0
   69.1930   47.8819    8.8574 H   0  0  0  0  0
   68.0184   46.1056    9.8127 H   0  0  0  0  0
   68.2552   45.0538    8.4674 H   0  0  0  0  0
   66.7951   46.3698    7.0231 H   0  0  0  0  0
   65.7787   45.9700    9.8896 H   0  0  0  0  0
   64.3046   46.8274    7.3384 H   0  0  0  0  0
   64.5661   47.8671    8.8025 H   0  0  0  0  0
   62.2747   46.9698    8.6561 H   0  0  0  0  0
   63.1593   46.3978   10.1050 H   0  0  0  0  0
   62.7031   44.8339    7.5204 H   0  0  0  0  0
   61.9396   44.5177    9.0688 H   0  0  0  0  0
   63.8914   43.0468    8.7682 H   0  0  0  0  0
   64.1911   44.2104   10.1074 H   0  0  0  0  0
   66.1731   43.9249    8.5606 H   0  0  0  0  0
   65.2038   44.5534    7.2445 H   0  0  0  0  0
   66.5662   47.7577   10.2915 H   0  0  0  0  0
   65.3947   48.9100    9.6728 H   0  0  0  0  0
   67.6466   49.1908   11.9379 H   0  0  0  0  0
   70.5734   49.2328   11.4224 H   0  0  0  0  0
   72.7236   48.2870   12.1202 H   0  0  0  0  0
   73.9214   49.2005   14.0968 H   0  0  0  0  0
   72.9233   51.0622   15.3225 H   0  0  0  0  0
   70.7462   52.0028   14.6836 H   0  0  0  0  0
   69.7270   52.6530   10.5248 H   0  0  0  0  0
   68.8312   52.3184    8.2741 H   0  0  0  0  0
   66.8008   49.3290    5.1167 H   0  0  0  0  0
   66.4079   47.6956    5.6633 H   0  0  0  0  0
   71.1486   49.0637    8.5862 H   0  0  0  0  0
   73.2370   48.8171    6.3349 H   0  0  0  0  0
   73.6675   48.8519    8.0044 H   0  0  0  0  0
   73.6585   51.2153    7.3198 H   0  0  0  0  0
   72.2297   51.0309    8.2311 H   0  0  0  0  0
   72.2943   50.3891    5.2144 H   0  0  0  0  0
   71.8834   51.9879    5.8118 H   0  0  0  0  0
   69.7672   50.7197    5.5633 H   0  0  0  0  0
   70.0472   50.9284    7.2494 H   0  0  0  0  0
   69.6114   48.5421    6.7422 H   0  0  0  0  0
   70.9962   48.5400    5.6011 H   0  0  0  0  0
  1  2  1  0  0  0
  2  3  1  0  0  0
  2 32  1  0  0  0
  3  4  2  0  0  0
  3  5  1  0  0  0
  5  6  1  0  0  0
  6  7  1  0  0  0
  7  8  1  0  0  0
  7 14  1  0  0  0
  8  9  1  0  0  0
  8 13  1  0  0  0
  9 10  1  0  0  0
 10 11  1  0  0  0
 11 12  1  0  0  0
 12 13  1  0  0  0
 14 15  1  0  0  0
 14 30  1  0  0  0
 15 16  1  0  0  0
 16 17  4  0  0  0
 16 28  4  0  0  0
 17 18  4  0  0  0
 18 19  1  0  0  0
 18 26  4  0  0  0
 19 20  1  0  0  0
 20 21  4  0  0  0
 20 25  4  0  0  0
 21 22  4  0  0  0
 22 23  4  0  0  0
 23 24  4  0  0  0
 24 25  4  0  0  0
 26 27  4  0  0  0
 27 28  4  0  0  0
 28 29  1  0  0  0
 29 30  2  0  0  0
 30 31  1  0  0  0
 32 33  1  0  0  0
 32 37  1  0  0  0
 33 34  1  0  0  0
 34 35  1  0  0  0
 35 36  1  0  0  0
 36 37  1  0  0  0
  1 38  1  0  0  0
  1 39  1  0  0  0
  1 40  1  0  0  0
  5 41  1  0  0  0
  5 42  1  0  0  0
  6 43  1  0  0  0
  6 44  1  0  0  0
  7 45  1  0  0  0
  8 46  1  0  0  0
  9 47  1  0  0  0
  9 48  1  0  0  0
 10 49  1  0  0  0
 10 50  1  0  0  0
 11 51  1  0  0  0
 11 52  1  0  0  0
 12 53  1  0  0  0
 12 54  1  0  0  0
 13 55  1  0  0  0
 13 56  1  0  0  0
 15 57  1  0  0  0
 15 58  1  0  0  0
 17 59  1  0  0  0
 21 60  1  0  0  0
 22 61  1  0  0  0
 23 62  1  0  0  0
 24 63  1  0  0  0
 25 64  1  0  0  0
 26 65  1  0  0  0
 27 66  1  0  0  0
 31 67  1  0  0  0
 31 68  1  0  0  0
 32 69  1  0  0  0
 33 70  1  0  0  0
 33 71  1  0  0  0
 34 72  1  0  0  0
 34 73  1  0  0  0
 35 74  1  0  0  0
 35 75  1  0  0  0
 36 76  1  0  0  0
 36 77  1  0  0  0
 37 78  1  0  0  0
 37 79  1  0  0  0
M  END
$$$$
