4jym_ligand
  -I-interpret- 

 19 20  0  0  0  0  0  0  0  0999 V2000
   88.8790  -54.0540  -28.3900 O   0  0  0  0  0
   88.3840  -53.0320  -27.5110 C   0  0  0  0  0
   87.1510  -53.3350  -26.7030 C   0  0  0  0  0
   86.5020  -54.5870  -26.8080 C   0  0  0  0  0
   86.9990  -55.6180  -27.6920 C   0  0  0  0  0
   88.2090  -55.3270  -28.4870 C   0  0  0  0  0
   85.3570  -54.6130  -25.9320 C   0  0  0  0  0
   85.3420  -53.3060  -25.2840 C   0  0  0  0  0
   84.5340  -52.9070  -24.4620 O   0  0  0  0  0
   86.4870  -52.4570  -25.7610 O   0  0  0  0  0
   84.3960  -55.7410  -25.7340 C   0  0  0  0  0
   88.1088  -52.2001  -28.1593 H   0  0  0  0  0
   89.1765  -52.8687  -26.7807 H   0  0  0  0  0
   86.4953  -56.5815  -27.7692 H   0  0  0  0  0
   88.6030  -56.0888  -29.1597 H   0  0  0  0  0
   84.6423  -55.4209  -25.7753 H   0  0  0  0  0
   84.4120  -56.0511  -24.6892 H   0  0  0  0  0
   83.3918  -55.4122  -26.0014 H   0  0  0  0  0
   84.6860  -56.5792  -26.3676 H   0  0  0  0  0
  1  2  1  0  0  0
  1  6  1  0  0  0
  2  3  1  0  0  0
  3  4  2  0  0  0
  3 10  1  0  0  0
  4  5  1  0  0  0
  4  7  1  0  0  0
  5  6  2  0  0  0
  7  8  1  0  0  0
  7 11  1  0  0  0
  8  9  2  0  0  0
  8 10  1  0  0  0
  2 12  1  0  0  0
  2 13  1  0  0  0
  5 14  1  0  0  0
  6 15  1  0  0  0
  7 16  1  0  0  0
 11 17  1  0  0  0
 11 18  1  0  0  0
 11 19  1  0  0  0
M  END
$$$$
