3rm8_ligand
  -I-interpret- 

 45 48  0  0  0  0  0  0  0  0999 V2000
   -3.3040   48.6830   65.6950 C   0  0  0  0  0
   -2.4920   51.0310   65.4590 N   0  0  0  0  0
   -2.9440   50.0120   66.2630 C   0  0  0  0  0
   -2.3150   48.9360   69.5230 N   0  3  0  0  0
   -2.9630   50.4830   67.5680 C   0  0  0  0  0
    0.1920   47.7880   70.1980 N   0  0  0  0  0
   -2.5040   51.8420   67.5360 C   0  0  0  0  0
    1.9340   47.4580   71.8350 N   0  0  0  0  0
   -2.3130   52.8420   68.5190 C   0  0  0  0  0
   -1.8400   54.1080   68.1380 C   0  0  0  0  0
   -1.5640   54.3910   66.7990 C   0  0  0  0  0
   -1.7470   53.4170   65.8080 C   0  0  0  0  0
   -2.2220   52.1540   66.2040 C   0  0  0  0  0
   -3.3840   49.7300   68.7880 C   0  0  0  0  0
   -1.2040   49.8140   70.0760 C   0  0  0  0  0
   -0.2740   48.9730   70.9410 C   0  0  0  0  0
   -0.8460   46.9220   69.6110 C   0  0  0  0  0
   -1.7960   47.7420   68.7430 C   0  0  0  0  0
    1.4340   47.2360   70.5770 C   0  0  0  0  0
    2.1810   46.4500   69.6790 C   0  0  0  0  0
    3.4080   45.9100   70.0750 C   0  0  0  0  0
    3.9020   46.1490   71.3490 C   0  0  0  0  0
    3.1300   46.9260   72.1900 C   0  0  0  0  0
   -4.1067   48.8055   64.9678 H   0  0  0  0  0
   -2.4316   48.2501   65.2056 H   0  0  0  0  0
   -3.6363   48.0243   66.4974 H   0  0  0  0  0
   -2.7882   48.5358   70.3332 H   0  0  0  0  0
   -2.5318   52.6307   69.5657 H   0  0  0  0  0
   -1.6868   54.8772   68.8949 H   0  0  0  0  0
   -1.2020   55.3809   66.5211 H   0  0  0  0  0
   -1.5278   53.6319   64.7621 H   0  0  0  0  0
   -3.7290   50.4843   69.4952 H   0  0  0  0  0
   -4.1122   48.9954   68.4441 H   0  0  0  0  0
   -1.6378   50.6118   70.6788 H   0  0  0  0  0
   -0.6391   50.2475   69.2508 H   0  0  0  0  0
    0.5891   49.5761   71.2227 H   0  0  0  0  0
   -0.8162   48.6442   71.8276 H   0  0  0  0  0
   -1.4144   46.4547   70.4151 H   0  0  0  0  0
   -0.3666   46.1630   68.9928 H   0  0  0  0  0
   -1.2606   48.0955   67.8618 H   0  0  0  0  0
   -2.6373   47.1168   68.4440 H   0  0  0  0  0
    1.8023   46.2624   68.6743 H   0  0  0  0  0
    3.9802   45.2973   69.3784 H   0  0  0  0  0
    4.8594   45.7406   71.6727 H   0  0  0  0  0
    3.5027   47.1227   73.1953 H   0  0  0  0  0
  3  1  1  0  0  0
  3  2  4  0  0  0
 13  2  4  0  0  0
  5  3  4  0  0  0
  4 14  1  0  0  0
 15  4  1  0  0  0
  4 18  1  0  0  0
  5  7  4  0  0  0
 14  5  1  0  0  0
 16  6  1  0  0  0
  6 17  1  0  0  0
  6 19  1  0  0  0
  7  9  4  0  0  0
  7 13  4  0  0  0
 19  8  4  0  0  0
  8 23  4  0  0  0
  9 10  4  0  0  0
 10 11  4  0  0  0
 12 11  4  0  0  0
 13 12  4  0  0  0
 15 16  1  0  0  0
 17 18  1  0  0  0
 19 20  4  0  0  0
 20 21  4  0  0  0
 21 22  4  0  0  0
 22 23  4  0  0  0
  1 24  1  0  0  0
  1 25  1  0  0  0
  1 26  1  0  0  0
  4 27  1  0  0  0
  9 28  1  0  0  0
 10 29  1  0  0  0
 11 30  1  0  0  0
 12 31  1  0  0  0
 14 32  1  0  0  0
 14 33  1  0  0  0
 15 34  1  0  0  0
 15 35  1  0  0  0
 16 36  1  0  0  0
 16 37  1  0  0  0
 17 38  1  0  0  0
 17 39  1  0  0  0
 18 40  1  0  0  0
 18 41  1  0  0  0
 20 42  1  0  0  0
 21 43  1  0  0  0
 22 44  1  0  0  0
 23 45  1  0  0  0
M  END
$$$$
