### 
### Created by X-TOOL on Mon Sep 10 21:13:34 2018
### 

@<TRIPOS>MOLECULE
5twh_ligand
   87    86     1     0     0
SMALL
GAST_HUCK


@<TRIPOS>ATOM
      1 N          -3.4830   20.5950   45.7060 N.4       1 TPO         0.2400
      2 CA         -2.7570   21.4290   44.7540 C.3       1 TPO         0.0958
      3 CB         -2.0600   22.5830   45.4730 C.3       1 TPO         0.1457
      4 CG2        -3.1160   23.4020   46.2150 C.3       1 TPO        -0.0266
      5 OG1        -1.0980   22.0750   46.4010 O.3       1 TPO        -0.2651
      6 P          -0.0940   23.2780   46.7830 P.3       1 TPO         0.2016
      7 O1P         1.2600   22.7260   47.0200 O.co2     1 TPO        -0.5537
      8 O2P        -0.0450   24.3550   45.5850 O.co2     1 TPO        -0.5537
      9 O3P        -0.6020   24.0020   48.1290 O.co2     1 TPO        -0.5537
     10 C          -1.7590   20.6220   43.9260 C.2       1 TPO         0.2296
     11 O          -1.4280   20.9970   42.8020 O.2       1 TPO        -0.3906
     12 N          -1.2900   19.5090   44.4800 N.am      1 MET        -0.2609
     13 CA         -0.3360   18.6590   43.7790 C.3       1 MET         0.1318
     14 C          -0.7290   17.1890   43.8960 C.2       1 MET         0.2039
     15 O          -0.7070   16.6200   44.9870 O.2       1 MET        -0.3944
     16 CB          1.0750   18.8860   44.3240 C.3       1 MET        -0.0034
     17 CG          2.1510   18.0750   43.6280 C.3       1 MET        -0.0024
     18 SD          3.8050   18.6870   44.0010 S.3       1 MET        -0.1639
     19 CE          4.8130   17.3420   43.3830 C.3       1 MET        -0.0181
     20 N          -1.0810   16.5820   42.7630 N.am      1 VAL        -0.2635
     21 CA         -1.6070   15.2230   42.7040 C.3       1 VAL         0.1332
     22 C          -0.6170   14.3400   41.9560 C.2       1 VAL         0.2042
     23 O          -0.0030   14.7720   40.9740 O.2       1 VAL        -0.3944
     24 CB         -2.9970   15.1990   42.0320 C.3       1 VAL        -0.0063
     25 CG1        -3.4970   13.7800   41.8630 C.3       1 VAL        -0.0584
     26 CG2        -3.9860   16.0040   42.8470 C.3       1 VAL        -0.0584
     27 N          -0.4560   13.1030   42.4250 N.am      1 ILE        -0.2635
     28 CA          0.5520   12.1850   41.9070 C.3       1 ILE         0.1334
     29 C          -0.1140   10.8800   41.4910 C.2       1 ILE         0.2023
     30 O          -1.0210   10.3880   42.1730 O.2       1 ILE        -0.3945
     31 CB          1.6600   11.9200   42.9500 C.3       1 ILE        -0.0037
     32 CG1         2.2940   13.2380   43.3970 C.3       1 ILE        -0.0491
     33 CG2         2.7210   10.9900   42.3880 C.3       1 ILE        -0.0582
     34 CD1         3.2990   13.0780   44.5120 C.3       1 ILE        -0.0648
     35 N           0.3360   10.3240   40.3680 N.am      1 ASN        -0.2800
     36 CA         -0.1250    9.0220   39.8960 C.3       1 ASN         0.0559
     37 C           0.8300    7.9150   40.3310 C.3       1 ASN        -0.0398
     38 CB         -0.2680    9.0200   38.3740 C.3       1 ASN         0.0597
     39 CG         -1.4140    9.8890   37.8960 C.2       1 ASN         0.1757
     40 OD1        -2.5080    9.3960   37.6220 O.2       1 ASN        -0.3972
     41 ND2        -1.1690   11.1900   37.7950 N.am      1 ASN        -0.3008
     42 H1         -4.1282   21.1660   46.2292 H         1 TPO         0.2016
     43 H2         -2.8296   20.1606   46.3387 H         1 TPO         0.2016
     44 H3         -3.9928   19.8823   45.2078 H         1 TPO         0.2016
     45 H4         -3.4932   21.8595   44.0593 H         1 TPO         0.1128
     46 H5         -1.5505   23.2209   44.7357 H         1 TPO         0.0730
     47 H6         -2.6300   24.2383   46.7389 H         1 TPO         0.0261
     48 H7         -3.6305   22.7609   46.9459 H         1 TPO         0.0261
     49 H8         -3.8474   23.7963   45.4942 H         1 TPO         0.0261
     50 H9         -1.5975   19.2496   45.3955 H         1 MET         0.1885
     51 H10        -0.3447   18.9342   42.7140 H         1 MET         0.0800
     52 H11         1.0791   18.6196   45.3912 H         1 MET         0.0320
     53 H12         1.3204   19.9523   44.2113 H         1 MET         0.0320
     54 H13         1.9892   18.1287   42.5413 H         1 MET         0.0378
     55 H14         2.0767   17.0285   43.9585 H         1 MET         0.0378
     56 H15         5.8756   17.5761   43.5444 H         1 MET         0.0340
     57 H16         4.6263   17.2081   42.3073 H         1 MET         0.0340
     58 H17         4.5563   16.4157   43.9178 H         1 MET         0.0340
     59 H18        -0.9788   17.0864   41.9056 H         1 VAL         0.1883
     60 H19        -1.7135   14.8409   43.7300 H         1 VAL         0.0802
     61 H20        -2.9085   15.6571   41.0359 H         1 VAL         0.0343
     62 H21        -4.4866   13.7947   41.3829 H         1 VAL         0.0234
     63 H22        -3.5750   13.2988   42.8491 H         1 VAL         0.0234
     64 H23        -2.7928   13.2155   41.2342 H         1 VAL         0.0234
     65 H24        -3.6136   17.0324   42.9638 H         1 VAL         0.0234
     66 H25        -4.1058   15.5426   43.8383 H         1 VAL         0.0234
     67 H26        -4.9574   16.0222   42.3312 H         1 VAL         0.0234
     68 H27        -1.0524   12.7906   43.1644 H         1 ILE         0.1883
     69 H28         1.0157   12.6411   41.0199 H         1 ILE         0.0802
     70 H29         1.2035   11.4368   43.8264 H         1 ILE         0.0345
     71 H30         1.4940   13.9087   43.7436 H         1 ILE         0.0267
     72 H31         2.8027   13.6899   42.5327 H         1 ILE         0.0267
     73 H32         2.2514   10.0472   42.0709 H         1 ILE         0.0235
     74 H33         3.4740   10.7822   43.1625 H         1 ILE         0.0235
     75 H34         3.2060   11.4669   41.5236 H         1 ILE         0.0235
     76 H35         3.7105   14.0626   44.7788 H         1 ILE         0.0230
     77 H36         4.1137   12.4180   44.1794 H         1 ILE         0.0230
     78 H37         2.8051   12.6368   45.3903 H         1 ILE         0.0230
     79 H38         1.0165   10.8178   39.8267 H         1 ASN         0.1856
     80 H39        -1.1120    8.8237   40.3392 H         1 ASN         0.0578
     81 H40         0.4603    6.9464   39.9633 H         1 ASN         0.0253
     82 H41         0.8888    7.8920   41.4292 H         1 ASN         0.0253
     83 H42         1.8295    8.1082   39.9142 H         1 ASN         0.0253
     84 H43        -0.4446    7.9876   38.0379 H         1 ASN         0.0525
     85 H44         0.6668    9.3948   37.9316 H         1 ASN         0.0525
     86 H45        -1.8882   11.8116   37.4846 H         1 ASN         0.1814
     87 H46        -0.2653   11.5483   38.0293 H         1 ASN         0.1814
@<TRIPOS>BOND
     1    1    2 1  
     2    2    3 1  
     3    2   10 1  
     4    3    4 1  
     5    3    5 1  
     6    5    6 1  
     7    6    7 ar 
     8    6    8 ar 
     9    6    9 ar 
    10   10   11 2  
    11   10   12 am 
    12   12   13 1  
    13   13   14 1  
    14   13   16 1  
    15   14   15 2  
    16   14   20 am 
    17   16   17 1  
    18   17   18 1  
    19   18   19 1  
    20   20   21 1  
    21   21   22 1  
    22   21   24 1  
    23   22   23 2  
    24   22   27 am 
    25   24   25 1  
    26   24   26 1  
    27   27   28 1  
    28   28   29 1  
    29   28   31 1  
    30   29   30 2  
    31   29   35 am 
    32   31   32 1  
    33   31   33 1  
    34   32   34 1  
    35   35   36 1  
    36   36   37 1  
    37   36   38 1  
    38   38   39 1  
    39   39   40 2  
    40   39   41 am 
    41    1   42 1  
    42    1   43 1  
    43    1   44 1  
    44    2   45 1  
    45    3   46 1  
    46    4   47 1  
    47    4   48 1  
    48    4   49 1  
    49   12   50 1  
    50   13   51 1  
    51   16   52 1  
    52   16   53 1  
    53   17   54 1  
    54   17   55 1  
    55   19   56 1  
    56   19   57 1  
    57   19   58 1  
    58   20   59 1  
    59   21   60 1  
    60   24   61 1  
    61   25   62 1  
    62   25   63 1  
    63   25   64 1  
    64   26   65 1  
    65   26   66 1  
    66   26   67 1  
    67   27   68 1  
    68   28   69 1  
    69   31   70 1  
    70   32   71 1  
    71   32   72 1  
    72   33   73 1  
    73   33   74 1  
    74   33   75 1  
    75   34   76 1  
    76   34   77 1  
    77   34   78 1  
    78   35   79 1  
    79   36   80 1  
    80   37   81 1  
    81   37   82 1  
    82   37   83 1  
    83   38   84 1  
    84   38   85 1  
    85   41   86 1  
    86   41   87 1  
@<TRIPOS>SUBSTRUCTURE
     1 TPO         1

