5twh_ligand
  -I-interpret- 

 89 88  0  0  0  0  0  0  0  0999 V2000
   -3.4830   20.5950   45.7060 N   0  3  0  0  0
   -2.7570   21.4290   44.7540 C   0  0  0  0  0
   -2.0600   22.5830   45.4730 C   0  0  0  0  0
   -3.1160   23.4020   46.2150 C   0  0  0  0  0
   -1.0980   22.0750   46.4010 O   0  0  0  0  0
   -0.0940   23.2780   46.7830 P   0  0  0  0  0
    1.2600   22.7260   47.0200 O   0  0  0  0  0
   -0.0450   24.3550   45.5850 O   0  0  0  0  0
   -0.6020   24.0020   48.1290 O   0  0  0  0  0
   -1.7590   20.6220   43.9260 C   0  0  0  0  0
   -1.4280   20.9970   42.8020 O   0  0  0  0  0
   -1.2900   19.5090   44.4800 N   0  0  0  0  0
   -0.3360   18.6590   43.7790 C   0  0  0  0  0
   -0.7290   17.1890   43.8960 C   0  0  0  0  0
   -0.7070   16.6200   44.9870 O   0  0  0  0  0
    1.0750   18.8860   44.3240 C   0  0  0  0  0
    2.1510   18.0750   43.6280 C   0  0  0  0  0
    3.8050   18.6870   44.0010 S   0  0  0  0  0
    4.8130   17.3420   43.3830 C   0  0  0  0  0
   -1.0810   16.5820   42.7630 N   0  0  0  0  0
   -1.6070   15.2230   42.7040 C   0  0  0  0  0
   -0.6170   14.3400   41.9560 C   0  0  0  0  0
   -0.0030   14.7720   40.9740 O   0  0  0  0  0
   -2.9970   15.1990   42.0320 C   0  0  0  0  0
   -3.4970   13.7800   41.8630 C   0  0  0  0  0
   -3.9860   16.0040   42.8470 C   0  0  0  0  0
   -0.4560   13.1030   42.4250 N   0  0  0  0  0
    0.5520   12.1850   41.9070 C   0  0  0  0  0
   -0.1140   10.8800   41.4910 C   0  0  0  0  0
   -1.0210   10.3880   42.1730 O   0  0  0  0  0
    1.6600   11.9200   42.9500 C   0  0  0  0  0
    2.2940   13.2380   43.3970 C   0  0  0  0  0
    2.7210   10.9900   42.3880 C   0  0  0  0  0
    3.2990   13.0780   44.5120 C   0  0  0  0  0
    0.3360   10.3240   40.3680 N   0  0  0  0  0
   -0.1250    9.0220   39.8960 C   0  0  0  0  0
    0.8300    7.9150   40.3310 C   0  0  0  0  0
   -0.2680    9.0200   38.3740 C   0  0  0  0  0
   -1.4140    9.8890   37.8960 C   0  0  0  0  0
   -2.5080    9.3960   37.6220 O   0  0  0  0  0
   -1.1690   11.1900   37.7950 N   0  0  0  0  0
   -4.1355   21.1738   46.2348 H   0  0  0  0  0
   -3.9984   19.8742   45.2008 H   0  0  0  0  0
   -2.8208   20.1559   46.3456 H   0  0  0  0  0
   -3.4889   21.8412   44.0593 H   0  0  0  0  0
   -1.5420   23.2107   44.7479 H   0  0  0  0  0
   -3.6193   22.7677   46.9447 H   0  0  0  0  0
   -2.6343   24.2351   46.7268 H   0  0  0  0  0
   -3.8448   23.7852   45.5007 H   0  0  0  0  0
   -0.9254   24.7080   45.4374 H   0  0  0  0  0
   -1.4797   24.3633   47.9850 H   0  0  0  0  0
   -1.6037   19.2444   45.4138 H   0  0  0  0  0
   -0.3480   18.9267   42.7225 H   0  0  0  0  0
    1.0681   18.5789   45.3698 H   0  0  0  0  0
    1.3141   19.9378   44.1668 H   0  0  0  0  0
    1.9936   18.1520   42.5522 H   0  0  0  0  0
    2.0816   17.0451   43.9780 H   0  0  0  0  0
    4.5577   16.4248   43.9137 H   0  0  0  0  0
    4.6271   17.2104   42.3171 H   0  0  0  0  0
    5.8656   17.5751   43.5434 H   0  0  0  0  0
   -0.9767   17.0965   41.8885 H   0  0  0  0  0
   -1.7333   14.8386   43.7161 H   0  0  0  0  0
   -2.9011   15.6463   41.0427 H   0  0  0  0  0
   -2.7984   13.2218   41.2398 H   0  0  0  0  0
   -3.5738   13.3043   42.8407 H   0  0  0  0  0
   -4.4776   13.7959   41.3873 H   0  0  0  0  0
   -4.0649   15.5760   43.8463 H   0  0  0  0  0
   -3.6415   17.0357   42.9184 H   0  0  0  0  0
   -4.9614   15.9781   42.3612 H   0  0  0  0  0
   -1.0643   12.7843   43.1792 H   0  0  0  0  0
    1.0239   12.6430   41.0377 H   0  0  0  0  0
    1.2055   11.4365   43.8147 H   0  0  0  0  0
    1.4926   13.8766   43.7686 H   0  0  0  0  0
    2.8216   13.6543   42.5389 H   0  0  0  0  0
    2.2617   10.0401   42.1143 H   0  0  0  0  0
    3.1708   11.4451   41.5056 H   0  0  0  0  0
    3.4893   10.8196   43.1421 H   0  0  0  0  0
    2.8084   12.6408   45.3816 H   0  0  0  0  0
    4.1057   12.4239   44.1812 H   0  0  0  0  0
    3.7060   14.0542   44.7754 H   0  0  0  0  0
    1.0301   10.8277   39.8159 H   0  0  0  0  0
   -1.1015    8.8321   40.3415 H   0  0  0  0  0
    1.8199    8.1076   39.9174 H   0  0  0  0  0
    0.8874    7.8933   41.4193 H   0  0  0  0  0
    0.4627    6.9558   39.9661 H   0  0  0  0  0
   -0.4679    7.9965   38.0569 H   0  0  0  0  0
    0.6541    9.4171   37.9496 H   0  0  0  0  0
   -1.9030   11.8242   37.4796 H   0  0  0  0  0
   -0.2468   11.5553   38.0328 H   0  0  0  0  0
  1  2  1  0  0  0
  2  3  1  0  0  0
  2 10  1  0  0  0
  3  4  1  0  0  0
  3  5  1  0  0  0
  5  6  1  0  0  0
  6  7  2  0  0  0
  6  8  1  0  0  0
  6  9  1  0  0  0
 10 11  2  0  0  0
 10 12  1  0  0  0
 12 13  1  0  0  0
 13 14  1  0  0  0
 13 16  1  0  0  0
 14 15  2  0  0  0
 14 20  1  0  0  0
 16 17  1  0  0  0
 17 18  1  0  0  0
 18 19  1  0  0  0
 20 21  1  0  0  0
 21 22  1  0  0  0
 21 24  1  0  0  0
 22 23  2  0  0  0
 22 27  1  0  0  0
 24 25  1  0  0  0
 24 26  1  0  0  0
 27 28  1  0  0  0
 28 29  1  0  0  0
 28 31  1  0  0  0
 29 30  2  0  0  0
 29 35  1  0  0  0
 31 32  1  0  0  0
 31 33  1  0  0  0
 32 34  1  0  0  0
 35 36  1  0  0  0
 36 37  1  0  0  0
 36 38  1  0  0  0
 38 39  1  0  0  0
 39 40  2  0  0  0
 39 41  1  0  0  0
  1 42  1  0  0  0
  1 43  1  0  0  0
  1 44  1  0  0  0
  2 45  1  0  0  0
  3 46  1  0  0  0
  4 47  1  0  0  0
  4 48  1  0  0  0
  4 49  1  0  0  0
  8 50  1  0  0  0
  9 51  1  0  0  0
 12 52  1  0  0  0
 13 53  1  0  0  0
 16 54  1  0  0  0
 16 55  1  0  0  0
 17 56  1  0  0  0
 17 57  1  0  0  0
 19 58  1  0  0  0
 19 59  1  0  0  0
 19 60  1  0  0  0
 20 61  1  0  0  0
 21 62  1  0  0  0
 24 63  1  0  0  0
 25 64  1  0  0  0
 25 65  1  0  0  0
 25 66  1  0  0  0
 26 67  1  0  0  0
 26 68  1  0  0  0
 26 69  1  0  0  0
 27 70  1  0  0  0
 28 71  1  0  0  0
 31 72  1  0  0  0
 32 73  1  0  0  0
 32 74  1  0  0  0
 33 75  1  0  0  0
 33 76  1  0  0  0
 33 77  1  0  0  0
 34 78  1  0  0  0
 34 79  1  0  0  0
 34 80  1  0  0  0
 35 81  1  0  0  0
 36 82  1  0  0  0
 37 83  1  0  0  0
 37 84  1  0  0  0
 37 85  1  0  0  0
 38 86  1  0  0  0
 38 87  1  0  0  0
 41 88  1  0  0  0
 41 89  1  0  0  0
M  END
$$$$
