4kpz_ligand
  -I-interpret- 

 26 27  0  0  0  0  0  0  0  0999 V2000
   83.7350   35.4370   35.3660 C   0  0  0  0  0
   85.0500   35.1550   35.6700 C   0  0  0  0  0
   85.9240   34.7170   34.6970 C   0  0  0  0  0
   85.4850   34.5570   33.3990 C   0  0  0  0  0
   84.1690   34.8510   33.1150 C   0  0  0  0  0
   83.2830   35.2890   34.0740 C   0  0  0  0  0
   83.6710   34.7030   31.7740 N   0  0  0  0  0
   84.3170   34.0150   30.9770 O   0  0  0  0  0
   82.6130   35.2890   31.5280 O   0  0  0  0  0
   87.2580   34.4300   35.0530 N   0  0  0  0  0
   87.4360   33.3110   35.9430 C   0  0  0  0  0
   88.6380   33.5490   36.8190 C   0  0  0  0  0
   89.8310   33.8150   35.9520 C   0  0  0  0  0
   90.9380   33.3990   36.2610 O   0  0  0  0  0
   89.5730   34.5600   34.8180 N   0  0  0  0  0
   88.3320   34.9250   34.3300 C   0  0  0  0  0
   88.2230   35.6290   33.3350 O   0  0  0  0  0
   83.0547   35.7764   36.1470 H   0  0  0  0  0
   85.4037   35.2799   36.6934 H   0  0  0  0  0
   86.1611   34.2073   32.6188 H   0  0  0  0  0
   82.2480   35.5133   33.8161 H   0  0  0  0  0
   87.5876   32.4036   35.3584 H   0  0  0  0  0
   86.5492   33.1996   36.5670 H   0  0  0  0  0
   88.8219   32.6697   37.4364 H   0  0  0  0  0
   88.4562   34.4070   37.4662 H   0  0  0  0  0
   90.3835   34.8740   34.2843 H   0  0  0  0  0
  1  2  4  0  0  0
  1  6  4  0  0  0
  2  3  4  0  0  0
  3  4  4  0  0  0
  3 10  1  0  0  0
  4  5  4  0  0  0
  5  6  4  0  0  0
  5  7  1  0  0  0
  7  8  2  0  0  0
  7  9  2  0  0  0
 10 11  1  0  0  0
 10 16  1  0  0  0
 11 12  1  0  0  0
 12 13  1  0  0  0
 13 14  2  0  0  0
 13 15  1  0  0  0
 15 16  1  0  0  0
 16 17  2  0  0  0
  1 18  1  0  0  0
  2 19  1  0  0  0
  4 20  1  0  0  0
  6 21  1  0  0  0
 11 22  1  0  0  0
 11 23  1  0  0  0
 12 24  1  0  0  0
 12 25  1  0  0  0
 15 26  1  0  0  0
M  END
$$$$
