5er2_ligand
  -I-interpret- 

143146  0  0  0  0  0  0  0  0999 V2000
    1.8910   27.1630   20.0240 O   0  0  0  0  0
    2.6450   26.3830   19.4510 C   0  0  0  0  0
    2.5120   24.9680   19.4990 O   0  0  0  0  0
    1.4250   24.4700   20.2720 C   0  0  0  0  0
    1.5230   22.9370   20.2300 C   0  0  0  0  0
    0.0820   24.9150   19.6930 C   0  0  0  0  0
    1.5460   24.9270   21.7290 C   0  0  0  0  0
    3.6800   26.7560   18.7220 N   0  0  0  0  0
    4.0640   28.1530   18.4910 C   0  0  0  0  0
    3.2970   28.7290   17.3100 C   0  0  0  0  0
    2.9620   28.0120   16.3730 O   0  0  0  0  0
    5.5660   28.2490   18.2070 C   0  0  0  0  0
    6.3520   28.1020   19.5110 C   0  0  0  0  0
    5.9790   28.8470   20.6230 C   0  0  0  0  0
    7.4280   27.2250   19.5620 C   0  0  0  0  0
    6.6930   28.7160   21.8090 C   0  0  0  0  0
    8.1370   27.1000   20.7510 C   0  0  0  0  0
    7.7710   27.8400   21.8690 C   0  0  0  0  0
    3.0910   30.0400   17.3820 N   0  0  0  0  0
    2.3720   30.7220   16.2530 C   0  0  0  0  0
    3.0440   32.0620   15.9940 C   0  0  0  0  0
    2.6860   33.0900   16.5650 O   0  0  0  0  0
    0.9320   30.9740   16.6510 C   0  0  0  0  0
    0.1370   31.3760   15.4140 C   0  0  0  0  0
    0.5090   31.0740   14.1060 N   0  0  0  0  0
   -1.0600   32.1140   15.3660 C   0  0  0  0  0
   -0.4580   31.6090   13.2570 C   0  0  0  0  0
   -1.4260   32.2670   14.0280 N   0  0  0  0  0
    4.0320   32.0130   15.1300 N   0  0  0  0  0
    4.9180   33.1770   14.9660 C   0  0  0  0  0
    6.3790   32.7570   15.1140 C   0  0  0  0  0
    6.7400   32.3700   16.5450 C   0  0  0  0  0
    6.3080   33.4030   17.5880 C   0  0  0  0  0
    8.2320   32.0600   16.6920 C   0  0  0  0  0
    6.5800   32.8580   18.9960 C   0  0  0  0  0
    8.5440   31.5320   18.0930 C   0  0  0  0  0
    8.0540   32.4910   19.1790 C   0  0  0  0  0
    4.6570   33.8330   13.6040 C   0  0  0  0  0
    5.2410   33.0280   12.5730 O   0  0  0  0  0
    3.1620   33.9930   13.3430 C   0  0  0  0  0
    2.9580   35.1140   12.4140 N   0  0  0  0  0
    2.5730   34.8420   11.0210 C   0  0  0  0  0
    1.1240   34.3860   10.9140 C   0  0  0  0  0
    0.1630   35.5610   10.9230 C   0  0  0  0  0
    0.8930   33.4470    9.7460 C   0  0  0  0  0
    3.0430   36.3530   12.8660 C   0  0  0  0  0
    3.2620   36.5440   14.0650 O   0  0  0  0  0
    3.0340   37.3660   12.0150 N   0  0  0  0  0
    2.9300   38.7370   12.5440 C   0  0  0  0  0
    1.4770   39.1560   12.6560 C   0  0  0  0  0
    0.7080   39.0870   11.6980 O   0  0  0  0  0
    3.6880   39.6980   11.6440 C   0  0  0  0  0
    3.8990   41.0230   12.3560 C   0  0  0  0  0
    4.0770   42.1490   11.3510 C   0  0  0  0  0
    3.7560   43.4800   12.0150 C   0  0  0  0  0
    3.8870   44.5620   11.0270 N   0  3  0  0  0
    1.0510   39.6000   13.8260 N   0  0  0  0  0
   -0.3710   39.9870   13.9450 C   0  0  0  0  0
   -0.4890   41.2800   14.7380 C   0  0  0  0  0
   -0.2760   42.3520   14.1700 O   0  0  0  0  0
   -1.1590   38.8810   14.6350 C   0  0  0  0  0
   -2.3310   38.2850   13.8600 C   0  0  0  0  0
   -3.4900   37.9290   14.5490 C   0  0  0  0  0
   -2.3070   38.0710   12.4850 C   0  0  0  0  0
   -4.5840   37.3830   13.8890 C   0  0  0  0  0
   -3.3950   37.5240   11.8100 C   0  0  0  0  0
   -4.5450   37.1760   12.5140 C   0  0  0  0  0
   -0.7930   41.1760   16.0170 O   0  0  0  0  0
    2.4836   22.6243   20.6393 H   0  0  0  0  0
    0.7163   22.5062   20.8231 H   0  0  0  0  0
    1.4384   22.5969   19.1979 H   0  0  0  0  0
   -0.7272   24.4746   20.2755 H   0  0  0  0  0
    0.0119   26.0019   19.7351 H   0  0  0  0  0
    0.0071   24.5847   18.6570 H   0  0  0  0  0
    1.4782   26.0139   21.7743 H   0  0  0  0  0
    0.7391   24.4866   22.3148 H   0  0  0  0  0
    2.5064   24.6045   22.1310 H   0  0  0  0  0
    4.2490   26.0268   18.2919 H   0  0  0  0  0
    3.8243   28.7232   19.3885 H   0  0  0  0  0
    5.7866   29.2189   17.7613 H   0  0  0  0  0
    5.8542   27.4521   17.5214 H   0  0  0  0  0
    5.1316   29.5302   20.5660 H   0  0  0  0  0
    7.7117   26.6445   18.6842 H   0  0  0  0  0
    6.4092   29.2968   22.6866 H   0  0  0  0  0
    8.9851   26.4175   20.8069 H   0  0  0  0  0
    8.3319   27.7331   22.7975 H   0  0  0  0  0
    3.4151   30.5732   18.1889 H   0  0  0  0  0
    2.4038   30.0955   15.3616 H   0  0  0  0  0
    0.8900   31.7738   17.3903 H   0  0  0  0  0
    0.5064   30.0680   17.0825 H   0  0  0  0  0
   -1.6073   32.4999   16.2260 H   0  0  0  0  0
   -0.4610   31.5288   12.1700 H   0  0  0  0  0
    4.1848   31.1713   14.5746 H   0  0  0  0  0
    4.7063   33.9090   15.7454 H   0  0  0  0  0
    7.0011   33.6060   14.8304 H   0  0  0  0  0
    6.5417   31.8848   14.4809 H   0  0  0  0  0
    6.1706   31.4624   16.7453 H   0  0  0  0  0
    5.2426   33.6052   17.4776 H   0  0  0  0  0
    6.8724   34.3238   17.4409 H   0  0  0  0  0
    8.7984   32.9769   16.5287 H   0  0  0  0  0
    8.5056   31.2987   15.9614 H   0  0  0  0  0
    5.9796   31.9599   19.1409 H   0  0  0  0  0
    6.3235   33.6304   19.7211 H   0  0  0  0  0
    9.6248   31.4273   18.1885 H   0  0  0  0  0
    8.0348   30.5769   18.2221 H   0  0  0  0  0
    8.1654   31.9982   20.1448 H   0  0  0  0  0
    8.6435   33.4058   19.1175 H   0  0  0  0  0
    5.1078   34.8254   13.6073 H   0  0  0  0  0
    5.0791   33.4364   11.7194 H   0  0  0  0  0
    2.6436   34.1926   14.2808 H   0  0  0  0  0
    2.7638   33.0765   12.9076 H   0  0  0  0  0
    3.2119   34.0463   10.6379 H   0  0  0  0  0
    2.6859   35.7625   10.4482 H   0  0  0  0  0
    0.9100   33.8007   11.8083 H   0  0  0  0  0
    0.2802   36.1175   11.8529 H   0  0  0  0  0
    0.3811   36.2136   10.0776 H   0  0  0  0  0
   -0.8599   35.1927   10.8450 H   0  0  0  0  0
    1.1546   33.9536    8.8170 H   0  0  0  0  0
    1.5156   32.5603    9.8656 H   0  0  0  0  0
   -0.1567   33.1545    9.7187 H   0  0  0  0  0
    3.0979   37.2007   11.0105 H   0  0  0  0  0
    3.3713   38.7617   13.5404 H   0  0  0  0  0
    3.1106   39.8681   10.7353 H   0  0  0  0  0
    4.6578   39.2666   11.3961 H   0  0  0  0  0
    4.7962   40.9540   12.9712 H   0  0  0  0  0
    3.0256   41.2352   12.9726 H   0  0  0  0  0
    3.4036   41.9926   10.5083 H   0  0  0  0  0
    5.1080   42.1596   10.9973 H   0  0  0  0  0
    4.4488   43.6528   12.8385 H   0  0  0  0  0
    2.7362   43.4589   12.3992 H   0  0  0  0  0
    3.6719   45.4545   11.4715 H   0  0  0  0  0
    4.8420   44.5803   10.6693 H   0  0  0  0  0
    3.2375   44.3987   10.2576 H   0  0  0  0  0
    1.6840   39.6734   14.6224 H   0  0  0  0  0
   -0.7808   40.1411   12.9468 H   0  0  0  0  0
   -1.5898   39.3331   15.5284 H   0  0  0  0  0
   -0.4550   38.0632   14.7889 H   0  0  0  0  0
   -3.5387   38.0822   15.6271 H   0  0  0  0  0
   -1.4130   38.3386   11.9218 H   0  0  0  0  0
   -5.4781   37.1153   14.4520 H   0  0  0  0  0
   -3.3467   37.3684   10.7322 H   0  0  0  0  0
   -5.4024   36.7475   11.9950 H   0  0  0  0  0
   -0.9153   40.2507   16.2415 H   0  0  0  0  0
  9  8  1  0  0  0
  9 12  1  0  0  0
 10  9  1  0  0  0
 10 11  2  0  0  0
 12 13  1  0  0  0
 13 14  4  0  0  0
 13 15  4  0  0  0
 15 17  4  0  0  0
 17 18  4  0  0  0
 16 18  4  0  0  0
 14 16  4  0  0  0
 20 19  1  0  0  0
 20 23  1  0  0  0
 21 20  1  0  0  0
 21 22  2  0  0  0
 23 24  1  0  0  0
 24 25  4  0  0  0
 24 26  4  0  0  0
 26 28  4  0  0  0
 28 27  4  0  0  0
 25 27  4  0  0  0
 19 10  1  0  0  0
 48 49  1  0  0  0
 49 52  1  0  0  0
 49 50  1  0  0  0
 50 51  2  0  0  0
 52 53  1  0  0  0
 53 54  1  0  0  0
 54 55  1  0  0  0
 55 56  1  0  0  0
 57 58  1  0  0  0
 58 61  1  0  0  0
 58 59  1  0  0  0
 59 60  2  0  0  0
 59 68  1  0  0  0
 61 62  1  0  0  0
 62 63  4  0  0  0
 62 64  4  0  0  0
 64 66  4  0  0  0
 66 67  4  0  0  0
 65 67  4  0  0  0
 63 65  4  0  0  0
 50 57  1  0  0  0
  2  1  2  0  0  0
  2  3  1  0  0  0
  3  4  1  0  0  0
  4  5  1  0  0  0
  4  6  1  0  0  0
  4  7  1  0  0  0
  8  2  1  0  0  0
 29 21  1  0  0  0
 30 29  1  0  0  0
 30 31  1  0  0  0
 38 30  1  0  0  0
 31 32  1  0  0  0
 32 33  1  0  0  0
 32 34  1  0  0  0
 33 35  1  0  0  0
 34 36  1  0  0  0
 35 37  1  0  0  0
 36 37  1  0  0  0
 38 39  1  0  0  0
 40 38  1  0  0  0
 41 40  1  0  0  0
 41 42  1  0  0  0
 46 41  1  0  0  0
 42 43  1  0  0  0
 43 44  1  0  0  0
 43 45  1  0  0  0
 46 47  2  0  0  0
 46 48  1  0  0  0
  5 69  1  0  0  0
  5 70  1  0  0  0
  5 71  1  0  0  0
  6 72  1  0  0  0
  6 73  1  0  0  0
  6 74  1  0  0  0
  7 75  1  0  0  0
  7 76  1  0  0  0
  7 77  1  0  0  0
  8 78  1  0  0  0
  9 79  1  0  0  0
 12 80  1  0  0  0
 12 81  1  0  0  0
 14 82  1  0  0  0
 15 83  1  0  0  0
 16 84  1  0  0  0
 17 85  1  0  0  0
 18 86  1  0  0  0
 19 87  1  0  0  0
 20 88  1  0  0  0
 23 89  1  0  0  0
 23 90  1  0  0  0
 26 91  1  0  0  0
 27 92  1  0  0  0
 29 93  1  0  0  0
 30 94  1  0  0  0
 31 95  1  0  0  0
 31 96  1  0  0  0
 32 97  1  0  0  0
 33 98  1  0  0  0
 33 99  1  0  0  0
 34100  1  0  0  0
 34101  1  0  0  0
 35102  1  0  0  0
 35103  1  0  0  0
 36104  1  0  0  0
 36105  1  0  0  0
 37106  1  0  0  0
 37107  1  0  0  0
 38108  1  0  0  0
 39109  1  0  0  0
 40110  1  0  0  0
 40111  1  0  0  0
 42112  1  0  0  0
 42113  1  0  0  0
 43114  1  0  0  0
 44115  1  0  0  0
 44116  1  0  0  0
 44117  1  0  0  0
 45118  1  0  0  0
 45119  1  0  0  0
 45120  1  0  0  0
 48121  1  0  0  0
 49122  1  0  0  0
 52123  1  0  0  0
 52124  1  0  0  0
 53125  1  0  0  0
 53126  1  0  0  0
 54127  1  0  0  0
 54128  1  0  0  0
 55129  1  0  0  0
 55130  1  0  0  0
 56131  1  0  0  0
 56132  1  0  0  0
 56133  1  0  0  0
 57134  1  0  0  0
 58135  1  0  0  0
 61136  1  0  0  0
 61137  1  0  0  0
 63138  1  0  0  0
 64139  1  0  0  0
 65140  1  0  0  0
 66141  1  0  0  0
 67142  1  0  0  0
 68143  1  0  0  0
M  END
$$$$
