3ewh_ligand
  -I-interpret- 

 58 63  0  0  0  0  0  0  0  0999 V2000
   16.8160   -8.1090    1.3340 C   0  0  0  0  0
   15.8220   -8.7540    2.2110 N   0  0  0  0  0
   15.8620   -8.6010    3.5410 C   0  0  0  0  0
   16.7330   -7.7290    4.0900 N   0  0  0  0  0
   15.0370   -9.3280    4.3250 N   0  0  0  0  0
   15.0690   -9.1880    5.6480 C   0  0  0  0  0
   15.9610   -8.2850    6.2320 C   0  0  0  0  0
   16.8120   -7.5250    5.4230 C   0  0  0  0  0
   17.7600   -6.6090    5.9360 C   0  0  0  0  0
   18.8230   -6.2300    5.1060 C   0  0  0  0  0
   19.7820   -5.3390    5.5830 C   0  0  0  0  0
   19.6830   -4.8440    6.8790 C   0  0  0  0  0
   18.6790   -5.2100    7.6710 N   0  0  0  0  0
   17.7220   -6.0710    7.2430 C   0  0  0  0  0
   16.6970   -6.4260    8.0760 O   0  0  0  0  0
   16.4890   -5.8270    9.2910 C   0  0  0  0  0
   15.7870   -4.6190    9.3570 C   0  0  0  0  0
   15.5420   -4.0150   10.5940 C   0  0  0  0  0
   16.9120   -6.4520   10.4710 C   0  0  0  0  0
   17.6040   -7.6720   10.4210 C   0  0  0  0  0
   18.0360   -8.2900   11.5930 C   0  0  0  0  0
   17.7780   -7.6890   12.8270 C   0  0  0  0  0
   17.0980   -6.4710   12.8880 C   0  0  0  0  0
   16.6600   -5.8480   11.7130 C   0  0  0  0  0
   15.9600   -4.6320   11.7770 C   0  0  0  0  0
   15.7480   -4.0550   12.9760 N   0  0  0  0  0
   14.5950   -3.5640   13.4570 C   0  0  0  0  0
   13.4230   -3.4250   12.8230 N   0  0  0  0  0
   12.5670   -2.8950   13.7070 C   0  0  0  0  0
   11.2210   -2.5280   13.6320 C   0  0  0  0  0
   10.5850   -1.9860   14.7570 C   0  0  0  0  0
    9.1150   -1.5770   14.6740 C   0  0  0  0  0
    8.9350   -0.8550   13.5730 F   0  0  0  0  0
    8.7540   -0.8690   15.7530 F   0  0  0  0  0
    8.3730   -2.6640   14.6040 F   0  0  0  0  0
   11.2860   -1.8160   15.9530 C   0  0  0  0  0
   12.6270   -2.1860   16.0300 C   0  0  0  0  0
   13.2590   -2.7210   14.9080 C   0  0  0  0  0
   14.5040   -3.1400   14.7160 N   0  0  0  0  0
   16.7655   -7.0279    1.4633 H   0  0  0  0  0
   17.8134   -8.4614    1.5967 H   0  0  0  0  0
   16.6014   -8.3625    0.2958 H   0  0  0  0  0
   15.0885   -9.3288    1.7963 H   0  0  0  0  0
   14.4001   -9.7771    6.2753 H   0  0  0  0  0
   15.9936   -8.1730    7.3157 H   0  0  0  0  0
   18.8992   -6.6292    4.0946 H   0  0  0  0  0
   20.6079   -5.0306    4.9420 H   0  0  0  0  0
   20.4362   -4.1487    7.2496 H   0  0  0  0  0
   15.4299   -4.1472    8.4416 H   0  0  0  0  0
   15.0223   -3.0578   10.6363 H   0  0  0  0  0
   17.8052   -8.1401    9.4574 H   0  0  0  0  0
   18.5726   -9.2377   11.5468 H   0  0  0  0  0
   18.1088   -8.1727   13.7461 H   0  0  0  0  0
   16.9074   -6.0034   13.8540 H   0  0  0  0  0
   16.5590   -3.9828   13.5904 H   0  0  0  0  0
   10.6679   -2.6627   12.7024 H   0  0  0  0  0
   10.7849   -1.3947   16.8245 H   0  0  0  0  0
   13.1786   -2.0581   16.9614 H   0  0  0  0  0
  1  2  1  0  0  0
  2  3  1  0  0  0
  3  4  4  0  0  0
  3  5  4  0  0  0
  4  8  4  0  0  0
  5  6  4  0  0  0
  6  7  4  0  0  0
  7  8  4  0  0  0
  8  9  1  0  0  0
  9 10  4  0  0  0
  9 14  4  0  0  0
 10 11  4  0  0  0
 11 12  4  0  0  0
 12 13  4  0  0  0
 13 14  4  0  0  0
 14 15  1  0  0  0
 15 16  1  0  0  0
 16 17  4  0  0  0
 16 19  4  0  0  0
 17 18  4  0  0  0
 18 25  4  0  0  0
 19 20  4  0  0  0
 19 24  4  0  0  0
 20 21  4  0  0  0
 21 22  4  0  0  0
 22 23  4  0  0  0
 23 24  4  0  0  0
 24 25  4  0  0  0
 25 26  1  0  0  0
 26 27  1  0  0  0
 27 28  4  0  0  0
 27 39  4  0  0  0
 28 29  4  0  0  0
 29 30  4  0  0  0
 29 38  4  0  0  0
 30 31  4  0  0  0
 31 32  1  0  0  0
 31 36  4  0  0  0
 32 33  1  0  0  0
 32 34  1  0  0  0
 32 35  1  0  0  0
 36 37  4  0  0  0
 37 38  4  0  0  0
 38 39  4  0  0  0
  1 40  1  0  0  0
  1 41  1  0  0  0
  1 42  1  0  0  0
  2 43  1  0  0  0
  6 44  1  0  0  0
  7 45  1  0  0  0
 10 46  1  0  0  0
 11 47  1  0  0  0
 12 48  1  0  0  0
 17 49  1  0  0  0
 18 50  1  0  0  0
 20 51  1  0  0  0
 21 52  1  0  0  0
 22 53  1  0  0  0
 23 54  1  0  0  0
 26 55  1  0  0  0
 30 56  1  0  0  0
 36 57  1  0  0  0
 37 58  1  0  0  0
M  END
$$$$
