5q0l_ligand
  -I-interpret- 

 68 72  0  0  0  0  0  0  0  0999 V2000
   12.9300   15.7100   -2.2710 N   0  0  0  0  0
   12.4950   19.6970   -4.4660 C   0  0  0  0  0
   13.2890   18.4180   -4.7460 C   0  0  0  0  0
   11.4780   16.8110   -3.6720 C   0  0  0  0  0
   11.6040   15.8160   -2.6980 C   0  0  0  0  0
   16.0130   16.2820   -3.6240 C   0  0  0  0  0
   16.7390   18.0730   -1.6460 C   0  0  0  0  0
   17.7280   17.4950   -2.4210 C   0  0  0  0  0
   19.1700   17.8450   -2.1830 C   0  0  0  0  0
   13.0030   16.6210   -6.5930 C   0  0  0  0  0
   12.7790   21.9720   -1.6800 C   0  0  0  0  0
    9.1340   16.3800   -3.8430 C   0  0  0  0  0
   13.8750   18.5770   -8.6680 C   0  0  0  0  0
   13.5910   16.6120   -2.9760 C   0  0  0  0  0
   12.7890   17.3140   -3.8420 N   0  0  0  0  0
   11.9030   20.3030   -5.3470 O   0  0  0  0  0
   12.5150   20.0800   -3.1880 N   0  0  0  0  0
   11.8440   21.2600   -2.6560 C   0  0  0  0  0
   12.0990   23.1620   -1.0220 C   0  0  0  0  0
   10.8230   22.7420   -0.3130 C   0  0  0  0  0
    9.8600   22.0560   -1.2960 C   0  0  0  0  0
   10.5310   20.8580   -1.9720 C   0  0  0  0  0
   13.6190   17.9620   -6.1970 C   0  0  0  0  0
   13.5950   16.1150   -7.9210 C   0  0  0  0  0
   13.3810   17.1240   -9.0600 C   0  0  0  0  0
   13.3200   19.0170   -7.2700 C   0  0  0  0  0
   10.4780   15.0970   -2.2930 C   0  0  0  0  0
    9.2490   15.3900   -2.8740 C   0  0  0  0  0
   10.2550   17.1140   -4.2620 C   0  0  0  0  0
   15.0290   16.8630   -2.8340 C   0  0  0  0  0
   15.4120   17.7670   -1.8460 C   0  0  0  0  0
   17.3500   16.5950   -3.4150 C   0  0  0  0  0
   19.9910   17.5540   -3.2960 O   0  0  0  0  0
   14.3083   18.7186   -4.5036 H   0  0  0  0  0
   15.7353   15.5791   -4.4094 H   0  0  0  0  0
   17.0146   18.7816   -0.8650 H   0  0  0  0  0
   19.5245   17.2513   -1.3404 H   0  0  0  0  0
   19.2282   18.9170   -1.9946 H   0  0  0  0  0
   11.9279   16.7519   -6.7159 H   0  0  0  0  0
   13.2195   15.8917   -5.8124 H   0  0  0  0  0
   13.6455   22.3331   -2.2340 H   0  0  0  0  0
   13.0672   21.2658   -0.9014 H   0  0  0  0  0
    8.1594   16.5894   -4.2839 H   0  0  0  0  0
   13.5121   19.2786   -9.4191 H   0  0  0  0  0
   14.9639   18.5693   -8.6195 H   0  0  0  0  0
   13.0407   19.5022   -2.5321 H   0  0  0  0  0
   11.5996   21.9437   -3.4690 H   0  0  0  0  0
   11.8453   23.8886   -1.7939 H   0  0  0  0  0
   12.7808   23.5900   -0.2871 H   0  0  0  0  0
   10.3381   23.6280    0.0969 H   0  0  0  0  0
   11.0749   22.0409    0.4827 H   0  0  0  0  0
    9.5713   22.7747   -2.0629 H   0  0  0  0  0
    8.9881   21.7042   -0.7445 H   0  0  0  0  0
   10.7537   20.1117   -1.2094 H   0  0  0  0  0
    9.8532   20.4654   -2.7301 H   0  0  0  0  0
   14.6997   17.8246   -6.1620 H   0  0  0  0  0
   13.0939   15.1846   -8.1879 H   0  0  0  0  0
   14.6671   15.9715   -7.7864 H   0  0  0  0  0
   13.9568   16.7901   -9.9232 H   0  0  0  0  0
   12.3135   17.1738   -9.2745 H   0  0  0  0  0
   12.2395   19.1381   -7.3472 H   0  0  0  0  0
   13.8021   19.9515   -6.9828 H   0  0  0  0  0
   10.5608   14.3190   -1.5341 H   0  0  0  0  0
    8.3630   14.8353   -2.5651 H   0  0  0  0  0
   10.1704   17.8919   -5.0209 H   0  0  0  0  0
   14.6513   18.2380   -1.2234 H   0  0  0  0  0
   18.1143   16.1299   -4.0375 H   0  0  0  0  0
   20.8983   17.7945   -3.0945 H   0  0  0  0  0
  1  5  4  0  0  0
 14  1  4  0  0  0
  3  2  1  0  0  0
  2 16  2  0  0  0
  2 17  1  0  0  0
  3 15  1  0  0  0
 23  3  1  0  0  0
  4  5  4  0  0  0
 15  4  4  0  0  0
  4 29  4  0  0  0
  5 27  4  0  0  0
 30  6  4  0  0  0
  6 32  4  0  0  0
  8  7  4  0  0  0
  7 31  4  0  0  0
  8  9  1  0  0  0
 32  8  4  0  0  0
  9 33  1  0  0  0
 23 10  1  0  0  0
 10 24  1  0  0  0
 18 11  1  0  0  0
 11 19  1  0  0  0
 12 28  4  0  0  0
 29 12  4  0  0  0
 13 25  1  0  0  0
 26 13  1  0  0  0
 15 14  4  0  0  0
 14 30  1  0  0  0
 17 18  1  0  0  0
 18 22  1  0  0  0
 19 20  1  0  0  0
 21 20  1  0  0  0
 22 21  1  0  0  0
 23 26  1  0  0  0
 24 25  1  0  0  0
 27 28  4  0  0  0
 30 31  4  0  0  0
  3 34  1  0  0  0
  6 35  1  0  0  0
  7 36  1  0  0  0
  9 37  1  0  0  0
  9 38  1  0  0  0
 10 39  1  0  0  0
 10 40  1  0  0  0
 11 41  1  0  0  0
 11 42  1  0  0  0
 12 43  1  0  0  0
 13 44  1  0  0  0
 13 45  1  0  0  0
 17 46  1  0  0  0
 18 47  1  0  0  0
 19 48  1  0  0  0
 19 49  1  0  0  0
 20 50  1  0  0  0
 20 51  1  0  0  0
 21 52  1  0  0  0
 21 53  1  0  0  0
 22 54  1  0  0  0
 22 55  1  0  0  0
 23 56  1  0  0  0
 24 57  1  0  0  0
 24 58  1  0  0  0
 25 59  1  0  0  0
 25 60  1  0  0  0
 26 61  1  0  0  0
 26 62  1  0  0  0
 27 63  1  0  0  0
 28 64  1  0  0  0
 29 65  1  0  0  0
 31 66  1  0  0  0
 32 67  1  0  0  0
 33 68  1  0  0  0
M  END
$$$$
