5l6p_ligand
  -I-interpret- 

 35 37  0  0  0  0  0  0  0  0999 V2000
   11.3810   -2.4350   -5.9620 C   0  0  0  0  0
   12.2430   -1.6300   -6.6900 C   0  0  0  0  0
   12.5340   -1.9420   -8.0130 C   0  0  0  0  0
   15.4440    0.1170   -9.2410 C   0  0  0  0  0
   14.8530    1.1740   -9.9880 C   0  0  0  0  0
   15.6220    2.1640  -10.5280 C   0  0  0  0  0
   17.0010    2.2080  -10.3070 C   0  0  0  0  0
   17.6110    1.1790   -9.6220 C   0  0  0  0  0
   16.8490    0.1340   -9.0540 C   0  0  0  0  0
   16.7360   -1.7920   -7.8480 C   0  0  0  0  0
   17.5920    4.3100  -11.5590 C   0  0  0  0  0
   18.8010    4.9960  -12.1590 C   0  0  0  0  0
   10.7920   -3.5370   -6.5490 C   0  0  0  0  0
   16.4720    4.7980  -11.6720 O   0  0  0  0  0
   17.8730    3.1620  -10.8910 N   0  0  0  0  0
   17.5080   -0.8350   -8.3450 N   0  0  0  0  0
   15.4070   -1.9270   -7.9290 N   0  0  0  0  0
   14.7470   -0.9880   -8.6200 C   0  0  0  0  0
   13.3950   -1.1070   -8.7510 N   0  0  0  0  0
   11.9400   -3.0530   -8.6020 C   0  0  0  0  0
   11.0860   -3.8550   -7.8600 C   0  0  0  0  0
   11.1669   -2.1966   -4.9201 H   0  0  0  0  0
   12.6926   -0.7525   -6.2253 H   0  0  0  0  0
   13.7726    1.1934  -10.1308 H   0  0  0  0  0
   15.1527    2.9329  -11.1417 H   0  0  0  0  0
   18.6959    1.1716   -9.5172 H   0  0  0  0  0
   17.2554   -2.5766   -7.2978 H   0  0  0  0  0
   18.6684    5.0857  -13.2372 H   0  0  0  0  0
   18.9087    5.9883  -11.7210 H   0  0  0  0  0
   19.6932    4.4061  -11.9492 H   0  0  0  0  0
   10.0971   -4.1540   -5.9793 H   0  0  0  0  0
   18.8666    2.9529  -10.7939 H   0  0  0  0  0
   12.9573   -0.5248   -9.4650 H   0  0  0  0  0
   12.1454   -3.2930   -9.6452 H   0  0  0  0  0
   10.6442   -4.7418   -8.3145 H   0  0  0  0  0
  2  1  4  0  0  0
  1 13  4  0  0  0
  3  2  4  0  0  0
 19  3  1  0  0  0
  3 20  4  0  0  0
  4  5  4  0  0  0
  4  9  4  0  0  0
 18  4  4  0  0  0
  5  6  4  0  0  0
  6  7  4  0  0  0
  8  7  4  0  0  0
  7 15  1  0  0  0
  9  8  4  0  0  0
  9 16  4  0  0  0
 10 16  4  0  0  0
 17 10  4  0  0  0
 11 12  1  0  0  0
 11 14  2  0  0  0
 15 11  1  0  0  0
 13 21  4  0  0  0
 18 17  4  0  0  0
 18 19  1  0  0  0
 20 21  4  0  0  0
  1 22  1  0  0  0
  2 23  1  0  0  0
  5 24  1  0  0  0
  6 25  1  0  0  0
  8 26  1  0  0  0
 10 27  1  0  0  0
 12 28  1  0  0  0
 12 29  1  0  0  0
 12 30  1  0  0  0
 13 31  1  0  0  0
 15 32  1  0  0  0
 19 33  1  0  0  0
 20 34  1  0  0  0
 21 35  1  0  0  0
M  END
$$$$
