5can_ligand
  -I-interpret- 

 55 58  0  0  0  0  0  0  0  0999 V2000
  -53.0750    1.5580  -19.6130 C   0  0  0  0  0
  -54.0750    2.5200  -19.8400 C   0  0  0  0  0
  -51.0540   -1.0920  -21.1080 C   0  0  0  0  0
  -54.3070    1.8440  -22.0850 C   0  0  0  0  0
  -53.2790    0.9140  -21.9500 C   0  0  0  0  0
  -52.6700    0.7400  -20.7020 C   0  0  0  0  0
  -49.5520   -0.8910  -21.3220 C   0  0  0  0  0
  -51.4850   -2.5300  -20.8210 C   0  0  0  0  0
  -52.3240    1.1770  -18.5410 N   0  0  0  0  0
  -50.5770   -0.4100  -17.8750 C   0  0  0  0  0
  -51.5270    0.1970  -18.8760 C   0  0  0  0  0
  -54.6540    2.6060  -21.0330 N   0  0  0  0  0
  -51.6900   -0.1000  -20.2220 N   0  0  0  0  0
  -54.9700    2.0530  -23.3080 N   0  0  0  0  0
  -55.0130    1.1970  -24.4050 C   0  0  0  0  0
  -56.1600    1.1320  -25.2140 C   0  0  0  0  0
  -56.1390    0.2810  -26.3160 C   0  0  0  0  0
  -55.0380   -0.4320  -26.5810 N   0  0  0  0  0
  -53.9750   -0.3920  -25.7730 C   0  0  0  0  0
  -53.9650    0.4450  -24.7370 N   0  0  0  0  0
  -52.7850   -1.0430  -26.0900 N   0  0  0  0  0
  -51.8100   -1.2230  -24.9800 C   0  0  0  0  0
  -50.6580   -1.9690  -25.7030 C   0  0  0  0  0
  -51.4320   -2.9640  -26.6030 C   0  0  0  0  0
  -52.8090   -2.3030  -26.8630 C   0  0  0  0  0
  -50.7000   -3.0580  -27.9490 C   0  0  0  0  0
  -51.5790   -4.2940  -25.8580 C   0  0  0  0  0
  -52.3010   -4.3900  -24.8680 O   0  0  0  0  0
  -50.9010   -5.3990  -26.2470 N   0  0  0  0  0
  -54.3750    3.1946  -19.0381 H   0  0  0  0  0
  -51.4625   -0.8837  -22.0969 H   0  0  0  0  0
  -52.9519    0.3272  -22.8083 H   0  0  0  0  0
  -49.0138   -1.2038  -20.4272 H   0  0  0  0  0
  -49.2242   -1.4890  -22.1724 H   0  0  0  0  0
  -49.3520    0.1624  -21.5183 H   0  0  0  0  0
  -51.2203   -2.7896  -19.7960 H   0  0  0  0  0
  -52.5635   -2.6178  -20.9525 H   0  0  0  0  0
  -50.9775   -3.2045  -21.5106 H   0  0  0  0  0
  -49.8949    0.3584  -17.5111 H   0  0  0  0  0
  -51.1445   -0.8192  -17.0392 H   0  0  0  0  0
  -50.0071   -1.2065  -18.3535 H   0  0  0  0  0
  -55.4775    2.9328  -23.4018 H   0  0  0  0  0
  -57.0415    1.7309  -24.9854 H   0  0  0  0  0
  -57.0148    0.1961  -26.9594 H   0  0  0  0  0
  -52.2147   -1.7658  -24.1258 H   0  0  0  0  0
  -51.5007   -0.2878  -24.5132 H   0  0  0  0  0
  -49.9636   -2.4566  -25.0188 H   0  0  0  0  0
  -49.9982   -1.3053  -26.2619 H   0  0  0  0  0
  -52.9739   -2.1207  -27.9249 H   0  0  0  0  0
  -53.6305   -2.9493  -26.5539 H   0  0  0  0  0
  -50.6713   -2.0731  -28.4151 H   0  0  0  0  0
  -49.6827   -3.4130  -27.7839 H   0  0  0  0  0
  -51.2280   -3.7544  -28.6004 H   0  0  0  0  0
  -51.0001   -6.2688  -25.7235 H   0  0  0  0  0
  -50.2909   -5.3619  -27.0636 H   0  0  0  0  0
  1  2  4  0  0  0
  6  1  4  0  0  0
  1  9  4  0  0  0
  2 12  4  0  0  0
  3  7  1  0  0  0
  3  8  1  0  0  0
 13  3  1  0  0  0
  5  4  4  0  0  0
  4 12  4  0  0  0
  4 14  1  0  0  0
  6  5  4  0  0  0
  6 13  4  0  0  0
  9 11  4  0  0  0
 11 10  1  0  0  0
 11 13  4  0  0  0
 14 15  1  0  0  0
 15 16  4  0  0  0
 15 20  4  0  0  0
 16 17  4  0  0  0
 17 18  4  0  0  0
 18 19  4  0  0  0
 19 20  4  0  0  0
 19 21  1  0  0  0
 21 22  1  0  0  0
 21 25  1  0  0  0
 22 23  1  0  0  0
 23 24  1  0  0  0
 24 25  1  0  0  0
 24 26  1  0  0  0
 24 27  1  0  0  0
 27 28  2  0  0  0
 27 29  1  0  0  0
  2 30  1  0  0  0
  3 31  1  0  0  0
  5 32  1  0  0  0
  7 33  1  0  0  0
  7 34  1  0  0  0
  7 35  1  0  0  0
  8 36  1  0  0  0
  8 37  1  0  0  0
  8 38  1  0  0  0
 10 39  1  0  0  0
 10 40  1  0  0  0
 10 41  1  0  0  0
 14 42  1  0  0  0
 16 43  1  0  0  0
 17 44  1  0  0  0
 22 45  1  0  0  0
 22 46  1  0  0  0
 23 47  1  0  0  0
 23 48  1  0  0  0
 25 49  1  0  0  0
 25 50  1  0  0  0
 26 51  1  0  0  0
 26 52  1  0  0  0
 26 53  1  0  0  0
 29 54  1  0  0  0
 29 55  1  0  0  0
M  END
$$$$
