1z71_ligand
  -I-interpret- 

 55 57  0  0  0  0  0  0  0  0999 V2000
   20.0150  -14.4520   25.9800 C   0  0  0  0  0
   20.0080  -15.8630   25.6670 C   0  0  0  0  0
   21.1590  -16.4500   25.0960 N   0  0  0  0  0
   22.3270  -15.7730   24.7830 C   0  0  0  0  0
   22.3750  -14.3660   25.0730 C   0  0  0  0  0
   21.2230  -13.7280   25.6780 C   0  0  0  0  0
   18.7320  -16.6920   25.8170 C   0  0  0  0  0
   18.0480  -17.0120   24.5060 C   0  0  0  0  0
   17.5600  -15.8210   23.7490 N   0  0  0  0  0
   18.2560  -15.2230   22.6700 C   0  0  0  0  0
   17.6350  -14.1230   22.1380 N   0  0  0  0  0
   18.2380  -13.4140   21.1620 C   0  0  0  0  0
   19.5230  -13.8110   20.6900 C   0  0  0  0  0
   20.1930  -14.9530   21.2110 C   0  0  0  0  0
   19.5470  -15.6850   22.2320 C   0  0  0  0  0
   16.3940  -13.7880   22.6310 O   0  0  0  0  0
   20.2830  -12.9060   19.4560 Cl  0  0  0  0  0
   17.5180  -12.1950   20.6020 C   0  0  0  0  0
   16.0640  -12.5320   20.2690 C   0  0  0  0  0
   15.1880  -11.5910   20.6320 N   0  0  0  0  0
   15.7710  -13.5730   19.6870 O   0  0  0  0  0
   13.7570  -11.8680   20.4670 C   0  0  0  0  0
   12.9560  -11.5960   21.6780 C   0  0  0  0  0
   13.1500  -10.3940   22.4510 C   0  0  0  0  0
   12.2640  -10.1810   23.5720 C   0  0  0  0  0
   11.2270  -11.1410   23.9240 C   0  0  0  0  0
   11.9040  -12.5330   22.0220 C   0  0  0  0  0
   11.0180  -12.3300   23.1430 C   0  0  0  0  0
   19.0440  -17.9000   26.3340 F   0  0  0  0  0
   17.8050  -16.0930   26.6000 F   0  0  0  0  0
   12.4230   -8.7350   24.4950 Cl  0  0  0  0  0
   21.1140  -17.7710   24.7870 O   0  0  0  0  0
   13.1740  -11.0330   19.3310 C   0  0  0  0  0
   19.1489  -13.9601   26.4227 H   0  0  0  0  0
   23.1766  -16.2877   24.3342 H   0  0  0  0  0
   23.2678  -13.7855   24.8405 H   0  0  0  0  0
   21.2723  -12.6646   25.9124 H   0  0  0  0  0
   17.1729  -17.6165   24.7443 H   0  0  0  0  0
   18.7866  -17.5074   23.8758 H   0  0  0  0  0
   16.6680  -15.4117   24.0268 H   0  0  0  0  0
   21.1713  -15.2528   20.8352 H   0  0  0  0  0
   20.0097  -16.5682   22.6724 H   0  0  0  0  0
   16.0716  -13.0053   22.1781 H   0  0  0  0  0
   18.0232  -11.8750   19.6907 H   0  0  0  0  0
   17.5337  -11.4021   21.3497 H   0  0  0  0  0
   15.5067  -10.7009   21.0149 H   0  0  0  0  0
   13.6977  -12.9344   20.2495 H   0  0  0  0  0
   13.9317   -9.6769   22.2002 H   0  0  0  0  0
   10.5983  -10.9549   24.7947 H   0  0  0  0  0
   11.7774  -13.4259   21.4097 H   0  0  0  0  0
   10.2296  -13.0426   23.3855 H   0  0  0  0  0
   21.9550  -18.0390   24.4095 H   0  0  0  0  0
   13.3051   -9.9745   19.5555 H   0  0  0  0  0
   13.6899  -11.2753   18.4019 H   0  0  0  0  0
   12.1119  -11.2548   19.2268 H   0  0  0  0  0
  1  2  4  0  0  0
  1  6  4  0  0  0
  2  3  4  0  0  0
  2  7  1  0  0  0
  3  4  4  0  0  0
  3 32  1  0  0  0
  4  5  4  0  0  0
  5  6  4  0  0  0
  7  8  1  0  0  0
  7 29  1  0  0  0
  7 30  1  0  0  0
  8  9  1  0  0  0
  9 10  1  0  0  0
 10 11  4  0  0  0
 10 15  4  0  0  0
 11 12  4  0  0  0
 11 16  1  0  0  0
 12 13  4  0  0  0
 12 18  1  0  0  0
 13 14  4  0  0  0
 13 17  1  0  0  0
 14 15  4  0  0  0
 18 19  1  0  0  0
 19 20  1  0  0  0
 19 21  2  0  0  0
 20 22  1  0  0  0
 22 23  1  0  0  0
 22 33  1  0  0  0
 23 24  4  0  0  0
 23 27  4  0  0  0
 24 25  4  0  0  0
 25 26  4  0  0  0
 25 31  1  0  0  0
 26 28  4  0  0  0
 27 28  4  0  0  0
  1 34  1  0  0  0
  4 35  1  0  0  0
  5 36  1  0  0  0
  6 37  1  0  0  0
  8 38  1  0  0  0
  8 39  1  0  0  0
  9 40  1  0  0  0
 14 41  1  0  0  0
 15 42  1  0  0  0
 16 43  1  0  0  0
 18 44  1  0  0  0
 18 45  1  0  0  0
 20 46  1  0  0  0
 22 47  1  0  0  0
 24 48  1  0  0  0
 26 49  1  0  0  0
 27 50  1  0  0  0
 28 51  1  0  0  0
 32 52  1  0  0  0
 33 53  1  0  0  0
 33 54  1  0  0  0
 33 55  1  0  0  0
M  END
$$$$
