6qlt_ligand
  -I-interpret- 

 52 55  0  0  0  0  0  0  0  0999 V2000
  -12.5560    8.5730    0.4490 C   0  0  0  0  0
  -11.2800    8.7750   -0.0940 C   0  0  0  0  0
  -10.1500    9.1230    0.6250 C   0  0  0  0  0
  -11.4630    9.0220    2.5620 C   0  0  0  0  0
  -17.9610    9.0650   -1.2520 C   0  0  0  0  0
  -24.6670    9.0540   -5.8240 C   0  0  0  0  0
  -23.6350    9.3430   -4.8860 C   0  0  0  0  0
  -23.0990    8.3260   -4.1350 C   0  0  0  0  0
  -22.1350    8.5620   -3.1760 C   0  0  0  0  0
  -23.1770   10.6490   -4.5820 C   0  0  0  0  0
  -22.1930   10.9060   -3.6070 C   0  0  0  0  0
  -21.6760    9.8630   -2.8550 C   0  0  0  0  0
  -19.3980    8.7470   -1.6450 C   0  0  0  0  0
  -19.3010    6.4260   -0.7180 C   0  0  0  0  0
  -20.0630    5.5650    0.3240 C   0  0  0  0  0
  -17.8110    6.5930   -0.3450 C   0  0  0  0  0
  -17.1380    7.7120   -1.3600 C   0  0  0  0  0
  -15.0970    8.3180   -0.0590 C   0  0  0  0  0
  -13.7230    8.2080   -0.3240 C   0  0  0  0  0
  -10.2390    9.2240    1.9900 C   0  0  0  0  0
  -12.5710    8.6820    1.7840 C   0  0  0  0  0
  -13.6820    8.4780    2.4580 F   0  0  0  0  0
  -15.7810    7.8250   -1.1570 N   0  0  0  0  0
  -13.6890    7.6470   -1.6030 N   0  0  0  0  0
  -14.8390    7.4320   -2.0500 N   0  0  0  0  0
  -19.9760    7.7440   -0.7630 O   0  0  0  0  0
  -21.3840    5.2970   -0.2300 O   0  0  0  0  0
  -17.7280    7.0550    0.8950 O   0  0  0  0  0
  -17.4680    9.9030   -2.2520 O   0  0  0  0  0
  -20.3750   10.1610   -1.6510 S   0  0  0  0  0
  -11.1685    8.6476   -1.1708 H   0  0  0  0  0
   -9.2055    9.3136    0.1154 H   0  0  0  0  0
  -11.5760    9.1278    3.6410 H   0  0  0  0  0
  -17.8929    9.5042   -0.2567 H   0  0  0  0  0
  -24.2970    8.3415   -6.5613 H   0  0  0  0  0
  -25.5223    8.6264   -5.3009 H   0  0  0  0  0
  -24.9687    9.9737   -6.3252 H   0  0  0  0  0
  -23.4440    7.3054   -4.3007 H   0  0  0  0  0
  -21.7091    7.7117   -2.6434 H   0  0  0  0  0
  -23.6045   11.4913   -5.1260 H   0  0  0  0  0
  -21.8388   11.9239   -3.4443 H   0  0  0  0  0
  -19.3718    8.3443   -2.6575 H   0  0  0  0  0
  -19.3205    5.9372   -1.6921 H   0  0  0  0  0
  -20.1429    6.0913    1.2751 H   0  0  0  0  0
  -19.5303    4.6343    0.5192 H   0  0  0  0  0
  -17.2948    5.6366   -0.4286 H   0  0  0  0  0
  -17.2135    7.3891   -2.3983 H   0  0  0  0  0
  -15.5455    8.7200    0.8495 H   0  0  0  0  0
   -9.3641    9.4572    2.5968 H   0  0  0  0  0
  -21.8875    4.7639    0.3896 H   0  0  0  0  0
  -16.8045    7.1616    1.1344 H   0  0  0  0  0
  -16.5583   10.1362   -2.0528 H   0  0  0  0  0
  1  2  4  0  0  0
 19  1  1  0  0  0
  1 21  4  0  0  0
  2  3  4  0  0  0
  3 20  4  0  0  0
  4 20  4  0  0  0
 21  4  4  0  0  0
  5 13  1  0  0  0
 17  5  1  0  0  0
  5 29  1  0  0  0
  7  6  1  0  0  0
  8  7  4  0  0  0
 10  7  4  0  0  0
  9  8  4  0  0  0
 12  9  4  0  0  0
 11 10  4  0  0  0
 12 11  4  0  0  0
 30 12  1  0  0  0
 13 26  1  0  0  0
 13 30  1  0  0  0
 14 15  1  0  0  0
 16 14  1  0  0  0
 14 26  1  0  0  0
 15 27  1  0  0  0
 17 16  1  0  0  0
 16 28  1  0  0  0
 23 17  1  0  0  0
 18 19  4  0  0  0
 18 23  4  0  0  0
 19 24  4  0  0  0
 21 22  1  0  0  0
 23 25  4  0  0  0
 24 25  4  0  0  0
  2 31  1  0  0  0
  3 32  1  0  0  0
  4 33  1  0  0  0
  5 34  1  0  0  0
  6 35  1  0  0  0
  6 36  1  0  0  0
  6 37  1  0  0  0
  8 38  1  0  0  0
  9 39  1  0  0  0
 10 40  1  0  0  0
 11 41  1  0  0  0
 13 42  1  0  0  0
 14 43  1  0  0  0
 15 44  1  0  0  0
 15 45  1  0  0  0
 16 46  1  0  0  0
 17 47  1  0  0  0
 18 48  1  0  0  0
 20 49  1  0  0  0
 27 50  1  0  0  0
 28 51  1  0  0  0
 29 52  1  0  0  0
M  END
$$$$
