4cqg_ligand
  -I-interpret- 

 62 65  0  0  0  0  0  0  0  0999 V2000
    6.3310  -13.1830   35.2250 C   0  0  0  0  0
    7.0430  -13.4300   34.0190 N   0  3  0  0  0
    7.6910  -12.1930   33.2510 C   0  0  0  0  0
    7.1990  -11.6070   31.9250 C   0  0  0  0  0
    8.6340  -11.2870   31.4900 C   0  0  0  0  0
    8.7300  -10.1930   30.4660 C   0  0  0  0  0
    8.0440   -8.9600   30.8840 C   0  0  0  0  0
    7.3780   -9.1440   32.2090 C   0  0  0  0  0
    6.4560  -10.3330   32.1540 C   0  0  0  0  0
    6.8130   -8.3820   30.1620 N   0  0  0  0  0
    6.5990   -7.0890   29.3360 C   0  0  0  0  0
    7.1670   -5.7720   29.3920 C   0  0  0  0  0
    6.6020   -4.8740   28.4880 C   0  0  0  0  0
    5.6130   -5.2010   27.6270 N   0  0  0  0  0
    5.0560   -6.4740   27.6040 C   0  0  0  0  0
    5.5400   -7.3990   28.4540 C   0  0  0  0  0
    5.0330   -8.6410   28.5050 N   0  0  0  0  0
    4.0770   -9.1110   27.7210 C   0  0  0  0  0
    3.5150   -8.1750   26.8260 C   0  0  0  0  0
    4.0110   -6.8750   26.7690 C   0  0  0  0  0
    3.6520  -10.3880   27.9160 C   0  0  0  0  0
    4.4040  -11.3350   28.5750 C   0  0  0  0  0
    3.8970  -12.6020   28.8000 C   0  0  0  0  0
    4.8820  -13.8050   29.5690 Cl  0  0  0  0  0
    2.6040  -12.9220   28.3880 C   0  0  0  0  0
    1.8320  -11.9820   27.7570 C   0  0  0  0  0
    2.3470  -10.7220   27.5430 C   0  0  0  0  0
    0.2220  -12.3710   27.2540 Cl  0  0  0  0  0
    2.0760  -14.1520   28.5840 O   0  0  0  0  0
    8.2760   -5.2430   30.3000 C   0  0  0  0  0
    8.4960   -4.0210   30.3420 O   0  0  0  0  0
    9.1420   -6.0930   31.2620 C   0  0  0  0  0
    6.3370  -14.3710   33.0340 C   0  0  0  0  0
    5.3687  -12.7278   34.9906 H   0  0  0  0  0
    6.1707  -14.1246   35.7501 H   0  0  0  0  0
    6.9098  -12.5079   35.8554 H   0  0  0  0  0
    7.8452  -13.9172   34.4183 H   0  0  0  0  0
    8.6706  -12.5844   32.9765 H   0  0  0  0  0
    7.5049  -11.3728   33.9444 H   0  0  0  0  0
    6.5404  -12.1962   31.2869 H   0  0  0  0  0
    9.0449  -12.1902   31.0388 H   0  0  0  0  0
    9.1736  -10.9505   32.3753 H   0  0  0  0  0
    8.2527  -10.5476   29.5525 H   0  0  0  0  0
    9.7851   -9.9575   30.3266 H   0  0  0  0  0
    8.9072   -8.3111   30.7358 H   0  0  0  0  0
    6.8014   -8.2510   32.4502 H   0  0  0  0  0
    8.1363   -9.3104   32.9741 H   0  0  0  0  0
    5.9387  -10.4075   33.1105 H   0  0  0  0  0
    5.7632  -10.1889   31.3249 H   0  0  0  0  0
    5.9778   -8.9619   30.2432 H   0  0  0  0  0
    6.9788   -3.8513   28.4748 H   0  0  0  0  0
    2.6903   -8.4708   26.1776 H   0  0  0  0  0
    3.5792   -6.1632   26.0655 H   0  0  0  0  0
    5.4064  -11.0841   28.9219 H   0  0  0  0  0
    1.7202   -9.9658   27.0704 H   0  0  0  0  0
    1.1825  -14.1750   28.2337 H   0  0  0  0  0
   10.1955   -5.9545   31.0188 H   0  0  0  0  0
    8.9601   -5.7758   32.2888 H   0  0  0  0  0
    8.8779   -7.1449   31.1531 H   0  0  0  0  0
    5.5487  -13.8261   32.5145 H   0  0  0  0  0
    7.0601  -14.7453   32.3093 H   0  0  0  0  0
    5.9024  -15.2077   33.5809 H   0  0  0  0  0
  1  2  1  0  0  0
  2  3  1  0  0  0
  2 33  1  0  0  0
  3  4  1  0  0  0
  4  5  1  0  0  0
  4  9  1  0  0  0
  5  6  1  0  0  0
  6  7  1  0  0  0
  7  8  1  0  0  0
  7 10  1  0  0  0
  8  9  1  0  0  0
 10 11  1  0  0  0
 11 12  4  0  0  0
 11 16  4  0  0  0
 12 13  4  0  0  0
 12 30  1  0  0  0
 13 14  4  0  0  0
 14 15  4  0  0  0
 15 16  4  0  0  0
 15 20  4  0  0  0
 16 17  4  0  0  0
 17 18  4  0  0  0
 18 19  4  0  0  0
 18 21  1  0  0  0
 19 20  4  0  0  0
 21 22  4  0  0  0
 21 27  4  0  0  0
 22 23  4  0  0  0
 23 24  1  0  0  0
 23 25  4  0  0  0
 25 26  4  0  0  0
 25 29  1  0  0  0
 26 27  4  0  0  0
 26 28  1  0  0  0
 30 31  2  0  0  0
 30 32  1  0  0  0
  1 34  1  0  0  0
  1 35  1  0  0  0
  1 36  1  0  0  0
  2 37  1  0  0  0
  3 38  1  0  0  0
  3 39  1  0  0  0
  4 40  1  0  0  0
  5 41  1  0  0  0
  5 42  1  0  0  0
  6 43  1  0  0  0
  6 44  1  0  0  0
  7 45  1  0  0  0
  8 46  1  0  0  0
  8 47  1  0  0  0
  9 48  1  0  0  0
  9 49  1  0  0  0
 10 50  1  0  0  0
 13 51  1  0  0  0
 19 52  1  0  0  0
 20 53  1  0  0  0
 22 54  1  0  0  0
 27 55  1  0  0  0
 29 56  1  0  0  0
 32 57  1  0  0  0
 32 58  1  0  0  0
 32 59  1  0  0  0
 33 60  1  0  0  0
 33 61  1  0  0  0
 33 62  1  0  0  0
M  END
$$$$
