3cgo_ligand
  -I-interpret- 

 51 54  0  0  0  0  0  0  0  0999 V2000
   26.8050    2.4860   28.4980 C   0  0  0  0  0
   26.3680    3.8360   28.2460 N   0  0  0  0  0
   27.2640    4.9060   28.2510 C   0  0  0  0  0
   28.4160    4.8490   27.8170 O   0  0  0  0  0
   26.6880    6.1780   28.8490 C   0  0  0  0  0
   25.4020    5.9070   29.5080 N   0  3  0  0  0
   24.4600    7.0470   29.3380 C   0  0  0  0  0
   23.1240    6.7750   30.0410 C   0  0  0  0  0
   23.3850    6.4960   31.5390 C   0  0  0  0  0
   24.3180    5.2860   31.6750 C   0  0  0  0  0
   25.6410    5.5730   30.9500 C   0  0  0  0  0
   22.1230    6.2460   32.2130 N   0  0  0  0  0
   21.2250    7.2460   32.5710 C   0  0  0  0  0
   21.6350    8.5360   32.4200 N   0  0  0  0  0
   20.7520    9.5410   32.7690 C   0  0  0  0  0
   19.4600    9.2760   33.2630 C   0  0  0  0  0
   19.1470    7.9360   33.3730 C   0  0  0  0  0
   19.9930    6.9200   33.0360 N   0  0  0  0  0
   21.2270   10.9320   32.5670 C   0  0  0  0  0
   22.4530   11.3450   32.0500 N   0  0  0  0  0
   23.5780   10.6090   31.5750 C   0  0  0  0  0
   24.6710   11.2680   31.1050 C   0  0  0  0  0
   24.6650   12.7340   31.1030 C   0  0  0  0  0
   23.5940   13.4550   31.5570 C   0  0  0  0  0
   22.4320   12.7670   32.0570 C   0  0  0  0  0
   21.3170   13.2350   32.5320 N   0  0  0  0  0
   20.5760   12.1270   32.8450 C   0  0  0  0  0
   27.5411    2.1977   27.7476 H   0  0  0  0  0
   27.2540    2.4300   29.4896 H   0  0  0  0  0
   25.9492    1.8129   28.4467 H   0  0  0  0  0
   25.3810    4.0136   28.0597 H   0  0  0  0  0
   26.5286    6.9020   28.0500 H   0  0  0  0  0
   27.3875    6.5676   29.5886 H   0  0  0  0  0
   24.9579    5.1021   29.0661 H   0  0  0  0  0
   24.2704    7.1849   28.2735 H   0  0  0  0  0
   24.9092    7.9371   29.7785 H   0  0  0  0  0
   22.6412    5.9098   29.5866 H   0  0  0  0  0
   22.4735    7.6436   29.9387 H   0  0  0  0  0
   23.8611    7.3611   32.0004 H   0  0  0  0  0
   23.8437    4.4107   31.2311 H   0  0  0  0  0
   24.5162    5.0978   32.7302 H   0  0  0  0  0
   26.1256    6.4231   31.4302 H   0  0  0  0  0
   26.2691    4.6838   31.0035 H   0  0  0  0  0
   21.8811    5.2807   32.4369 H   0  0  0  0  0
   18.7619   10.0670   33.5370 H   0  0  0  0  0
   18.1602    7.6726   33.7537 H   0  0  0  0  0
   23.5621    9.5192   31.5885 H   0  0  0  0  0
   25.5357   10.7162   30.7365 H   0  0  0  0  0
   25.5398   13.2657   30.7287 H   0  0  0  0  0
   23.6204   14.5445   31.5402 H   0  0  0  0  0
   19.5738   12.1778   33.2705 H   0  0  0  0  0
  1  2  1  0  0  0
  2  3  1  0  0  0
  3  4  2  0  0  0
  3  5  1  0  0  0
  5  6  1  0  0  0
  6  7  1  0  0  0
  6 11  1  0  0  0
  7  8  1  0  0  0
  8  9  1  0  0  0
  9 10  1  0  0  0
  9 12  1  0  0  0
 10 11  1  0  0  0
 12 13  1  0  0  0
 13 14  4  0  0  0
 13 18  4  0  0  0
 14 15  4  0  0  0
 15 16  4  0  0  0
 15 19  1  0  0  0
 16 17  4  0  0  0
 17 18  4  0  0  0
 19 20  4  0  0  0
 19 27  4  0  0  0
 20 21  4  0  0  0
 20 25  4  0  0  0
 21 22  4  0  0  0
 22 23  4  0  0  0
 23 24  4  0  0  0
 24 25  4  0  0  0
 25 26  4  0  0  0
 26 27  4  0  0  0
  1 28  1  0  0  0
  1 29  1  0  0  0
  1 30  1  0  0  0
  2 31  1  0  0  0
  5 32  1  0  0  0
  5 33  1  0  0  0
  6 34  1  0  0  0
  7 35  1  0  0  0
  7 36  1  0  0  0
  8 37  1  0  0  0
  8 38  1  0  0  0
  9 39  1  0  0  0
 10 40  1  0  0  0
 10 41  1  0  0  0
 11 42  1  0  0  0
 11 43  1  0  0  0
 12 44  1  0  0  0
 16 45  1  0  0  0
 17 46  1  0  0  0
 21 47  1  0  0  0
 22 48  1  0  0  0
 23 49  1  0  0  0
 24 50  1  0  0  0
 27 51  1  0  0  0
M  END
$$$$
