2c1a_ligand
  -I-interpret- 

 51 53  0  0  0  0  0  0  0  0999 V2000
   12.9800   14.4640   -0.2000 Cl  0  0  0  0  0
   13.4670   13.2150    0.8600 C   0  0  0  0  0
   12.8060   13.0070    2.0610 C   0  0  0  0  0
   13.2320   11.9960    2.9010 C   0  0  0  0  0
   14.3410   11.2320    2.5390 C   0  0  0  0  0
   14.7610   10.1120    3.4440 C   0  0  0  0  0
   13.7410    9.1450    3.1360 O   0  0  0  0  0
   14.2370    7.8400    3.2240 C   0  0  0  0  0
   13.1630    6.7670    3.0450 C   0  0  0  0  0
   11.8370    7.2790    2.6380 N   0  3  0  0  0
   11.0990    7.8460    3.7530 C   0  0  0  0  0
    9.5890    7.8320    3.4420 C   0  0  0  0  0
    8.9710    8.6680    4.4780 N   0  0  0  0  0
    8.7360   10.2570    4.1790 S   0  0  0  0  0
    8.4880   10.6990    5.4780 O   0  0  0  0  0
    9.7340   10.7660    3.3120 O   0  0  0  0  0
    7.3110   10.2930    3.1490 C   0  0  0  0  0
    7.4900   10.4080    1.7910 C   0  0  0  0  0
    6.4020   10.4050    0.8900 C   0  0  0  0  0
    5.1240   10.3480    1.3600 C   0  0  0  0  0
    4.8920   10.2740    2.7480 C   0  0  0  0  0
    3.5630   10.2000    3.2420 C   0  0  0  0  0
    3.3130   10.1080    4.5290 N   0  0  0  0  0
    4.3100   10.1000    5.4270 C   0  0  0  0  0
    5.6460   10.1750    5.0400 C   0  0  0  0  0
    5.9830   10.2650    3.6710 C   0  0  0  0  0
   14.9900   11.4290    1.3290 C   0  0  0  0  0
   14.5620   12.4350    0.4890 C   0  0  0  0  0
   11.9593   13.6344    2.3395 H   0  0  0  0  0
   12.7073   11.7980    3.8357 H   0  0  0  0  0
   14.8205   10.3832    4.4980 H   0  0  0  0  0
   15.7794    9.7594    3.2809 H   0  0  0  0  0
   14.6607    7.7168    4.2207 H   0  0  0  0  0
   14.9656    7.7114    2.4235 H   0  0  0  0  0
   13.0324    6.2851    4.0139 H   0  0  0  0  0
   13.5053    6.1063    2.2485 H   0  0  0  0  0
   11.2969    6.4980    2.2656 H   0  0  0  0  0
   11.9806    8.0150    1.9466 H   0  0  0  0  0
   11.4239    8.8739    3.9144 H   0  0  0  0  0
   11.2878    7.2536    4.6483 H   0  0  0  0  0
    9.1872    6.8188    3.4523 H   0  0  0  0  0
    9.3822    8.2144    2.4424 H   0  0  0  0  0
    8.6923    8.2629    5.3716 H   0  0  0  0  0
    8.5019   10.5044    1.3975 H   0  0  0  0  0
    6.5850   10.4484   -0.1836 H   0  0  0  0  0
    4.2845   10.3596    0.6649 H   0  0  0  0  0
    2.7312   10.2199    2.5379 H   0  0  0  0  0
    4.0680   10.0330    6.4877 H   0  0  0  0  0
    6.4326   10.1642    5.7945 H   0  0  0  0  0
   15.8299   10.7949    1.0452 H   0  0  0  0  0
   15.0742   12.6189   -0.4554 H   0  0  0  0  0
  1  2  1  0  0  0
  2  3  4  0  0  0
  2 28  4  0  0  0
  3  4  4  0  0  0
  4  5  4  0  0  0
  5  6  1  0  0  0
  5 27  4  0  0  0
  6  7  1  0  0  0
  7  8  1  0  0  0
  8  9  1  0  0  0
  9 10  1  0  0  0
 10 11  1  0  0  0
 11 12  1  0  0  0
 12 13  1  0  0  0
 13 14  1  0  0  0
 14 15  2  0  0  0
 14 16  2  0  0  0
 14 17  1  0  0  0
 17 18  4  0  0  0
 17 26  4  0  0  0
 18 19  4  0  0  0
 19 20  4  0  0  0
 20 21  4  0  0  0
 21 22  4  0  0  0
 21 26  4  0  0  0
 22 23  4  0  0  0
 23 24  4  0  0  0
 24 25  4  0  0  0
 25 26  4  0  0  0
 27 28  4  0  0  0
  3 29  1  0  0  0
  4 30  1  0  0  0
  6 31  1  0  0  0
  6 32  1  0  0  0
  8 33  1  0  0  0
  8 34  1  0  0  0
  9 35  1  0  0  0
  9 36  1  0  0  0
 10 37  1  0  0  0
 10 38  1  0  0  0
 11 39  1  0  0  0
 11 40  1  0  0  0
 12 41  1  0  0  0
 12 42  1  0  0  0
 13 43  1  0  0  0
 18 44  1  0  0  0
 19 45  1  0  0  0
 20 46  1  0  0  0
 22 47  1  0  0  0
 24 48  1  0  0  0
 25 49  1  0  0  0
 27 50  1  0  0  0
 28 51  1  0  0  0
M  END
$$$$
