2y1g_ligand
  -I-interpret- 

 34 34  0  0  0  0  0  0  0  0999 V2000
    8.1990   -4.0190    3.9520 Cl  0  0  0  0  0
    9.8340   -4.0850    3.2110 C   0  0  0  0  0
   10.0780   -4.9670    2.1370 C   0  0  0  0  0
   11.3540   -5.0220    1.5500 C   0  0  0  0  0
   10.8570   -3.2600    3.7080 C   0  0  0  0  0
   10.5450   -2.1330    5.0860 Cl  0  0  0  0  0
   12.1300   -3.3220    3.1170 C   0  0  0  0  0
   12.3890   -4.2010    2.0440 C   0  0  0  0  0
   13.7990   -4.1960    1.4240 C   0  0  0  0  0
   14.6030   -5.8270    1.3480 P   0  0  0  0  0
   14.8800   -6.1580    2.7870 O   0  0  0  0  0
   15.8630   -5.6360    0.5530 O   0  0  0  0  0
   13.6500   -6.7840    0.7020 O   0  0  0  0  0
   13.7750   -3.5450    0.0340 C   0  0  0  0  0
   13.0530   -2.1940   -0.0050 C   0  0  0  0  0
   13.8620   -1.1870    0.6930 N   0  0  0  0  0
   15.1720   -1.0140    0.2310 O   0  0  0  0  0
   13.4590   -0.3780    1.6970 C   0  0  0  0  0
   14.2510    0.1590    2.4570 O   0  0  0  0  0
   11.9840   -0.1130    1.8480 C   0  0  0  0  0
    9.2776   -5.6053    1.7628 H   0  0  0  0  0
   11.5431   -5.6972    0.7154 H   0  0  0  0  0
   12.9286   -2.6823    3.4925 H   0  0  0  0  0
   14.4099   -3.6025    2.1042 H   0  0  0  0  0
   15.4940   -5.5153    3.1496 H   0  0  0  0  0
   16.4369   -5.0161    1.0090 H   0  0  0  0  0
   13.2368   -4.2201   -0.6314 H   0  0  0  0  0
   14.8097   -3.3687   -0.2598 H   0  0  0  0  0
   12.0839   -2.2854    0.4855 H   0  0  0  0  0
   12.9079   -1.8891   -1.0414 H   0  0  0  0  0
   15.6078   -0.3371    0.7539 H   0  0  0  0  0
   11.6591   -0.4285    2.8395 H   0  0  0  0  0
   11.7931    0.9529    1.7238 H   0  0  0  0  0
   11.4362   -0.6723    1.0896 H   0  0  0  0  0
  1  2  1  0  0  0
  2  3  4  0  0  0
  2  5  4  0  0  0
  3  4  4  0  0  0
  4  8  4  0  0  0
  5  6  1  0  0  0
  5  7  4  0  0  0
  7  8  4  0  0  0
  8  9  1  0  0  0
  9 10  1  0  0  0
  9 14  1  0  0  0
 10 11  1  0  0  0
 10 12  1  0  0  0
 10 13  2  0  0  0
 14 15  1  0  0  0
 15 16  1  0  0  0
 16 17  1  0  0  0
 16 18  1  0  0  0
 18 19  2  0  0  0
 18 20  1  0  0  0
  3 21  1  0  0  0
  4 22  1  0  0  0
  7 23  1  0  0  0
  9 24  1  0  0  0
 11 25  1  0  0  0
 12 26  1  0  0  0
 14 27  1  0  0  0
 14 28  1  0  0  0
 15 29  1  0  0  0
 15 30  1  0  0  0
 17 31  1  0  0  0
 20 32  1  0  0  0
 20 33  1  0  0  0
 20 34  1  0  0  0
M  END
$$$$
