### 
### Created by X-TOOL on Mon Sep 10 21:13:06 2018
### 

@<TRIPOS>MOLECULE
2y1g_ligand
   32    32     1     0     0
SMALL
GAST_HUCK


@<TRIPOS>ATOM
      1 CL2         8.1990   -4.0190    3.9520 Cl        1 FM5        -0.0764
      2 C9          9.8340   -4.0850    3.2110 C.ar      1 FM5         0.0469
      3 C10        10.0780   -4.9670    2.1370 C.ar      1 FM5        -0.0541
      4 C11        11.3540   -5.0220    1.5500 C.ar      1 FM5        -0.0580
      5 C8         10.8570   -3.2600    3.7080 C.ar      1 FM5         0.0478
      6 CL1        10.5450   -2.1330    5.0860 Cl        1 FM5        -0.0718
      7 C7         12.1300   -3.3220    3.1170 C.ar      1 FM5        -0.0443
      8 C6         12.3890   -4.2010    2.0440 C.ar      1 FM5        -0.0229
      9 C4         13.7990   -4.1960    1.4240 C.3       1 FM5         0.0661
     10 PA1        14.6030   -5.8270    1.3480 P.3       1 FM5         0.0732
     11 OP1        14.8800   -6.1580    2.7870 O.co2     1 FM5        -0.5605
     12 OP2        15.8630   -5.6360    0.5530 O.co2     1 FM5        -0.5605
     13 OP3        13.6500   -6.7840    0.7020 O.co2     1 FM5        -0.5605
     14 C3         13.7750   -3.5450    0.0340 C.3       1 FM5        -0.0021
     15 C2         13.0530   -2.1940   -0.0050 C.3       1 FM5         0.0661
     16 N1         13.8620   -1.1870    0.6930 N.am      1 FM5        -0.1507
     17 O2         15.1720   -1.0140    0.2310 O.3       1 FM5        -0.2691
     18 C1         13.4590   -0.3780    1.6970 C.2       1 FM5         0.1982
     19 O1         14.2510    0.1590    2.4570 O.2       1 FM5        -0.3971
     20 C5         11.9840   -0.1130    1.8480 C.3       1 FM5         0.0275
     21 H           9.2776   -5.6053    1.7628 H         1 FM5         0.0606
     22 H          11.5431   -5.6972    0.7154 H         1 FM5         0.0559
     23 H          12.9286   -2.6823    3.4925 H         1 FM5         0.0563
     24 H          14.4099   -3.6025    2.1042 H         1 FM5         0.0651
     25 H          13.2368   -4.2201   -0.6314 H         1 FM5         0.0324
     26 H          14.8097   -3.3687   -0.2598 H         1 FM5         0.0324
     27 H          12.0839   -2.2854    0.4855 H         1 FM5         0.0553
     28 H          12.9079   -1.8891   -1.0414 H         1 FM5         0.0553
     29 H          15.6078   -0.3371    0.7539 H         1 FM5         0.2492
     30 H          11.6591   -0.4285    2.8395 H         1 FM5         0.0466
     31 H          11.7931    0.9529    1.7238 H         1 FM5         0.0466
     32 H          11.4362   -0.6723    1.0896 H         1 FM5         0.0466
@<TRIPOS>BOND
     1    1    2 1  
     2    2    3 ar 
     3    2    5 ar 
     4    3    4 ar 
     5    4    8 ar 
     6    5    6 1  
     7    5    7 ar 
     8    7    8 ar 
     9    8    9 1  
    10    9   10 1  
    11    9   14 1  
    12   10   11 ar 
    13   10   12 ar 
    14   10   13 ar 
    15   14   15 1  
    16   15   16 1  
    17   16   17 1  
    18   16   18 am 
    19   18   19 2  
    20   18   20 1  
    21    3   21 1  
    22    4   22 1  
    23    7   23 1  
    24    9   24 1  
    25   14   25 1  
    26   14   26 1  
    27   15   27 1  
    28   15   28 1  
    29   17   29 1  
    30   20   30 1  
    31   20   31 1  
    32   20   32 1  
@<TRIPOS>SUBSTRUCTURE
     1 FM5         1

