4qz0_ligand
  -I-interpret- 

 87 89  0  0  0  0  0  0  0  0999 V2000
   59.5250 -134.5870   34.5290 C   0  0  0  0  0
   59.6020 -135.7930   34.7620 O   0  0  0  0  0
   58.3750 -134.0410   33.6690 C   0  0  0  0  0
   57.3450 -133.4800   34.5470 N   0  3  0  0  0
   54.6430 -133.4500   35.2890 O   0  0  0  0  0
   56.8230 -134.4360   35.5450 C   0  0  0  0  0
   56.2590 -133.0630   33.6430 C   0  0  0  0  0
   55.6830 -133.7720   36.2130 C   0  0  0  0  0
   55.0580 -132.4740   34.3220 C   0  0  0  0  0
   60.4140 -133.6780   34.9620 N   0  0  0  0  0
   61.5600 -134.0740   35.7980 C   0  0  0  0  0
   61.1050 -134.1490   37.2580 C   0  0  0  0  0
   60.3220 -133.3200   37.7230 O   0  0  0  0  0
   62.7100 -133.0710   35.6540 C   0  0  0  0  0
   61.6130 -135.1850   37.9410 N   0  0  0  0  0
   61.2920 -135.4240   39.3520 C   0  0  0  0  0
   60.7750 -136.8200   39.5270 C   0  0  0  0  0
   59.3960 -136.8470   39.2980 C   0  0  0  0  0
   58.9010 -136.9680   37.9990 C   0  0  0  0  0
   57.5270 -137.0260   37.7700 C   0  0  0  0  0
   56.6360 -136.9670   38.8410 C   0  0  0  0  0
   55.2910 -137.0450   38.6190 O   0  0  0  0  0
   54.5980 -135.8030   38.6520 C   0  0  0  0  0
   57.1290 -136.8590   40.1420 C   0  0  0  0  0
   58.5030 -136.8010   40.3700 C   0  0  0  0  0
   62.5830 -135.3100   40.1620 C   0  0  0  0  0
   63.6790 -135.2690   39.6050 O   0  0  0  0  0
   62.3980 -135.3130   41.4900 N   0  0  0  0  0
   63.4980 -135.1640   42.4420 C   0  0  0  0  0
   63.4080 -136.2060   43.5750 C   0  0  0  0  0
   62.0920 -136.1520   44.1430 O   0  0  0  0  0
   63.7740 -137.7300   43.2160 C   0  0  0  0  0
   64.9200 -137.7870   42.1490 C   0  0  0  0  0
   62.4990 -138.4040   42.6760 C   0  0  0  0  0
   62.8790 -139.3820   41.6920 O   0  0  0  0  0
   63.3300 -133.8000   43.0990 C   0  0  0  0  0
   64.0720 -132.7560   42.4960 C   0  0  0  0  0
   64.8240 -132.8610   41.3140 C   0  0  0  0  0
   65.5030 -131.7530   40.8070 C   0  0  0  0  0
   65.4420 -130.5240   41.4610 C   0  0  0  0  0
   64.6960 -130.4010   42.6280 C   0  0  0  0  0
   64.0180 -131.5110   43.1320 C   0  0  0  0  0
   57.9487 -134.8471   33.0719 H   0  0  0  0  0
   58.7516 -133.2649   33.0028 H   0  0  0  0  0
   57.7408 -132.7169   35.0959 H   0  0  0  0  0
   57.5943 -134.7037   36.2672 H   0  0  0  0  0
   56.5069 -135.3631   35.0668 H   0  0  0  0  0
   55.9190 -133.9601   33.1257 H   0  0  0  0  0
   56.6682 -132.2853   32.9981 H   0  0  0  0  0
   55.2786 -134.4543   36.9607 H   0  0  0  0  0
   56.0410 -132.8460   36.6630 H   0  0  0  0  0
   55.2954 -131.5210   34.7948 H   0  0  0  0  0
   54.2631 -132.2578   33.6082 H   0  0  0  0  0
   60.2935 -132.6976   34.7077 H   0  0  0  0  0
   61.9225 -135.0490   35.4724 H   0  0  0  0  0
   63.0298 -133.0339   34.6126 H   0  0  0  0  0
   62.3704 -132.0835   35.9666 H   0  0  0  0  0
   63.5447 -133.3848   36.2808 H   0  0  0  0  0
   62.2439 -135.8285   37.4632 H   0  0  0  0  0
   60.5442 -134.7021   39.6801 H   0  0  0  0  0
   60.9778 -137.1543   40.5444 H   0  0  0  0  0
   61.2713 -137.4798   38.8153 H   0  0  0  0  0
   59.5928 -137.0175   37.1581 H   0  0  0  0  0
   57.1486 -137.1176   36.7519 H   0  0  0  0  0
   54.7250 -135.3435   39.6322 H   0  0  0  0  0
   55.0018 -135.1426   37.8846 H   0  0  0  0  0
   53.5381 -135.9747   38.4644 H   0  0  0  0  0
   56.4370 -136.8198   40.9832 H   0  0  0  0  0
   58.8814 -136.7194   41.3889 H   0  0  0  0  0
   61.4506 -135.4238   41.8513 H   0  0  0  0  0
   64.4434 -135.2849   41.9132 H   0  0  0  0  0
   64.1926 -135.9148   44.2733 H   0  0  0  0  0
   62.0234 -136.7971   44.8506 H   0  0  0  0  0
   64.1304 -138.2508   44.1047 H   0  0  0  0  0
   64.5951 -137.2786   41.2412 H   0  0  0  0  0
   65.8081 -137.2944   42.5449 H   0  0  0  0  0
   65.1512 -138.8276   41.9213 H   0  0  0  0  0
   61.8468 -137.6566   42.2241 H   0  0  0  0  0
   61.9607 -138.8874   43.4913 H   0  0  0  0  0
   62.0919 -139.8099   41.3472 H   0  0  0  0  0
   63.6914 -133.8950   44.1229 H   0  0  0  0  0
   62.2770 -133.5328   43.0095 H   0  0  0  0  0
   64.8772 -133.8150   40.7894 H   0  0  0  0  0
   66.0864 -131.8493   39.8913 H   0  0  0  0  0
   65.9766 -129.6631   41.0596 H   0  0  0  0  0
   64.6414 -129.4433   43.1457 H   0  0  0  0  0
   63.4312 -131.4057   44.0445 H   0  0  0  0  0
  1  2  2  0  0  0
  3  1  1  0  0  0
  1 10  1  0  0  0
  4  3  1  0  0  0
  6  4  1  0  0  0
  4  7  1  0  0  0
  8  5  1  0  0  0
  5  9  1  0  0  0
  6  8  1  0  0  0
  7  9  1  0  0  0
 10 11  1  0  0  0
 11 12  1  0  0  0
 11 14  1  0  0  0
 12 13  2  0  0  0
 12 15  1  0  0  0
 15 16  1  0  0  0
 16 17  1  0  0  0
 16 26  1  0  0  0
 17 18  1  0  0  0
 18 19  4  0  0  0
 18 25  4  0  0  0
 19 20  4  0  0  0
 20 21  4  0  0  0
 21 22  1  0  0  0
 21 24  4  0  0  0
 22 23  1  0  0  0
 24 25  4  0  0  0
 26 27  2  0  0  0
 26 28  1  0  0  0
 28 29  1  0  0  0
 29 30  1  0  0  0
 29 36  1  0  0  0
 30 31  1  0  0  0
 30 32  1  0  0  0
 32 33  1  0  0  0
 32 34  1  0  0  0
 34 35  1  0  0  0
 36 37  1  0  0  0
 37 38  4  0  0  0
 37 42  4  0  0  0
 38 39  4  0  0  0
 39 40  4  0  0  0
 40 41  4  0  0  0
 41 42  4  0  0  0
  3 43  1  0  0  0
  3 44  1  0  0  0
  4 45  1  0  0  0
  6 46  1  0  0  0
  6 47  1  0  0  0
  7 48  1  0  0  0
  7 49  1  0  0  0
  8 50  1  0  0  0
  8 51  1  0  0  0
  9 52  1  0  0  0
  9 53  1  0  0  0
 10 54  1  0  0  0
 11 55  1  0  0  0
 14 56  1  0  0  0
 14 57  1  0  0  0
 14 58  1  0  0  0
 15 59  1  0  0  0
 16 60  1  0  0  0
 17 61  1  0  0  0
 17 62  1  0  0  0
 19 63  1  0  0  0
 20 64  1  0  0  0
 23 65  1  0  0  0
 23 66  1  0  0  0
 23 67  1  0  0  0
 24 68  1  0  0  0
 25 69  1  0  0  0
 28 70  1  0  0  0
 29 71  1  0  0  0
 30 72  1  0  0  0
 31 73  1  0  0  0
 32 74  1  0  0  0
 33 75  1  0  0  0
 33 76  1  0  0  0
 33 77  1  0  0  0
 34 78  1  0  0  0
 34 79  1  0  0  0
 35 80  1  0  0  0
 36 81  1  0  0  0
 36 82  1  0  0  0
 38 83  1  0  0  0
 39 84  1  0  0  0
 40 85  1  0  0  0
 41 86  1  0  0  0
 42 87  1  0  0  0
M  END
$$$$
