3s3n_ligand
  -I-interpret- 

 49 52  0  0  0  0  0  0  0  0999 V2000
  -36.0510   25.5370  -19.4090 C   0  0  0  0  0
  -38.3370   33.7350  -22.8200 O   0  0  0  0  0
  -36.1760   29.0600  -17.6050 O   0  0  0  0  0
  -37.0580   33.8630  -18.9880 O   0  0  0  0  0
  -36.4790   31.6820  -17.5050 O   0  0  0  0  0
  -42.5990   38.9160  -20.9320 F   0  0  0  0  0
  -38.3960   37.5400  -19.5030 F   0  0  0  0  0
  -41.2500   37.6480  -22.4230 C   0  0  0  0  0
  -40.0450   36.9880  -22.6900 C   0  0  0  0  0
  -40.5100   38.2230  -20.1670 C   0  0  0  0  0
  -37.5950   31.4450  -21.4740 C   0  0  0  0  0
  -39.3790   26.7440  -19.6160 C   0  0  0  0  0
  -38.3730   25.9900  -18.7070 C   0  0  0  0  0
  -37.8220   36.2420  -22.0100 C   0  0  0  0  0
  -37.3830   29.0400  -21.5580 C   0  0  0  0  0
  -37.5780   35.0890  -21.1860 N   0  0  0  0  0
  -39.0050   27.9460  -20.4270 O   0  0  0  0  0
  -37.8530   33.8900  -21.7000 C   0  0  0  0  0
  -36.6410   29.0870  -18.7500 C   0  0  0  0  0
  -41.4620   38.2540  -21.1730 C   0  0  0  0  0
  -39.3300   37.5730  -20.4480 C   0  0  0  0  0
  -39.0910   36.9360  -21.6830 C   0  0  0  0  0
  -36.8270   31.5700  -18.8150 C   0  0  0  0  0
  -37.5260   32.6690  -20.8590 C   0  0  0  0  0
  -36.8930   30.3090  -19.4300 C   0  0  0  0  0
  -37.1310   32.7480  -19.5290 C   0  0  0  0  0
  -36.9540   26.5600  -18.7150 C   0  0  0  0  0
  -37.6410   27.8550  -20.7230 C   0  0  0  0  0
  -37.0060   27.8620  -19.3860 N   0  0  0  0  0
  -37.2890   30.2800  -20.7850 N   0  0  0  0  0
  -36.0810   24.5960  -18.8596 H   0  0  0  0  0
  -36.4030   25.3757  -20.4279 H   0  0  0  0  0
  -35.0283   25.9134  -19.4319 H   0  0  0  0  0
  -36.4846   32.6079  -17.2516 H   0  0  0  0  0
  -42.0263   37.6921  -23.1869 H   0  0  0  0  0
  -39.8609   36.5280  -23.6609 H   0  0  0  0  0
  -40.6872   38.6913  -19.1988 H   0  0  0  0  0
  -37.8949   31.3865  -22.5203 H   0  0  0  0  0
  -40.1053   27.1402  -18.9063 H   0  0  0  0  0
  -39.6318   26.0026  -20.3740 H   0  0  0  0  0
  -38.3073   24.9695  -19.0843 H   0  0  0  0  0
  -38.7433   26.0745  -17.6853 H   0  0  0  0  0
  -37.8887   35.9013  -23.0432 H   0  0  0  0  0
  -37.0075   36.9465  -21.8417 H   0  0  0  0  0
  -38.2182   29.1446  -22.2505 H   0  0  0  0  0
  -36.4268   28.8895  -22.0591 H   0  0  0  0  0
  -37.2072   35.1852  -20.2407 H   0  0  0  0  0
  -36.5434   26.7278  -17.7193 H   0  0  0  0  0
  -37.2723   26.9857  -21.2675 H   0  0  0  0  0
 27  1  1  0  0  0
 18  2  2  0  0  0
 19  3  2  0  0  0
 26  4  2  0  0  0
 23  5  1  0  0  0
 20  6  1  0  0  0
 21  7  1  0  0  0
  9  8  4  0  0  0
  8 20  4  0  0  0
 22  9  4  0  0  0
 10 20  4  0  0  0
 21 10  4  0  0  0
 24 11  2  0  0  0
 11 30  1  0  0  0
 12 13  1  0  0  0
 17 12  1  0  0  0
 13 27  1  0  0  0
 16 14  1  0  0  0
 14 22  1  0  0  0
 15 28  1  0  0  0
 30 15  1  0  0  0
 18 16  1  0  0  0
 28 17  1  0  0  0
 24 18  1  0  0  0
 25 19  1  0  0  0
 19 29  1  0  0  0
 22 21  4  0  0  0
 23 25  2  0  0  0
 26 23  1  0  0  0
 24 26  1  0  0  0
 25 30  1  0  0  0
 27 29  1  0  0  0
 28 29  1  0  0  0
  1 31  1  0  0  0
  1 32  1  0  0  0
  1 33  1  0  0  0
  5 34  1  0  0  0
  8 35  1  0  0  0
  9 36  1  0  0  0
 10 37  1  0  0  0
 11 38  1  0  0  0
 12 39  1  0  0  0
 12 40  1  0  0  0
 13 41  1  0  0  0
 13 42  1  0  0  0
 14 43  1  0  0  0
 14 44  1  0  0  0
 15 45  1  0  0  0
 15 46  1  0  0  0
 16 47  1  0  0  0
 27 48  1  0  0  0
 28 49  1  0  0  0
M  END
$$$$
