3w9k_ligand
  -I-interpret- 

 44 43  0  0  0  0  0  0  0  0999 V2000
   -5.2350   15.3900  -16.4610 C   0  0  0  0  0
   -4.3630   15.1130  -15.5970 O   0  0  0  0  0
   -5.6760   16.5800  -16.5020 O   0  0  0  0  0
   -5.7520   14.3620  -17.4640 C   0  0  0  0  0
   -6.2680   13.0310  -16.8930 C   0  0  0  0  0
   -7.8060   12.9430  -16.8860 C   0  0  0  0  0
   -8.4440   11.9140  -17.8350 C   0  0  0  0  0
   -9.8310   12.3500  -18.2170 C   0  0  0  0  0
  -10.4800   11.4010  -19.1860 C   0  0  0  0  0
  -11.8660   11.8840  -19.5210 C   0  0  0  0  0
  -12.3940   10.9820  -20.6130 C   0  0  0  0  0
  -13.6650   11.5020  -21.2430 C   0  0  0  0  0
  -13.9300   10.3690  -22.1820 C   0  0  0  0  0
  -14.7010   10.7630  -23.4060 C   0  0  0  0  0
  -14.3610    9.7330  -24.4500 C   0  0  0  0  0
  -14.3390    8.3610  -23.8150 C   0  0  0  0  0
   -6.3302   16.6537  -17.2007 H   0  0  0  0  0
   -4.9005   14.1060  -18.0945 H   0  0  0  0  0
   -6.6068   14.8276  -17.9545 H   0  0  0  0  0
   -5.9238   12.9536  -15.8617 H   0  0  0  0  0
   -5.8898   12.2271  -17.5245 H   0  0  0  0  0
   -8.1638   13.9181  -17.2164 H   0  0  0  0  0
   -8.0843   12.6347  -15.8782 H   0  0  0  0  0
   -8.4996   10.9495  -17.3302 H   0  0  0  0  0
   -7.8348   11.8332  -18.7353 H   0  0  0  0  0
   -9.7589   13.3263  -18.6963 H   0  0  0  0  0
  -10.4383   12.3778  -17.3123 H   0  0  0  0  0
  -10.5425   10.4110  -18.7342 H   0  0  0  0  0
   -9.8845   11.3533  -20.0977 H   0  0  0  0  0
  -11.8437   12.9217  -19.8539 H   0  0  0  0  0
  -12.5110   11.8465  -18.6432 H   0  0  0  0  0
  -12.6167   10.0133  -20.1656 H   0  0  0  0  0
  -11.6351   10.9251  -21.3933 H   0  0  0  0  0
  -13.5820   12.4825  -21.7119 H   0  0  0  0  0
  -14.4718   11.7226  -20.5440 H   0  0  0  0  0
  -14.5292    9.6347  -21.6435 H   0  0  0  0  0
  -12.9635    9.9909  -22.5151 H   0  0  0  0  0
  -14.4360   11.7672  -23.7369 H   0  0  0  0  0
  -15.7727   10.7910  -23.2091 H   0  0  0  0  0
  -13.3809    9.9537  -24.8728 H   0  0  0  0  0
  -15.1108    9.7556  -25.2408 H   0  0  0  0  0
  -13.5887    8.3399  -23.0246 H   0  0  0  0  0
  -15.3197    8.1417  -23.3928 H   0  0  0  0  0
  -14.0928    7.6158  -24.5715 H   0  0  0  0  0
  1  2  2  0  0  0
  1  3  1  0  0  0
  1  4  1  0  0  0
  4  5  1  0  0  0
  5  6  1  0  0  0
  6  7  1  0  0  0
  7  8  1  0  0  0
  8  9  1  0  0  0
  9 10  1  0  0  0
 10 11  1  0  0  0
 11 12  1  0  0  0
 12 13  1  0  0  0
 13 14  1  0  0  0
 14 15  1  0  0  0
 15 16  1  0  0  0
  3 17  1  0  0  0
  4 18  1  0  0  0
  4 19  1  0  0  0
  5 20  1  0  0  0
  5 21  1  0  0  0
  6 22  1  0  0  0
  6 23  1  0  0  0
  7 24  1  0  0  0
  7 25  1  0  0  0
  8 26  1  0  0  0
  8 27  1  0  0  0
  9 28  1  0  0  0
  9 29  1  0  0  0
 10 30  1  0  0  0
 10 31  1  0  0  0
 11 32  1  0  0  0
 11 33  1  0  0  0
 12 34  1  0  0  0
 12 35  1  0  0  0
 13 36  1  0  0  0
 13 37  1  0  0  0
 14 38  1  0  0  0
 14 39  1  0  0  0
 15 40  1  0  0  0
 15 41  1  0  0  0
 16 42  1  0  0  0
 16 43  1  0  0  0
 16 44  1  0  0  0
M  END
$$$$
