3zrc_ligand
  -I-interpret- 

 52 55  0  0  0  0  0  0  0  0999 V2000
  -56.7070  -10.9350   -5.1580 C   0  0  0  0  0
  -56.0300  -11.9020   -4.2460 C   0  0  0  0  0
  -54.7890  -11.8300   -3.8700 C   0  0  0  0  0
  -56.6130  -12.9290   -3.7450 N   0  0  0  0  0
  -55.7000  -13.5180   -2.9960 O   0  0  0  0  0
  -54.5770  -12.8470   -3.0950 C   0  0  0  0  0
  -53.3310  -13.2620   -2.3620 C   0  0  0  0  0
  -53.5270  -12.8320   -0.9350 C   0  0  0  0  0
  -53.3230  -11.6660   -0.6970 O   0  0  0  0  0
  -54.0010  -13.6670    0.0010 N   0  0  0  0  0
  -54.3240  -15.0460   -0.2130 C   0  0  0  0  0
  -55.1030  -15.4130    0.9950 C   0  0  0  0  0
  -56.3080  -14.7800    0.9510 O   0  0  0  0  0
  -54.3150  -14.7250    2.0030 C   0  0  0  0  0
  -54.3040  -13.3800    1.3850 C   0  0  0  0  0
  -53.1660  -12.6510    1.9880 C   0  0  0  0  0
  -52.0770  -12.6510    1.4540 O   0  0  0  0  0
  -53.4500  -12.0180    3.0930 N   0  0  0  0  0
  -52.4580  -11.2210    3.7650 C   0  0  0  0  0
  -52.1310  -11.9890    4.9620 C   0  0  0  0  0
  -53.0710  -12.8010    5.4780 C   0  0  0  0  0
  -52.7880  -13.5360    6.5800 C   0  0  0  0  0
  -50.9060  -11.9040    5.5270 C   0  0  0  0  0
  -50.6160  -12.6450    6.6370 C   0  0  0  0  0
  -51.5730  -13.4530    7.1640 C   0  0  0  0  0
  -51.3250  -14.2130    8.2740 C   0  0  0  0  0
  -50.5320  -13.9990    9.2660 C   0  0  0  0  0
  -50.6420  -15.0340   10.0390 N   0  0  0  0  0
  -51.4930  -15.8850    9.5560 C   0  0  0  0  0
  -51.9140  -15.3670    8.4420 O   0  0  0  0  0
  -56.6760   -9.9387   -4.7169 H   0  0  0  0  0
  -56.1938  -10.9241   -6.1196 H   0  0  0  0  0
  -57.7441  -11.2380   -5.3016 H   0  0  0  0  0
  -54.0666  -11.0637   -4.1513 H   0  0  0  0  0
  -52.4450  -12.7985   -2.7958 H   0  0  0  0  0
  -53.1719  -14.3381   -2.4317 H   0  0  0  0  0
  -53.4374  -15.6668   -0.3419 H   0  0  0  0  0
  -54.8841  -15.2049   -1.1345 H   0  0  0  0  0
  -55.2677  -16.4817    1.1326 H   0  0  0  0  0
  -56.8189  -15.0123    1.7299 H   0  0  0  0  0
  -53.3332  -15.1551    2.2009 H   0  0  0  0  0
  -54.7136  -14.7691    3.0165 H   0  0  0  0  0
  -55.2190  -12.8010    1.5098 H   0  0  0  0  0
  -54.3885  -12.0891    3.4861 H   0  0  0  0  0
  -52.8258  -10.2233    4.0046 H   0  0  0  0  0
  -51.5830  -11.0414    3.1403 H   0  0  0  0  0
  -54.0543  -12.8671    5.0123 H   0  0  0  0  0
  -53.5457  -14.1987    6.9982 H   0  0  0  0  0
  -50.1511  -11.2454    5.0976 H   0  0  0  0  0
  -49.6284  -12.5889    7.0948 H   0  0  0  0  0
  -49.8981  -13.1263    9.4234 H   0  0  0  0  0
  -51.7926  -16.8371    9.9940 H   0  0  0  0  0
  1  2  1  0  0  0
  2  3  4  0  0  0
  2  4  4  0  0  0
  3  6  4  0  0  0
  4  5  4  0  0  0
  5  6  4  0  0  0
  6  7  1  0  0  0
  7  8  1  0  0  0
  8  9  2  0  0  0
  8 10  1  0  0  0
 10 11  1  0  0  0
 10 15  1  0  0  0
 11 12  1  0  0  0
 12 13  1  0  0  0
 12 14  1  0  0  0
 14 15  1  0  0  0
 15 16  1  0  0  0
 16 17  2  0  0  0
 16 18  1  0  0  0
 18 19  1  0  0  0
 19 20  1  0  0  0
 20 21  4  0  0  0
 20 23  4  0  0  0
 21 22  4  0  0  0
 22 25  4  0  0  0
 23 24  4  0  0  0
 24 25  4  0  0  0
 25 26  1  0  0  0
 26 27  4  0  0  0
 26 30  4  0  0  0
 27 28  4  0  0  0
 28 29  4  0  0  0
 29 30  4  0  0  0
  1 31  1  0  0  0
  1 32  1  0  0  0
  1 33  1  0  0  0
  3 34  1  0  0  0
  7 35  1  0  0  0
  7 36  1  0  0  0
 11 37  1  0  0  0
 11 38  1  0  0  0
 12 39  1  0  0  0
 13 40  1  0  0  0
 14 41  1  0  0  0
 14 42  1  0  0  0
 15 43  1  0  0  0
 18 44  1  0  0  0
 19 45  1  0  0  0
 19 46  1  0  0  0
 21 47  1  0  0  0
 22 48  1  0  0  0
 23 49  1  0  0  0
 24 50  1  0  0  0
 27 51  1  0  0  0
 29 52  1  0  0  0
M  END
$$$$
