1g9b_ligand
  -I-interpret- 

 39 42  0  0  0  0  0  0  0  0999 V2000
   12.8410    1.3410   29.5740 C   0  0  0  0  0
   12.2500    2.4840   28.9790 C   0  0  0  0  0
   11.3140    2.3410   27.9310 C   0  0  0  0  0
   11.0030    1.0590   27.5180 C   0  0  0  0  0
   11.5710   -0.0410   28.0940 C   0  0  0  0  0
   12.4880    0.0580   29.1200 C   0  0  0  0  0
   13.8560    1.4900   30.6950 C   0  0  0  0  0
   10.1100   -0.8360   26.4150 C   0  0  0  0  0
    9.3320   -1.7390   25.4770 C   0  0  0  0  0
   13.6800    0.7300   31.9790 N   0  0  0  0  0
   15.0560    2.3680   30.5070 N   0  0  0  0  0
   10.0650    0.6450   26.4440 N   0  0  0  0  0
   11.0590   -1.2770   27.4570 N   0  0  0  0  0
    9.1900    0.3380   19.6430 C   0  0  0  0  0
   10.5760    0.5930   19.8470 C   0  0  0  0  0
   11.1740    0.2750   21.0890 C   0  0  0  0  0
   10.3660   -0.2770   22.0660 C   0  0  0  0  0
    9.0420   -0.5170   21.8530 C   0  0  0  0  0
    8.4280   -0.2260   20.6680 C   0  0  0  0  0
    8.5060    0.6840   18.3450 C   0  0  0  0  0
    9.4920   -1.2060   24.0610 C   0  0  0  0  0
    7.5130   -0.2280   17.7270 N   0  0  0  0  0
    8.7150    2.0060   17.7170 N   0  0  0  0  0
   10.7350   -0.6860   23.4410 N   0  0  0  0  0
    8.4230   -1.1020   23.0540 N   0  0  0  0  0
   12.5196    3.4792   29.3325 H   0  0  0  0  0
   10.8529    3.2113   27.4641 H   0  0  0  0  0
   12.9269   -0.8342   29.5665 H   0  0  0  0  0
    8.2784   -1.7500   25.7561 H   0  0  0  0  0
    9.7119   -2.7588   25.5383 H   0  0  0  0  0
   14.3762    0.8123   32.7199 H   0  0  0  0  0
   12.8643    0.1317   32.1098 H   0  0  0  0  0
   15.7505    2.4484   31.2497 H   0  0  0  0  0
   11.1744    1.0319   19.0486 H   0  0  0  0  0
   12.2332    0.4584   21.2693 H   0  0  0  0  0
    7.3667   -0.4296   20.5258 H   0  0  0  0  0
    7.0000    0.0647   16.8954 H   0  0  0  0  0
    7.3431   -1.1479   18.1336 H   0  0  0  0  0
    9.3255    2.6913   18.1621 H   0  0  0  0  0
  1  2  4  0  0  0
  6  1  4  0  0  0
  1  7  1  0  0  0
  3  2  4  0  0  0
  4  3  4  0  0  0
  5  4  4  0  0  0
 12  4  4  0  0  0
  5  6  4  0  0  0
 13  5  4  0  0  0
  7 10  1  0  0  0
  7 11  2  0  0  0
  9  8  1  0  0  0
  8 12  4  0  0  0
  8 13  4  0  0  0
 21  9  1  0  0  0
 15 14  4  0  0  0
 19 14  4  0  0  0
 14 20  1  0  0  0
 16 15  4  0  0  0
 17 16  4  0  0  0
 17 18  4  0  0  0
 24 17  4  0  0  0
 18 19  4  0  0  0
 18 25  4  0  0  0
 20 22  1  0  0  0
 20 23  2  0  0  0
 21 24  4  0  0  0
 21 25  4  0  0  0
  2 26  1  0  0  0
  3 27  1  0  0  0
  6 28  1  0  0  0
  9 29  1  0  0  0
  9 30  1  0  0  0
 10 31  1  0  0  0
 10 32  1  0  0  0
 11 33  1  0  0  0
 15 34  1  0  0  0
 16 35  1  0  0  0
 19 36  1  0  0  0
 22 37  1  0  0  0
 22 38  1  0  0  0
 23 39  1  0  0  0
M  END
$$$$
