3ava_ligand
  -I-interpret- 

129129  0  0  0  0  0  0  0  0999 V2000
    9.6400  -53.6340    2.7670 N   0  0  0  0  0
   10.2220  -53.5040    4.1330 C   0  0  0  0  0
    9.4350  -52.5860    5.0890 C   0  0  0  0  0
    9.9440  -52.2270    6.1960 O   0  0  0  0  0
   11.7280  -53.0080    4.0220 C   0  0  0  0  0
    8.2180  -52.1740    4.7030 N   0  0  0  0  0
    7.3460  -51.2230    5.4740 C   0  0  0  0  0
    7.8320  -49.7810    5.5090 C   0  0  0  0  0
    7.4720  -48.9980    6.4080 O   0  0  0  0  0
    7.0940  -51.6830    6.9180 C   0  0  0  0  0
    6.0550  -50.8760    7.7160 C   0  0  0  0  0
    4.7540  -50.7410    6.9700 C   0  0  0  0  0
    5.8030  -51.4980    9.1370 C   0  0  0  0  0
    8.6540  -49.4250    4.5310 N   0  0  0  0  0
    9.3040  -48.0880    4.5140 C   0  0  0  0  0
    8.8270  -47.4320    3.2620 C   0  0  0  0  0
    8.4850  -48.1330    2.3120 O   0  0  0  0  0
   10.8300  -48.2270    4.3960 C   0  0  0  0  0
   11.5310  -49.0620    5.4590 C   0  0  0  0  0
   11.3790  -48.4090    6.8460 C   0  0  0  0  0
   11.8160  -49.4050    7.9180 C   0  0  0  0  0
   11.9650  -48.8090    9.2680 N   0  3  0  0  0
    8.8270  -46.0990    3.2280 N   0  0  0  0  0
    8.2780  -45.3530    2.0760 C   0  0  0  0  0
    9.1110  -45.6920    0.8390 C   0  0  0  0  0
    8.5770  -45.7810   -0.3200 O   0  0  0  0  0
    8.2320  -43.8180    2.3950 C   0  0  0  0  0
    7.1210  -43.1130    1.6050 C   0  0  0  0  0
    9.5730  -43.1870    2.2090 C   0  0  0  0  0
    5.8060  -43.2300    2.3530 C   0  0  0  0  0
   10.4240  -45.9070    1.0690 N   0  0  0  0  0
   11.3560  -46.1250   -0.0460 C   0  0  0  0  0
   11.5540  -47.5780   -0.3080 C   0  0  0  0  0
   12.3880  -47.9190   -1.1780 O   0  0  0  0  0
   12.7640  -45.4800    0.0970 C   0  0  0  0  0
   13.4180  -45.7330    1.4820 C   0  0  0  0  0
   14.5830  -45.2660    1.7550 O   0  0  0  0  0
   12.7700  -46.3710    2.3230 O   0  0  0  0  0
   10.8870  -48.4210    0.4800 N   0  0  0  0  0
   10.9580  -49.8700    0.2630 C   0  0  0  0  0
    9.7160  -50.4560    0.9060 C   0  0  0  0  0
    9.6660  -50.8190    2.1070 O   0  0  0  0  0
   12.2560  -50.4640    0.8160 C   0  0  0  0  0
   12.4120  -51.9490    0.4570 C   0  0  0  0  0
   11.4440  -52.6150    0.1260 O   0  0  0  0  0
   13.6340  -52.4530    0.5310 N   0  0  0  0  0
    8.6650  -50.4600    0.1070 N   0  0  0  0  0
    7.3270  -50.7760    0.6540 C   0  0  0  0  0
    7.3160  -52.2320    1.1650 C   0  0  0  0  0
    6.7140  -52.5290    2.2050 O   0  0  0  0  0
    6.2400  -50.5300   -0.4150 C   0  0  0  0  0
    5.8430  -49.0330   -0.5850 C   0  0  0  0  0
    4.7500  -48.9370   -1.6650 C   0  0  0  0  0
    5.3460  -48.3060    0.6880 C   0  0  0  0  0
    8.0580  -53.0900    0.4820 N   0  0  0  0  0
    8.2410  -54.4940    0.9500 C   0  0  0  0  0
    8.7560  -54.5760    2.3980 C   0  0  0  0  0
    8.3530  -55.4930    3.1560 O   0  0  0  0  0
    9.1600  -55.2620   -0.0080 C   0  0  0  0  0
    8.4270  -55.7640   -1.2600 C   0  0  0  0  0
    7.1700  -55.7550   -1.2600 O   0  0  0  0  0
    9.1220  -56.1510   -2.2490 O   0  0  0  0  0
    9.9342  -52.9589    2.0612 H   0  0  0  0  0
   10.1657  -54.4981    4.5766 H   0  0  0  0  0
   11.7459  -51.9882    3.6374 H   0  0  0  0  0
   12.1914  -53.0339    5.0083 H   0  0  0  0  0
   12.2759  -53.6629    3.3444 H   0  0  0  0  0
    7.8571  -52.5334    3.8193 H   0  0  0  0  0
    6.4164  -51.2423    4.9052 H   0  0  0  0  0
    8.0410  -51.5654    7.4448 H   0  0  0  0  0
    6.7042  -52.6987    6.8504 H   0  0  0  0  0
    6.4742  -49.8785    7.8479 H   0  0  0  0  0
    4.9306  -50.2294    6.0238 H   0  0  0  0  0
    4.3425  -51.7318    6.7775 H   0  0  0  0  0
    4.0505  -50.1644    7.5705 H   0  0  0  0  0
    5.4346  -52.5178    9.0257 H   0  0  0  0  0
    6.7369  -51.5070    9.6991 H   0  0  0  0  0
    5.0634  -50.8991    9.6684 H   0  0  0  0  0
    8.8442  -50.0823    3.7746 H   0  0  0  0  0
    9.0669  -47.5353    5.4231 H   0  0  0  0  0
   11.2299  -47.2181    4.4978 H   0  0  0  0  0
   11.0106  -48.7367    3.4496 H   0  0  0  0  0
   12.5909  -49.1295    5.2139 H   0  0  0  0  0
   11.0804  -50.0542    5.4837 H   0  0  0  0  0
   10.3379  -48.1297    7.0076 H   0  0  0  0  0
   12.0007  -47.5153    6.9006 H   0  0  0  0  0
   12.7926  -49.7896    7.6241 H   0  0  0  0  0
   11.0418  -50.1693    7.9850 H   0  0  0  0  0
   12.2573  -49.5309    9.9267 H   0  0  0  0  0
   12.6681  -48.0707    9.2367 H   0  0  0  0  0
   11.0717  -48.4170    9.5658 H   0  0  0  0  0
    9.2154  -45.5813    4.0164 H   0  0  0  0  0
    7.2478  -45.6462    1.8740 H   0  0  0  0  0
    7.9780  -43.6970    3.4481 H   0  0  0  0  0
    7.0219  -43.5814    0.6258 H   0  0  0  0  0
    7.3757  -42.0599    1.4858 H   0  0  0  0  0
   10.2918  -43.6603    2.8779 H   0  0  0  0  0
    9.8949  -43.3185    1.1759 H   0  0  0  0  0
    9.5075  -42.1233    2.4379 H   0  0  0  0  0
    5.5509  -44.2828    2.4743 H   0  0  0  0  0
    5.9043  -42.7634    3.3332 H   0  0  0  0  0
    5.0216  -42.7276    1.7870 H   0  0  0  0  0
   10.7729  -45.9182    2.0274 H   0  0  0  0  0
   10.8602  -45.6189   -0.8743 H   0  0  0  0  0
   12.6460  -44.4027   -0.0196 H   0  0  0  0  0
   13.4095  -45.9276   -0.6587 H   0  0  0  0  0
   14.9292  -44.8041    0.9879 H   0  0  0  0  0
   10.3197  -48.0537    1.2440 H   0  0  0  0  0
   10.9803  -50.1129   -0.7994 H   0  0  0  0  0
   12.2331  -50.3778    1.9023 H   0  0  0  0  0
   13.0924  -49.9191    0.3782 H   0  0  0  0  0
   13.7952  -53.4349    0.3067 H   0  0  0  0  0
   14.4143  -51.8594    0.8123 H   0  0  0  0  0
    8.7750  -50.2459   -0.8842 H   0  0  0  0  0
    7.1046  -50.1192    1.4950 H   0  0  0  0  0
    5.3464  -51.0666   -0.0960 H   0  0  0  0  0
    6.6441  -50.8671   -1.3696 H   0  0  0  0  0
    6.7665  -48.5228   -0.8587 H   0  0  0  0  0
    5.1354  -49.3294   -2.6060 H   0  0  0  0  0
    3.8825  -49.5196   -1.3550 H   0  0  0  0  0
    4.4610  -47.8942   -1.7959 H   0  0  0  0  0
    4.4585  -48.8105    1.0699 H   0  0  0  0  0
    6.1300  -48.3246    1.4450 H   0  0  0  0  0
    5.1008  -47.2727    0.4424 H   0  0  0  0  0
    8.5122  -52.7854   -0.3790 H   0  0  0  0  0
    7.2575  -54.9638    0.9471 H   0  0  0  0  0
    9.5458  -56.1314    0.5243 H   0  0  0  0  0
    9.9478  -54.5820   -0.3322 H   0  0  0  0  0
   10.0543  -56.0743   -2.0331 H   0  0  0  0  0
  1  2  1  0  0  0
  1 57  1  0  0  0
  2  3  1  0  0  0
  2  5  1  0  0  0
  3  4  2  0  0  0
  3  6  1  0  0  0
  6  7  1  0  0  0
  7  8  1  0  0  0
  7 10  1  0  0  0
  8  9  2  0  0  0
  8 14  1  0  0  0
 10 11  1  0  0  0
 11 12  1  0  0  0
 11 13  1  0  0  0
 14 15  1  0  0  0
 15 16  1  0  0  0
 15 18  1  0  0  0
 16 17  2  0  0  0
 16 23  1  0  0  0
 18 19  1  0  0  0
 19 20  1  0  0  0
 20 21  1  0  0  0
 21 22  1  0  0  0
 23 24  1  0  0  0
 24 25  1  0  0  0
 24 27  1  0  0  0
 25 26  2  0  0  0
 25 31  1  0  0  0
 27 28  1  0  0  0
 27 29  1  0  0  0
 28 30  1  0  0  0
 31 32  1  0  0  0
 32 33  1  0  0  0
 32 35  1  0  0  0
 33 34  2  0  0  0
 33 39  1  0  0  0
 35 36  1  0  0  0
 36 37  1  0  0  0
 36 38  2  0  0  0
 39 40  1  0  0  0
 40 41  1  0  0  0
 40 43  1  0  0  0
 41 42  2  0  0  0
 41 47  1  0  0  0
 43 44  1  0  0  0
 44 45  2  0  0  0
 44 46  1  0  0  0
 47 48  1  0  0  0
 48 49  1  0  0  0
 48 51  1  0  0  0
 49 50  2  0  0  0
 49 55  1  0  0  0
 51 52  1  0  0  0
 52 53  1  0  0  0
 52 54  1  0  0  0
 55 56  1  0  0  0
 56 57  1  0  0  0
 56 59  1  0  0  0
 57 58  2  0  0  0
 59 60  1  0  0  0
 60 61  2  0  0  0
 60 62  1  0  0  0
  1 63  1  0  0  0
  2 64  1  0  0  0
  5 65  1  0  0  0
  5 66  1  0  0  0
  5 67  1  0  0  0
  6 68  1  0  0  0
  7 69  1  0  0  0
 10 70  1  0  0  0
 10 71  1  0  0  0
 11 72  1  0  0  0
 12 73  1  0  0  0
 12 74  1  0  0  0
 12 75  1  0  0  0
 13 76  1  0  0  0
 13 77  1  0  0  0
 13 78  1  0  0  0
 14 79  1  0  0  0
 15 80  1  0  0  0
 18 81  1  0  0  0
 18 82  1  0  0  0
 19 83  1  0  0  0
 19 84  1  0  0  0
 20 85  1  0  0  0
 20 86  1  0  0  0
 21 87  1  0  0  0
 21 88  1  0  0  0
 22 89  1  0  0  0
 22 90  1  0  0  0
 22 91  1  0  0  0
 23 92  1  0  0  0
 24 93  1  0  0  0
 27 94  1  0  0  0
 28 95  1  0  0  0
 28 96  1  0  0  0
 29 97  1  0  0  0
 29 98  1  0  0  0
 29 99  1  0  0  0
 30100  1  0  0  0
 30101  1  0  0  0
 30102  1  0  0  0
 31103  1  0  0  0
 32104  1  0  0  0
 35105  1  0  0  0
 35106  1  0  0  0
 37107  1  0  0  0
 39108  1  0  0  0
 40109  1  0  0  0
 43110  1  0  0  0
 43111  1  0  0  0
 46112  1  0  0  0
 46113  1  0  0  0
 47114  1  0  0  0
 48115  1  0  0  0
 51116  1  0  0  0
 51117  1  0  0  0
 52118  1  0  0  0
 53119  1  0  0  0
 53120  1  0  0  0
 53121  1  0  0  0
 54122  1  0  0  0
 54123  1  0  0  0
 54124  1  0  0  0
 55125  1  0  0  0
 56126  1  0  0  0
 59127  1  0  0  0
 59128  1  0  0  0
 62129  1  0  0  0
M  END
$$$$
