5hdv_ligand
  -I-interpret- 

 47 50  0  0  0  0  0  0  0  0999 V2000
   22.1650    9.5040   22.6750 N   0  0  0  0  0
   24.8690   11.2350   19.1650 C   0  0  0  0  0
   25.6860   10.5290   20.0590 C   0  0  0  0  0
   22.5280   10.0020   23.8740 C   0  0  0  0  0
   21.9800   12.2540   23.1720 C   0  0  0  0  0
   21.3640   11.6760   21.9070 C   0  0  0  0  0
   19.8840   11.3230   22.0950 C   0  0  0  0  0
   20.9300    9.7760   20.5180 C   0  0  0  0  0
   18.5210    9.6090   20.8800 C   0  0  0  0  0
   16.2570    9.4430   21.2010 C   0  0  0  0  0
   17.3810    8.1850   19.5130 C   0  0  0  0  0
   18.5450    6.4030   18.4650 C   0  0  0  0  0
   15.0330    7.9920   19.6920 F   0  0  0  0  0
   16.1870    8.5170   20.1360 C   0  0  0  0  0
   15.0320    9.8650   21.9570 C   0  0  0  0  0
   17.4270    9.9860   21.5830 N   0  0  0  0  0
   17.3510    7.1710   18.6280 O   0  0  0  0  0
   18.5350    8.7340   19.8530 N   0  0  0  0  0
   19.7200   10.1160   21.2670 N   0  0  0  0  0
   21.9140   13.4460   23.4090 O   0  0  0  0  0
   22.5950   11.3730   24.0410 N   0  0  0  0  0
   23.2620   11.9460   25.2210 C   0  0  0  0  0
   22.8970    9.2340   24.8420 N   0  0  0  0  0
   21.9900   10.3400   21.4690 C   0  0  0  0  0
   23.2770   10.5390   20.7530 C   0  0  0  0  0
   23.5260   11.2540   19.5520 C   0  0  0  0  0
   24.7530    9.8660   21.3540 S   0  0  0  0  0
   27.0960   10.4130   20.0440 C   0  0  0  0  0
   28.2340   10.3280   20.0830 N   0  0  0  0  0
   22.0030    8.5000   22.5963 H   0  0  0  0  0
   25.2421   11.7187   18.2623 H   0  0  0  0  0
   21.5325   12.4637   21.1727 H   0  0  0  0  0
   19.2170   12.1319   21.7971 H   0  0  0  0  0
   19.6202   11.1563   23.1394 H   0  0  0  0  0
   20.9662   10.1823   19.5072 H   0  0  0  0  0
   21.0409    8.7150   20.2940 H   0  0  0  0  0
   19.3520    7.0549   18.1305 H   0  0  0  0  0
   18.8154    5.9475   19.4176 H   0  0  0  0  0
   18.3752    5.6229   17.7229 H   0  0  0  0  0
   14.3248   10.3297   21.2700 H   0  0  0  0  0
   14.5719    8.9909   22.4178 H   0  0  0  0  0
   15.3123   10.5799   22.7305 H   0  0  0  0  0
   22.7620   11.5972   26.1246 H   0  0  0  0  0
   24.3051   11.6300   25.2364 H   0  0  0  0  0
   23.2113   13.0338   25.1730 H   0  0  0  0  0
   23.2324    9.6399   25.7156 H   0  0  0  0  0
   22.7471   11.7669   18.9877 H   0  0  0  0  0
  1  4  1  0  0  0
 24  1  1  0  0  0
  2  3  4  0  0  0
 26  2  4  0  0  0
  3 27  4  0  0  0
  3 28  1  0  0  0
  4 21  4  0  0  0
  4 23  2  0  0  0
  6  5  1  0  0  0
  5 20  2  0  0  0
  5 21  1  0  0  0
  6  7  1  0  0  0
 24  6  1  0  0  0
 19  7  1  0  0  0
  8 19  1  0  0  0
 24  8  1  0  0  0
  9 16  4  0  0  0
  9 18  4  0  0  0
 19  9  1  0  0  0
 10 14  4  0  0  0
 10 15  1  0  0  0
 16 10  4  0  0  0
 11 14  4  0  0  0
 11 17  1  0  0  0
 18 11  4  0  0  0
 17 12  1  0  0  0
 14 13  1  0  0  0
 21 22  1  0  0  0
 25 24  1  0  0  0
 25 26  4  0  0  0
 25 27  4  0  0  0
 28 29  3  0  0  0
  1 30  1  0  0  0
  2 31  1  0  0  0
  6 32  1  0  0  0
  7 33  1  0  0  0
  7 34  1  0  0  0
  8 35  1  0  0  0
  8 36  1  0  0  0
 12 37  1  0  0  0
 12 38  1  0  0  0
 12 39  1  0  0  0
 15 40  1  0  0  0
 15 41  1  0  0  0
 15 42  1  0  0  0
 22 43  1  0  0  0
 22 44  1  0  0  0
 22 45  1  0  0  0
 23 46  1  0  0  0
 26 47  1  0  0  0
M  END
$$$$
