1pxk_ligand
  -I-interpret- 

 28 29  0  0  0  0  0  0  0  0999 V2000
   14.3120   42.2420   26.9790 C   0  0  0  0  0
   14.1550   42.9920   25.6730 C   0  0  0  0  0
   12.9300   44.1670   25.5040 S   0  0  0  0  0
   14.9270   42.8010   24.6050 N   0  0  0  0  0
   14.5260   43.6310   23.5830 C   0  0  0  0  0
   15.3100   43.5460   22.2780 C   0  0  0  0  0
   13.4530   44.4740   23.8750 C   0  0  0  0  0
   12.7070   45.4480   23.1360 C   0  0  0  0  0
   11.8370   46.2260   23.7930 N   0  0  0  0  0
   12.8570   45.6250   21.7350 C   0  0  0  0  0
   12.0590   46.6050   21.1130 C   0  0  0  0  0
   11.2110   47.3410   21.8190 N   0  0  0  0  0
   11.1510   47.1320   23.1280 C   0  0  0  0  0
   10.2460   47.8900   23.9440 N   0  0  0  0  0
    9.2070   47.4280   24.7980 C   0  0  0  0  0
    8.4810   48.2310   25.4580 N   0  0  0  0  0
    8.5260   49.5430   25.4850 O   0  0  0  0  0
   14.5146   42.9511   27.7816 H   0  0  0  0  0
   13.3931   41.6977   27.1967 H   0  0  0  0  0
   15.1410   41.5392   26.8955 H   0  0  0  0  0
   16.3546   43.7938   22.4664 H   0  0  0  0  0
   15.2415   42.5337   21.8798 H   0  0  0  0  0
   14.8924   44.2500   21.5582 H   0  0  0  0  0
   13.5636   45.0246   21.1621 H   0  0  0  0  0
   12.1394   46.7606   20.0372 H   0  0  0  0  0
   10.3647   48.9024   23.9061 H   0  0  0  0  0
    9.0303   46.3562   24.8875 H   0  0  0  0  0
    7.8487   49.8731   26.0799 H   0  0  0  0  0
  1  2  1  0  0  0
  2  3  4  0  0  0
  2  4  4  0  0  0
  3  7  4  0  0  0
  4  5  4  0  0  0
  5  6  1  0  0  0
  5  7  4  0  0  0
  7  8  1  0  0  0
  8  9  4  0  0  0
  8 10  4  0  0  0
  9 13  4  0  0  0
 10 11  4  0  0  0
 11 12  4  0  0  0
 12 13  4  0  0  0
 13 14  1  0  0  0
 14 15  1  0  0  0
 15 16  2  0  0  0
 16 17  1  0  0  0
  1 18  1  0  0  0
  1 19  1  0  0  0
  1 20  1  0  0  0
  6 21  1  0  0  0
  6 22  1  0  0  0
  6 23  1  0  0  0
 10 24  1  0  0  0
 11 25  1  0  0  0
 14 26  1  0  0  0
 15 27  1  0  0  0
 17 28  1  0  0  0
M  END
$$$$
