3khj_ligand
  -I-interpret- 

 38 41  0  0  0  0  0  0  0  0999 V2000
   20.8530   26.4870   10.0030 O   0  0  0  0  0
   23.3100   21.8680    9.9980 S   0  0  0  0  0
   17.9080   28.3200    4.0630 Br  0  0  0  0  0
   21.3100   26.5700   13.6660 C   0  0  0  0  0
   21.1950   24.6940   11.9940 N   0  0  0  0  0
   19.6120   27.1520    7.6640 C   0  0  0  0  0
   20.7360   22.3090   10.2210 N   0  0  0  0  0
   22.1510   27.1500   14.6180 C   0  0  0  0  0
   23.2780   23.8540   12.3960 N   0  0  0  0  0
   18.7100   26.2030    8.1530 C   0  0  0  0  0
   18.8940   25.5550    9.3360 N   0  0  0  0  0
   19.3750   27.7840    6.4450 C   0  0  0  0  0
   22.1230   23.7680   11.7040 C   0  0  0  0  0
   22.1850   20.9460    9.0370 C   0  0  0  0  0
   21.9440   22.6930   10.6760 C   0  0  0  0  0
   23.9110   25.5280   14.1740 C   0  0  0  0  0
   21.7460   25.4580   12.9470 C   0  0  0  0  0
   23.1080   24.9140   13.2150 C   0  0  0  0  0
   17.5720   25.8930    7.4120 C   0  0  0  0  0
   19.9190   25.7190   10.1770 C   0  0  0  0  0
   23.4270   26.6380   14.8690 C   0  0  0  0  0
   20.8710   21.3220    9.2950 C   0  0  0  0  0
   17.3310   26.5220    6.1940 C   0  0  0  0  0
   19.8580   24.8650   11.4210 C   0  0  0  0  0
   18.2340   27.4660    5.7140 C   0  0  0  0  0
   20.3181   26.9844   13.4860 H   0  0  0  0  0
   20.5047   27.3988    8.2387 H   0  0  0  0  0
   21.8053   28.0197   15.1767 H   0  0  0  0  0
   18.1800   24.8787    9.6065 H   0  0  0  0  0
   20.0798   28.5239    6.0657 H   0  0  0  0  0
   22.4745   20.1733    8.3247 H   0  0  0  0  0
   24.9102   25.1444   14.3802 H   0  0  0  0  0
   16.8657   25.1531    7.7884 H   0  0  0  0  0
   24.0559   27.1141   15.6213 H   0  0  0  0  0
   20.0181   20.8627    8.7953 H   0  0  0  0  0
   16.4386   26.2762    5.6184 H   0  0  0  0  0
   19.2188   25.3552   12.1553 H   0  0  0  0  0
   19.4582   23.8856   11.1582 H   0  0  0  0  0
 20  1  2  0  0  0
  2 14  4  0  0  0
 15  2  4  0  0  0
 25  3  1  0  0  0
  4  8  4  0  0  0
 17  4  4  0  0  0
  5 13  4  0  0  0
  5 17  4  0  0  0
 24  5  1  0  0  0
 10  6  4  0  0  0
  6 12  4  0  0  0
 15  7  4  0  0  0
  7 22  4  0  0  0
  8 21  4  0  0  0
 13  9  4  0  0  0
 18  9  4  0  0  0
 11 10  1  0  0  0
 10 19  4  0  0  0
 20 11  1  0  0  0
 12 25  4  0  0  0
 13 15  1  0  0  0
 22 14  4  0  0  0
 18 16  4  0  0  0
 16 21  4  0  0  0
 17 18  4  0  0  0
 19 23  4  0  0  0
 20 24  1  0  0  0
 23 25  4  0  0  0
  4 26  1  0  0  0
  6 27  1  0  0  0
  8 28  1  0  0  0
 11 29  1  0  0  0
 12 30  1  0  0  0
 14 31  1  0  0  0
 16 32  1  0  0  0
 19 33  1  0  0  0
 21 34  1  0  0  0
 22 35  1  0  0  0
 23 36  1  0  0  0
 24 37  1  0  0  0
 24 38  1  0  0  0
M  END
$$$$
