2w1d_ligand
  -I-interpret- 

 20 22  0  0  0  0  0  0  0  0999 V2000
    4.9080   30.2520    8.7380 C   0  0  0  0  0
    4.7160   30.5820    7.4530 C   0  0  0  0  0
    3.9710   31.7240    7.4420 C   0  0  0  0  0
    3.6900   32.1090    8.6910 N   0  0  0  0  0
    4.2830   31.1830    9.4740 N   0  0  0  0  0
    3.4860   32.4790    6.3070 C   0  0  0  0  0
    3.7280   32.2120    5.0390 N   0  0  0  0  0
    3.0860   33.1480    4.2840 C   0  0  0  0  0
    3.0100   33.3360    2.9130 C   0  0  0  0  0
    2.2790   34.3830    2.3990 C   0  0  0  0  0
    1.6160   35.2490    3.2440 C   0  0  0  0  0
    1.6830   35.0730    4.6040 C   0  0  0  0  0
    2.4180   34.0220    5.1330 C   0  0  0  0  0
    2.6930   33.5700    6.3860 N   0  0  0  0  0
    5.4646   29.3929    9.1125 H   0  0  0  0  0
    5.0853   30.0403    6.5822 H   0  0  0  0  0
    3.5300   32.6536    2.2406 H   0  0  0  0  0
    2.2237   34.5285    1.3202 H   0  0  0  0  0
    1.0374   36.0752    2.8307 H   0  0  0  0  0
    1.1584   35.7595    5.2685 H   0  0  0  0  0
  1  2  4  0  0  0
  1  5  4  0  0  0
  2  3  4  0  0  0
  3  4  4  0  0  0
  3  6  1  0  0  0
  4  5  4  0  0  0
  6  7  4  0  0  0
  6 14  4  0  0  0
  7  8  4  0  0  0
  8  9  4  0  0  0
  8 13  4  0  0  0
  9 10  4  0  0  0
 10 11  4  0  0  0
 11 12  4  0  0  0
 12 13  4  0  0  0
 13 14  4  0  0  0
  1 15  1  0  0  0
  2 16  1  0  0  0
  9 17  1  0  0  0
 10 18  1  0  0  0
 11 19  1  0  0  0
 12 20  1  0  0  0
M  END
$$$$
