1lbf_ligand
  -I-interpret- 

 41 41  0  0  0  0  0  0  0  0999 V2000
   -6.3130  -23.0150   28.0760 P   0  0  0  0  0
   -5.0920  -22.9280   27.2610 O   0  0  0  0  0
   -7.5040  -22.4980   27.3370 O   0  0  0  0  0
   -6.4450  -24.3750   28.5520 O   0  0  0  0  0
   -6.1980  -22.2390   29.3450 O   0  0  0  0  0
   -5.1760  -21.9580   30.0560 C   0  0  0  0  0
   -5.4090  -21.2230   31.3900 C   0  0  0  0  0
   -5.4830  -19.8010   31.1350 O   0  0  0  0  0
   -6.7310  -21.6960   32.0510 C   0  0  0  0  0
   -6.4440  -22.9900   32.5680 O   0  0  0  0  0
   -7.1600  -20.8460   33.2850 C   0  0  0  0  0
   -6.1590  -20.4380   34.1710 O   0  0  0  0  0
   -8.3100  -21.3940   34.0870 C   0  0  0  0  0
   -9.2920  -21.9510   33.1990 N   0  0  0  0  0
  -11.5690  -22.8590   32.9600 C   0  0  0  0  0
  -10.6200  -22.0160   33.6290 C   0  0  0  0  0
  -11.0030  -21.1760   34.7100 C   0  0  0  0  0
  -12.3340  -21.1740   35.1210 C   0  0  0  0  0
  -13.2870  -21.9950   34.4610 C   0  0  0  0  0
  -12.9070  -22.8240   33.4000 C   0  0  0  0  0
  -11.2310  -23.8430   31.9140 C   0  0  0  0  0
  -10.1010  -23.9610   31.4600 O   0  0  0  0  0
  -12.1160  -24.5870   31.4970 O   0  0  0  0  0
   -4.9886  -22.0305   26.9363 H   0  0  0  0  0
   -7.3379  -21.5951   27.0563 H   0  0  0  0  0
   -4.5779  -21.2777   29.4497 H   0  0  0  0  0
   -4.7364  -22.9182   30.3258 H   0  0  0  0  0
   -4.5834  -21.4439   32.0666 H   0  0  0  0  0
   -4.6656  -19.5074   30.7261 H   0  0  0  0  0
   -7.5252  -21.6354   31.3069 H   0  0  0  0  0
   -7.2278  -23.3440   32.9947 H   0  0  0  0  0
   -7.4874  -19.9573   32.7454 H   0  0  0  0  0
   -6.5516  -19.9259   34.8818 H   0  0  0  0  0
   -8.7615  -20.5909   34.6696 H   0  0  0  0  0
   -7.9460  -22.1712   34.7590 H   0  0  0  0  0
   -9.0259  -22.2915   32.2751 H   0  0  0  0  0
  -10.2678  -20.5444   35.2087 H   0  0  0  0  0
  -12.6452  -20.5405   35.9516 H   0  0  0  0  0
  -14.3275  -21.9789   34.7853 H   0  0  0  0  0
  -13.6532  -23.4488   32.9091 H   0  0  0  0  0
  -12.9419  -24.3799   31.9404 H   0  0  0  0  0
  1  5  1  0  0  0
  1  4  2  0  0  0
  1  3  1  0  0  0
  1  2  1  0  0  0
  5  6  1  0  0  0
  6  7  1  0  0  0
  7  9  1  0  0  0
  7  8  1  0  0  0
  9 11  1  0  0  0
  9 10  1  0  0  0
 11 13  1  0  0  0
 11 12  1  0  0  0
 13 14  1  0  0  0
 14 16  1  0  0  0
 16 15  4  0  0  0
 16 17  4  0  0  0
 17 18  4  0  0  0
 18 19  4  0  0  0
 19 20  4  0  0  0
 20 15  4  0  0  0
 15 21  1  0  0  0
 21 23  1  0  0  0
 21 22  2  0  0  0
  2 24  1  0  0  0
  3 25  1  0  0  0
  6 26  1  0  0  0
  6 27  1  0  0  0
  7 28  1  0  0  0
  8 29  1  0  0  0
  9 30  1  0  0  0
 10 31  1  0  0  0
 11 32  1  0  0  0
 12 33  1  0  0  0
 13 34  1  0  0  0
 13 35  1  0  0  0
 14 36  1  0  0  0
 17 37  1  0  0  0
 18 38  1  0  0  0
 19 39  1  0  0  0
 20 40  1  0  0  0
 23 41  1  0  0  0
M  END
$$$$
