1lyb_ligand
  -I-interpret- 

111110  0  0  0  0  0  0  0  0999 V2000
   24.2380   89.5030    4.5820 C   0  0  0  0  0
   24.4390   88.1400    3.9450 C   0  0  0  0  0
   24.8070   88.3800    2.4910 C   0  0  0  0  0
   25.5560   87.3460    4.6120 C   0  0  0  0  0
   23.1110   89.5010    5.6010 C   0  0  0  0  0
   23.0250   88.5750    6.3950 O   0  0  0  0  0
   22.2600   90.5380    5.5580 N   0  0  0  0  0
   21.1750   90.8440    6.4950 C   0  0  0  0  0
   21.8540   91.5580    7.6520 C   0  0  0  0  0
   22.7770   91.0870    8.3380 O   0  0  0  0  0
   20.3940   89.5530    6.9790 C   0  0  0  0  0
   20.0610   89.5660    8.4670 C   0  0  0  0  0
   19.1010   89.4700    6.1680 C   0  0  0  0  0
   21.4680   92.8200    7.7310 N   0  0  0  0  0
   21.8940   93.7270    8.7720 C   0  0  0  0  0
   20.6120   94.4610    9.0210 C   0  0  0  0  0
   20.0380   95.1210    8.1510 O   0  0  0  0  0
   23.0360   94.6910    8.3220 C   0  0  0  0  0
   23.0090   94.8930    6.8280 C   0  0  0  0  0
   22.8950   96.0340    9.0430 C   0  0  0  0  0
   20.1640   94.2290   10.2360 N   0  0  0  0  0
   18.8970   94.7300   10.6740 C   0  0  0  0  0
   17.9720   93.5430   10.7320 C   0  0  0  0  0
   17.8000   92.5160    9.6040 C   0  0  0  0  0
   17.1820   91.2830   10.2060 C   0  0  0  0  0
   16.8960   92.9840    8.5080 C   0  0  0  0  0
   19.0580   95.4210   12.0390 C   0  0  0  0  0
   19.8530   94.5500   12.8240 O   0  0  0  0  0
   19.8420   96.7200   12.0830 C   0  0  0  0  0
   19.0400   97.8300   11.4280 C   0  0  0  0  0
   19.1230   98.0330   10.2100 O   0  0  0  0  0
   18.2580   98.5550   12.2190 N   0  0  0  0  0
   17.4480   99.6430   11.7210 C   0  0  0  0  0
   18.3100  100.8820   11.6790 C   0  0  0  0  0
   18.3520  101.6860   12.6110 O   0  0  0  0  0
   16.2830   99.9060   12.6400 C   0  0  0  0  0
   19.0660  100.9390   10.5800 N   0  0  0  0  0
   19.9820  102.0230   10.2820 C   0  0  0  0  0
   21.2870  101.3660    9.8230 C   0  0  0  0  0
   22.4660  100.9890   10.7240 C   0  0  0  0  0
   22.1070  100.9150   12.1970 C   0  0  0  0  0
   22.9420   99.6110   10.2660 C   0  0  0  0  0
   19.4300  103.0190    9.2280 C   0  0  0  0  0
   19.9530  102.5490    7.9800 O   0  0  0  0  0
   17.8990  103.0430    9.0190 C   0  0  0  0  0
   17.1810  104.3480    9.3800 C   0  0  0  0  0
   16.7940  104.5420   10.5450 O   0  0  0  0  0
   16.9310  105.1430    8.4590 O   0  0  0  0  0
   23.9808   90.2106    3.7938 H   0  0  0  0  0
   25.1594   89.7756    5.0966 H   0  0  0  0  0
   23.5234   87.5587    4.0536 H   0  0  0  0  0
   25.7397   88.9419    2.4416 H   0  0  0  0  0
   24.9313   87.4220    1.9861 H   0  0  0  0  0
   24.0132   88.9477    2.0056 H   0  0  0  0  0
   25.6776   86.3917    4.0996 H   0  0  0  0  0
   26.4860   87.9116    4.5551 H   0  0  0  0  0
   25.3003   87.1689    5.6567 H   0  0  0  0  0
   22.3826   91.1893    4.7827 H   0  0  0  0  0
   20.4073   91.4564    6.0221 H   0  0  0  0  0
   21.0373   88.6873    6.8216 H   0  0  0  0  0
   20.9838   89.6255    9.0440 H   0  0  0  0  0
   19.4350   90.4299    8.6904 H   0  0  0  0  0
   19.5270   88.6519    8.7265 H   0  0  0  0  0
   18.5051   90.3656    6.3440 H   0  0  0  0  0
   19.3428   89.3954    5.1078 H   0  0  0  0  0
   18.5363   88.5900    6.4760 H   0  0  0  0  0
   20.8327   93.1738    7.0157 H   0  0  0  0  0
   22.3263   93.2318    9.6415 H   0  0  0  0  0
   23.9941   94.2429    8.5855 H   0  0  0  0  0
   23.1428   93.9325    6.3303 H   0  0  0  0  0
   22.0505   95.3235    6.5381 H   0  0  0  0  0
   23.8143   95.5685    6.5394 H   0  0  0  0  0
   21.9302   96.4775    8.7969 H   0  0  0  0  0
   22.9595   95.8755   10.1195 H   0  0  0  0  0
   23.6953   96.7019    8.7242 H   0  0  0  0  0
   20.7326   93.6796   10.8804 H   0  0  0  0  0
   18.4875   95.4811    9.9985 H   0  0  0  0  0
   16.9891   94.0122   10.7752 H   0  0  0  0  0
   18.4075   92.9439   11.5317 H   0  0  0  0  0
   18.7825   92.3392    9.1665 H   0  0  0  0  0
   17.8390   90.8908   10.9823 H   0  0  0  0  0
   16.2155   91.5378   10.6408 H   0  0  0  0  0
   17.0454   90.5304    9.4294 H   0  0  0  0  0
   15.9072   93.1903    8.9176 H   0  0  0  0  0
   17.3041   93.8926    8.0652 H   0  0  0  0  0
   16.8203   92.2089    7.7454 H   0  0  0  0  0
   18.0387   95.6391   12.3576 H   0  0  0  0  0
   19.9856   94.9356   13.6931 H   0  0  0  0  0
   20.7820   96.5909   11.5465 H   0  0  0  0  0
   20.0409   96.9849   13.1215 H   0  0  0  0  0
   18.2279   98.3359   13.2147 H   0  0  0  0  0
   17.0660   99.3849   10.7333 H   0  0  0  0  0
   15.6660   99.0100   12.7080 H   0  0  0  0  0
   16.6551  100.1685   13.6303 H   0  0  0  0  0
   15.6881  100.7291   12.2441 H   0  0  0  0  0
   18.9950  100.1737    9.9094 H   0  0  0  0  0
   20.1372  102.6364   11.1695 H   0  0  0  0  0
   21.7223  102.1430    9.1946 H   0  0  0  0  0
   20.9411  100.3898    9.4832 H   0  0  0  0  0
   23.2291  101.7621   10.6338 H   0  0  0  0  0
   21.7404  101.8861   12.5295 H   0  0  0  0  0
   21.3317  100.1630   12.3434 H   0  0  0  0  0
   22.9920  100.6429   12.7721 H   0  0  0  0  0
   22.1278   98.8938   10.3698 H   0  0  0  0  0
   23.2510   99.6632    9.2220 H   0  0  0  0  0
   23.7855   99.2966   10.8806 H   0  0  0  0  0
   19.7116  104.0151    9.5695 H   0  0  0  0  0
   19.6508  103.1220    7.2715 H   0  0  0  0  0
   17.4914  102.2803    9.6825 H   0  0  0  0  0
   17.7374  102.8945    7.9513 H   0  0  0  0  0
   17.0874  103.8182   11.1032 H   0  0  0  0  0
  8  7  1  0  0  0
  8 11  1  0  0  0
  9  8  1  0  0  0
  9 10  2  0  0  0
 11 13  1  0  0  0
 11 12  1  0  0  0
 15 14  1  0  0  0
 15 18  1  0  0  0
 16 15  1  0  0  0
 16 17  2  0  0  0
 18 20  1  0  0  0
 18 19  1  0  0  0
 14  9  1  0  0  0
 32 33  1  0  0  0
 33 36  1  0  0  0
 33 34  1  0  0  0
 34 35  2  0  0  0
  1  2  1  0  0  0
  5  1  1  0  0  0
  2  3  1  0  0  0
  2  4  1  0  0  0
  5  6  2  0  0  0
  7  5  1  0  0  0
 21 16  1  0  0  0
 22 21  1  0  0  0
 22 23  1  0  0  0
 27 22  1  0  0  0
 23 24  1  0  0  0
 24 25  1  0  0  0
 24 26  1  0  0  0
 27 28  1  0  0  0
 29 27  1  0  0  0
 30 29  1  0  0  0
 30 31  2  0  0  0
 32 30  1  0  0  0
 34 37  1  0  0  0
 37 38  1  0  0  0
 38 39  1  0  0  0
 38 43  1  0  0  0
 39 40  1  0  0  0
 40 41  1  0  0  0
 40 42  1  0  0  0
 43 44  1  0  0  0
 43 45  1  0  0  0
 45 46  1  0  0  0
 46 47  1  0  0  0
 46 48  2  0  0  0
  1 49  1  0  0  0
  1 50  1  0  0  0
  2 51  1  0  0  0
  3 52  1  0  0  0
  3 53  1  0  0  0
  3 54  1  0  0  0
  4 55  1  0  0  0
  4 56  1  0  0  0
  4 57  1  0  0  0
  7 58  1  0  0  0
  8 59  1  0  0  0
 11 60  1  0  0  0
 12 61  1  0  0  0
 12 62  1  0  0  0
 12 63  1  0  0  0
 13 64  1  0  0  0
 13 65  1  0  0  0
 13 66  1  0  0  0
 14 67  1  0  0  0
 15 68  1  0  0  0
 18 69  1  0  0  0
 19 70  1  0  0  0
 19 71  1  0  0  0
 19 72  1  0  0  0
 20 73  1  0  0  0
 20 74  1  0  0  0
 20 75  1  0  0  0
 21 76  1  0  0  0
 22 77  1  0  0  0
 23 78  1  0  0  0
 23 79  1  0  0  0
 24 80  1  0  0  0
 25 81  1  0  0  0
 25 82  1  0  0  0
 25 83  1  0  0  0
 26 84  1  0  0  0
 26 85  1  0  0  0
 26 86  1  0  0  0
 27 87  1  0  0  0
 28 88  1  0  0  0
 29 89  1  0  0  0
 29 90  1  0  0  0
 32 91  1  0  0  0
 33 92  1  0  0  0
 36 93  1  0  0  0
 36 94  1  0  0  0
 36 95  1  0  0  0
 37 96  1  0  0  0
 38 97  1  0  0  0
 39 98  1  0  0  0
 39 99  1  0  0  0
 40100  1  0  0  0
 41101  1  0  0  0
 41102  1  0  0  0
 41103  1  0  0  0
 42104  1  0  0  0
 42105  1  0  0  0
 42106  1  0  0  0
 43107  1  0  0  0
 44108  1  0  0  0
 45109  1  0  0  0
 45110  1  0  0  0
 47111  1  0  0  0
M  END
$$$$
