6itp_ligand
  -I-interpret- 

 58 61  0  0  0  0  0  0  0  0999 V2000
    6.1070   -9.6990   19.6160 C   0  0  0  0  0
    5.7800   -8.6050   20.6840 C   0  0  0  0  0
    4.9650   -7.4380   20.0710 C   0  0  0  0  0
    3.9650   -7.7470   18.9780 C   0  0  0  0  0
    3.8080   -9.1740   18.5930 C   0  0  0  0  0
    2.5700   -9.6330   17.7670 C   0  0  0  0  0
    2.9820  -10.4310   16.4550 C   0  0  0  0  0
    4.0260  -11.4980   16.7330 C   0  0  0  0  0
    5.2810  -10.9310   17.6100 C   0  0  0  0  0
    4.8610  -10.2550   18.9400 C   0  0  0  0  0
    6.8560  -12.5280   16.3010 C   0  0  0  0  0
    6.3970  -11.8880   17.7580 C   0  0  0  0  0
    5.6930  -13.0580   15.5120 C   0  0  0  0  0
    4.5360  -12.0300   15.4160 C   0  0  0  0  0
    3.4760  -12.6340   14.3880 C   0  0  0  0  0
    4.3450  -13.4050   13.3120 C   0  0  0  0  0
    5.8920  -13.4140   13.9190 C   0  0  0  0  0
    5.1700  -14.3530   16.1870 C   0  0  0  0  0
    4.1660  -11.2130   19.8980 C   0  0  0  0  0
    6.5830  -14.5630   13.6890 C   0  0  0  0  0
    8.1260  -14.5250   13.7610 C   0  0  0  0  0
    5.0710   -6.2950   20.4130 O   0  0  0  0  0
    6.1220  -12.9230   18.6150 O   0  0  0  0  0
    6.5900  -12.2590   13.4440 O   0  0  0  0  0
    6.0570  -15.5940   13.4210 O   0  0  0  0  0
    8.6610  -15.8030   13.4980 O   0  0  0  0  0
    6.6067  -10.5233   20.1248 H   0  0  0  0  0
    6.7272   -9.2394   18.8465 H   0  0  0  0  0
    6.7188   -8.2060   21.0680 H   0  0  0  0  0
    5.1864   -9.0621   21.4757 H   0  0  0  0  0
    4.3299   -7.2362   18.0869 H   0  0  0  0  0
    2.9950   -7.4339   19.3642 H   0  0  0  0  0
    3.9811   -8.5610   19.4775 H   0  0  0  0  0
    2.0181   -8.7437   17.4626 H   0  0  0  0  0
    1.9731  -10.2964   18.3928 H   0  0  0  0  0
    3.4059   -9.7199   15.7460 H   0  0  0  0  0
    2.0911  -10.9233   16.0650 H   0  0  0  0  0
    3.5526  -12.2859   17.3188 H   0  0  0  0  0
    5.6914  -10.1245   17.0023 H   0  0  0  0  0
    7.5345  -13.3581   16.4977 H   0  0  0  0  0
    7.3235  -11.7345   15.7180 H   0  0  0  0  0
    7.2090  -11.2978   18.1828 H   0  0  0  0  0
    4.8894  -11.0797   15.0158 H   0  0  0  0  0
    2.8653  -11.8548   13.9319 H   0  0  0  0  0
    2.7643  -13.2951   14.8824 H   0  0  0  0  0
    4.3000  -12.9184   12.3377 H   0  0  0  0  0
    3.9735  -14.4165   13.1475 H   0  0  0  0  0
    5.9670  -15.0962   16.2108 H   0  0  0  0  0
    4.8513  -14.1275   17.2047 H   0  0  0  0  0
    4.3255  -14.7421   15.6182 H   0  0  0  0  0
    3.2658  -11.6070   19.4264 H   0  0  0  0  0
    4.8399  -12.0346   20.1408 H   0  0  0  0  0
    3.8966  -10.6807   20.8102 H   0  0  0  0  0
    8.4276  -14.2123   14.7607 H   0  0  0  0  0
    8.4994  -13.8231   13.0154 H   0  0  0  0  0
    6.8834  -13.5054   18.6664 H   0  0  0  0  0
    6.7646  -12.3557   12.5050 H   0  0  0  0  0
    9.6190  -15.7637   13.5462 H   0  0  0  0  0
  1  2  1  0  0  0
  1 10  1  0  0  0
  2  3  1  0  0  0
  3  4  1  0  0  0
  3 22  2  0  0  0
  4  5  1  0  0  0
  5  6  1  0  0  0
  5 10  1  0  0  0
  6  7  1  0  0  0
  7  8  1  0  0  0
  8  9  1  0  0  0
  8 14  1  0  0  0
  9 10  1  0  0  0
  9 12  1  0  0  0
 10 19  1  0  0  0
 12 11  1  0  0  0
 11 13  1  0  0  0
 12 23  1  0  0  0
 13 14  1  0  0  0
 13 17  1  0  0  0
 13 18  1  0  0  0
 14 15  1  0  0  0
 15 16  1  0  0  0
 16 17  1  0  0  0
 17 20  1  0  0  0
 17 24  1  0  0  0
 20 21  1  0  0  0
 20 25  2  0  0  0
 21 26  1  0  0  0
  1 27  1  0  0  0
  1 28  1  0  0  0
  2 29  1  0  0  0
  2 30  1  0  0  0
  4 31  1  0  0  0
  4 32  1  0  0  0
  5 33  1  0  0  0
  6 34  1  0  0  0
  6 35  1  0  0  0
  7 36  1  0  0  0
  7 37  1  0  0  0
  8 38  1  0  0  0
  9 39  1  0  0  0
 11 40  1  0  0  0
 11 41  1  0  0  0
 12 42  1  0  0  0
 14 43  1  0  0  0
 15 44  1  0  0  0
 15 45  1  0  0  0
 16 46  1  0  0  0
 16 47  1  0  0  0
 18 48  1  0  0  0
 18 49  1  0  0  0
 18 50  1  0  0  0
 19 51  1  0  0  0
 19 52  1  0  0  0
 19 53  1  0  0  0
 21 54  1  0  0  0
 21 55  1  0  0  0
 23 56  1  0  0  0
 24 57  1  0  0  0
 26 58  1  0  0  0
M  END
$$$$
