4iqt_ligand
  -I-interpret- 

 39 40  0  0  0  0  0  0  0  0999 V2000
   20.1980    7.9910   15.9300 O   0  0  0  0  0
   19.4620   11.0920   11.6090 O   0  0  0  0  0
   15.6100    8.0500   23.1790 O   0  0  0  0  0
   18.8370   12.2140   13.2890 O   0  0  0  0  0
   19.0850    8.5270   13.3250 O   0  0  0  0  0
   16.7290    3.9500   26.4020 F   0  0  0  0  0
   19.0130    9.0070   17.7840 C   0  0  0  0  0
   17.6510    8.3010   18.0160 C   0  0  0  0  0
   18.8890    9.9270   15.3500 C   0  0  0  0  0
   19.4760    6.0460   24.7090 C   0  0  0  0  0
   18.7830    5.1230   25.5600 C   0  0  0  0  0
   18.6970    6.7900   23.7670 C   0  0  0  0  0
   16.2440    6.4060   20.5210 C   0  0  0  0  0
   16.6390    5.6960   24.5800 C   0  0  0  0  0
   17.5560    8.1490   20.4950 C   0  0  0  0  0
   16.4570    6.7530   19.2440 N   0  0  0  0  0
   19.4440    8.8860   16.3210 C   0  0  0  0  0
   19.1780   11.1020   12.8570 C   0  0  0  0  0
   19.2530    9.8250   13.8320 C   0  0  0  0  0
   16.5440    7.3970   22.7230 C   0  0  0  0  0
   17.3700    4.8960   25.5470 C   0  0  0  0  0
   17.2760    7.8000   19.2010 C   0  0  0  0  0
   17.2680    6.6490   23.6730 C   0  0  0  0  0
   16.7930    7.3300   21.3230 C   0  0  0  0  0
   19.7156   10.2040   11.3468 H   0  0  0  0  0
   19.3198    8.5153   12.3942 H   0  0  0  0  0
   19.7666    8.5334   18.4132 H   0  0  0  0  0
   18.9092   10.0628   18.0341 H   0  0  0  0  0
   17.7223    7.4149   17.3853 H   0  0  0  0  0
   16.9279    9.0987   17.8458 H   0  0  0  0  0
   19.3208   10.8727   15.6777 H   0  0  0  0  0
   17.8077    9.7951   15.3873 H   0  0  0  0  0
   20.5561    6.1760   24.7772 H   0  0  0  0  0
   19.3781    4.5503   26.2714 H   0  0  0  0  0
   19.2028    7.4866   23.0985 H   0  0  0  0  0
   15.7103    5.5159   20.8541 H   0  0  0  0  0
   15.5567    5.5771   24.5293 H   0  0  0  0  0
   18.2492    8.9257   20.8178 H   0  0  0  0  0
   20.3285   10.0019   13.8240 H   0  0  0  0  0
 17  1  2  0  0  0
 18  2  1  0  0  0
 20  3  2  0  0  0
 18  4  2  0  0  0
 19  5  1  0  0  0
 21  6  1  0  0  0
  8  7  1  0  0  0
  7 17  1  0  0  0
 22  8  1  0  0  0
 17  9  1  0  0  0
  9 19  1  0  0  0
 10 11  4  0  0  0
 12 10  4  0  0  0
 21 11  4  0  0  0
 23 12  4  0  0  0
 13 16  4  0  0  0
 24 13  4  0  0  0
 14 21  4  0  0  0
 23 14  4  0  0  0
 15 22  4  0  0  0
 24 15  4  0  0  0
 22 16  4  0  0  0
 19 18  1  0  0  0
 20 23  1  0  0  0
 20 24  1  0  0  0
  2 25  1  0  0  0
  5 26  1  0  0  0
  7 27  1  0  0  0
  7 28  1  0  0  0
  8 29  1  0  0  0
  8 30  1  0  0  0
  9 31  1  0  0  0
  9 32  1  0  0  0
 10 33  1  0  0  0
 11 34  1  0  0  0
 12 35  1  0  0  0
 13 36  1  0  0  0
 14 37  1  0  0  0
 15 38  1  0  0  0
 19 39  1  0  0  0
M  END
$$$$
