3gxy_ligand
  -I-interpret- 

 81 83  0  0  0  0  0  0  0  0999 V2000
   22.2950   60.5660  140.2000 C   0  0  0  0  0
   22.3720   61.9470  140.8720 C   0  0  0  0  0
   23.3230   62.0110  142.0620 C   0  0  0  0  0
   20.6620   58.8370  139.2380 C   0  0  0  0  0
   20.8630   60.0130  140.2000 C   0  0  0  0  0
   21.7640   57.7630  136.6240 C   0  0  0  0  0
   20.7830   56.8570  137.1640 O   0  0  0  0  0
   21.8810   57.6140  135.1040 C   0  0  0  0  0
   22.0010   56.2360  134.7100 O   0  0  0  0  0
   20.6960   58.2460  134.3800 C   0  0  0  0  0
   21.0130   58.2700  132.9900 O   0  0  0  0  0
   20.4150   59.6740  134.8580 C   0  0  0  0  0
   21.3070   60.0940  135.9070 O   0  0  0  0  0
   18.9550   59.8410  135.2730 C   0  0  0  0  0
   18.2210   60.3590  134.1520 O   0  0  0  0  0
   20.3340   59.3030  137.9110 O   0  0  0  0  0
   21.4650   59.2140  137.0330 C   0  0  0  0  0
   22.7690   55.2750  134.2060 C   0  0  0  0  0
   22.6150   53.8680  133.6600 C   0  0  0  0  0
   22.6420   52.8970  134.8320 C   0  0  0  0  0
   23.9460   53.0350  135.6000 C   0  0  0  0  0
   24.1950   54.4980  135.9220 C   0  0  0  0  0
   25.5900   54.6500  136.5030 C   0  0  0  0  0
   23.7500   53.6430  132.8560 O   0  0  0  0  0
   22.5520   51.5610  134.4320 O   0  0  0  0  0
   23.8580   52.3110  136.8110 O   0  0  0  0  0
   24.0570   55.3480  134.7860 O   0  0  0  0  0
   25.8490   56.0380  136.5490 O   0  0  0  0  0
   23.6220   54.2140  131.5370 C   0  0  0  0  0
   24.2830   53.3080  130.5110 C   0  0  0  0  0
   25.8000   53.3360  130.6130 C   0  0  0  0  0
   26.3130   54.7400  130.3230 C   0  0  0  0  0
   25.4950   55.7740  131.1000 C   0  0  0  0  0
   25.5790   57.1000  130.4070 C   0  0  0  0  0
   23.9960   53.8690  129.2600 O   0  0  0  0  0
   26.3280   52.4650  129.6600 O   0  0  0  0  0
   27.6540   54.8860  130.7480 O   0  0  0  0  0
   24.1120   55.5390  131.3670 O   0  0  0  0  0
   25.5320   57.9170  131.5370 O   0  0  0  0  0
   22.9290   59.8770  140.7580 H   0  0  0  0  0
   22.6232   60.6688  139.1657 H   0  0  0  0  0
   21.3744   62.1793  141.2448 H   0  0  0  0  0
   22.7443   62.6479  140.1248 H   0  0  0  0  0
   22.9984   61.3018  142.8234 H   0  0  0  0  0
   24.3311   61.7577  141.7339 H   0  0  0  0  0
   23.3170   63.0191  142.4765 H   0  0  0  0  0
   19.8406   58.2217  139.6052 H   0  0  0  0  0
   21.5880   58.2642  139.1882 H   0  0  0  0  0
   20.2013   60.8169  139.8775 H   0  0  0  0  0
   20.6508   59.6528  141.2067 H   0  0  0  0  0
   22.7322   57.4991  137.0496 H   0  0  0  0  0
   20.7317   56.9727  138.1156 H   0  0  0  0  0
   22.7902   58.1416  134.8159 H   0  0  0  0  0
   19.8010   57.6591  134.5866 H   0  0  0  0  0
   20.2848   58.6634  132.5036 H   0  0  0  0  0
   20.6040   60.3297  134.0080 H   0  0  0  0  0
   18.8832   60.5287  136.1156 H   0  0  0  0  0
   18.5415   58.8794  135.5772 H   0  0  0  0  0
   17.2996   60.4697  134.3978 H   0  0  0  0  0
   22.3453   59.5518  137.5799 H   0  0  0  0  0
   22.2755   55.6012  133.2905 H   0  0  0  0  0
   21.6889   53.7379  133.1000 H   0  0  0  0  0
   21.7775   53.1502  135.4456 H   0  0  0  0  0
   24.7626   52.6459  134.9919 H   0  0  0  0  0
   23.4377   54.8055  136.6432 H   0  0  0  0  0
   26.3289   54.1326  135.8911 H   0  0  0  0  0
   25.6524   54.2056  137.4963 H   0  0  0  0  0
   22.5735   50.9941  135.2065 H   0  0  0  0  0
   24.6821   52.3987  137.2955 H   0  0  0  0  0
   26.7253   56.1870  136.9115 H   0  0  0  0  0
   22.5448   54.2892  131.3885 H   0  0  0  0  0
   23.9241   52.2900  130.6625 H   0  0  0  0  0
   26.1012   53.0379  131.6173 H   0  0  0  0  0
   26.2303   54.8942  129.2471 H   0  0  0  0  0
   25.9681   55.7181  132.0804 H   0  0  0  0  0
   24.8064   57.2879  129.6615 H   0  0  0  0  0
   26.4494   57.2383  129.7657 H   0  0  0  0  0
   24.3933   53.3316  128.5708 H   0  0  0  0  0
   27.2864   52.4747  129.7154 H   0  0  0  0  0
   27.9544   55.7771  130.5550 H   0  0  0  0  0
   25.5769   58.8372  131.2672 H   0  0  0  0  0
  1  2  1  0  0  0
  5  1  1  0  0  0
  2  3  1  0  0  0
  4  5  1  0  0  0
 16  4  1  0  0  0
  6  7  1  0  0  0
  6  8  1  0  0  0
 17  6  1  0  0  0
  8  9  1  0  0  0
  8 10  1  0  0  0
  9 18  1  0  0  0
 10 11  1  0  0  0
 12 10  1  0  0  0
 13 12  1  0  0  0
 12 14  1  0  0  0
 17 13  1  0  0  0
 14 15  1  0  0  0
 16 17  1  0  0  0
 18 19  1  0  0  0
 18 27  1  0  0  0
 19 20  1  0  0  0
 19 24  1  0  0  0
 20 21  1  0  0  0
 20 25  1  0  0  0
 21 22  1  0  0  0
 21 26  1  0  0  0
 22 23  1  0  0  0
 22 27  1  0  0  0
 23 28  1  0  0  0
 24 29  1  0  0  0
 29 30  1  0  0  0
 29 38  1  0  0  0
 30 31  1  0  0  0
 30 35  1  0  0  0
 31 32  1  0  0  0
 31 36  1  0  0  0
 32 33  1  0  0  0
 32 37  1  0  0  0
 33 34  1  0  0  0
 33 38  1  0  0  0
 34 39  1  0  0  0
  1 40  1  0  0  0
  1 41  1  0  0  0
  2 42  1  0  0  0
  2 43  1  0  0  0
  3 44  1  0  0  0
  3 45  1  0  0  0
  3 46  1  0  0  0
  4 47  1  0  0  0
  4 48  1  0  0  0
  5 49  1  0  0  0
  5 50  1  0  0  0
  6 51  1  0  0  0
  7 52  1  0  0  0
  8 53  1  0  0  0
 10 54  1  0  0  0
 11 55  1  0  0  0
 12 56  1  0  0  0
 14 57  1  0  0  0
 14 58  1  0  0  0
 15 59  1  0  0  0
 17 60  1  0  0  0
 18 61  1  0  0  0
 19 62  1  0  0  0
 20 63  1  0  0  0
 21 64  1  0  0  0
 22 65  1  0  0  0
 23 66  1  0  0  0
 23 67  1  0  0  0
 25 68  1  0  0  0
 26 69  1  0  0  0
 28 70  1  0  0  0
 29 71  1  0  0  0
 30 72  1  0  0  0
 31 73  1  0  0  0
 32 74  1  0  0  0
 33 75  1  0  0  0
 34 76  1  0  0  0
 34 77  1  0  0  0
 35 78  1  0  0  0
 36 79  1  0  0  0
 37 80  1  0  0  0
 39 81  1  0  0  0
M  END
$$$$
