4ydn_ligand
  -I-interpret- 

 32 34  0  0  0  0  0  0  0  0999 V2000
   -0.1280    0.1830  -11.9540 O   0  0  0  0  0
    0.0000    0.0000  -10.6000 C   0  0  0  0  0
   -0.3840    1.1880   -9.8270 C   0  0  0  0  0
   -0.3030    1.0960   -8.4450 C   0  0  0  0  0
    0.0000    0.0000   -7.8650 C   0  0  0  0  0
    0.4460   -1.1970   -8.6570 C   0  0  0  0  0
    0.3690   -1.1120  -10.0360 C   0  0  0  0  0
    0.7890   -2.4720  -10.9870 Cl  0  0  0  0  0
   -0.8940    2.6590  -10.5590 Cl  0  0  0  0  0
    0.2000   -0.2140   -6.5410 C   0  0  0  0  0
   -0.4850    0.4990   -5.6730 O   0  0  0  0  0
    0.0000    0.0000   -4.5360 C   0  0  0  0  0
    0.8580   -0.9160   -4.7310 N   0  0  0  0  0
    1.0080   -1.0610   -5.9060 N   0  0  0  0  0
   -0.4750    0.4510   -3.3510 C   0  0  0  0  0
   -0.9510    1.7440   -3.2040 C   0  0  0  0  0
   -1.3970    2.1830   -1.9660 C   0  0  0  0  0
   -1.3660    1.3240   -0.8720 C   0  0  0  0  0
   -0.8900    0.0260   -1.0240 C   0  0  0  0  0
   -0.4450   -0.4130   -2.2630 C   0  0  0  0  0
   -1.7990    1.7500    0.3450 O   0  0  0  0  0
   -0.6120    1.7540    1.3100 S   0  0  0  0  0
    0.6200    2.2710    0.5640 O   0  0  0  0  0
   -0.3480    0.3300    1.8040 O   0  0  0  0  0
   -0.8740    2.5440    2.3530 F   0  0  0  0  0
    0.1345   -0.6197  -12.4105 H   0  0  0  0  0
   -0.5028    1.9805   -7.8402 H   0  0  0  0  0
    0.8155   -2.0965   -8.1646 H   0  0  0  0  0
   -0.9750    2.4165   -4.0615 H   0  0  0  0  0
   -1.7714    3.2001   -1.8504 H   0  0  0  0  0
   -0.8664   -0.6481   -0.1678 H   0  0  0  0  0
   -0.0737   -1.4308   -2.3822 H   0  0  0  0  0
  1  2  1  0  0  0
  2  3  4  0  0  0
  2  7  4  0  0  0
  3  4  4  0  0  0
  3  9  1  0  0  0
  4  5  4  0  0  0
  5  6  4  0  0  0
  5 10  1  0  0  0
  6  7  4  0  0  0
  7  8  1  0  0  0
 10 11  4  0  0  0
 10 14  4  0  0  0
 11 12  4  0  0  0
 12 13  4  0  0  0
 12 15  1  0  0  0
 13 14  4  0  0  0
 15 16  4  0  0  0
 15 20  4  0  0  0
 16 17  4  0  0  0
 17 18  4  0  0  0
 18 19  4  0  0  0
 18 21  1  0  0  0
 19 20  4  0  0  0
 21 22  1  0  0  0
 22 23  2  0  0  0
 22 24  2  0  0  0
 22 25  1  0  0  0
  1 26  1  0  0  0
  4 27  1  0  0  0
  6 28  1  0  0  0
 16 29  1  0  0  0
 17 30  1  0  0  0
 19 31  1  0  0  0
 20 32  1  0  0  0
M  END
$$$$
