6oxu_ligand
  -I-interpret- 

 83 86  0  0  0  0  0  0  0  0999 V2000
   71.1040   57.5610   14.9010 C   0  0  0  0  0
   70.7160   57.8600   16.3420 C   0  0  0  0  0
   72.6740   58.4000   17.9200 C   0  0  0  0  0
   74.5110   59.3430   19.3560 C   0  0  0  0  0
   75.6530   59.7780   18.9810 C   0  0  0  0  0
   74.6460   61.6770   19.9130 C   0  0  0  0  0
   72.3540   61.7790   19.4600 C   0  0  0  0  0
   69.3680   58.5830   16.3740 C   0  0  0  0  0
   66.7680   51.5690   13.4310 C   0  0  0  0  0
   67.8210   50.9740   14.3520 C   0  0  0  0  0
   68.6170   51.9330   15.2060 C   0  0  0  0  0
   68.3640   53.4270   15.0720 C   0  0  0  0  0
   67.3270   54.0440   14.1460 C   0  0  0  0  0
   66.5250   53.0720   13.3020 C   0  0  0  0  0
   71.3450   54.1220   14.3040 C   0  0  0  0  0
   70.1890   56.4460   14.3350 C   0  0  0  0  0
   74.0220   60.3610   20.4190 C   0  0  0  0  0
   72.6650   60.5300   20.4470 C   0  0  0  0  0
   69.1450   59.0290   17.8360 C   0  0  0  0  0
   68.7900   57.9750   18.8690 C   0  0  0  0  0
   68.5740   58.3780   20.3280 C   0  0  0  0  0
   68.7130   59.8370   20.7330 C   0  0  0  0  0
   69.0820   60.8940   19.6880 C   0  0  0  0  0
   69.2820   60.4930   18.2320 C   0  0  0  0  0
   64.4750   50.9940   12.6860 C   0  0  0  0  0
   73.6400   52.0700   14.0650 C   0  0  0  0  0
   72.8400   54.4710   14.3110 C   0  0  0  0  0
   73.5360   53.4550   13.3910 C   0  0  0  0  0
   73.4180   54.4740   15.7300 C   0  0  0  0  0
   65.9550   50.6560   12.5460 C   0  0  0  0  0
   70.5560   55.1700   15.0140 N   0  0  0  0  0
   71.6930   58.7880   16.8960 N   0  0  0  0  0
   68.5280   55.6190   16.5930 O   0  0  0  0  0
   69.9210   53.7880   17.1660 O   0  0  0  0  0
   70.9580   58.7350   14.1710 O   0  0  0  0  0
   72.6840   57.3260   18.4660 O   0  0  0  0  0
   73.6100   59.4450   18.1720 O   0  0  0  0  0
   75.4250   61.3970   18.9080 O   0  0  0  0  0
   73.4160   62.5630   19.5050 O   0  0  0  0  0
   66.3740   50.9500   11.2540 O   0  0  0  0  0
   69.3480   54.5440   16.0690 S   0  0  0  0  0
   72.1350   57.2124   14.8399 H   0  0  0  0  0
   70.6705   56.9252   16.9006 H   0  0  0  0  0
   74.5360   58.3235   19.7407 H   0  0  0  0  0
   75.9750   59.3536   18.0300 H   0  0  0  0  0
   76.4566   59.4950   19.6608 H   0  0  0  0  0
   75.2599   62.2016   20.6451 H   0  0  0  0  0
   71.4588   62.3143   19.7766 H   0  0  0  0  0
   72.1637   61.4360   18.4430 H   0  0  0  0  0
   68.5648   57.9267   16.0391 H   0  0  0  0  0
   69.3682   59.4397   15.7001 H   0  0  0  0  0
   67.9947   49.8988   14.3945 H   0  0  0  0  0
   69.3622   51.5596   15.9084 H   0  0  0  0  0
   67.1695   55.1212   14.0921 H   0  0  0  0  0
   65.7758   53.4454   12.6039 H   0  0  0  0  0
   71.2032   53.1687   14.8130 H   0  0  0  0  0
   71.0019   54.0617   13.2712 H   0  0  0  0  0
   70.3245   56.3548   13.2573 H   0  0  0  0  0
   69.1415   56.6855   14.5182 H   0  0  0  0  0
   74.2970   60.0369   21.4227 H   0  0  0  0  0
   72.1466   59.6284   20.1207 H   0  0  0  0  0
   72.3110   60.7269   21.4589 H   0  0  0  0  0
   68.6891   56.9314   18.5708 H   0  0  0  0  0
   68.3218   57.6238   21.0735 H   0  0  0  0  0
   68.5496   60.1313   21.7697 H   0  0  0  0  0
   69.2018   61.9354   19.9867 H   0  0  0  0  0
   69.5207   61.2464   17.4813 H   0  0  0  0  0
   64.1696   50.8602   13.7238 H   0  0  0  0  0
   64.3104   52.0295   12.3881 H   0  0  0  0  0
   63.8906   50.3331   12.0458 H   0  0  0  0  0
   74.2167   52.1578   14.9858 H   0  0  0  0  0
   72.6396   51.7032   14.2949 H   0  0  0  0  0
   74.1369   51.3746   13.3886 H   0  0  0  0  0
   73.0043   55.4834   13.9420 H   0  0  0  0  0
   72.9494   53.3541   12.4779 H   0  0  0  0  0
   74.5427   53.8134   13.1759 H   0  0  0  0  0
   72.8911   55.2126   16.3340 H   0  0  0  0  0
   73.2949   53.4858   16.1732 H   0  0  0  0  0
   74.4777   54.7257   15.6887 H   0  0  0  0  0
   66.0873   49.6045   12.8007 H   0  0  0  0  0
   71.6966   59.7504   16.5581 H   0  0  0  0  0
   71.5322   59.4116   14.5371 H   0  0  0  0  0
   65.8938   50.4005   10.6302 H   0  0  0  0  0
  1  2  1  0  0  0
 16  1  1  0  0  0
  1 35  1  0  0  0
  2  8  1  0  0  0
  2 32  1  0  0  0
 32  3  1  0  0  0
  3 36  2  0  0  0
  3 37  1  0  0  0
  4  5  1  0  0  0
  4 17  1  0  0  0
 37  4  1  0  0  0
  5 38  1  0  0  0
 17  6  1  0  0  0
  6 38  1  0  0  0
  6 39  1  0  0  0
 18  7  1  0  0  0
  7 39  1  0  0  0
  8 19  1  0  0  0
 10  9  4  0  0  0
 14  9  4  0  0  0
  9 30  1  0  0  0
 11 10  4  0  0  0
 12 11  4  0  0  0
 12 13  4  0  0  0
 41 12  1  0  0  0
 13 14  4  0  0  0
 15 27  1  0  0  0
 31 15  1  0  0  0
 31 16  1  0  0  0
 17 18  1  0  0  0
 19 20  4  0  0  0
 19 24  4  0  0  0
 20 21  4  0  0  0
 21 22  4  0  0  0
 23 22  4  0  0  0
 24 23  4  0  0  0
 30 25  1  0  0  0
 28 26  1  0  0  0
 27 28  1  0  0  0
 27 29  1  0  0  0
 30 40  1  0  0  0
 31 41  1  0  0  0
 41 33  2  0  0  0
 41 34  2  0  0  0
  1 42  1  0  0  0
  2 43  1  0  0  0
  4 44  1  0  0  0
  5 45  1  0  0  0
  5 46  1  0  0  0
  6 47  1  0  0  0
  7 48  1  0  0  0
  7 49  1  0  0  0
  8 50  1  0  0  0
  8 51  1  0  0  0
 10 52  1  0  0  0
 11 53  1  0  0  0
 13 54  1  0  0  0
 14 55  1  0  0  0
 15 56  1  0  0  0
 15 57  1  0  0  0
 16 58  1  0  0  0
 16 59  1  0  0  0
 17 60  1  0  0  0
 18 61  1  0  0  0
 18 62  1  0  0  0
 20 63  1  0  0  0
 21 64  1  0  0  0
 22 65  1  0  0  0
 23 66  1  0  0  0
 24 67  1  0  0  0
 25 68  1  0  0  0
 25 69  1  0  0  0
 25 70  1  0  0  0
 26 71  1  0  0  0
 26 72  1  0  0  0
 26 73  1  0  0  0
 27 74  1  0  0  0
 28 75  1  0  0  0
 28 76  1  0  0  0
 29 77  1  0  0  0
 29 78  1  0  0  0
 29 79  1  0  0  0
 30 80  1  0  0  0
 32 81  1  0  0  0
 35 82  1  0  0  0
 40 83  1  0  0  0
M  END
$$$$
