### 
### Created by X-TOOL on Mon Sep 10 21:13:11 2018
### 

@<TRIPOS>MOLECULE
4a2a_ligand
  229   231     1     0     0
SMALL
GAST_HUCK


@<TRIPOS>ATOM
      1 N         -11.5470  -12.2400   57.5670 N.4       1 ASP         0.2391
      2 CA        -12.2040  -11.6570   58.7300 C.3       1 ASP         0.0764
      3 C         -13.5040  -10.9920   58.2970 C.2       1 ASP         0.2284
      4 O         -13.5290  -10.2560   57.3130 O.2       1 ASP        -0.3906
      5 CB        -11.2770  -10.6440   59.4160 C.3       1 ASP         0.0607
      6 CG        -11.8060  -10.1800   60.7710 C.2       1 ASP         0.0425
      7 OD1       -12.7330  -10.8280   61.3180 O.co2     1 ASP        -0.5686
      8 OD2       -11.2850   -9.1690   61.2940 O.co2     1 ASP        -0.5686
      9 N         -14.5890  -11.2740   59.0090 N.am      1 ILE        -0.2606
     10 CA        -15.8700  -10.6290   58.7410 C.3       1 ILE         0.1338
     11 C         -16.0720   -9.5050   59.7610 C.2       1 ILE         0.2067
     12 O         -15.9500   -9.7390   60.9690 O.2       1 ILE        -0.3942
     13 CB        -17.0340  -11.6340   58.8530 C.3       1 ILE        -0.0037
     14 CG1       -16.8370  -12.8030   57.8840 C.3       1 ILE        -0.0491
     15 CG2       -18.3640  -10.9540   58.5880 C.3       1 ILE        -0.0582
     16 CD1       -18.0500  -13.7260   57.7950 C.3       1 ILE        -0.0648
     17 N         -16.3590   -8.2760   59.2860 N.am      1 PRO        -0.2498
     18 CA        -16.5260   -7.1830   60.2520 C.3       1 PRO         0.1338
     19 C         -17.5520   -7.5340   61.3220 C.2       1 PRO         0.2041
     20 O         -18.5300   -8.2410   61.0620 O.2       1 PRO        -0.3944
     21 CB        -17.0030   -6.0110   59.3720 C.3       1 PRO        -0.0104
     22 CG        -16.3260   -6.2600   58.0590 C.3       1 PRO        -0.0281
     23 CD        -16.3890   -7.7800   57.8920 C.3       1 PRO         0.0369
     24 N         -17.3140   -7.0440   62.5320 N.am      1 ALA        -0.2640
     25 CA        -18.1730   -7.3490   63.6680 C.3       1 ALA         0.1282
     26 C         -19.6350   -6.9950   63.4320 C.2       1 ALA         0.2036
     27 O         -20.5400   -7.6600   63.9420 O.2       1 ALA        -0.3944
     28 CB        -17.6400   -6.6560   64.9460 C.3       1 ALA        -0.0244
     29 N         -19.8700   -5.9350   62.6720 N.am      1 ILE        -0.2635
     30 CA        -21.2260   -5.4650   62.4610 C.3       1 ILE         0.1335
     31 C         -22.1260   -6.5880   61.9150 C.2       1 ILE         0.2043
     32 O         -23.2330   -6.7690   62.3970 O.2       1 ILE        -0.3944
     33 CB        -21.2580   -4.2110   61.5570 C.3       1 ILE        -0.0037
     34 CG1       -22.6750   -3.6440   61.4720 C.3       1 ILE        -0.0491
     35 CG2       -20.6320   -4.4970   60.1800 C.3       1 ILE        -0.0582
     36 CD1       -22.7720   -2.3540   60.6510 C.3       1 ILE        -0.0648
     37 N         -21.6240   -7.3490   60.9460 N.am      1 TYR        -0.2621
     38 CA        -22.3530   -8.4970   60.3990 C.3       1 TYR         0.1390
     39 C         -22.5050   -9.6080   61.4260 C.2       1 TYR         0.2057
     40 O         -23.5990  -10.1400   61.6140 O.2       1 TYR        -0.3942
     41 CB        -21.6310   -9.0350   59.1650 C.3       1 TYR         0.0163
     42 CG        -21.4820   -7.9870   58.0940 C.ar      1 TYR        -0.0493
     43 CD1       -22.5920   -7.3240   57.6000 C.ar      1 TYR        -0.0685
     44 CD2       -20.2320   -7.6340   57.6080 C.ar      1 TYR        -0.0685
     45 CE1       -22.4660   -6.3390   56.6290 C.ar      1 TYR        -0.0398
     46 CE2       -20.0910   -6.6580   56.6400 C.ar      1 TYR        -0.0398
     47 CZ        -21.2140   -6.0140   56.1530 C.ar      1 TYR         0.0805
     48 OH        -21.0730   -5.0420   55.1860 O.3       1 TYR        -0.3376
     49 N         -21.4050   -9.9460   62.0970 N.am      1 ARG        -0.2636
     50 CA        -21.4150  -11.0390   63.0630 C.3       1 ARG         0.1311
     51 C         -22.3430  -10.7390   64.2580 C.2       1 ARG         0.2040
     52 O         -22.7890  -11.6520   64.9620 O.2       1 ARG        -0.3944
     53 CB        -19.9780  -11.3800   63.5040 C.3       1 ARG        -0.0092
     54 CG        -19.1270  -12.0500   62.4050 C.3       1 ARG        -0.0156
     55 CD        -17.6180  -11.7970   62.5670 C.3       1 ARG         0.0627
     56 NE        -17.2300  -11.8520   63.9650 N.pl3     1 ARG        -0.2723
     57 CZ        -16.3950  -11.0160   64.5620 C.cat     1 ARG         0.2882
     58 NH1       -15.7860  -10.0260   63.8980 N.pl3     1 ARG        -0.2849
     59 NH2       -16.1560  -11.1940   65.8440 N.pl3     1 ARG        -0.2849
     60 N         -22.6490   -9.4620   64.4680 N.am      1 TYR        -0.2621
     61 CA        -23.5560   -9.0520   65.5400 C.3       1 TYR         0.1390
     62 C         -24.9700   -8.7670   65.0090 C.2       1 TYR         0.2055
     63 O         -25.8760   -8.3730   65.7620 O.2       1 TYR        -0.3942
     64 CB        -22.9910   -7.8220   66.2610 C.3       1 TYR         0.0163
     65 CG        -22.0600   -8.1710   67.3980 C.ar      1 TYR        -0.0493
     66 CD1       -20.7520   -8.5820   67.1590 C.ar      1 TYR        -0.0685
     67 CD2       -22.4950   -8.1070   68.7110 C.ar      1 TYR        -0.0685
     68 CE1       -19.8980   -8.9090   68.2120 C.ar      1 TYR        -0.0398
     69 CE2       -21.6590   -8.4290   69.7620 C.ar      1 TYR        -0.0398
     70 CZ        -20.3640   -8.8260   69.5100 C.ar      1 TYR         0.0805
     71 OH        -19.5430   -9.1490   70.5710 O.3       1 TYR        -0.3376
     72 N         -25.1520   -8.9750   63.7070 N.am      1 GLY        -0.2663
     73 CA        -26.4520   -8.8090   63.0860 C.3       1 GLY         0.1201
     74 C         -27.0100   -7.4060   63.2270 C.2       1 GLY         0.2007
     75 O         -28.1980   -7.2270   63.5010 O.2       1 GLY        -0.3947
     76 N         -26.1510   -6.4090   63.0260 N.am      1 LEU        -0.2640
     77 CA        -26.5760   -5.0110   63.0440 C.3       1 LEU         0.1312
     78 C         -26.5520   -4.3930   61.6480 C.2       1 LEU         0.2039
     79 O         -26.6900   -3.1760   61.5120 O.2       1 LEU        -0.3944
     80 CB        -25.6550   -4.1990   63.9610 C.3       1 LEU        -0.0101
     81 CG        -25.6470   -4.6280   65.4210 C.3       1 LEU        -0.0425
     82 CD1       -24.5060   -3.9490   66.1940 C.3       1 LEU        -0.0625
     83 CD2       -26.9990   -4.3240   66.0610 C.3       1 LEU        -0.0625
     84 N         -26.3770   -5.2200   60.6170 N.am      1 GLU        -0.2636
     85 CA        -26.1880   -4.7090   59.2590 C.3       1 GLU         0.1325
     86 C         -27.4450   -4.0550   58.6830 C.2       1 GLU         0.2038
     87 O         -27.3830   -3.3310   57.6810 O.2       1 GLU        -0.3944
     88 CB        -25.7000   -5.8180   58.3200 C.3       1 GLU        -0.0008
     89 CG        -26.7440   -6.8980   58.0130 C.3       1 GLU         0.0044
     90 CD        -26.9140   -7.8910   59.1500 C.2       1 GLU         0.0350
     91 OE1       -26.2190   -7.7470   60.1870 O.co2     1 GLU        -0.5690
     92 OE2       -27.7400   -8.8270   59.0050 O.co2     1 GLU        -0.5690
     93 N         -28.5820   -4.3020   59.3230 N.am      1 GLY        -0.2664
     94 CA        -29.8330   -3.6810   58.9120 C.3       1 GLY         0.1201
     95 C         -29.8120   -2.1690   59.0650 C.2       1 GLY         0.2007
     96 O         -30.6450   -1.4690   58.4930 O.2       1 GLY        -0.3947
     97 N         -28.8570   -1.6590   59.8410 N.am      1 LEU        -0.2640
     98 CA        -28.7440   -0.2180   60.0460 C.3       1 LEU         0.1312
     99 C         -27.9270    0.4690   58.9430 C.2       1 LEU         0.2033
    100 O         -27.8730    1.7010   58.8820 O.2       1 LEU        -0.3944
    101 CB        -28.1450    0.0660   61.4340 C.3       1 LEU        -0.0101
    102 CG        -29.0320   -0.2770   62.6370 C.3       1 LEU        -0.0425
    103 CD1       -28.2180   -0.3880   63.9180 C.3       1 LEU        -0.0625
    104 CD2       -30.1380    0.7520   62.7990 C.3       1 LEU        -0.0625
    105 N         -27.3020   -0.3180   58.0680 N.am      1 LEU        -0.2695
    106 CA        -26.4970    0.2400   56.9820 C.3       1 LEU         0.0946
    107 C         -27.3670    0.7580   55.8320 C.2       1 LEU         0.0601
    108 O         -28.5550    0.4440   55.7650 O.co2     1 LEU        -0.5666
    109 CB        -25.5050   -0.7910   56.4550 C.3       1 LEU        -0.0156
    110 CG        -24.3730   -1.1400   57.4240 C.3       1 LEU        -0.0431
    111 CD1       -23.4780   -2.2360   56.8680 C.3       1 LEU        -0.0625
    112 CD2       -23.5690    0.1100   57.6950 C.3       1 LEU        -0.0625
    113 OXT       -26.8820    1.4900   54.9700 O.co2     1 LEU        -0.5666
    114 H1        -10.6865  -12.6803   57.8528 H         1 ASP         0.2016
    115 H2        -11.3467  -11.5152   56.8957 H         1 ASP         0.2016
    116 H3        -12.1533  -12.9277   57.1481 H         1 ASP         0.2016
    117 H4        -12.4377  -12.4591   59.4456 H         1 ASP         0.1117
    118 H5        -11.1699   -9.7664   58.7615 H         1 ASP         0.0512
    119 H6        -10.2931  -11.1128   59.5648 H         1 ASP         0.0512
    120 H7        -14.5264  -11.9454   59.7475 H         1 ILE         0.1885
    121 H8        -15.8569  -10.2069   57.7253 H         1 ILE         0.0803
    122 H9        -17.0471  -12.0321   59.8783 H         1 ILE         0.0345
    123 H10       -15.9728  -13.3941   58.2214 H         1 ILE         0.0267
    124 H11       -16.6342  -12.3957   56.8825 H         1 ILE         0.0267
    125 H12       -18.4939  -10.1168   59.2896 H         1 ILE         0.0235
    126 H13       -19.1802  -11.6783   58.7264 H         1 ILE         0.0235
    127 H14       -18.3822  -10.5737   57.5560 H         1 ILE         0.0235
    128 H15       -17.8404  -14.5395   57.0849 H         1 ILE         0.0230
    129 H16       -18.9225  -13.1526   57.4485 H         1 ILE         0.0230
    130 H17       -18.2610  -14.1510   58.7874 H         1 ILE         0.0230
    131 H18       -15.5687   -6.9417   60.7371 H         1 PRO         0.0802
    132 H19       -16.6903   -5.0465   59.7987 H         1 PRO         0.0313
    133 H20       -18.0971   -6.0245   59.2588 H         1 PRO         0.0313
    134 H21       -15.2827   -5.9125   58.0850 H         1 PRO         0.0287
    135 H22       -16.8606   -5.7544   57.2414 H         1 PRO         0.0287
    136 H23       -17.3174   -8.0828   57.3857 H         1 PRO         0.0524
    137 H24       -15.5235   -8.1503   57.3231 H         1 PRO         0.0524
    138 H25       -16.5223   -6.4484   62.6678 H         1 ALA         0.1883
    139 H26       -18.1246   -8.4358   63.8307 H         1 ALA         0.0797
    140 H27       -18.2981   -6.8952   65.7944 H         1 ALA         0.0277
    141 H28       -17.6215   -5.5670   64.7921 H         1 ALA         0.0277
    142 H29       -16.6219   -7.0135   65.1595 H         1 ALA         0.0277
    143 H30       -19.1061   -5.4552   62.2404 H         1 ILE         0.1883
    144 H31       -21.6281   -5.1706   63.4416 H         1 ILE         0.0803
    145 H32       -20.6334   -3.4437   62.0377 H         1 ILE         0.0345
    146 H33       -23.0271   -3.4337   62.4927 H         1 ILE         0.0267
    147 H34       -23.3250   -4.4007   61.0085 H         1 ILE         0.0267
    148 H35       -19.6178   -4.9010   60.3151 H         1 ILE         0.0235
    149 H36       -20.5807   -3.5640   59.5996 H         1 ILE         0.0235
    150 H37       -21.2500   -5.2304   59.6414 H         1 ILE         0.0235
    151 H38       -23.8158   -2.0074   60.6347 H         1 ILE         0.0230
    152 H39       -22.4339   -2.5477   59.6223 H         1 ILE         0.0230
    153 H40       -22.1360   -1.5807   61.1065 H         1 ILE         0.0230
    154 H41       -20.7198   -7.1307   60.5789 H         1 TYR         0.1885
    155 H42       -23.3568   -8.1593   60.1018 H         1 TYR         0.0821
    156 H43       -22.2063   -9.8793   58.7574 H         1 TYR         0.0453
    157 H44       -20.6307   -9.3826   59.4627 H         1 TYR         0.0453
    158 H45       -23.5761   -7.5778   57.9772 H         1 TYR         0.0530
    159 H46       -19.3502   -8.1324   57.9942 H         1 TYR         0.0530
    160 H47       -23.3445   -5.8303   56.2489 H         1 TYR         0.0525
    161 H48       -19.1074   -6.3990   56.2651 H         1 TYR         0.0525
    162 H49       -20.6667   -5.4204   54.4151 H         1 TYR         0.2458
    163 H50       -20.5569   -9.4413   61.9356 H         1 ARG         0.1883
    164 H51       -21.8207  -11.9258   62.5540 H         1 ARG         0.0800
    165 H52       -20.0330  -12.0637   64.3639 H         1 ARG         0.0313
    166 H53       -19.4790  -10.4480   63.8079 H         1 ARG         0.0313
    167 H54       -19.4445  -11.6560   61.4283 H         1 ARG         0.0301
    168 H55       -19.3049  -13.1350   62.4381 H         1 ARG         0.0301
    169 H56       -17.3744  -10.8026   62.1647 H         1 ARG         0.0689
    170 H57       -17.0622  -12.5647   62.0087 H         1 ARG         0.0689
    171 H58       -17.6380  -12.6033   64.5395 H         1 ARG         0.2642
    172 H59       -15.1419   -9.3933   64.3938 H         1 ARG         0.2615
    173 H60       -15.9615   -9.8969   62.8913 H         1 ARG         0.2615
    174 H61       -16.6249  -11.9559   66.3544 H         1 ARG         0.2615
    175 H62       -15.5000  -10.5714   66.3369 H         1 ARG         0.2615
    176 H63       -22.2479   -8.7625   63.8766 H         1 TYR         0.1885
    177 H64       -23.6248   -9.8767   66.2646 H         1 TYR         0.0821
    178 H65       -23.8309   -7.2374   66.6645 H         1 TYR         0.0453
    179 H66       -22.4375   -7.2130   65.5310 H         1 TYR         0.0453
    180 H67       -20.3915   -8.6490   66.1389 H         1 TYR         0.0530
    181 H68       -23.5130   -7.7977   68.9183 H         1 TYR         0.0530
    182 H69       -18.8800   -9.2247   68.0143 H         1 TYR         0.0525
    183 H70       -22.0206   -8.3696   70.7822 H         1 TYR         0.0525
    184 H71       -18.6881   -9.4016   70.2429 H         1 TYR         0.2458
    185 H72       -24.3738   -9.2523   63.1436 H         1 GLY         0.1881
    186 H73       -27.1552   -9.5130   63.5548 H         1 GLY         0.0763
    187 H74       -26.3595   -9.0418   62.0149 H         1 GLY         0.0763
    188 H75       -25.1886   -6.6226   62.8581 H         1 LEU         0.1883
    189 H76       -27.6038   -4.9635   63.4331 H         1 LEU         0.0800
    190 H77       -25.9741   -3.1472   63.9178 H         1 LEU         0.0315
    191 H78       -24.6285   -4.2869   63.5756 H         1 LEU         0.0315
    192 H79       -25.4841   -5.7152   65.4593 H         1 LEU         0.0298
    193 H80       -24.5270   -4.2786   67.2432 H         1 LEU         0.0232
    194 H81       -24.6323   -2.8572   66.1501 H         1 LEU         0.0232
    195 H82       -23.5418   -4.2251   65.7422 H         1 LEU         0.0232
    196 H83       -27.7958   -4.8214   65.4885 H         1 LEU         0.0232
    197 H84       -27.1697   -3.2373   66.0588 H         1 LEU         0.0232
    198 H85       -27.0059   -4.6942   67.0968 H         1 LEU         0.0232
    199 H86       -26.3749   -6.2075   60.7747 H         1 GLU         0.1883
    200 H87       -25.4059   -3.9370   59.3062 H         1 GLU         0.0801
    201 H88       -24.8300   -6.3041   58.7857 H         1 GLU         0.0330
    202 H89       -25.3961   -5.3544   57.3699 H         1 GLU         0.0330
    203 H90       -26.4294   -7.4454   57.1122 H         1 GLU         0.0433
    204 H91       -27.7113   -6.4089   57.8257 H         1 GLU         0.0433
    205 H92       -28.5789   -4.9274   60.1033 H         1 GLY         0.1881
    206 H93       -30.6475   -4.0865   59.5301 H         1 GLY         0.0763
    207 H94       -30.0176   -3.9258   57.8556 H         1 GLY         0.0763
    208 H95       -28.2075   -2.2726   60.2900 H         1 LEU         0.1883
    209 H96       -29.7588    0.2055   60.0194 H         1 LEU         0.0800
    210 H97       -27.9105    1.1395   61.4852 H         1 LEU         0.0315
    211 H98       -27.2165   -0.5169   61.5246 H         1 LEU         0.0315
    212 H99       -29.4989   -1.2544   62.4457 H         1 LEU         0.0298
    213 H100      -28.8859   -0.6343   64.7566 H         1 LEU         0.0232
    214 H101      -27.7165    0.5704   64.1180 H         1 LEU         0.0232
    215 H102      -27.4634   -1.1803   63.8054 H         1 LEU         0.0232
    216 H103      -30.7157    0.8194   61.8653 H         1 LEU         0.0232
    217 H104      -29.6957    1.7327   63.0281 H         1 LEU         0.0232
    218 H105      -30.8034    0.4488   63.6207 H         1 LEU         0.0232
    219 H106      -27.3851   -1.3107   58.1557 H         1 LEU         0.1875
    220 H107      -25.9277    1.0894   57.3874 H         1 LEU         0.0726
    221 H108      -25.0565   -0.3949   55.5320 H         1 LEU         0.0308
    222 H109      -26.0582   -1.7141   56.2271 H         1 LEU         0.0308
    223 H110      -24.8119   -1.4954   58.3679 H         1 LEU         0.0297
    224 H111      -22.6789   -2.4585   57.5904 H         1 LEU         0.0232
    225 H112      -23.0322   -1.8998   55.9202 H         1 LEU         0.0232
    226 H113      -24.0752   -3.1426   56.6911 H         1 LEU         0.0232
    227 H114      -24.2307    0.8918   58.0962 H         1 LEU         0.0232
    228 H115      -23.1115    0.4620   56.7586 H         1 LEU         0.0232
    229 H116      -22.7794   -0.1135   58.4275 H         1 LEU         0.0232
@<TRIPOS>BOND
     1    1    2 1  
     2    2    3 1  
     3    2    5 1  
     4    3    4 2  
     5    3    9 am 
     6    5    6 1  
     7    6    7 ar 
     8    6    8 ar 
     9    9   10 1  
    10   10   11 1  
    11   10   13 1  
    12   11   12 2  
    13   11   17 am 
    14   13   14 1  
    15   13   15 1  
    16   14   16 1  
    17   17   18 1  
    18   17   23 1  
    19   18   19 1  
    20   18   21 1  
    21   19   20 2  
    22   19   24 am 
    23   21   22 1  
    24   22   23 1  
    25   24   25 1  
    26   25   26 1  
    27   25   28 1  
    28   26   27 2  
    29   26   29 am 
    30   29   30 1  
    31   30   31 1  
    32   30   33 1  
    33   31   32 2  
    34   31   37 am 
    35   33   34 1  
    36   33   35 1  
    37   34   36 1  
    38   37   38 1  
    39   38   39 1  
    40   38   41 1  
    41   39   40 2  
    42   39   49 am 
    43   41   42 1  
    44   42   43 ar 
    45   42   44 ar 
    46   43   45 ar 
    47   44   46 ar 
    48   45   47 ar 
    49   46   47 ar 
    50   47   48 1  
    51   49   50 1  
    52   50   51 1  
    53   50   53 1  
    54   51   52 2  
    55   51   60 am 
    56   53   54 1  
    57   54   55 1  
    58   55   56 1  
    59   56   57 ar 
    60   57   58 ar 
    61   57   59 ar 
    62   60   61 1  
    63   61   62 1  
    64   61   64 1  
    65   62   63 2  
    66   62   72 am 
    67   64   65 1  
    68   65   66 ar 
    69   65   67 ar 
    70   66   68 ar 
    71   67   69 ar 
    72   68   70 ar 
    73   69   70 ar 
    74   70   71 1  
    75   72   73 1  
    76   73   74 1  
    77   74   75 2  
    78   74   76 am 
    79   76   77 1  
    80   77   78 1  
    81   77   80 1  
    82   78   79 2  
    83   78   84 am 
    84   80   81 1  
    85   81   82 1  
    86   81   83 1  
    87   84   85 1  
    88   85   86 1  
    89   85   88 1  
    90   86   87 2  
    91   86   93 am 
    92   88   89 1  
    93   89   90 1  
    94   90   91 ar 
    95   90   92 ar 
    96   93   94 1  
    97   94   95 1  
    98   95   96 2  
    99   95   97 am 
   100   97   98 1  
   101   98   99 1  
   102   98  101 1  
   103   99  100 2  
   104   99  105 am 
   105  101  102 1  
   106  102  103 1  
   107  102  104 1  
   108  105  106 1  
   109  106  107 1  
   110  106  109 1  
   111  107  108 ar 
   112  107  113 ar 
   113  109  110 1  
   114  110  111 1  
   115  110  112 1  
   116    1  114 1  
   117    1  115 1  
   118    1  116 1  
   119    2  117 1  
   120    5  118 1  
   121    5  119 1  
   122    9  120 1  
   123   10  121 1  
   124   13  122 1  
   125   14  123 1  
   126   14  124 1  
   127   15  125 1  
   128   15  126 1  
   129   15  127 1  
   130   16  128 1  
   131   16  129 1  
   132   16  130 1  
   133   18  131 1  
   134   21  132 1  
   135   21  133 1  
   136   22  134 1  
   137   22  135 1  
   138   23  136 1  
   139   23  137 1  
   140   24  138 1  
   141   25  139 1  
   142   28  140 1  
   143   28  141 1  
   144   28  142 1  
   145   29  143 1  
   146   30  144 1  
   147   33  145 1  
   148   34  146 1  
   149   34  147 1  
   150   35  148 1  
   151   35  149 1  
   152   35  150 1  
   153   36  151 1  
   154   36  152 1  
   155   36  153 1  
   156   37  154 1  
   157   38  155 1  
   158   41  156 1  
   159   41  157 1  
   160   43  158 1  
   161   44  159 1  
   162   45  160 1  
   163   46  161 1  
   164   48  162 1  
   165   49  163 1  
   166   50  164 1  
   167   53  165 1  
   168   53  166 1  
   169   54  167 1  
   170   54  168 1  
   171   55  169 1  
   172   55  170 1  
   173   56  171 1  
   174   58  172 1  
   175   58  173 1  
   176   59  174 1  
   177   59  175 1  
   178   60  176 1  
   179   61  177 1  
   180   64  178 1  
   181   64  179 1  
   182   66  180 1  
   183   67  181 1  
   184   68  182 1  
   185   69  183 1  
   186   71  184 1  
   187   72  185 1  
   188   73  186 1  
   189   73  187 1  
   190   76  188 1  
   191   77  189 1  
   192   80  190 1  
   193   80  191 1  
   194   81  192 1  
   195   82  193 1  
   196   82  194 1  
   197   82  195 1  
   198   83  196 1  
   199   83  197 1  
   200   83  198 1  
   201   84  199 1  
   202   85  200 1  
   203   88  201 1  
   204   88  202 1  
   205   89  203 1  
   206   89  204 1  
   207   93  205 1  
   208   94  206 1  
   209   94  207 1  
   210   97  208 1  
   211   98  209 1  
   212  101  210 1  
   213  101  211 1  
   214  102  212 1  
   215  103  213 1  
   216  103  214 1  
   217  103  215 1  
   218  104  216 1  
   219  104  217 1  
   220  104  218 1  
   221  105  219 1  
   222  106  220 1  
   223  109  221 1  
   224  109  222 1  
   225  110  223 1  
   226  111  224 1  
   227  111  225 1  
   228  111  226 1  
   229  112  227 1  
   230  112  228 1  
   231  112  229 1  
@<TRIPOS>SUBSTRUCTURE
     1 ASP         1

