4a2a_ligand
  -I-interpret- 

231233  0  0  0  0  0  0  0  0999 V2000
  -11.5470  -12.2400   57.5670 N   0  3  0  0  0
  -12.2040  -11.6570   58.7300 C   0  0  0  0  0
  -13.5040  -10.9920   58.2970 C   0  0  0  0  0
  -13.5290  -10.2560   57.3130 O   0  0  0  0  0
  -11.2770  -10.6440   59.4160 C   0  0  0  0  0
  -11.8060  -10.1800   60.7710 C   0  0  0  0  0
  -12.7330  -10.8280   61.3180 O   0  0  0  0  0
  -11.2850   -9.1690   61.2940 O   0  0  0  0  0
  -14.5890  -11.2740   59.0090 N   0  0  0  0  0
  -15.8700  -10.6290   58.7410 C   0  0  0  0  0
  -16.0720   -9.5050   59.7610 C   0  0  0  0  0
  -15.9500   -9.7390   60.9690 O   0  0  0  0  0
  -17.0340  -11.6340   58.8530 C   0  0  0  0  0
  -16.8370  -12.8030   57.8840 C   0  0  0  0  0
  -18.3640  -10.9540   58.5880 C   0  0  0  0  0
  -18.0500  -13.7260   57.7950 C   0  0  0  0  0
  -16.3590   -8.2760   59.2860 N   0  0  0  0  0
  -16.5260   -7.1830   60.2520 C   0  0  0  0  0
  -17.5520   -7.5340   61.3220 C   0  0  0  0  0
  -18.5300   -8.2410   61.0620 O   0  0  0  0  0
  -17.0030   -6.0110   59.3720 C   0  0  0  0  0
  -16.3260   -6.2600   58.0590 C   0  0  0  0  0
  -16.3890   -7.7800   57.8920 C   0  0  0  0  0
  -17.3140   -7.0440   62.5320 N   0  0  0  0  0
  -18.1730   -7.3490   63.6680 C   0  0  0  0  0
  -19.6350   -6.9950   63.4320 C   0  0  0  0  0
  -20.5400   -7.6600   63.9420 O   0  0  0  0  0
  -17.6400   -6.6560   64.9460 C   0  0  0  0  0
  -19.8700   -5.9350   62.6720 N   0  0  0  0  0
  -21.2260   -5.4650   62.4610 C   0  0  0  0  0
  -22.1260   -6.5880   61.9150 C   0  0  0  0  0
  -23.2330   -6.7690   62.3970 O   0  0  0  0  0
  -21.2580   -4.2110   61.5570 C   0  0  0  0  0
  -22.6750   -3.6440   61.4720 C   0  0  0  0  0
  -20.6320   -4.4970   60.1800 C   0  0  0  0  0
  -22.7720   -2.3540   60.6510 C   0  0  0  0  0
  -21.6240   -7.3490   60.9460 N   0  0  0  0  0
  -22.3530   -8.4970   60.3990 C   0  0  0  0  0
  -22.5050   -9.6080   61.4260 C   0  0  0  0  0
  -23.5990  -10.1400   61.6140 O   0  0  0  0  0
  -21.6310   -9.0350   59.1650 C   0  0  0  0  0
  -21.4820   -7.9870   58.0940 C   0  0  0  0  0
  -22.5920   -7.3240   57.6000 C   0  0  0  0  0
  -20.2320   -7.6340   57.6080 C   0  0  0  0  0
  -22.4660   -6.3390   56.6290 C   0  0  0  0  0
  -20.0910   -6.6580   56.6400 C   0  0  0  0  0
  -21.2140   -6.0140   56.1530 C   0  0  0  0  0
  -21.0730   -5.0420   55.1860 O   0  0  0  0  0
  -21.4050   -9.9460   62.0970 N   0  0  0  0  0
  -21.4150  -11.0390   63.0630 C   0  0  0  0  0
  -22.3430  -10.7390   64.2580 C   0  0  0  0  0
  -22.7890  -11.6520   64.9620 O   0  0  0  0  0
  -19.9780  -11.3800   63.5040 C   0  0  0  0  0
  -19.1270  -12.0500   62.4050 C   0  0  0  0  0
  -17.6180  -11.7970   62.5670 C   0  0  0  0  0
  -17.2300  -11.8520   63.9650 N   0  0  0  0  0
  -16.3950  -11.0160   64.5620 C   0  0  0  0  0
  -15.7860  -10.0260   63.8980 N   0  0  0  0  0
  -16.1560  -11.1940   65.8440 N   0  0  0  0  0
  -22.6490   -9.4620   64.4680 N   0  0  0  0  0
  -23.5560   -9.0520   65.5400 C   0  0  0  0  0
  -24.9700   -8.7670   65.0090 C   0  0  0  0  0
  -25.8760   -8.3730   65.7620 O   0  0  0  0  0
  -22.9910   -7.8220   66.2610 C   0  0  0  0  0
  -22.0600   -8.1710   67.3980 C   0  0  0  0  0
  -20.7520   -8.5820   67.1590 C   0  0  0  0  0
  -22.4950   -8.1070   68.7110 C   0  0  0  0  0
  -19.8980   -8.9090   68.2120 C   0  0  0  0  0
  -21.6590   -8.4290   69.7620 C   0  0  0  0  0
  -20.3640   -8.8260   69.5100 C   0  0  0  0  0
  -19.5430   -9.1490   70.5710 O   0  0  0  0  0
  -25.1520   -8.9750   63.7070 N   0  0  0  0  0
  -26.4520   -8.8090   63.0860 C   0  0  0  0  0
  -27.0100   -7.4060   63.2270 C   0  0  0  0  0
  -28.1980   -7.2270   63.5010 O   0  0  0  0  0
  -26.1510   -6.4090   63.0260 N   0  0  0  0  0
  -26.5760   -5.0110   63.0440 C   0  0  0  0  0
  -26.5520   -4.3930   61.6480 C   0  0  0  0  0
  -26.6900   -3.1760   61.5120 O   0  0  0  0  0
  -25.6550   -4.1990   63.9610 C   0  0  0  0  0
  -25.6470   -4.6280   65.4210 C   0  0  0  0  0
  -24.5060   -3.9490   66.1940 C   0  0  0  0  0
  -26.9990   -4.3240   66.0610 C   0  0  0  0  0
  -26.3770   -5.2200   60.6170 N   0  0  0  0  0
  -26.1880   -4.7090   59.2590 C   0  0  0  0  0
  -27.4450   -4.0550   58.6830 C   0  0  0  0  0
  -27.3830   -3.3310   57.6810 O   0  0  0  0  0
  -25.7000   -5.8180   58.3200 C   0  0  0  0  0
  -26.7440   -6.8980   58.0130 C   0  0  0  0  0
  -26.9140   -7.8910   59.1500 C   0  0  0  0  0
  -26.2190   -7.7470   60.1870 O   0  0  0  0  0
  -27.7400   -8.8270   59.0050 O   0  0  0  0  0
  -28.5820   -4.3020   59.3230 N   0  0  0  0  0
  -29.8330   -3.6810   58.9120 C   0  0  0  0  0
  -29.8120   -2.1690   59.0650 C   0  0  0  0  0
  -30.6450   -1.4690   58.4930 O   0  0  0  0  0
  -28.8570   -1.6590   59.8410 N   0  0  0  0  0
  -28.7440   -0.2180   60.0460 C   0  0  0  0  0
  -27.9270    0.4690   58.9430 C   0  0  0  0  0
  -27.8730    1.7010   58.8820 O   0  0  0  0  0
  -28.1450    0.0660   61.4340 C   0  0  0  0  0
  -29.0320   -0.2770   62.6370 C   0  0  0  0  0
  -28.2180   -0.3880   63.9180 C   0  0  0  0  0
  -30.1380    0.7520   62.7990 C   0  0  0  0  0
  -27.3020   -0.3180   58.0680 N   0  0  0  0  0
  -26.4970    0.2400   56.9820 C   0  0  0  0  0
  -27.3670    0.7580   55.8320 C   0  0  0  0  0
  -28.5550    0.4440   55.7650 O   0  0  0  0  0
  -25.5050   -0.7910   56.4550 C   0  0  0  0  0
  -24.3730   -1.1400   57.4240 C   0  0  0  0  0
  -23.4780   -2.2360   56.8680 C   0  0  0  0  0
  -23.5690    0.1100   57.6950 C   0  0  0  0  0
  -26.8820    1.4900   54.9700 O   0  0  0  0  0
  -12.1753  -12.9099   57.1233 H   0  0  0  0  0
  -11.3129  -11.5009   56.9041 H   0  0  0  0  0
  -10.6945  -12.7158   57.8625 H   0  0  0  0  0
  -12.4315  -12.4446   59.4484 H   0  0  0  0  0
  -11.2022   -9.7694   58.7698 H   0  0  0  0  0
  -10.3158  -11.1305   59.5820 H   0  0  0  0  0
  -12.9860  -11.5615   60.7527 H   0  0  0  0  0
  -14.5252  -11.9588   59.7622 H   0  0  0  0  0
  -15.8602  -10.2329   57.7256 H   0  0  0  0  0
  -17.0420  -12.0233   59.8711 H   0  0  0  0  0
  -15.9986  -13.3958   58.2497 H   0  0  0  0  0
  -16.6692  -12.3835   56.8921 H   0  0  0  0  0
  -18.5157  -10.1586   59.3177 H   0  0  0  0  0
  -18.3607  -10.5314   57.5833 H   0  0  0  0  0
  -19.1678  -11.6852   58.6733 H   0  0  0  0  0
  -18.2581  -14.1464   58.7789 H   0  0  0  0  0
  -18.9138  -13.1567   57.4517 H   0  0  0  0  0
  -17.8411  -14.5316   57.0911 H   0  0  0  0  0
  -15.6138   -6.9580   60.8046 H   0  0  0  0  0
  -16.7474   -5.0398   59.7958 H   0  0  0  0  0
  -18.0885   -5.9721   59.2811 H   0  0  0  0  0
  -15.3027   -5.8849   58.0442 H   0  0  0  0  0
  -16.8119   -5.7337   57.2374 H   0  0  0  0  0
  -17.2759   -8.1065   57.3490 H   0  0  0  0  0
  -15.5691   -8.1707   57.2894 H   0  0  0  0  0
  -16.5065   -6.4364   62.6705 H   0  0  0  0  0
  -18.1412   -8.4304   63.8012 H   0  0  0  0  0
  -16.6312   -7.0111   65.1565 H   0  0  0  0  0
  -17.6221   -5.5771   64.7921 H   0  0  0  0  0
  -18.2928   -6.8938   65.7859 H   0  0  0  0  0
  -19.0909   -5.4456   62.2318 H   0  0  0  0  0
  -21.6280   -5.1689   63.4299 H   0  0  0  0  0
  -20.6393   -3.4360   62.0095 H   0  0  0  0  0
  -22.9944   -3.4096   62.4875 H   0  0  0  0  0
  -23.2970   -4.3918   60.9800 H   0  0  0  0  0
  -19.5944   -4.8042   60.3108 H   0  0  0  0  0
  -21.1890   -5.2941   59.6876 H   0  0  0  0  0
  -20.6709   -3.5945   59.5701 H   0  0  0  0  0
  -22.1414   -1.5887   61.1034 H   0  0  0  0  0
  -22.4367   -2.5473   59.6320 H   0  0  0  0  0
  -23.8067   -2.0116   60.6356 H   0  0  0  0  0
  -20.7017   -7.1263   60.5715 H   0  0  0  0  0
  -23.3500   -8.1536   60.1231 H   0  0  0  0  0
  -22.2204   -9.8563   58.7574 H   0  0  0  0  0
  -20.6343   -9.3562   59.4674 H   0  0  0  0  0
  -23.5815   -7.5792   57.9793 H   0  0  0  0  0
  -19.3453   -8.1351   57.9963 H   0  0  0  0  0
  -23.3494   -5.8275   56.2468 H   0  0  0  0  0
  -19.1020   -6.3975   56.2630 H   0  0  0  0  0
  -20.1434   -4.9405   54.9691 H   0  0  0  0  0
  -20.5400   -9.4312   61.9323 H   0  0  0  0  0
  -21.8277  -11.9224   62.5756 H   0  0  0  0  0
  -20.0524  -12.0861   64.3310 H   0  0  0  0  0
  -19.4885  -10.4417   63.7652 H   0  0  0  0  0
  -19.4317  -11.6268   61.4478 H   0  0  0  0  0
  -19.2902  -13.1257   62.4711 H   0  0  0  0  0
  -17.3852  -10.8059   62.1776 H   0  0  0  0  0
  -17.0731  -12.5676   62.0216 H   0  0  0  0  0
  -17.6340  -12.5960   64.5340 H   0  0  0  0  0
  -15.1363   -9.4091   64.3855 H   0  0  0  0  0
  -15.9716   -9.8886   62.9045 H   0  0  0  0  0
  -16.6090  -11.9577   66.3460 H   0  0  0  0  0
  -22.2399   -8.7485   63.8648 H   0  0  0  0  0
  -23.6358   -9.8762   66.2488 H   0  0  0  0  0
  -23.8324   -7.2713   66.6815 H   0  0  0  0  0
  -22.4199   -7.2466   65.5324 H   0  0  0  0  0
  -20.3895   -8.6493   66.1332 H   0  0  0  0  0
  -23.5187   -7.7960   68.9194 H   0  0  0  0  0
  -18.8744   -9.2265   68.0132 H   0  0  0  0  0
  -22.0226   -8.3692   70.7878 H   0  0  0  0  0
  -20.0252   -9.0356   71.3933 H   0  0  0  0  0
  -24.3582   -9.2579   63.1323 H   0  0  0  0  0
  -27.1434   -9.4897   63.5826 H   0  0  0  0  0
  -26.3366   -9.0119   62.0213 H   0  0  0  0  0
  -25.1694   -6.6269   62.8548 H   0  0  0  0  0
  -27.6008   -4.9861   63.4146 H   0  0  0  0  0
  -26.0202   -3.1722   63.9397 H   0  0  0  0  0
  -24.6404   -4.3409   63.5887 H   0  0  0  0  0
  -25.4742   -5.7033   65.4641 H   0  0  0  0  0
  -23.5513   -4.2233   65.7453 H   0  0  0  0  0
  -24.6322   -2.8672   66.1497 H   0  0  0  0  0
  -24.5279   -4.2764   67.2334 H   0  0  0  0  0
  -27.1950   -3.2534   66.0019 H   0  0  0  0  0
  -27.7810   -4.8676   65.5308 H   0  0  0  0  0
  -26.9831   -4.6347   67.1057 H   0  0  0  0  0
  -26.3748   -6.2272   60.7778 H   0  0  0  0  0
  -25.4266   -3.9325   59.3325 H   0  0  0  0  0
  -24.8664   -6.3132   58.8180 H   0  0  0  0  0
  -25.4444   -5.3436   57.3725 H   0  0  0  0  0
  -26.4064   -7.4494   57.1354 H   0  0  0  0  0
  -27.7019   -6.4020   57.8565 H   0  0  0  0  0
  -28.1605   -8.7509   58.1454 H   0  0  0  0  0
  -28.5788   -4.9399   60.1189 H   0  0  0  0  0
  -30.6268   -4.0718   59.5486 H   0  0  0  0  0
  -29.9909   -3.9096   57.8580 H   0  0  0  0  0
  -28.1945   -2.2849   60.2990 H   0  0  0  0  0
  -29.7477    0.2039   59.9945 H   0  0  0  0  0
  -27.9750    1.1418   61.4779 H   0  0  0  0  0
  -27.2600   -0.5647   61.5186 H   0  0  0  0  0
  -29.4847   -1.2497   62.4444 H   0  0  0  0  0
  -27.4706   -1.1734   63.8051 H   0  0  0  0  0
  -27.7215    0.5622   64.1150 H   0  0  0  0  0
  -28.8808   -0.6320   64.7482 H   0  0  0  0  0
  -29.6967    1.7364   62.9550 H   0  0  0  0  0
  -30.7534    0.7668   61.8995 H   0  0  0  0  0
  -30.7546    0.4885   63.6583 H   0  0  0  0  0
  -27.3868   -1.3305   58.1575 H   0  0  0  0  0
  -25.9479    1.0851   57.3972 H   0  0  0  0  0
  -28.7765   -0.1256   56.5053 H   0  0  0  0  0
  -25.0420   -0.3616   55.5666 H   0  0  0  0  0
  -26.0651   -1.7089   56.2765 H   0  0  0  0  0
  -24.8042   -1.5184   58.3508 H   0  0  0  0  0
  -24.0710   -3.1337   56.6931 H   0  0  0  0  0
  -23.0370   -1.9017   55.9289 H   0  0  0  0  0
  -22.6867   -2.4556   57.5847 H   0  0  0  0  0
  -23.1550    0.4843   56.7587 H   0  0  0  0  0
  -24.2160    0.8680   58.1364 H   0  0  0  0  0
  -22.7579   -0.1236   58.3847 H   0  0  0  0  0
  1  2  1  0  0  0
  2  3  1  0  0  0
  2  5  1  0  0  0
  3  4  2  0  0  0
  3  9  1  0  0  0
  5  6  1  0  0  0
  6  7  1  0  0  0
  6  8  2  0  0  0
  9 10  1  0  0  0
 10 11  1  0  0  0
 10 13  1  0  0  0
 11 12  2  0  0  0
 11 17  1  0  0  0
 13 14  1  0  0  0
 13 15  1  0  0  0
 14 16  1  0  0  0
 17 18  1  0  0  0
 17 23  1  0  0  0
 18 19  1  0  0  0
 18 21  1  0  0  0
 19 20  2  0  0  0
 19 24  1  0  0  0
 21 22  1  0  0  0
 22 23  1  0  0  0
 24 25  1  0  0  0
 25 26  1  0  0  0
 25 28  1  0  0  0
 26 27  2  0  0  0
 26 29  1  0  0  0
 29 30  1  0  0  0
 30 31  1  0  0  0
 30 33  1  0  0  0
 31 32  2  0  0  0
 31 37  1  0  0  0
 33 34  1  0  0  0
 33 35  1  0  0  0
 34 36  1  0  0  0
 37 38  1  0  0  0
 38 39  1  0  0  0
 38 41  1  0  0  0
 39 40  2  0  0  0
 39 49  1  0  0  0
 41 42  1  0  0  0
 42 43  4  0  0  0
 42 44  4  0  0  0
 43 45  4  0  0  0
 44 46  4  0  0  0
 45 47  4  0  0  0
 46 47  4  0  0  0
 47 48  1  0  0  0
 49 50  1  0  0  0
 50 51  1  0  0  0
 50 53  1  0  0  0
 51 52  2  0  0  0
 51 60  1  0  0  0
 53 54  1  0  0  0
 54 55  1  0  0  0
 55 56  1  0  0  0
 56 57  1  0  0  0
 57 58  1  0  0  0
 57 59  2  0  0  0
 60 61  1  0  0  0
 61 62  1  0  0  0
 61 64  1  0  0  0
 62 63  2  0  0  0
 62 72  1  0  0  0
 64 65  1  0  0  0
 65 66  4  0  0  0
 65 67  4  0  0  0
 66 68  4  0  0  0
 67 69  4  0  0  0
 68 70  4  0  0  0
 69 70  4  0  0  0
 70 71  1  0  0  0
 72 73  1  0  0  0
 73 74  1  0  0  0
 74 75  2  0  0  0
 74 76  1  0  0  0
 76 77  1  0  0  0
 77 78  1  0  0  0
 77 80  1  0  0  0
 78 79  2  0  0  0
 78 84  1  0  0  0
 80 81  1  0  0  0
 81 82  1  0  0  0
 81 83  1  0  0  0
 84 85  1  0  0  0
 85 86  1  0  0  0
 85 88  1  0  0  0
 86 87  2  0  0  0
 86 93  1  0  0  0
 88 89  1  0  0  0
 89 90  1  0  0  0
 90 91  2  0  0  0
 90 92  1  0  0  0
 93 94  1  0  0  0
 94 95  1  0  0  0
 95 96  2  0  0  0
 95 97  1  0  0  0
 97 98  1  0  0  0
 98 99  1  0  0  0
 98101  1  0  0  0
 99100  2  0  0  0
 99105  1  0  0  0
101102  1  0  0  0
102103  1  0  0  0
102104  1  0  0  0
105106  1  0  0  0
106107  1  0  0  0
106109  1  0  0  0
107108  1  0  0  0
107113  2  0  0  0
109110  1  0  0  0
110111  1  0  0  0
110112  1  0  0  0
  1114  1  0  0  0
  1115  1  0  0  0
  1116  1  0  0  0
  2117  1  0  0  0
  5118  1  0  0  0
  5119  1  0  0  0
  7120  1  0  0  0
  9121  1  0  0  0
 10122  1  0  0  0
 13123  1  0  0  0
 14124  1  0  0  0
 14125  1  0  0  0
 15126  1  0  0  0
 15127  1  0  0  0
 15128  1  0  0  0
 16129  1  0  0  0
 16130  1  0  0  0
 16131  1  0  0  0
 18132  1  0  0  0
 21133  1  0  0  0
 21134  1  0  0  0
 22135  1  0  0  0
 22136  1  0  0  0
 23137  1  0  0  0
 23138  1  0  0  0
 24139  1  0  0  0
 25140  1  0  0  0
 28141  1  0  0  0
 28142  1  0  0  0
 28143  1  0  0  0
 29144  1  0  0  0
 30145  1  0  0  0
 33146  1  0  0  0
 34147  1  0  0  0
 34148  1  0  0  0
 35149  1  0  0  0
 35150  1  0  0  0
 35151  1  0  0  0
 36152  1  0  0  0
 36153  1  0  0  0
 36154  1  0  0  0
 37155  1  0  0  0
 38156  1  0  0  0
 41157  1  0  0  0
 41158  1  0  0  0
 43159  1  0  0  0
 44160  1  0  0  0
 45161  1  0  0  0
 46162  1  0  0  0
 48163  1  0  0  0
 49164  1  0  0  0
 50165  1  0  0  0
 53166  1  0  0  0
 53167  1  0  0  0
 54168  1  0  0  0
 54169  1  0  0  0
 55170  1  0  0  0
 55171  1  0  0  0
 56172  1  0  0  0
 58173  1  0  0  0
 58174  1  0  0  0
 59175  1  0  0  0
 60176  1  0  0  0
 61177  1  0  0  0
 64178  1  0  0  0
 64179  1  0  0  0
 66180  1  0  0  0
 67181  1  0  0  0
 68182  1  0  0  0
 69183  1  0  0  0
 71184  1  0  0  0
 72185  1  0  0  0
 73186  1  0  0  0
 73187  1  0  0  0
 76188  1  0  0  0
 77189  1  0  0  0
 80190  1  0  0  0
 80191  1  0  0  0
 81192  1  0  0  0
 82193  1  0  0  0
 82194  1  0  0  0
 82195  1  0  0  0
 83196  1  0  0  0
 83197  1  0  0  0
 83198  1  0  0  0
 84199  1  0  0  0
 85200  1  0  0  0
 88201  1  0  0  0
 88202  1  0  0  0
 89203  1  0  0  0
 89204  1  0  0  0
 92205  1  0  0  0
 93206  1  0  0  0
 94207  1  0  0  0
 94208  1  0  0  0
 97209  1  0  0  0
 98210  1  0  0  0
101211  1  0  0  0
101212  1  0  0  0
102213  1  0  0  0
103214  1  0  0  0
103215  1  0  0  0
103216  1  0  0  0
104217  1  0  0  0
104218  1  0  0  0
104219  1  0  0  0
105220  1  0  0  0
106221  1  0  0  0
108222  1  0  0  0
109223  1  0  0  0
109224  1  0  0  0
110225  1  0  0  0
111226  1  0  0  0
111227  1  0  0  0
111228  1  0  0  0
112229  1  0  0  0
112230  1  0  0  0
112231  1  0  0  0
M  END
$$$$
