4m3m_ligand
  -I-interpret- 

 45 45  0  0  0  0  0  0  0  0999 V2000
  -68.5800   23.3450  141.1490 C   0  0  0  0  0
  -68.5300   22.3270  140.5050 O   0  0  0  0  0
  -68.0600   23.3590  142.2410 O   0  0  0  0  0
  -69.2040   24.4790  140.6920 C   0  0  0  0  0
  -68.9800   25.6770  141.4120 C   0  0  0  0  0
  -69.6300   26.8660  140.7920 C   0  0  0  0  0
  -71.0100   26.4830  140.4270 C   0  0  0  0  0
  -71.7410   26.1550  141.6670 N   0  0  0  0  0
  -72.5670   25.1290  142.0180 C   0  0  0  0  0
  -72.9180   24.2140  141.3220 O   0  0  0  0  0
  -73.1030   25.1630  143.4220 C   0  0  0  0  0
  -70.9260   25.4690  139.2400 C   0  0  0  0  0
  -70.0930   24.3980  139.6240 C   0  0  0  0  0
  -72.1560   25.0110  138.8020 O   0  0  0  0  0
  -72.4960   25.2390  137.4740 C   0  0  0  0  0
  -74.0200   25.1260  137.3630 C   0  0  0  0  0
  -71.8500   24.1960  136.6110 C   0  0  0  0  0
  -72.2480   22.8340  137.1220 C   0  0  0  0  0
  -74.6460   26.3760  137.9710 C   0  0  0  0  0
  -69.6150   28.0260  141.6810 N   0  3  0  0  0
  -68.1752   24.2255  142.6380 H   0  0  0  0  0
  -68.3912   25.7250  142.3280 H   0  0  0  0  0
  -69.0735   27.1667  139.9043 H   0  0  0  0  0
  -71.6408   27.2666  140.0072 H   0  0  0  0  0
  -71.5989   26.8352  142.4137 H   0  0  0  0  0
  -74.1913   25.2168  143.3929 H   0  0  0  0  0
  -72.7966   24.2591  143.9485 H   0  0  0  0  0
  -72.7084   26.0377  143.9391 H   0  0  0  0  0
  -70.5050   25.9976  138.3848 H   0  0  0  0  0
  -70.8009   23.6342  139.9459 H   0  0  0  0  0
  -69.4374   24.2705  138.7626 H   0  0  0  0  0
  -72.1591   26.2235  137.1492 H   0  0  0  0  0
  -74.3663   24.2406  137.8962 H   0  0  0  0  0
  -74.3103   25.0372  136.3161 H   0  0  0  0  0
  -70.7659   24.3037  136.6476 H   0  0  0  0  0
  -72.1770   24.3147  135.5780 H   0  0  0  0  0
  -71.9133   22.7222  138.1533 H   0  0  0  0  0
  -73.3324   22.7333  137.0776 H   0  0  0  0  0
  -71.7849   22.0655  136.5031 H   0  0  0  0  0
  -74.3544   26.4541  139.0184 H   0  0  0  0  0
  -74.2981   27.2554  137.4291 H   0  0  0  0  0
  -75.7315   26.3091  137.8988 H   0  0  0  0  0
  -68.6503   28.2629  141.9126 H   0  0  0  0  0
  -70.0578   28.8170  141.2134 H   0  0  0  0  0
  -70.1265   27.8048  142.5353 H   0  0  0  0  0
  1  2  2  0  0  0
  1  3  1  0  0  0
  1  4  1  0  0  0
  4  5  2  0  0  0
  4 13  1  0  0  0
  5  6  1  0  0  0
  6  7  1  0  0  0
  6 20  1  0  0  0
  7  8  1  0  0  0
  7 12  1  0  0  0
  8  9  1  0  0  0
  9 10  2  0  0  0
  9 11  1  0  0  0
 12 13  1  0  0  0
 12 14  1  0  0  0
 14 15  1  0  0  0
 15 16  1  0  0  0
 15 17  1  0  0  0
 16 19  1  0  0  0
 17 18  1  0  0  0
  3 21  1  0  0  0
  5 22  1  0  0  0
  6 23  1  0  0  0
  7 24  1  0  0  0
  8 25  1  0  0  0
 11 26  1  0  0  0
 11 27  1  0  0  0
 11 28  1  0  0  0
 12 29  1  0  0  0
 13 30  1  0  0  0
 13 31  1  0  0  0
 15 32  1  0  0  0
 16 33  1  0  0  0
 16 34  1  0  0  0
 17 35  1  0  0  0
 17 36  1  0  0  0
 18 37  1  0  0  0
 18 38  1  0  0  0
 18 39  1  0  0  0
 19 40  1  0  0  0
 19 41  1  0  0  0
 19 42  1  0  0  0
 20 43  1  0  0  0
 20 44  1  0  0  0
 20 45  1  0  0  0
M  END
$$$$
