4bw1_ligand
  -I-interpret- 

 56 59  0  0  0  0  0  0  0  0999 V2000
   11.0650    5.4420   12.6420 C   0  0  0  0  0
   12.0390    6.4310   12.1030 C   0  0  0  0  0
   11.8000    7.7050   12.2460 N   0  0  0  0  0
   12.8910    8.3840   11.6410 O   0  0  0  0  0
   13.7380    7.4650   11.1630 C   0  0  0  0  0
   14.9550    7.9800   10.4910 C   0  0  0  0  0
   13.2570    6.2240   11.4210 C   0  0  0  0  0
   13.8950    4.9390   11.0480 C   0  0  0  0  0
   14.2150    4.6710    9.7200 C   0  0  0  0  0
   14.8090    3.5000    9.3640 C   0  0  0  0  0
   15.1140    2.5060   10.3300 C   0  0  0  0  0
   15.7460    1.2510   10.0220 C   0  0  0  0  0
   16.0920    0.8420    8.7350 N   0  0  0  0  0
   16.4570    1.6510    7.6270 C   0  0  0  0  0
   17.7140    2.2530    7.6410 C   0  0  0  0  0
   18.1260    3.0450    6.5830 C   0  0  0  0  0
   17.3030    3.2470    5.4990 C   0  0  0  0  0
   16.0510    2.6590    5.4490 C   0  0  0  0  0
   15.5900    1.8600    6.4920 C   0  0  0  0  0
   14.1800    1.2270    6.3630 C   0  0  0  0  0
   13.2460    2.1340    5.5560 C   0  0  0  0  0
   14.2660   -0.1010    5.6190 C   0  0  0  0  0
   13.4660    0.9710    7.6970 C   0  0  0  0  0
   15.9750    0.3620   11.1150 C   0  0  0  0  0
   15.6040    0.7630   12.3940 C   0  0  0  0  0
   15.0320    1.8960   12.7090 N   0  0  0  0  0
   14.7850    2.7770   11.6890 C   0  0  0  0  0
   14.1730    4.0070   12.0180 C   0  0  0  0  0
   16.6300   -0.9710   10.9810 C   0  0  0  0  0
   17.1640   -1.2000    9.8170 O   0  0  0  0  0
   16.6840   -1.7670   11.9120 O   0  0  0  0  0
   10.9669    5.5803   13.7187 H   0  0  0  0  0
   10.0961    5.5913   12.1654 H   0  0  0  0  0
   11.4215    4.4330   12.4350 H   0  0  0  0  0
   14.6653    8.5941    9.6383 H   0  0  0  0  0
   15.5302    8.5815   11.1949 H   0  0  0  0  0
   15.5611    7.1417   10.1475 H   0  0  0  0  0
   13.9860    5.4111    8.9532 H   0  0  0  0  0
   15.0553    3.3219    8.3172 H   0  0  0  0  0
   16.0816   -0.1643    8.5686 H   0  0  0  0  0
   18.3778    2.0990    8.4917 H   0  0  0  0  0
   19.1104    3.5124    6.6089 H   0  0  0  0  0
   17.6394    3.8746    4.6737 H   0  0  0  0  0
   15.4155    2.8241    4.5789 H   0  0  0  0  0
   13.1540    3.0972    6.0579 H   0  0  0  0  0
   13.6577    2.2810    4.5575 H   0  0  0  0  0
   12.2640    1.6670    5.4804 H   0  0  0  0  0
   14.6748    0.0679    4.6228 H   0  0  0  0  0
   14.9151   -0.7826    6.1687 H   0  0  0  0  0
   13.2694   -0.5344    5.5355 H   0  0  0  0  0
   14.0634    0.2893    8.3024 H   0  0  0  0  0
   13.3404    1.9149    8.2274 H   0  0  0  0  0
   12.4889    0.5276    7.5054 H   0  0  0  0  0
   15.8089    0.0689   13.2090 H   0  0  0  0  0
   13.9178    4.2195   13.0562 H   0  0  0  0  0
   17.0044   -0.4497    9.2398 H   0  0  0  0  0
  1  2  1  0  0  0
  2  3  4  0  0  0
  2  7  4  0  0  0
  3  4  4  0  0  0
  4  5  4  0  0  0
  5  6  1  0  0  0
  5  7  4  0  0  0
  7  8  1  0  0  0
  8  9  4  0  0  0
  8 28  4  0  0  0
  9 10  4  0  0  0
 10 11  4  0  0  0
 11 12  4  0  0  0
 11 27  4  0  0  0
 12 13  1  0  0  0
 12 24  4  0  0  0
 13 14  1  0  0  0
 14 15  4  0  0  0
 14 19  4  0  0  0
 15 16  4  0  0  0
 16 17  4  0  0  0
 17 18  4  0  0  0
 18 19  4  0  0  0
 19 20  1  0  0  0
 20 21  1  0  0  0
 20 22  1  0  0  0
 20 23  1  0  0  0
 24 25  4  0  0  0
 24 29  1  0  0  0
 25 26  4  0  0  0
 26 27  4  0  0  0
 27 28  4  0  0  0
 29 30  1  0  0  0
 29 31  2  0  0  0
  1 32  1  0  0  0
  1 33  1  0  0  0
  1 34  1  0  0  0
  6 35  1  0  0  0
  6 36  1  0  0  0
  6 37  1  0  0  0
  9 38  1  0  0  0
 10 39  1  0  0  0
 13 40  1  0  0  0
 15 41  1  0  0  0
 16 42  1  0  0  0
 17 43  1  0  0  0
 18 44  1  0  0  0
 21 45  1  0  0  0
 21 46  1  0  0  0
 21 47  1  0  0  0
 22 48  1  0  0  0
 22 49  1  0  0  0
 22 50  1  0  0  0
 23 51  1  0  0  0
 23 52  1  0  0  0
 23 53  1  0  0  0
 25 54  1  0  0  0
 28 55  1  0  0  0
 30 56  1  0  0  0
M  END
$$$$
