4zy2_ligand
  -I-interpret- 

 46 47  0  0  0  0  0  0  0  0999 V2000
   91.8040   71.1910   32.1660 C   0  0  0  0  0
   90.7950   71.2270   31.0390 C   0  0  0  0  0
   90.3850   69.8150   30.6850 C   0  0  0  0  0
   91.4340   71.8890   29.8370 C   0  0  0  0  0
   89.5980   72.0460   31.4780 C   0  0  0  0  0
   89.2520   72.0600   32.6600 O   0  0  0  0  0
   88.9220   72.7660   30.5720 N   0  0  0  0  0
   87.8190   73.5830   30.9500 C   0  0  0  0  0
   87.7130   74.6970   29.9310 C   0  0  0  0  0
   87.3950   74.4630   28.7630 O   0  0  0  0  0
   87.9880   75.9470   30.3110 N   0  0  0  0  0
   87.8970   77.0190   29.3310 O   0  0  0  0  0
   86.4910   72.8700   31.0860 C   0  0  0  0  0
   85.4320   73.5650   31.6530 C   0  0  0  0  0
   84.1940   72.9630   31.8030 C   0  0  0  0  0
   86.3210   71.5590   30.6700 C   0  0  0  0  0
   85.0840   70.9550   30.8210 C   0  0  0  0  0
   84.0240   71.6540   31.3830 C   0  0  0  0  0
   82.6840   70.9700   31.5390 C   0  0  0  0  0
   82.3670   69.9500   30.7190 C   0  0  0  0  0
   81.0370   69.2480   30.8620 C   0  0  0  0  0
   80.7220   68.2340   30.0480 F   0  0  0  0  0
   80.1680   69.6450   31.8090 C   0  0  0  0  0
   78.9940   69.0190   31.9330 F   0  0  0  0  0
   80.5200   70.7890   32.7310 C   0  0  0  0  0
   79.6460   71.1740   33.6690 F   0  0  0  0  0
   81.7080   71.4170   32.6060 C   0  0  0  0  0
   92.1189   72.2073   32.4026 H   0  0  0  0  0
   91.3483   70.7364   33.0456 H   0  0  0  0  0
   92.6692   70.6034   31.8588 H   0  0  0  0  0
   89.9357   69.3391   31.5567 H   0  0  0  0  0
   89.6611   69.8416   29.8705 H   0  0  0  0  0
   91.2637   69.2502   30.3736 H   0  0  0  0  0
   90.7085   71.9434   29.0253 H   0  0  0  0  0
   91.7560   72.8949   30.1062 H   0  0  0  0  0
   92.2960   71.3037   29.5169 H   0  0  0  0  0
   89.2033   72.7279   29.5923 H   0  0  0  0  0
   88.0238   73.9491   31.9561 H   0  0  0  0  0
   88.2579   76.1477   31.2740 H   0  0  0  0  0
   88.1218   77.8533   29.7493 H   0  0  0  0  0
   85.5760   74.5938   31.9832 H   0  0  0  0  0
   83.3634   73.5125   32.2461 H   0  0  0  0  0
   87.1522   71.0091   30.2286 H   0  0  0  0  0
   84.9415   69.9242   30.4966 H   0  0  0  0  0
   83.0712   69.6304   29.9508 H   0  0  0  0  0
   81.9635   72.2424   33.2705 H   0  0  0  0  0
  1  2  1  0  0  0
  2  3  1  0  0  0
  2  4  1  0  0  0
  2  5  1  0  0  0
  5  6  2  0  0  0
  5  7  1  0  0  0
  7  8  1  0  0  0
  8  9  1  0  0  0
  8 13  1  0  0  0
  9 10  2  0  0  0
  9 11  1  0  0  0
 11 12  1  0  0  0
 13 14  4  0  0  0
 13 16  4  0  0  0
 14 15  4  0  0  0
 15 18  4  0  0  0
 16 17  4  0  0  0
 17 18  4  0  0  0
 18 19  1  0  0  0
 19 20  4  0  0  0
 19 27  4  0  0  0
 20 21  4  0  0  0
 21 22  1  0  0  0
 21 23  4  0  0  0
 23 24  1  0  0  0
 23 25  4  0  0  0
 25 26  1  0  0  0
 25 27  4  0  0  0
  1 28  1  0  0  0
  1 29  1  0  0  0
  1 30  1  0  0  0
  3 31  1  0  0  0
  3 32  1  0  0  0
  3 33  1  0  0  0
  4 34  1  0  0  0
  4 35  1  0  0  0
  4 36  1  0  0  0
  7 37  1  0  0  0
  8 38  1  0  0  0
 11 39  1  0  0  0
 12 40  1  0  0  0
 14 41  1  0  0  0
 15 42  1  0  0  0
 16 43  1  0  0  0
 17 44  1  0  0  0
 20 45  1  0  0  0
 27 46  1  0  0  0
M  END
$$$$
