4x8p_ligand
  -I-interpret- 

201202  0  0  0  0  0  0  0  0999 V2000
    9.7680    4.5410  -21.9750 N   0  3  0  0  0
    9.4890    5.8520  -21.3830 C   0  0  0  0  0
    9.5360    5.8040  -19.8650 C   0  0  0  0  0
    9.0190    4.8640  -19.2550 O   0  0  0  0  0
    8.1530    6.4270  -21.8660 C   0  0  0  0  0
    8.3230    7.4610  -22.9690 C   0  0  0  0  0
    7.1060    8.3170  -23.2800 C   0  0  0  0  0
    6.3170    8.6080  -22.3500 O   0  0  0  0  0
    6.9680    8.7350  -24.4530 O   0  0  0  0  0
   10.1770    6.8060  -19.2540 N   0  0  0  0  0
   10.3160    6.8210  -17.8060 C   0  0  0  0  0
    9.0020    7.0410  -17.0760 C   0  0  0  0  0
    8.2030    7.8980  -17.4660 O   0  0  0  0  0
   11.3850    7.8210  -17.3320 C   0  0  0  0  0
   11.7370    7.6090  -15.8760 C   0  0  0  0  0
   12.5740    6.5630  -15.4860 C   0  0  0  0  0
   11.1560    8.3910  -14.8760 C   0  0  0  0  0
   12.8500    6.3200  -14.1460 C   0  0  0  0  0
   11.4290    8.1580  -13.5270 C   0  0  0  0  0
   12.2790    7.1220  -13.1710 C   0  0  0  0  0
   12.5520    6.8650  -11.8600 O   0  0  0  0  0
    8.7950    6.2530  -16.0030 N   0  0  0  0  0
    7.6420    6.3520  -15.1080 C   0  0  0  0  0
    8.1670    6.3740  -13.6920 C   0  0  0  0  0
    9.1300    5.6520  -13.3830 O   0  0  0  0  0
    6.6700    5.1900  -15.3000 C   0  0  0  0  0
    5.7430    5.4080  -16.4850 C   0  0  0  0  0
    4.7220    4.3130  -16.7280 C   0  0  0  0  0
    4.1010    3.8400  -15.7480 O   0  0  0  0  0
    4.5230    3.9490  -17.9090 O   0  0  0  0  0
    7.5500    7.2050  -12.8340 N   0  0  0  0  0
    7.9740    7.3760  -11.4480 C   0  0  0  0  0
    8.0060    6.0460  -10.6820 C   0  0  0  0  0
    7.0510    5.2720  -10.7470 O   0  0  0  0  0
    7.1360    8.4390  -10.7360 C   0  0  0  0  0
    7.6990    8.7680   -9.3590 C   0  0  0  0  0
    6.9960    9.8600   -8.5890 C   0  0  0  0  0
    6.1930   10.6090   -9.1900 O   0  0  0  0  0
    7.1950    9.9150   -7.3580 O   0  0  0  0  0
    9.1540    5.7590  -10.0510 N   0  0  0  0  0
    9.4200    4.5130   -9.3280 C   0  0  0  0  0
    9.1950    4.6670   -7.8380 C   0  0  0  0  0
    9.1990    5.7740   -7.3170 O   0  0  0  0  0
   10.8770    4.0580   -9.5920 C   0  0  0  0  0
   11.1280    3.5790  -11.0340 C   0  0  0  0  0
   12.5360    3.0530  -11.2230 C   0  0  0  0  0
   12.7420    1.7690  -10.5500 N   0  0  0  0  0
   12.5440    0.5740  -11.1050 C   0  0  0  0  0
   12.1310    0.4760  -12.3600 N   0  0  0  0  0
   12.7550   -0.5290  -10.4060 N   0  0  0  0  0
    9.0360    3.5470   -7.1430 N   0  0  0  0  0
    8.8790    3.4700   -5.6810 C   0  0  0  0  0
   10.1360    4.1040   -4.9760 C   0  0  0  0  0
   10.0100    4.8270   -3.9720 O   0  0  0  0  0
    8.6830    1.9820   -5.3070 C   0  0  0  0  0
    8.2360    1.7200   -3.8860 C   0  0  0  0  0
    9.2850    1.8800   -2.7990 C   0  0  0  0  0
   10.4940    1.6640   -3.0590 O   0  0  0  0  0
    8.8790    2.2140   -1.6670 O   0  0  0  0  0
   11.3290    3.8510   -5.5320 N   0  0  0  0  0
   12.5970    4.3620   -5.0030 C   0  0  0  0  0
   13.0200    5.7140   -5.6190 C   0  0  0  0  0
   14.1950    6.0620   -5.5090 O   0  0  0  0  0
   13.7010    3.3330   -5.2170 C   0  0  0  0  0
   13.8750    3.0520   -6.5980 O   0  0  0  0  0
   12.0690    6.4750   -6.2460 N   0  0  0  0  0
   12.2930    7.7770   -6.9090 C   0  0  0  0  0
   13.1450    8.8270   -6.1350 C   0  0  0  0  0
   13.9790    9.5090   -6.7340 O   0  0  0  0  0
   10.9440    8.4220   -7.2670 C   0  0  0  0  0
   11.0270    9.5050   -8.3390 C   0  0  0  0  0
   11.4310    9.0190   -9.7180 C   0  0  0  0  0
   11.0940    7.8700  -10.0800 O   0  0  0  0  0
   12.1630    9.7600  -10.4040 O   0  0  0  0  0
   12.8850    8.9800   -4.8290 N   0  0  0  0  0
   13.5130    9.9990   -3.9780 C   0  0  0  0  0
   14.7250    9.4760   -3.2030 C   0  0  0  0  0
   15.4140   10.2610   -2.5550 O   0  0  0  0  0
   12.4630   10.5600   -2.9870 C   0  0  0  0  0
   11.2020   11.1420   -3.5910 C   0  0  0  0  0
   10.2270   10.3150   -4.1390 C   0  0  0  0  0
   10.9640   12.5140   -3.5590 C   0  0  0  0  0
    9.0560   10.8470   -4.6600 C   0  0  0  0  0
    9.7890   13.0480   -4.0800 C   0  0  0  0  0
    8.8350   12.2090   -4.6110 C   0  0  0  0  0
   14.9800    8.1620   -3.2540 N   0  0  0  0  0
   16.0450    7.5310   -2.4710 C   0  0  0  0  0
   17.4540    7.7620   -2.9430 C   0  0  0  0  0
   17.7590    7.5590   -4.1110 O   0  0  0  0  0
   15.7800    6.0240   -2.2410 C   0  0  0  0  0
   14.3590    5.6830   -1.8080 C   0  0  0  0  0
   13.6180    6.6040   -1.4020 O   0  0  0  0  0
   13.9750    4.5230   -1.9380 O   0  0  0  0  0
   18.3200    8.1250   -1.9960 N   0  0  0  0  0
   19.7550    8.3230   -2.1620 C   0  0  0  0  0
   20.4610    6.9500   -2.0920 C   0  0  0  0  0
   21.3640    6.6660   -2.9010 O   0  0  0  0  0
   20.2750    9.2810   -1.0620 C   0  0  0  0  0
   19.5370   10.6430   -1.1380 C   0  0  0  0  0
   21.8280    9.4380   -1.1310 C   0  0  0  0  0
   19.6680   11.5380    0.1320 C   0  0  0  0  0
   20.0370    6.1230   -1.0990 N   0  0  0  0  0
   20.5250    4.7770   -0.7900 C   0  0  0  0  0
   19.3520    3.9530   -0.2770 C   0  0  0  0  0
   18.4540    4.5110    0.3500 O   0  0  0  0  0
   21.6290    4.8280    0.2820 C   0  0  0  0  0
   19.3240    2.7440   -0.4990 O   0  0  0  0  0
   10.6630    4.1961  -21.6280 H   0  0  0  0  0
    9.0277    3.8884  -21.7172 H   0  0  0  0  0
    9.8068    4.6291  -22.9904 H   0  0  0  0  0
   10.2791    6.5215  -21.7230 H   0  0  0  0  0
    7.6739    6.9174  -21.0186 H   0  0  0  0  0
    7.5601    5.6048  -22.2667 H   0  0  0  0  0
    8.5426    6.9022  -23.8788 H   0  0  0  0  0
    9.0979    8.1468  -22.6265 H   0  0  0  0  0
    6.6085    8.1834  -21.5399 H   0  0  0  0  0
   10.5718    7.5661  -19.8079 H   0  0  0  0  0
   10.6553    5.8194  -17.5420 H   0  0  0  0  0
   10.9891    8.8299  -17.4478 H   0  0  0  0  0
   12.2846    7.6732  -17.9294 H   0  0  0  0  0
   13.0203    5.9237  -16.2477 H   0  0  0  0  0
   10.4774    9.1976  -15.1535 H   0  0  0  0  0
   13.5127    5.5021  -13.8631 H   0  0  0  0  0
   10.9772    8.7859  -12.7591 H   0  0  0  0  0
   12.0886    7.4988  -11.3076 H   0  0  0  0  0
    9.4919    5.5363  -15.8002 H   0  0  0  0  0
    7.0843    7.2615  -15.3315 H   0  0  0  0  0
    6.0586    5.1068  -14.4015 H   0  0  0  0  0
    7.2522    4.2875  -15.4859 H   0  0  0  0  0
    6.3765    5.4430  -17.3714 H   0  0  0  0  0
    5.1786    6.3163  -16.2737 H   0  0  0  0  0
    4.4103    4.2595  -14.9418 H   0  0  0  0  0
    6.7485    7.7407  -13.1671 H   0  0  0  0  0
    9.0017    7.7387  -11.4667 H   0  0  0  0  0
    6.1243    8.0530  -10.6110 H   0  0  0  0  0
    7.1477    9.3472  -11.3387 H   0  0  0  0  0
    8.7165    9.1219   -9.5249 H   0  0  0  0  0
    7.5918    7.8611   -8.7638 H   0  0  0  0  0
    6.1976   10.3958  -10.1260 H   0  0  0  0  0
    9.8956    6.4589  -10.0763 H   0  0  0  0  0
    8.7219    3.7600   -9.6936 H   0  0  0  0  0
   11.0791    3.2158   -8.9303 H   0  0  0  0  0
   11.5225    4.9191   -9.4189 H   0  0  0  0  0
   10.9897    4.4282  -11.7032 H   0  0  0  0  0
   10.4309    2.7693  -11.2494 H   0  0  0  0  0
   13.2287    3.7763  -10.7928 H   0  0  0  0  0
   12.7030    2.9071  -12.2902 H   0  0  0  0  0
   13.0617    1.7911   -9.5817 H   0  0  0  0  0
   11.9793   -0.4425  -12.7767 H   0  0  0  0  0
   11.9647    1.3191  -12.9095 H   0  0  0  0  0
   13.0706   -0.4668   -9.4380 H   0  0  0  0  0
    9.0214    2.6699   -7.6634 H   0  0  0  0  0
    8.0109    4.0356   -5.3426 H   0  0  0  0  0
    9.6559    1.5035   -5.4191 H   0  0  0  0  0
    7.8941    1.6007   -5.9554 H   0  0  0  0  0
    7.9302    0.6742   -3.8559 H   0  0  0  0  0
    7.4669    2.4622   -3.6720 H   0  0  0  0  0
   10.5829    1.4215   -3.9836 H   0  0  0  0  0
   11.3561    3.2704   -6.3702 H   0  0  0  0  0
   12.4396    4.5375   -3.9388 H   0  0  0  0  0
   13.4237    2.4115   -4.7051 H   0  0  0  0  0
   14.6342    3.7344   -4.8218 H   0  0  0  0  0
   14.5740    2.4029   -6.7057 H   0  0  0  0  0
   11.1170    6.1088   -6.2563 H   0  0  0  0  0
   12.8860    7.5155   -7.7854 H   0  0  0  0  0
   10.5665    8.8969   -6.3614 H   0  0  0  0  0
   10.3059    7.6308   -7.6607 H   0  0  0  0  0
   11.7965   10.2064   -8.0164 H   0  0  0  0  0
   10.0265    9.9264   -8.4363 H   0  0  0  0  0
   10.5328    7.4758   -9.4082 H   0  0  0  0  0
   12.2085    8.3491   -4.3992 H   0  0  0  0  0
   13.8790   10.7846   -4.6391 H   0  0  0  0  0
   12.9524   11.3814   -2.4636 H   0  0  0  0  0
   12.1423    9.7145   -2.3784 H   0  0  0  0  0
   10.3846    9.2366   -4.1594 H   0  0  0  0  0
   11.7081   13.1786   -3.1199 H   0  0  0  0  0
    8.3107   10.1897   -5.1079 H   0  0  0  0  0
    9.6247   14.1255   -4.0677 H   0  0  0  0  0
    7.9017   12.6217   -4.9941 H   0  0  0  0  0
   14.4088    7.5765   -3.8634 H   0  0  0  0  0
   15.9925    8.0605   -1.5197 H   0  0  0  0  0
   16.4411    5.7061   -1.4348 H   0  0  0  0  0
   15.9485    5.5241   -3.1949 H   0  0  0  0  0
   14.1151    7.4249   -1.3752 H   0  0  0  0  0
   17.9405    8.2796   -1.0620 H   0  0  0  0  0
   19.9684    8.7749   -3.1307 H   0  0  0  0  0
   20.0540    8.8445   -0.0880 H   0  0  0  0  0
   18.4768   10.4193   -1.2563 H   0  0  0  0  0
   19.9870   11.1983   -1.9610 H   0  0  0  0  0
   22.2969    8.4638   -0.9923 H   0  0  0  0  0
   22.1082    9.8424   -2.1037 H   0  0  0  0  0
   22.1585   10.1170   -0.3450 H   0  0  0  0  0
   19.2578   11.0085    0.9919 H   0  0  0  0  0
   20.7197   11.7626    0.3098 H   0  0  0  0  0
   19.1177   12.4664   -0.0210 H   0  0  0  0  0
   19.2932    6.4816   -0.5002 H   0  0  0  0  0
   20.9476    4.3279   -1.6888 H   0  0  0  0  0
   22.4616    5.4287   -0.0840 H   0  0  0  0  0
   21.2294    5.2750    1.1923 H   0  0  0  0  0
   21.9748    3.8163    0.4940 H   0  0  0  0  0
   20.1048    2.4933   -0.9980 H   0  0  0  0  0
  1  2  1  0  0  0
  2  3  1  0  0  0
  2  5  1  0  0  0
  3  4  2  0  0  0
  3 10  1  0  0  0
  5  6  1  0  0  0
  6  7  1  0  0  0
  7  8  1  0  0  0
  7  9  2  0  0  0
 10 11  1  0  0  0
 11 12  1  0  0  0
 11 14  1  0  0  0
 12 13  2  0  0  0
 12 22  1  0  0  0
 14 15  1  0  0  0
 15 16  4  0  0  0
 15 17  4  0  0  0
 16 18  4  0  0  0
 17 19  4  0  0  0
 18 20  4  0  0  0
 19 20  4  0  0  0
 20 21  1  0  0  0
 22 23  1  0  0  0
 23 24  1  0  0  0
 23 26  1  0  0  0
 24 25  2  0  0  0
 24 31  1  0  0  0
 26 27  1  0  0  0
 27 28  1  0  0  0
 28 29  1  0  0  0
 28 30  2  0  0  0
 31 32  1  0  0  0
 32 33  1  0  0  0
 32 35  1  0  0  0
 33 34  2  0  0  0
 33 40  1  0  0  0
 35 36  1  0  0  0
 36 37  1  0  0  0
 37 38  1  0  0  0
 37 39  2  0  0  0
 40 41  1  0  0  0
 41 42  1  0  0  0
 41 44  1  0  0  0
 42 43  2  0  0  0
 42 51  1  0  0  0
 44 45  1  0  0  0
 45 46  1  0  0  0
 46 47  1  0  0  0
 47 48  1  0  0  0
 48 49  1  0  0  0
 48 50  2  0  0  0
 51 52  1  0  0  0
 52 53  1  0  0  0
 52 55  1  0  0  0
 53 54  2  0  0  0
 53 60  1  0  0  0
 55 56  1  0  0  0
 56 57  1  0  0  0
 57 58  1  0  0  0
 57 59  2  0  0  0
 60 61  1  0  0  0
 61 62  1  0  0  0
 61 64  1  0  0  0
 62 63  2  0  0  0
 62 66  1  0  0  0
 64 65  1  0  0  0
 66 67  1  0  0  0
 67 68  1  0  0  0
 67 70  1  0  0  0
 68 69  2  0  0  0
 68 75  1  0  0  0
 70 71  1  0  0  0
 71 72  1  0  0  0
 72 73  1  0  0  0
 72 74  2  0  0  0
 75 76  1  0  0  0
 76 77  1  0  0  0
 76 79  1  0  0  0
 77 78  2  0  0  0
 77 86  1  0  0  0
 79 80  1  0  0  0
 80 81  4  0  0  0
 80 82  4  0  0  0
 81 83  4  0  0  0
 82 84  4  0  0  0
 83 85  4  0  0  0
 84 85  4  0  0  0
 86 87  1  0  0  0
 87 88  1  0  0  0
 87 90  1  0  0  0
 88 89  2  0  0  0
 88 94  1  0  0  0
 90 91  1  0  0  0
 91 92  1  0  0  0
 91 93  2  0  0  0
 94 95  1  0  0  0
 95 96  1  0  0  0
 95 98  1  0  0  0
 96 97  2  0  0  0
 96102  1  0  0  0
 98 99  1  0  0  0
 98100  1  0  0  0
 99101  1  0  0  0
102103  1  0  0  0
103104  1  0  0  0
103106  1  0  0  0
104105  2  0  0  0
104107  1  0  0  0
  1108  1  0  0  0
  1109  1  0  0  0
  1110  1  0  0  0
  2111  1  0  0  0
  5112  1  0  0  0
  5113  1  0  0  0
  6114  1  0  0  0
  6115  1  0  0  0
  8116  1  0  0  0
 10117  1  0  0  0
 11118  1  0  0  0
 14119  1  0  0  0
 14120  1  0  0  0
 16121  1  0  0  0
 17122  1  0  0  0
 18123  1  0  0  0
 19124  1  0  0  0
 21125  1  0  0  0
 22126  1  0  0  0
 23127  1  0  0  0
 26128  1  0  0  0
 26129  1  0  0  0
 27130  1  0  0  0
 27131  1  0  0  0
 29132  1  0  0  0
 31133  1  0  0  0
 32134  1  0  0  0
 35135  1  0  0  0
 35136  1  0  0  0
 36137  1  0  0  0
 36138  1  0  0  0
 38139  1  0  0  0
 40140  1  0  0  0
 41141  1  0  0  0
 44142  1  0  0  0
 44143  1  0  0  0
 45144  1  0  0  0
 45145  1  0  0  0
 46146  1  0  0  0
 46147  1  0  0  0
 47148  1  0  0  0
 49149  1  0  0  0
 49150  1  0  0  0
 50151  1  0  0  0
 51152  1  0  0  0
 52153  1  0  0  0
 55154  1  0  0  0
 55155  1  0  0  0
 56156  1  0  0  0
 56157  1  0  0  0
 58158  1  0  0  0
 60159  1  0  0  0
 61160  1  0  0  0
 64161  1  0  0  0
 64162  1  0  0  0
 65163  1  0  0  0
 66164  1  0  0  0
 67165  1  0  0  0
 70166  1  0  0  0
 70167  1  0  0  0
 71168  1  0  0  0
 71169  1  0  0  0
 73170  1  0  0  0
 75171  1  0  0  0
 76172  1  0  0  0
 79173  1  0  0  0
 79174  1  0  0  0
 81175  1  0  0  0
 82176  1  0  0  0
 83177  1  0  0  0
 84178  1  0  0  0
 85179  1  0  0  0
 86180  1  0  0  0
 87181  1  0  0  0
 90182  1  0  0  0
 90183  1  0  0  0
 92184  1  0  0  0
 94185  1  0  0  0
 95186  1  0  0  0
 98187  1  0  0  0
 99188  1  0  0  0
 99189  1  0  0  0
100190  1  0  0  0
100191  1  0  0  0
100192  1  0  0  0
101193  1  0  0  0
101194  1  0  0  0
101195  1  0  0  0
102196  1  0  0  0
103197  1  0  0  0
106198  1  0  0  0
106199  1  0  0  0
106200  1  0  0  0
107201  1  0  0  0
M  END
$$$$
