### 
### Created by X-TOOL on Mon Sep 10 21:13:25 2018
### 

@<TRIPOS>MOLECULE
4x8p_ligand
  195   196     1     0     0
SMALL
GAST_HUCK


@<TRIPOS>ATOM
      1 N           9.7680    4.5410  -21.9750 N.4       1 GLU         0.2380
      2 CA          9.4890    5.8520  -21.3830 C.3       1 GLU         0.0665
      3 C           9.5360    5.8040  -19.8650 C.2       1 GLU         0.2269
      4 O           9.0190    4.8640  -19.2550 O.2       1 GLU        -0.3907
      5 CB          8.1530    6.4270  -21.8660 C.3       1 GLU         0.0194
      6 CG          8.3230    7.4610  -22.9690 C.3       1 GLU         0.0075
      7 CD          7.1060    8.3170  -23.2800 C.2       1 GLU         0.0351
      8 OE1         6.3170    8.6080  -22.3500 O.co2     1 GLU        -0.5690
      9 OE2         6.9680    8.7350  -24.4530 O.co2     1 GLU        -0.5690
     10 N          10.1770    6.8060  -19.2540 N.am      1 TYR        -0.2594
     11 CA         10.3160    6.8210  -17.8060 C.3       1 TYR         0.1391
     12 C           9.0020    7.0410  -17.0760 C.2       1 TYR         0.2057
     13 O           8.2030    7.8980  -17.4660 O.2       1 TYR        -0.3942
     14 CB         11.3850    7.8210  -17.3320 C.3       1 TYR         0.0164
     15 CG         11.7370    7.6090  -15.8760 C.ar      1 TYR        -0.0493
     16 CD1        12.5740    6.5630  -15.4860 C.ar      1 TYR        -0.0685
     17 CD2        11.1560    8.3910  -14.8760 C.ar      1 TYR        -0.0685
     18 CE1        12.8500    6.3200  -14.1460 C.ar      1 TYR        -0.0398
     19 CE2        11.4290    8.1580  -13.5270 C.ar      1 TYR        -0.0398
     20 CZ         12.2790    7.1220  -13.1710 C.ar      1 TYR         0.0805
     21 OH         12.5520    6.8650  -11.8600 O.3       1 TYR        -0.3376
     22 N           8.7950    6.2530  -16.0030 N.am      1 GLU        -0.2635
     23 CA          7.6420    6.3520  -15.1080 C.3       1 GLU         0.1325
     24 C           8.1670    6.3740  -13.6920 C.2       1 GLU         0.2040
     25 O           9.1300    5.6520  -13.3830 O.2       1 GLU        -0.3944
     26 CB          6.6700    5.1900  -15.3000 C.3       1 GLU        -0.0008
     27 CG          5.7430    5.4080  -16.4850 C.3       1 GLU         0.0044
     28 CD          4.7220    4.3130  -16.7280 C.2       1 GLU         0.0350
     29 OE1         4.1010    3.8400  -15.7480 O.co2     1 GLU        -0.5690
     30 OE2         4.5230    3.9490  -17.9090 O.co2     1 GLU        -0.5690
     31 N           7.5500    7.2050  -12.8340 N.am      1 GLU        -0.2636
     32 CA          7.9740    7.3760  -11.4480 C.3       1 GLU         0.1325
     33 C           8.0060    6.0460  -10.6820 C.2       1 GLU         0.2040
     34 O           7.0510    5.2720  -10.7470 O.2       1 GLU        -0.3944
     35 CB          7.1360    8.4390  -10.7360 C.3       1 GLU        -0.0008
     36 CG          7.6990    8.7680   -9.3590 C.3       1 GLU         0.0044
     37 CD          6.9960    9.8600   -8.5890 C.2       1 GLU         0.0350
     38 OE1         6.1930   10.6090   -9.1900 O.co2     1 GLU        -0.5690
     39 OE2         7.1950    9.9150   -7.3580 O.co2     1 GLU        -0.5690
     40 N           9.1540    5.7590  -10.0510 N.am      1 ARG        -0.2637
     41 CA          9.4200    4.5130   -9.3280 C.3       1 ARG         0.1311
     42 C           9.1950    4.6670   -7.8380 C.2       1 ARG         0.2039
     43 O           9.1990    5.7740   -7.3170 O.2       1 ARG        -0.3944
     44 CB         10.8770    4.0580   -9.5920 C.3       1 ARG        -0.0092
     45 CG         11.1280    3.5790  -11.0340 C.3       1 ARG        -0.0156
     46 CD         12.5360    3.0530  -11.2230 C.3       1 ARG         0.0627
     47 NE         12.7420    1.7690  -10.5500 N.pl3     1 ARG        -0.2723
     48 CZ         12.5440    0.5740  -11.1050 C.cat     1 ARG         0.2882
     49 NH1        12.1310    0.4760  -12.3600 N.pl3     1 ARG        -0.2849
     50 NH2        12.7550   -0.5290  -10.4060 N.pl3     1 ARG        -0.2849
     51 N           9.0360    3.5470   -7.1430 N.am      1 GLU        -0.2636
     52 CA          8.8790    3.4700   -5.6810 C.3       1 GLU         0.1325
     53 C          10.1360    4.1040   -4.9760 C.2       1 GLU         0.2041
     54 O          10.0100    4.8270   -3.9720 O.2       1 GLU        -0.3944
     55 CB          8.6830    1.9820   -5.3070 C.3       1 GLU        -0.0008
     56 CG          8.2360    1.7200   -3.8860 C.3       1 GLU         0.0044
     57 CD          9.2850    1.8800   -2.7990 C.2       1 GLU         0.0350
     58 OE1        10.4940    1.6640   -3.0590 O.co2     1 GLU        -0.5690
     59 OE2         8.8790    2.2140   -1.6670 O.co2     1 GLU        -0.5690
     60 N          11.3290    3.8510   -5.5320 N.am      1 SER        -0.2616
     61 CA         12.5970    4.3620   -5.0030 C.3       1 SER         0.1539
     62 C          13.0200    5.7140   -5.6190 C.2       1 SER         0.2062
     63 O          14.1950    6.0620   -5.5090 O.2       1 SER        -0.3943
     64 CB         13.7010    3.3330   -5.2170 C.3       1 SER         0.0843
     65 OG         13.8750    3.0520   -6.5980 O.3       1 SER        -0.3903
     66 N          12.0690    6.4750   -6.2460 N.am      1 GLU        -0.2636
     67 CA         12.2930    7.7770   -6.9090 C.3       1 GLU         0.1325
     68 C          13.1450    8.8270   -6.1350 C.2       1 GLU         0.2041
     69 O          13.9790    9.5090   -6.7340 O.2       1 GLU        -0.3944
     70 CB         10.9440    8.4220   -7.2670 C.3       1 GLU        -0.0008
     71 CG         11.0270    9.5050   -8.3390 C.3       1 GLU         0.0044
     72 CD         11.4310    9.0190   -9.7180 C.2       1 GLU         0.0350
     73 OE1        11.0940    7.8700  -10.0800 O.co2     1 GLU        -0.5690
     74 OE2        12.1630    9.7600  -10.4040 O.co2     1 GLU        -0.5690
     75 N          12.8850    8.9800   -4.8290 N.am      1 PHE        -0.2619
     76 CA         13.5130    9.9990   -3.9780 C.3       1 PHE         0.1404
     77 C          14.7250    9.4760   -3.2030 C.2       1 PHE         0.2060
     78 O          15.4140   10.2610   -2.5550 O.2       1 PHE        -0.3942
     79 CB         12.4630   10.5600   -2.9870 C.3       1 PHE         0.0214
     80 CG         11.2020   11.1420   -3.5910 C.ar      1 PHE        -0.0386
     81 CD1        10.2270   10.3150   -4.1390 C.ar      1 PHE        -0.0601
     82 CD2        10.9640   12.5140   -3.5590 C.ar      1 PHE        -0.0601
     83 CE1         9.0560   10.8470   -4.6600 C.ar      1 PHE        -0.0686
     84 CE2         9.7890   13.0480   -4.0800 C.ar      1 PHE        -0.0686
     85 CZ          8.8350   12.2090   -4.6110 C.ar      1 PHE        -0.0687
     86 N          14.9800    8.1620   -3.2540 N.am      1 ASP        -0.2620
     87 CA         16.0450    7.5310   -2.4710 C.3       1 ASP         0.1423
     88 C          17.4540    7.7620   -2.9430 C.2       1 ASP         0.2056
     89 O          17.7590    7.5590   -4.1110 O.2       1 ASP        -0.3943
     90 CB         15.7800    6.0240   -2.2410 C.3       1 ASP         0.0406
     91 CG         14.3590    5.6830   -1.8080 C.2       1 ASP         0.0393
     92 OD1        13.6180    6.6040   -1.4020 O.co2     1 ASP        -0.5688
     93 OD2        13.9750    4.5230   -1.9380 O.co2     1 ASP        -0.5688
     94 N          18.3200    8.1250   -1.9960 N.am      1 ILE        -0.2634
     95 CA         19.7550    8.3230   -2.1620 C.3       1 ILE         0.1335
     96 C          20.4610    6.9500   -2.0920 C.2       1 ILE         0.2036
     97 O          21.3640    6.6660   -2.9010 O.2       1 ILE        -0.3944
     98 CB         20.2750    9.2810   -1.0620 C.3       1 ILE        -0.0037
     99 CG1        19.5370   10.6430   -1.1380 C.3       1 ILE        -0.0491
    100 CG2        21.8280    9.4380   -1.1310 C.3       1 ILE        -0.0582
    101 CD1        19.6680   11.5380    0.1320 C.3       1 ILE        -0.0648
    102 N          20.0370    6.1230   -1.0990 N.am      1 GLU        -0.2697
    103 CA         20.5250    4.7770   -0.7900 C.3       1 GLU         0.0916
    104 C          19.3520    3.9530   -0.2770 C.2       1 GLU         0.0598
    105 O          18.4540    4.5110    0.3500 O.co2     1 GLU        -0.5666
    106 CB         21.6290    4.8280    0.2820 C.3       1 GLU        -0.0300
    107 OXT        19.3240    2.7440   -0.4990 O.co2     1 GLU        -0.5666
    108 H1          9.7284    4.6108  -22.9798 H         1 GLU         0.2015
    109 H2          9.0808    3.8756  -21.6571 H         1 GLU         0.2015
    110 H3         10.6867    4.2347  -21.6955 H         1 GLU         0.2015
    111 H4         10.2826    6.5365  -21.7171 H         1 GLU         0.1099
    112 H5          7.6456    6.9022  -21.0135 H         1 GLU         0.0363
    113 H6          7.5331    5.6029  -22.2488 H         1 GLU         0.0363
    114 H7          8.6018    6.9271  -23.8894 H         1 GLU         0.0434
    115 H8          9.1408    8.1350  -22.6740 H         1 GLU         0.0434
    116 H9         10.5640    7.5512  -19.7970 H         1 TYR         0.1886
    117 H10        10.6695    5.8195  -17.5196 H         1 TYR         0.0821
    118 H11        11.0002    8.8434  -17.4613 H         1 TYR         0.0453
    119 H12        12.2915    7.6905  -17.9413 H         1 TYR         0.0453
    120 H13        13.0178    5.9272  -16.2435 H         1 TYR         0.0530
    121 H14        10.4811    9.1931  -15.1519 H         1 TYR         0.0530
    122 H15        13.5091    5.5066  -13.8647 H         1 TYR         0.0525
    123 H16        10.9797    8.7825  -12.7633 H         1 TYR         0.0525
    124 H17        11.7444    6.6592  -11.4040 H         1 TYR         0.2458
    125 H18         9.4782    5.5503  -15.8042 H         1 GLU         0.1883
    126 H19         7.1074    7.2912  -15.3132 H         1 GLU         0.0801
    127 H20         6.0621    5.0823  -14.3896 H         1 GLU         0.0330
    128 H21         7.2474    4.2687  -15.4665 H         1 GLU         0.0330
    129 H22         6.3640    5.4983  -17.3884 H         1 GLU         0.0433
    130 H23         5.1975    6.3487  -16.3195 H         1 GLU         0.0433
    131 H24         6.7642    7.7302  -13.1606 H         1 GLU         0.1883
    132 H25         9.0081    7.7502  -11.4741 H         1 GLU         0.0801
    133 H26         6.1079    8.0651  -10.6212 H         1 GLU         0.0330
    134 H27         7.1274    9.3543  -11.3460 H         1 GLU         0.0330
    135 H28         8.7476    9.0733   -9.4905 H         1 GLU         0.0433
    136 H29         7.6573    7.8511   -8.7527 H         1 GLU         0.0433
    137 H30         9.8810    6.4452  -10.0758 H         1 ARG         0.1883
    138 H31         8.7335    3.7403   -9.7043 H         1 ARG         0.0800
    139 H32        11.1114    3.2305   -8.9062 H         1 ARG         0.0313
    140 H33        11.5474    4.9056   -9.3867 H         1 ARG         0.0313
    141 H34        10.9698    4.4235  -11.7209 H         1 ARG         0.0301
    142 H35        10.4147    2.7756  -11.2701 H         1 ARG         0.0301
    143 H36        13.2460    3.7860  -10.8124 H         1 ARG         0.0689
    144 H37        12.7242    2.9231  -12.2990 H         1 ARG         0.0689
    145 H38        13.0649    1.7913   -9.5722 H         1 ARG         0.2642
    146 H39        11.9803   -0.4516  -12.7816 H         1 ARG         0.2615
    147 H40        11.9606    1.3274  -12.9141 H         1 ARG         0.2615
    148 H41        13.0762   -0.4663   -9.4294 H         1 ARG         0.2615
    149 H42        12.5981   -1.4506  -10.8383 H         1 ARG         0.2615
    150 H43         9.0217    2.6870   -7.6532 H         1 GLU         0.1883
    151 H44         7.9855    4.0353   -5.3777 H         1 GLU         0.0801
    152 H45         9.6415    1.4649   -5.4612 H         1 GLU         0.0330
    153 H46         7.9255    1.5597   -5.9836 H         1 GLU         0.0330
    154 H47         7.8631    0.6862   -3.8394 H         1 GLU         0.0433
    155 H48         7.4148    2.4165   -3.6614 H         1 GLU         0.0433
    156 H49        11.3556    3.2818   -6.3537 H         1 SER         0.1884
    157 H50        12.4694    4.5136   -3.9210 H         1 SER         0.0823
    158 H51        13.4335    2.4041   -4.6920 H         1 SER         0.0606
    159 H52        14.6435    3.7266   -4.8087 H         1 SER         0.0606
    160 H53        13.0644    2.7082   -6.9546 H         1 SER         0.2097
    161 H54        11.1357    6.1160   -6.2561 H         1 GLU         0.1883
    162 H55        12.8292    7.5614   -7.8449 H         1 GLU         0.0801
    163 H56        10.5253    8.8723   -6.3549 H         1 GLU         0.0330
    164 H57        10.2699    7.6314   -7.6284 H         1 GLU         0.0330
    165 H58        11.7651   10.2520   -8.0117 H         1 GLU         0.0433
    166 H59        10.0377    9.9788   -8.4215 H         1 GLU         0.0433
    167 H60        12.2218    8.3615   -4.4076 H         1 PHE         0.1885
    168 H61        13.8557   10.8179   -4.6276 H         1 PHE         0.0823
    169 H62        12.9487   11.3536   -2.4003 H         1 PHE         0.0474
    170 H63        12.1643    9.7397   -2.3177 H         1 PHE         0.0474
    171 H64        10.3837    9.2426   -4.1593 H         1 PHE         0.0557
    172 H65        11.7040   13.1749   -3.1224 H         1 PHE         0.0557
    173 H66         8.3148   10.1933   -5.1054 H         1 PHE         0.0599
    174 H67         9.6257   14.1196   -4.0678 H         1 PHE         0.0599
    175 H68         7.9069   12.6194   -4.9920 H         1 PHE         0.0559
    176 H69        14.4200    7.5880   -3.8514 H         1 ASP         0.1884
    177 H70        15.9904    8.0058   -1.4803 H         1 ASP         0.0819
    178 H71        16.4695    5.6707   -1.4602 H         1 ASP         0.0478
    179 H72        15.9878    5.4927   -3.1815 H         1 ASP         0.0478
    180 H73        17.9479    8.2766   -1.0803 H         1 ILE         0.1883
    181 H74        19.9486    8.7743   -3.1463 H         1 ILE         0.0803
    182 H75        20.0360    8.8307   -0.0873 H         1 ILE         0.0345
    183 H76        18.4684   10.4427   -1.3049 H         1 ILE         0.0267
    184 H77        19.9430   11.2033   -1.9931 H         1 ILE         0.0267
    185 H78        22.2997    8.4460   -1.0732 H         1 ILE         0.0235
    186 H79        22.1717   10.0570   -0.2892 H         1 ILE         0.0235
    187 H80        22.1059    9.9215   -2.0792 H         1 ILE         0.0235
    188 H81        19.1130   12.4753   -0.0212 H         1 ILE         0.0230
    189 H82        20.7290   11.7654    0.3125 H         1 ILE         0.0230
    190 H83        19.2543   11.0048    1.0006 H         1 ILE         0.0230
    191 H84        19.3077    6.4745   -0.5120 H         1 GLU         0.1875
    192 H85        20.9300    4.3161   -1.7030 H         1 GLU         0.0723
    193 H86        21.9789    3.8075    0.4968 H         1 GLU         0.0270
    194 H87        21.2270    5.2789    1.2013 H         1 GLU         0.0270
    195 H88        22.4700    5.4340   -0.0862 H         1 GLU         0.0270
@<TRIPOS>BOND
     1    1    2 1  
     2    2    3 1  
     3    2    5 1  
     4    3    4 2  
     5    3   10 am 
     6    5    6 1  
     7    6    7 1  
     8    7    8 ar 
     9    7    9 ar 
    10   10   11 1  
    11   11   12 1  
    12   11   14 1  
    13   12   13 2  
    14   12   22 am 
    15   14   15 1  
    16   15   16 ar 
    17   15   17 ar 
    18   16   18 ar 
    19   17   19 ar 
    20   18   20 ar 
    21   19   20 ar 
    22   20   21 1  
    23   22   23 1  
    24   23   24 1  
    25   23   26 1  
    26   24   25 2  
    27   24   31 am 
    28   26   27 1  
    29   27   28 1  
    30   28   29 ar 
    31   28   30 ar 
    32   31   32 1  
    33   32   33 1  
    34   32   35 1  
    35   33   34 2  
    36   33   40 am 
    37   35   36 1  
    38   36   37 1  
    39   37   38 ar 
    40   37   39 ar 
    41   40   41 1  
    42   41   42 1  
    43   41   44 1  
    44   42   43 2  
    45   42   51 am 
    46   44   45 1  
    47   45   46 1  
    48   46   47 1  
    49   47   48 ar 
    50   48   49 ar 
    51   48   50 ar 
    52   51   52 1  
    53   52   53 1  
    54   52   55 1  
    55   53   54 2  
    56   53   60 am 
    57   55   56 1  
    58   56   57 1  
    59   57   58 ar 
    60   57   59 ar 
    61   60   61 1  
    62   61   62 1  
    63   61   64 1  
    64   62   63 2  
    65   62   66 am 
    66   64   65 1  
    67   66   67 1  
    68   67   68 1  
    69   67   70 1  
    70   68   69 2  
    71   68   75 am 
    72   70   71 1  
    73   71   72 1  
    74   72   73 ar 
    75   72   74 ar 
    76   75   76 1  
    77   76   77 1  
    78   76   79 1  
    79   77   78 2  
    80   77   86 am 
    81   79   80 1  
    82   80   81 ar 
    83   80   82 ar 
    84   81   83 ar 
    85   82   84 ar 
    86   83   85 ar 
    87   84   85 ar 
    88   86   87 1  
    89   87   88 1  
    90   87   90 1  
    91   88   89 2  
    92   88   94 am 
    93   90   91 1  
    94   91   92 ar 
    95   91   93 ar 
    96   94   95 1  
    97   95   96 1  
    98   95   98 1  
    99   96   97 2  
   100   96  102 am 
   101   98   99 1  
   102   98  100 1  
   103   99  101 1  
   104  102  103 1  
   105  103  104 1  
   106  103  106 1  
   107  104  105 ar 
   108  104  107 ar 
   109    1  108 1  
   110    1  109 1  
   111    1  110 1  
   112    2  111 1  
   113    5  112 1  
   114    5  113 1  
   115    6  114 1  
   116    6  115 1  
   117   10  116 1  
   118   11  117 1  
   119   14  118 1  
   120   14  119 1  
   121   16  120 1  
   122   17  121 1  
   123   18  122 1  
   124   19  123 1  
   125   21  124 1  
   126   22  125 1  
   127   23  126 1  
   128   26  127 1  
   129   26  128 1  
   130   27  129 1  
   131   27  130 1  
   132   31  131 1  
   133   32  132 1  
   134   35  133 1  
   135   35  134 1  
   136   36  135 1  
   137   36  136 1  
   138   40  137 1  
   139   41  138 1  
   140   44  139 1  
   141   44  140 1  
   142   45  141 1  
   143   45  142 1  
   144   46  143 1  
   145   46  144 1  
   146   47  145 1  
   147   49  146 1  
   148   49  147 1  
   149   50  148 1  
   150   50  149 1  
   151   51  150 1  
   152   52  151 1  
   153   55  152 1  
   154   55  153 1  
   155   56  154 1  
   156   56  155 1  
   157   60  156 1  
   158   61  157 1  
   159   64  158 1  
   160   64  159 1  
   161   65  160 1  
   162   66  161 1  
   163   67  162 1  
   164   70  163 1  
   165   70  164 1  
   166   71  165 1  
   167   71  166 1  
   168   75  167 1  
   169   76  168 1  
   170   79  169 1  
   171   79  170 1  
   172   81  171 1  
   173   82  172 1  
   174   83  173 1  
   175   84  174 1  
   176   85  175 1  
   177   86  176 1  
   178   87  177 1  
   179   90  178 1  
   180   90  179 1  
   181   94  180 1  
   182   95  181 1  
   183   98  182 1  
   184   99  183 1  
   185   99  184 1  
   186  100  185 1  
   187  100  186 1  
   188  100  187 1  
   189  101  188 1  
   190  101  189 1  
   191  101  190 1  
   192  102  191 1  
   193  103  192 1  
   194  106  193 1  
   195  106  194 1  
   196  106  195 1  
@<TRIPOS>SUBSTRUCTURE
     1 GLU         1

