6pyr_ligand
  -I-interpret- 

 56 61  0  0  0  0  0  0  0  0999 V2000
   34.2210   13.2690   32.1260 C   0  0  0  0  0
   33.4390   14.4250   31.8470 C   0  0  0  0  0
   33.8990   15.6400   32.2110 C   0  0  0  0  0
   35.8390   14.6040   33.1300 C   0  0  0  0  0
   37.0140   15.0260   33.7900 C   0  0  0  0  0
   36.9110   16.4240   33.9000 C   0  0  0  0  0
   37.9380   12.7960   34.5680 C   0  0  0  0  0
   38.9370   12.0240   35.1340 C   0  0  0  0  0
   39.3130   14.7680   34.8250 C   0  0  0  0  0
   41.6820   14.3100   35.9450 C   0  0  0  0  0
   42.2020   12.9670   36.4260 C   0  0  0  0  0
   43.1240   14.0730   33.8030 C   0  0  0  0  0
   44.7550   12.4920   32.9600 C   0  0  0  0  0
   44.0920   12.4430   31.7390 C   0  0  0  0  0
   41.5220   15.2660   37.1340 C   0  0  0  0  0
   32.9840    9.4410   30.8720 C   0  0  0  0  0
   34.7150   10.8910   31.3980 C   0  0  0  0  0
   32.4990    8.0850   30.4170 C   0  0  0  0  0
   35.1000   15.7240   32.8610 N   0  0  0  0  0
   35.3820   13.4030   32.7490 N   0  0  0  0  0
   35.7890   16.8350   33.3590 N   0  0  0  0  0
   38.1120   14.1830   34.3640 C   0  0  0  0  0
   40.1340   12.6110   35.5540 C   0  0  0  0  0
   40.3090   13.9830   35.3840 C   0  0  0  0  0
   43.2780   12.7540   36.9420 O   0  0  0  0  0
   41.2620   12.0480   36.1540 N   0  0  0  0  0
   42.6000   14.9790   34.8990 C   0  0  0  0  0
   44.2760   13.3120   33.9810 C   0  0  0  0  0
   42.9470   13.2110   31.5540 C   0  0  0  0  0
   42.4720   14.0250   32.5790 C   0  0  0  0  0
   33.7760   11.9040   31.6990 C   0  0  0  0  0
   32.4190   11.5780   31.5400 C   0  0  0  0  0
   32.0740   10.3550   31.1430 N   0  0  0  0  0
   34.2830    9.6960   30.9940 N   0  0  0  0  0
   32.4769   14.3296   31.3437 H   0  0  0  0  0
   33.3237   16.5393   31.9910 H   0  0  0  0  0
   37.6541   17.0709   34.3662 H   0  0  0  0  0
   36.9997   12.3255   34.2742 H   0  0  0  0  0
   38.7896   10.9506   35.2532 H   0  0  0  0  0
   39.4571   15.8451   34.7403 H   0  0  0  0  0
   45.6492   11.8894   33.1192 H   0  0  0  0  0
   44.4656   11.8092   30.9348 H   0  0  0  0  0
   40.8156   14.8415   37.8474 H   0  0  0  0  0
   42.4885   15.4070   37.6178 H   0  0  0  0  0
   41.1486   16.2264   36.7787 H   0  0  0  0  0
   35.7831   11.0852   31.4954 H   0  0  0  0  0
   31.8717    7.6458   31.1927 H   0  0  0  0  0
   31.9205    8.1964   29.4999 H   0  0  0  0  0
   33.3560    7.4376   30.2312 H   0  0  0  0  0
   41.3604   11.0542   36.3615 H   0  0  0  0  0
   43.4730   15.3400   35.4427 H   0  0  0  0  0
   41.9981   15.7419   34.4053 H   0  0  0  0  0
   44.8101   13.3577   34.9301 H   0  0  0  0  0
   42.4187   13.1754   30.6013 H   0  0  0  0  0
   41.5797   14.6301   32.4184 H   0  0  0  0  0
   31.6505   12.3244   31.7411 H   0  0  0  0  0
  1  2  4  0  0  0
  1 20  4  0  0  0
 31  1  1  0  0  0
  2  3  4  0  0  0
  3 19  4  0  0  0
  4  5  4  0  0  0
  4 19  4  0  0  0
 20  4  4  0  0  0
  5  6  4  0  0  0
  5 22  1  0  0  0
  6 21  4  0  0  0
  7  8  4  0  0  0
 22  7  4  0  0  0
  8 23  4  0  0  0
 22  9  4  0  0  0
  9 24  4  0  0  0
 10 11  1  0  0  0
 10 15  1  0  0  0
 24 10  1  0  0  0
 10 27  1  0  0  0
 11 25  2  0  0  0
 11 26  1  0  0  0
 27 12  1  0  0  0
 12 28  4  0  0  0
 12 30  4  0  0  0
 13 14  4  0  0  0
 28 13  4  0  0  0
 14 29  4  0  0  0
 16 18  1  0  0  0
 16 33  4  0  0  0
 34 16  4  0  0  0
 17 31  4  0  0  0
 17 34  4  0  0  0
 19 21  4  0  0  0
 23 24  4  0  0  0
 23 26  1  0  0  0
 29 30  4  0  0  0
 31 32  4  0  0  0
 32 33  4  0  0  0
  2 35  1  0  0  0
  3 36  1  0  0  0
  6 37  1  0  0  0
  7 38  1  0  0  0
  8 39  1  0  0  0
  9 40  1  0  0  0
 13 41  1  0  0  0
 14 42  1  0  0  0
 15 43  1  0  0  0
 15 44  1  0  0  0
 15 45  1  0  0  0
 17 46  1  0  0  0
 18 47  1  0  0  0
 18 48  1  0  0  0
 18 49  1  0  0  0
 26 50  1  0  0  0
 27 51  1  0  0  0
 27 52  1  0  0  0
 28 53  1  0  0  0
 29 54  1  0  0  0
 30 55  1  0  0  0
 32 56  1  0  0  0
M  END
$$$$
