3svj_ligand
  -I-interpret- 

 72 76  0  0  0  0  0  0  0  0999 V2000
   20.0290   -8.6810    0.1580 C   0  0  0  0  0
   19.2690   -7.6980   -0.4310 C   0  0  0  0  0
   21.3210  -12.6650    8.8860 C   0  0  0  0  0
   22.6600  -12.8690    8.6580 C   0  0  0  0  0
   20.8740  -11.4310    9.2950 C   0  0  0  0  0
   20.4940   -8.5240    1.4440 C   0  0  0  0  0
   18.9760   -6.5540    0.2720 C   0  0  0  0  0
   23.5280  -11.8210    8.8510 C   0  0  0  0  0
   21.7550  -10.3910    9.4830 C   0  0  0  0  0
   20.2060   -7.3830    2.1540 C   0  0  0  0  0
   23.0990  -10.5790    9.2600 C   0  0  0  0  0
   19.4450   -6.4050    1.5550 C   0  0  0  0  0
   23.3600   -7.5640    6.5550 C   0  0  0  0  0
   25.0340   -6.5900    7.7530 C   0  0  0  0  0
   24.0680   -8.5070    8.4870 C   0  0  0  0  0
   24.9470  -12.0580    8.5980 C   0  0  0  0  0
   26.0060   -4.5660    5.7340 C   0  0  0  0  0
   20.8040   -8.4960    4.1170 C   0  0  0  0  0
   21.8960   -6.4250    3.4160 C   0  0  0  0  0
   21.2920   -8.2640    5.5330 C   0  0  0  0  0
   22.4590   -6.2390    4.8060 C   0  0  0  0  0
   26.3060   -3.2010    7.7740 C   0  0  0  0  0
   26.2000   -5.3140    9.3230 C   0  0  0  0  0
   25.5850   -4.3850    7.1670 C   0  0  0  0  0
   21.2500   -9.0650    9.9290 C   0  0  0  0  0
   26.9900  -12.9670    9.5400 C   0  0  0  0  0
   27.3660   -5.8800    4.2280 C   0  0  0  0  0
   24.2420   -6.5700    6.6820 N   0  0  0  0  0
   23.2430   -8.5610    7.4370 N   0  0  0  0  0
   24.9740   -7.5460    8.6820 N   0  0  0  0  0
   20.6730   -7.2050    3.4680 N   0  0  0  0  0
   22.5410   -7.5470    5.4150 N   0  0  0  0  0
   25.9840   -5.5650    7.9160 N   0  0  0  0  0
   23.9900   -9.5200    9.4510 N   0  0  0  0  0
   25.6090  -12.5910    9.6650 N   0  0  0  0  0
   26.9060   -5.5850    5.5590 N   0  0  0  0  0
   25.4250  -11.7920    7.5050 O   0  0  0  0  0
   25.5720   -3.8780    4.8220 O   0  0  0  0  0
   26.3700   -3.5310    9.5500 S   0  0  0  0  0
   19.0750   -4.9710    2.4310 Cl  0  0  0  0  0
   20.2645   -9.5894   -0.3964 H   0  0  0  0  0
   18.9012   -7.8253   -1.4491 H   0  0  0  0  0
   20.6130  -13.4813    8.7427 H   0  0  0  0  0
   23.0267  -13.8419    8.3308 H   0  0  0  0  0
   19.8099  -11.2747    9.4723 H   0  0  0  0  0
   21.0946   -9.3097    1.9023 H   0  0  0  0  0
   18.3745   -5.7687   -0.1859 H   0  0  0  0  0
   19.8423   -9.0090    4.1304 H   0  0  0  0  0
   21.5131   -9.1198    3.5728 H   0  0  0  0  0
   22.6279   -6.9512    2.8031 H   0  0  0  0  0
   21.6765   -5.4472    2.9872 H   0  0  0  0  0
   21.4282   -9.2074    6.0618 H   0  0  0  0  0
   20.5646   -7.6946    6.1116 H   0  0  0  0  0
   21.8179   -5.5823    5.3941 H   0  0  0  0  0
   23.4443   -5.7750    4.7612 H   0  0  0  0  0
   25.7878   -2.2661    7.5604 H   0  0  0  0  0
   27.3049   -3.0841    7.3538 H   0  0  0  0  0
   27.1006   -5.8251    9.6634 H   0  0  0  0  0
   25.3597   -5.6901    9.9066 H   0  0  0  0  0
   24.5070   -4.2284    7.2047 H   0  0  0  0  0
   20.5400   -8.6827    9.1957 H   0  0  0  0  0
   20.7552   -9.1720   10.8943 H   0  0  0  0  0
   22.0861   -8.3720   10.0227 H   0  0  0  0  0
   27.0901  -13.7243    8.7625 H   0  0  0  0  0
   27.5811  -12.0908    9.2738 H   0  0  0  0  0
   27.3428  -13.3702   10.4892 H   0  0  0  0  0
   26.5154   -6.1514    3.6028 H   0  0  0  0  0
   27.8585   -5.0011    3.8120 H   0  0  0  0  0
   28.0714   -6.7102    4.2644 H   0  0  0  0  0
   24.5777   -9.4849   10.2840 H   0  0  0  0  0
   25.1232  -12.7227   10.5522 H   0  0  0  0  0
   27.2431   -6.1237    6.3569 H   0  0  0  0  0
  1  2  4  0  0  0
  6  1  4  0  0  0
  7  2  4  0  0  0
  4  3  4  0  0  0
  5  3  4  0  0  0
  8  4  4  0  0  0
  9  5  4  0  0  0
 10  6  4  0  0  0
 12  7  4  0  0  0
 11  8  4  0  0  0
  8 16  1  0  0  0
 11  9  4  0  0  0
  9 25  1  0  0  0
 10 12  4  0  0  0
 31 10  1  0  0  0
 34 11  1  0  0  0
 12 40  1  0  0  0
 28 13  4  0  0  0
 13 29  4  0  0  0
 13 32  1  0  0  0
 14 28  4  0  0  0
 14 30  4  0  0  0
 33 14  1  0  0  0
 15 29  4  0  0  0
 30 15  4  0  0  0
 15 34  1  0  0  0
 16 35  1  0  0  0
 16 37  2  0  0  0
 24 17  1  0  0  0
 17 36  1  0  0  0
 17 38  2  0  0  0
 20 18  1  0  0  0
 18 31  1  0  0  0
 21 19  1  0  0  0
 19 31  1  0  0  0
 32 20  1  0  0  0
 32 21  1  0  0  0
 22 24  1  0  0  0
 39 22  1  0  0  0
 23 33  1  0  0  0
 23 39  1  0  0  0
 24 33  1  0  0  0
 35 26  1  0  0  0
 36 27  1  0  0  0
  1 41  1  0  0  0
  2 42  1  0  0  0
  3 43  1  0  0  0
  4 44  1  0  0  0
  5 45  1  0  0  0
  6 46  1  0  0  0
  7 47  1  0  0  0
 18 48  1  0  0  0
 18 49  1  0  0  0
 19 50  1  0  0  0
 19 51  1  0  0  0
 20 52  1  0  0  0
 20 53  1  0  0  0
 21 54  1  0  0  0
 21 55  1  0  0  0
 22 56  1  0  0  0
 22 57  1  0  0  0
 23 58  1  0  0  0
 23 59  1  0  0  0
 24 60  1  0  0  0
 25 61  1  0  0  0
 25 62  1  0  0  0
 25 63  1  0  0  0
 26 64  1  0  0  0
 26 65  1  0  0  0
 26 66  1  0  0  0
 27 67  1  0  0  0
 27 68  1  0  0  0
 27 69  1  0  0  0
 34 70  1  0  0  0
 35 71  1  0  0  0
 36 72  1  0  0  0
M  END
$$$$
