3nww_ligand
  -I-interpret- 

 69 71  0  0  0  0  0  0  0  0999 V2000
   -3.5610    0.9220   20.4690 C   0  0  0  0  0
   -2.9290    1.0440   21.7220 C   0  0  0  0  0
   -2.3930    2.2650   22.1030 N   0  0  0  0  0
   -2.4350    3.3690   21.3390 C   0  0  0  0  0
   -3.0350    3.2950   20.1230 N   0  0  0  0  0
   -3.6000    2.0940   19.6720 C   0  0  0  0  0
   -2.8040   -0.0900   22.6800 C   0  0  0  0  0
   -2.9980   -1.4720   22.4390 C   0  0  0  0  0
   -2.7800   -2.1540   23.5930 N   0  0  0  0  0
   -2.4390   -1.4080   24.6770 C   0  0  0  0  0
   -2.3740    0.2510   24.2800 S   0  0  0  0  0
   -2.1680   -1.9840   26.0040 N   0  0  0  0  0
   -1.7040   -1.1800   27.1570 C   0  0  0  0  0
   -0.2040   -0.9250   27.0220 C   0  0  0  0  0
   -1.8580   -1.9620   28.4510 C   0  0  0  0  0
   -1.8650    4.5080   21.8410 N   0  0  0  0  0
   -5.5950    1.6950   15.7160 C   0  0  0  0  0
   -4.2660    1.9650   18.3460 C   0  0  0  0  0
   -3.5930    2.3120   17.0990 C   0  0  0  0  0
   -4.2380    2.1850   15.7950 C   0  0  0  0  0
   -6.2670    1.3480   16.9470 C   0  0  0  0  0
   -5.6540    1.4650   18.2370 C   0  0  0  0  0
   -2.1790    2.8320   17.0650 C   0  0  0  0  0
    1.9670    5.9860   22.1270 C   0  0  0  0  0
    0.5030    6.1880   22.0070 N   0  3  0  0  0
   -0.1610    5.6690   23.2220 C   0  0  0  0  0
   -0.8590    4.3590   22.9080 C   0  0  0  0  0
    0.1930    7.6240   21.9340 C   0  0  0  0  0
   -1.9550    3.6490   15.8730 N   0  0  0  0  0
   -0.7820    3.5740   15.1960 C   0  0  0  0  0
   -0.6810    4.4670   14.1920 N   0  0  0  0  0
    0.0990    2.7670   15.4760 O   0  0  0  0  0
    0.5320    4.4640   13.3650 C   0  0  0  0  0
    0.1160    4.3180   11.8940 C   0  0  0  0  0
   -3.9951   -0.0192   20.1316 H   0  0  0  0  0
   -3.2768   -1.9158   21.4833 H   0  0  0  0  0
   -2.3067   -2.9859   26.1356 H   0  0  0  0  0
   -2.2894   -0.2607   27.1734 H   0  0  0  0  0
    0.3250   -1.8778   27.0037 H   0  0  0  0  0
   -0.0108   -0.3828   26.0963 H   0  0  0  0  0
    0.1404   -0.3330   27.8700 H   0  0  0  0  0
   -2.9076   -2.2171   28.5971 H   0  0  0  0  0
   -1.2653   -2.8750   28.3950 H   0  0  0  0  0
   -1.5112   -1.3528   29.2857 H   0  0  0  0  0
   -2.1275    5.4285   21.4886 H   0  0  0  0  0
   -6.0977    1.5901   14.7545 H   0  0  0  0  0
   -3.6994    2.4580   14.8875 H   0  0  0  0  0
   -7.2911    0.9789   16.8918 H   0  0  0  0  0
   -6.2078    1.1869   19.1337 H   0  0  0  0  0
   -1.4933    1.9850   17.0446 H   0  0  0  0  0
   -2.0089    3.4462   17.9493 H   0  0  0  0  0
    2.3357    6.5204   23.0025 H   0  0  0  0  0
    2.1781    4.9220   22.2337 H   0  0  0  0  0
    2.4596    6.3676   21.2327 H   0  0  0  0  0
    0.1806    5.7067   21.1675 H   0  0  0  0  0
   -0.8968    6.3949   23.5680 H   0  0  0  0  0
    0.5868    5.5016   23.9972 H   0  0  0  0  0
   -0.1073    3.6461   22.5691 H   0  0  0  0  0
   -1.3683    4.0205   23.8103 H   0  0  0  0  0
    0.5491    8.1177   22.8382 H   0  0  0  0  0
    0.6862    8.0571   21.0638 H   0  0  0  0  0
   -0.8852    7.7576   21.8461 H   0  0  0  0  0
   -2.6870    4.2806   15.5479 H   0  0  0  0  0
   -1.4326    5.1321   14.0101 H   0  0  0  0  0
    1.1780    3.6349   13.6538 H   0  0  0  0  0
    1.0819    5.3945   13.5063 H   0  0  0  0  0
   -0.4277    3.3825   11.7626 H   0  0  0  0  0
   -0.5245    5.1544   11.6142 H   0  0  0  0  0
    1.0060    4.3139   11.2647 H   0  0  0  0  0
  2  1  4  0  0  0
  6  1  4  0  0  0
  3  2  4  0  0  0
  2  7  1  0  0  0
  4  3  4  0  0  0
  4  5  4  0  0  0
 16  4  1  0  0  0
  5  6  4  0  0  0
  6 18  1  0  0  0
  7  8  4  0  0  0
  7 11  4  0  0  0
  8  9  4  0  0  0
 10  9  4  0  0  0
 11 10  4  0  0  0
 10 12  1  0  0  0
 12 13  1  0  0  0
 13 14  1  0  0  0
 13 15  1  0  0  0
 27 16  1  0  0  0
 20 17  4  0  0  0
 21 17  4  0  0  0
 18 19  4  0  0  0
 18 22  4  0  0  0
 19 20  4  0  0  0
 19 23  1  0  0  0
 22 21  4  0  0  0
 23 29  1  0  0  0
 25 24  1  0  0  0
 26 25  1  0  0  0
 25 28  1  0  0  0
 26 27  1  0  0  0
 29 30  1  0  0  0
 30 31  1  0  0  0
 30 32  2  0  0  0
 31 33  1  0  0  0
 33 34  1  0  0  0
  1 35  1  0  0  0
  8 36  1  0  0  0
 12 37  1  0  0  0
 13 38  1  0  0  0
 14 39  1  0  0  0
 14 40  1  0  0  0
 14 41  1  0  0  0
 15 42  1  0  0  0
 15 43  1  0  0  0
 15 44  1  0  0  0
 16 45  1  0  0  0
 17 46  1  0  0  0
 20 47  1  0  0  0
 21 48  1  0  0  0
 22 49  1  0  0  0
 23 50  1  0  0  0
 23 51  1  0  0  0
 24 52  1  0  0  0
 24 53  1  0  0  0
 24 54  1  0  0  0
 25 55  1  0  0  0
 26 56  1  0  0  0
 26 57  1  0  0  0
 27 58  1  0  0  0
 27 59  1  0  0  0
 28 60  1  0  0  0
 28 61  1  0  0  0
 28 62  1  0  0  0
 29 63  1  0  0  0
 31 64  1  0  0  0
 33 65  1  0  0  0
 33 66  1  0  0  0
 34 67  1  0  0  0
 34 68  1  0  0  0
 34 69  1  0  0  0
M  END
$$$$
