3hv5_ligand
  -I-interpret- 

 69 73  0  0  0  0  0  0  0  0999 V2000
   11.8370    3.7140    2.1510 C   0  0  0  0  0
   11.7470    4.2910    3.4190 C   0  0  0  0  0
   11.8230    3.4910    4.5500 C   0  0  0  0  0
   12.0450    2.3280    2.0140 C   0  0  0  0  0
   12.1270    1.5230    3.1500 C   0  0  0  0  0
   12.0060    2.1140    4.4190 C   0  0  0  0  0
   12.2810    0.1230    3.0480 C   0  0  0  0  0
   12.3850   -0.5940    4.2410 C   0  0  0  0  0
   12.2760    0.0660    5.4690 C   0  0  0  0  0
   12.2260   -1.8000    1.5690 C   0  0  0  0  0
   13.2190   -2.4970    0.8330 C   0  0  0  0  0
   13.0390   -3.8530    0.5450 C   0  0  0  0  0
   11.8880   -4.5210    1.0080 C   0  0  0  0  0
   11.7400    4.5620    1.0920 N   0  0  0  0  0
   11.5060    5.8800    1.3500 O   0  0  0  0  0
   11.8470    4.1800   -0.2120 O   0  0  0  0  0
   12.0880    1.3800    5.5290 N   0  0  0  0  0
   12.3830   -0.4740    1.8230 N   0  0  0  0  0
   11.0890   -2.4850    2.0200 C   0  0  0  0  0
   10.9260   -3.8480    1.7580 C   0  0  0  0  0
   13.8790   -4.6330   -0.1550 N   0  0  0  0  0
   15.1410   -4.9080    0.0910 C   0  0  0  0  0
   15.7510   -4.4190    1.0370 O   0  0  0  0  0
   15.6800   -5.7480   -0.7960 N   0  0  0  0  0
   16.9110   -6.3110   -0.7910 C   0  0  0  0  0
   17.7020   -6.5180    0.2840 C   0  0  0  0  0
   18.7590   -7.2240   -0.1750 C   0  0  0  0  0
   20.0070   -7.6850    0.6290 C   0  0  0  0  0
   19.5130   -8.8420    1.4710 C   0  0  0  0  0
   20.5810   -6.5510    1.4890 C   0  0  0  0  0
   21.1690   -8.2160   -0.2190 C   0  0  0  0  0
   18.5780   -7.4530   -1.4640 N   0  0  0  0  0
   17.4850   -6.9690   -1.8120 N   0  0  0  0  0
   17.0400   -7.0990   -3.0650 C   0  0  0  0  0
   16.5300   -6.0280   -3.8010 C   0  0  0  0  0
   16.1000   -6.2260   -5.1210 C   0  0  0  0  0
   16.1760   -7.4790   -5.7040 C   0  0  0  0  0
   15.7030   -7.6640   -7.1520 C   0  0  0  0  0
   16.6930   -8.5590   -4.9900 C   0  0  0  0  0
   17.1210   -8.3840   -3.6540 C   0  0  0  0  0
   11.6172    5.3685    3.5204 H   0  0  0  0  0
   11.7398    3.9381    5.5406 H   0  0  0  0  0
   12.1417    1.8854    1.0226 H   0  0  0  0  0
   12.5516   -1.6709    4.2154 H   0  0  0  0  0
   12.3465   -0.5075    6.3932 H   0  0  0  0  0
   14.1161   -1.9786    0.4945 H   0  0  0  0  0
   11.7486   -5.5770    0.7766 H   0  0  0  0  0
   12.5959    0.1292    1.0285 H   0  0  0  0  0
   10.3238   -1.9486    2.5811 H   0  0  0  0  0
   10.0535   -4.3801    2.1373 H   0  0  0  0  0
   13.4855   -5.0702   -0.9883 H   0  0  0  0  0
   15.0833   -5.9995   -1.5841 H   0  0  0  0  0
   17.5250   -6.1855    1.3069 H   0  0  0  0  0
   18.7126   -8.4974    2.1258 H   0  0  0  0  0
   19.1366   -9.6298    0.8185 H   0  0  0  0  0
   20.3354   -9.2289    2.0728 H   0  0  0  0  0
   20.8746   -5.7217    0.8455 H   0  0  0  0  0
   19.8230   -6.2134    2.1958 H   0  0  0  0  0
   21.4516   -6.9153    2.0343 H   0  0  0  0  0
   20.8328   -9.0788   -0.7940 H   0  0  0  0  0
   21.5078   -7.4343   -0.8989 H   0  0  0  0  0
   21.9894   -8.5110    0.4352 H   0  0  0  0  0
   16.4660   -5.0379   -3.3497 H   0  0  0  0  0
   15.7029   -5.3868   -5.6922 H   0  0  0  0  0
   14.6495   -7.3942   -7.2260 H   0  0  0  0  0
   16.2905   -7.0232   -7.8095 H   0  0  0  0  0
   15.8341   -8.7055   -7.4454 H   0  0  0  0  0
   16.7673   -9.5387   -5.4620 H   0  0  0  0  0
   17.5088   -9.2284   -3.0841 H   0  0  0  0  0
  1  2  4  0  0  0
  4  1  4  0  0  0
  1 14  1  0  0  0
  3  2  4  0  0  0
  6  3  4  0  0  0
  5  4  4  0  0  0
  5  6  4  0  0  0
  7  5  4  0  0  0
  6 17  4  0  0  0
  7  8  4  0  0  0
 18  7  1  0  0  0
  8  9  4  0  0  0
  9 17  4  0  0  0
 10 11  4  0  0  0
 10 18  1  0  0  0
 10 19  4  0  0  0
 11 12  4  0  0  0
 12 13  4  0  0  0
 12 21  1  0  0  0
 13 20  4  0  0  0
 14 15  2  0  0  0
 14 16  2  0  0  0
 19 20  4  0  0  0
 21 22  1  0  0  0
 22 23  2  0  0  0
 22 24  1  0  0  0
 24 25  1  0  0  0
 25 26  4  0  0  0
 25 33  4  0  0  0
 26 27  4  0  0  0
 27 28  1  0  0  0
 27 32  4  0  0  0
 28 29  1  0  0  0
 28 30  1  0  0  0
 28 31  1  0  0  0
 32 33  4  0  0  0
 33 34  1  0  0  0
 34 35  4  0  0  0
 34 40  4  0  0  0
 35 36  4  0  0  0
 36 37  4  0  0  0
 37 38  1  0  0  0
 37 39  4  0  0  0
 39 40  4  0  0  0
  2 41  1  0  0  0
  3 42  1  0  0  0
  4 43  1  0  0  0
  8 44  1  0  0  0
  9 45  1  0  0  0
 11 46  1  0  0  0
 13 47  1  0  0  0
 18 48  1  0  0  0
 19 49  1  0  0  0
 20 50  1  0  0  0
 21 51  1  0  0  0
 24 52  1  0  0  0
 26 53  1  0  0  0
 29 54  1  0  0  0
 29 55  1  0  0  0
 29 56  1  0  0  0
 30 57  1  0  0  0
 30 58  1  0  0  0
 30 59  1  0  0  0
 31 60  1  0  0  0
 31 61  1  0  0  0
 31 62  1  0  0  0
 35 63  1  0  0  0
 36 64  1  0  0  0
 38 65  1  0  0  0
 38 66  1  0  0  0
 38 67  1  0  0  0
 39 68  1  0  0  0
 40 69  1  0  0  0
M  END
$$$$
