1vwn_ligand
  -I-interpret- 

 95 98  0  0  0  0  0  0  0  0999 V2000
    7.9710   -0.5070  -19.9300 C   0  0  0  0  0
    7.4420   -0.4090  -18.8350 O   0  0  0  0  0
    9.2120   -0.8750  -20.0760 N   0  0  0  0  0
    9.9750   -1.1680  -18.8420 C   0  0  0  0  0
   10.1370    0.2380  -18.2380 C   0  0  0  0  0
   10.0500    1.2110  -18.9660 O   0  0  0  0  0
   11.3270   -1.8060  -19.2040 C   0  0  0  0  0
   12.3510   -2.1550  -17.7640 S   0  0  0  0  0
    7.1618   -0.1918  -21.1543 C   0  0  0  0  0
   10.3690    0.3400  -16.9620 N   0  0  0  0  0
   10.5210    1.6960  -16.3310 C   0  0  0  0  0
   11.8950    1.7910  -15.6770 C   0  0  0  0  0
   12.3680    0.8010  -15.1530 O   0  0  0  0  0
    9.3540    1.8420  -15.3000 C   0  0  0  0  0
    9.4010    3.0530  -14.3570 C   0  0  0  0  0
   10.2340    3.1080  -13.3440 N   0  0  0  0  0
    8.6150    4.1910  -14.3950 C   0  0  0  0  0
    9.9580    4.2550  -12.7760 C   0  0  0  0  0
    9.0150    4.8920  -13.3820 N   0  0  0  0  0
   12.5000    2.9630  -15.7030 N   0  0  0  0  0
   13.8300    3.1840  -15.1160 C   0  0  0  0  0
   14.0420    2.6110  -13.7270 C   0  0  0  0  0
   15.1520    2.2420  -13.3880 O   0  0  0  0  0
   14.0140    4.6970  -15.1860 C   0  0  0  0  0
   12.6060    5.2790  -15.4320 C   0  0  0  0  0
   11.9570    4.2270  -16.3000 C   0  0  0  0  0
   13.0070    2.5560  -12.9340 N   0  0  0  0  0
   13.1760    2.0000  -11.5650 C   0  0  0  0  0
   13.7740    0.6110  -11.6740 C   0  0  0  0  0
   14.4860    0.1510  -10.7960 O   0  0  0  0  0
   11.8090    1.9250  -10.8430 C   0  0  0  0  0
   12.0330    1.3320   -9.4220 C   0  0  0  0  0
   10.8900    1.6520   -8.4700 C   0  0  0  0  0
   10.3140    2.7010   -8.6170 O   0  0  0  0  0
   10.5010    0.8640   -7.4990 N   0  0  0  0  0
   13.4420    0.0160  -12.7740 N   0  0  0  0  0
   13.9030   -1.3570  -13.0840 C   0  0  0  0  0
   14.9990   -1.4240  -14.1850 C   0  0  0  0  0
   15.9970   -2.1000  -13.9900 O   0  0  0  0  0
   12.6040   -2.1590  -13.4580 C   0  0  0  0  0
   11.5390   -1.8830  -12.3470 C   0  0  0  0  0
   11.6550   -2.4140  -11.0640 C   0  0  0  0  0
   10.4540   -1.0620  -12.6120 C   0  0  0  0  0
   10.7060   -2.1310  -10.0840 C   0  0  0  0  0
    9.5100   -0.7790  -11.6360 C   0  0  0  0  0
    9.6280   -1.3030  -10.3700 C   0  0  0  0  0
   14.8500   -0.7510  -15.2910 N   0  0  0  0  0
   15.9110   -0.8310  -16.3590 C   0  0  0  0  0
   16.7200    0.4470  -16.6850 C   0  0  0  0  0
   16.2250    1.5540  -16.7610 O   0  0  0  0  0
   15.2210   -1.3320  -17.6340 C   0  0  0  0  0
   13.6080   -0.5890  -17.9830 S   0  0  0  0  0
   17.9593    0.3336  -16.8824 O   0  0  0  0  0
    9.6386   -0.9575  -20.9988 H   0  0  0  0  0
    9.5012   -1.8723  -18.1582 H   0  0  0  0  0
   11.8690   -1.0996  -19.8327 H   0  0  0  0  0
   11.1233   -2.7533  -19.7033 H   0  0  0  0  0
    6.3021   -0.8602  -21.2020 H   0  0  0  0  0
    6.8181    0.8414  -21.1050 H   0  0  0  0  0
    7.7797   -0.3286  -22.0418 H   0  0  0  0  0
   10.4478   -0.5004  -16.3894 H   0  0  0  0  0
   10.4624    2.5068  -17.0571 H   0  0  0  0  0
    9.4138    0.9633  -14.6578 H   0  0  0  0  0
    8.4475    1.9628  -15.8931 H   0  0  0  0  0
    7.8355    4.4410  -15.1147 H   0  0  0  0  0
   10.4689    4.6298  -11.8891 H   0  0  0  0  0
   14.5910    2.6361  -15.6716 H   0  0  0  0  0
   14.7040    4.9768  -15.9820 H   0  0  0  0  0
   14.4499    5.0871  -14.2662 H   0  0  0  0  0
   12.6292    6.2622  -15.9021 H   0  0  0  0  0
   12.0568    5.4661  -14.5093 H   0  0  0  0  0
   12.1829    4.3387  -17.3605 H   0  0  0  0  0
   10.8680    4.2748  -16.2999 H   0  0  0  0  0
   12.0957    2.8894  -13.2484 H   0  0  0  0  0
   13.8365    2.6476  -10.9884 H   0  0  0  0  0
   11.1246    1.2912  -11.4070 H   0  0  0  0  0
   11.3738    2.9214  -10.7660 H   0  0  0  0  0
   12.9433    1.7713   -9.0140 H   0  0  0  0  0
   12.0984    0.2481   -9.5165 H   0  0  0  0  0
    9.7304    1.1443   -6.8924 H   0  0  0  0  0
   10.9686   -0.0300   -7.3493 H   0  0  0  0  0
   12.8482    0.5045  -13.4442 H   0  0  0  0  0
   14.4089   -1.7937  -12.2229 H   0  0  0  0  0
   12.8209   -3.2254  -13.5191 H   0  0  0  0  0
   12.2287   -1.8411  -14.4307 H   0  0  0  0  0
   12.4997   -3.0596  -10.8238 H   0  0  0  0  0
   10.3405   -0.6305  -13.6065 H   0  0  0  0  0
   10.8100   -2.5614   -9.0880 H   0  0  0  0  0
    8.6647   -0.1337  -11.8752 H   0  0  0  0  0
    8.8879   -1.0724   -9.6037 H   0  0  0  0  0
   14.0210   -0.1740  -15.4331 H   0  0  0  0  0
   16.6729   -1.4983  -15.9561 H   0  0  0  0  0
   15.0499   -2.3998  -17.4974 H   0  0  0  0  0
   15.8732   -1.0677  -18.4664 H   0  0  0  0  0
   18.2136   -0.5877  -16.7919 H   0  0  0  0  0
  1  2  2  0  0  0
  5  4  1  0  0  0
  4  7  1  0  0  0
  4  3  1  0  0  0
  1  9  1  0  0  0
  7  8  1  0  0  0
  5  6  2  0  0  0
 12 11  1  0  0  0
 11 14  1  0  0  0
 11 10  1  0  0  0
 14 15  1  0  0  0
 15 17  4  0  0  0
 15 16  4  0  0  0
 16 18  4  0  0  0
 18 19  4  0  0  0
 17 19  4  0  0  0
 12 13  2  0  0  0
 21 20  1  0  0  0
 21 24  1  0  0  0
 22 21  1  0  0  0
 22 23  2  0  0  0
 24 25  1  0  0  0
 25 26  1  0  0  0
 20 26  1  0  0  0
 29 28  1  0  0  0
 28 31  1  0  0  0
 28 27  1  0  0  0
 31 32  1  0  0  0
 32 33  1  0  0  0
 33 34  2  0  0  0
 33 35  1  0  0  0
 29 30  2  0  0  0
 38 37  1  0  0  0
 37 40  1  0  0  0
 37 36  1  0  0  0
 40 41  1  0  0  0
 41 43  4  0  0  0
 41 42  4  0  0  0
 42 44  4  0  0  0
 44 46  4  0  0  0
 45 46  4  0  0  0
 43 45  4  0  0  0
 38 39  2  0  0  0
 48 49  1  0  0  0
 48 51  1  0  0  0
 47 48  1  0  0  0
 51 52  1  0  0  0
 49 50  2  0  0  0
  3  1  1  0  0  0
 10  5  1  0  0  0
 20 12  1  0  0  0
 27 22  1  0  0  0
 36 29  1  0  0  0
 38 47  1  0  0  0
  8 52  1  0  0  0
 49 53  1  0  0  0
  3 54  1  0  0  0
  4 55  1  0  0  0
  7 56  1  0  0  0
  7 57  1  0  0  0
  9 58  1  0  0  0
  9 59  1  0  0  0
  9 60  1  0  0  0
 10 61  1  0  0  0
 11 62  1  0  0  0
 14 63  1  0  0  0
 14 64  1  0  0  0
 17 65  1  0  0  0
 18 66  1  0  0  0
 21 67  1  0  0  0
 24 68  1  0  0  0
 24 69  1  0  0  0
 25 70  1  0  0  0
 25 71  1  0  0  0
 26 72  1  0  0  0
 26 73  1  0  0  0
 27 74  1  0  0  0
 28 75  1  0  0  0
 31 76  1  0  0  0
 31 77  1  0  0  0
 32 78  1  0  0  0
 32 79  1  0  0  0
 35 80  1  0  0  0
 35 81  1  0  0  0
 36 82  1  0  0  0
 37 83  1  0  0  0
 40 84  1  0  0  0
 40 85  1  0  0  0
 42 86  1  0  0  0
 43 87  1  0  0  0
 44 88  1  0  0  0
 45 89  1  0  0  0
 46 90  1  0  0  0
 47 91  1  0  0  0
 48 92  1  0  0  0
 51 93  1  0  0  0
 51 94  1  0  0  0
 53 95  1  0  0  0
M  END
$$$$
