3wyx_ligand
  -I-interpret- 

 57 60  0  0  0  0  0  0  0  0999 V2000
  -33.2000  -20.9840   -4.6820 N   0  0  0  0  0
  -33.4090  -19.8480   -4.8090 C   0  0  0  0  0
  -33.6550  -18.4040   -4.9590 C   0  0  0  0  0
  -32.7390  -17.8580   -5.9140 O   0  0  0  0  0
  -33.2110  -17.6040   -7.1770 C   0  0  0  0  0
  -33.2570  -16.3250   -7.7150 C   0  0  0  0  0
  -32.7920  -15.2170   -6.9930 C   0  0  0  0  0
  -32.7790  -13.8970   -7.4400 C   0  0  0  0  0
  -32.2420  -15.2200   -5.7040 C   0  0  0  0  0
  -31.9040  -13.9570   -5.3610 N   0  0  0  0  0
  -32.2510  -13.1570   -6.4580 N   0  0  0  0  0
  -31.9840  -11.6990   -6.3130 C   0  0  0  0  0
  -33.6780  -18.6930   -7.9070 C   0  0  0  0  0
  -34.1950  -18.5620   -9.1730 C   0  0  0  0  0
  -34.2410  -17.2850   -9.7230 C   0  0  0  0  0
  -33.7740  -16.1870   -9.0090 C   0  0  0  0  0
  -34.6680  -19.7000   -9.7530 N   0  0  0  0  0
  -35.5060  -19.7590  -10.8330 C   0  0  0  0  0
  -35.8960  -18.6500  -11.4990 N   0  0  0  0  0
  -36.7100  -18.7140  -12.5600 C   0  0  0  0  0
  -37.1940  -19.9530  -13.0140 C   0  0  0  0  0
  -37.9920  -20.0350  -14.0220 C   0  0  0  0  0
  -38.7780  -20.0720  -14.8810 N   0  0  0  0  0
  -36.8150  -21.1140  -12.3590 C   0  0  0  0  0
  -35.9720  -21.0110  -11.2570 C   0  0  0  0  0
  -37.0660  -17.5570  -13.1660 N   0  0  0  0  0
  -36.7160  -16.2280  -12.6800 C   0  0  0  0  0
  -37.9950  -15.3910  -12.5850 C   0  0  0  0  0
  -37.7460  -13.8920  -12.4550 C   0  0  0  0  0
  -36.7370  -13.3790  -13.4740 C   0  0  0  0  0
  -35.4220  -14.1350  -13.3640 C   0  0  0  0  0
  -35.6730  -15.6140  -13.6180 C   0  0  0  0  0
  -33.5131  -17.9104   -3.9976 H   0  0  0  0  0
  -34.6765  -18.2444   -5.3043 H   0  0  0  0  0
  -33.1319  -13.5360   -8.4060 H   0  0  0  0  0
  -32.1080  -16.1015   -5.0771 H   0  0  0  0  0
  -31.3000  -11.3764   -7.0980 H   0  0  0  0  0
  -32.9213  -11.1491   -6.3974 H   0  0  0  0  0
  -31.5359  -11.5082   -5.3378 H   0  0  0  0  0
  -33.6319  -19.6853   -7.4582 H   0  0  0  0  0
  -34.6475  -17.1436  -10.7244 H   0  0  0  0  0
  -33.8111  -15.1982   -9.4661 H   0  0  0  0  0
  -34.3712  -20.5870   -9.3461 H   0  0  0  0  0
  -37.1697  -22.0867  -12.6998 H   0  0  0  0  0
  -35.6718  -21.9105  -10.7195 H   0  0  0  0  0
  -37.6173  -17.6195  -14.0219 H   0  0  0  0  0
  -36.2725  -16.2683  -11.6851 H   0  0  0  0  0
  -38.5247  -15.7101  -11.6874 H   0  0  0  0  0
  -38.5535  -15.5475  -13.5079 H   0  0  0  0  0
  -37.3451  -13.7024  -11.4593 H   0  0  0  0  0
  -38.6911  -13.3774  -12.6285 H   0  0  0  0  0
  -36.5509  -12.3224  -13.2816 H   0  0  0  0  0
  -37.1435  -13.5266  -14.4746 H   0  0  0  0  0
  -35.0050  -14.0007  -12.3659 H   0  0  0  0  0
  -34.7167  -13.7516  -14.1013 H   0  0  0  0  0
  -36.0507  -15.7116  -14.6358 H   0  0  0  0  0
  -34.7326  -16.1389  -13.4499 H   0  0  0  0  0
  1  2  3  0  0  0
  2  3  1  0  0  0
  3  4  1  0  0  0
  4  5  1  0  0  0
  5  6  4  0  0  0
  5 13  4  0  0  0
  6  7  1  0  0  0
  6 16  4  0  0  0
  7  8  4  0  0  0
  7  9  4  0  0  0
  8 11  4  0  0  0
  9 10  4  0  0  0
 10 11  4  0  0  0
 11 12  1  0  0  0
 13 14  4  0  0  0
 14 15  4  0  0  0
 14 17  1  0  0  0
 15 16  4  0  0  0
 17 18  1  0  0  0
 18 19  4  0  0  0
 18 25  4  0  0  0
 19 20  4  0  0  0
 20 21  4  0  0  0
 20 26  1  0  0  0
 21 22  1  0  0  0
 21 24  4  0  0  0
 22 23  3  0  0  0
 24 25  4  0  0  0
 26 27  1  0  0  0
 27 28  1  0  0  0
 27 32  1  0  0  0
 28 29  1  0  0  0
 29 30  1  0  0  0
 30 31  1  0  0  0
 31 32  1  0  0  0
  3 33  1  0  0  0
  3 34  1  0  0  0
  8 35  1  0  0  0
  9 36  1  0  0  0
 12 37  1  0  0  0
 12 38  1  0  0  0
 12 39  1  0  0  0
 13 40  1  0  0  0
 15 41  1  0  0  0
 16 42  1  0  0  0
 17 43  1  0  0  0
 24 44  1  0  0  0
 25 45  1  0  0  0
 26 46  1  0  0  0
 27 47  1  0  0  0
 28 48  1  0  0  0
 28 49  1  0  0  0
 29 50  1  0  0  0
 29 51  1  0  0  0
 30 52  1  0  0  0
 30 53  1  0  0  0
 31 54  1  0  0  0
 31 55  1  0  0  0
 32 56  1  0  0  0
 32 57  1  0  0  0
M  END
$$$$
