3l4u_ligand
  -I-interpret- 

 47 47  0  0  0  0  0  0  0  0999 V2000
   -4.5820  -25.9270  -24.4060 O   0  0  0  0  0
   -3.5630  -14.2880  -18.6810 O   0  0  0  0  0
   -2.5250  -23.7780  -24.6300 O   0  0  0  0  0
   -1.8400  -19.0670  -22.8410 O   0  0  0  0  0
    1.1590  -14.8040  -20.9000 O   0  0  0  0  0
   -1.8620  -23.6130  -21.9840 O   0  0  0  0  0
   -3.4230  -21.1230  -20.3290 O   0  0  0  0  0
   -4.3410  -21.1410  -22.9860 O   0  0  0  0  0
    0.1390  -14.8610  -18.2440 O   0  0  0  0  0
   -3.8410  -25.3650  -23.3360 C   0  0  0  0  0
   -3.0400  -15.5240  -18.1840 C   0  0  0  0  0
   -1.9870  -18.5410  -20.4420 C   0  0  0  0  0
   -0.9410  -15.9610  -21.6020 C   0  0  0  0  0
   -3.5770  -23.8890  -23.6600 C   0  0  0  0  0
   -2.5440  -19.3660  -21.6440 C   0  0  0  0  0
    0.0950  -15.7140  -20.4860 C   0  0  0  0  0
   -3.1560  -23.1410  -22.3760 C   0  0  0  0  0
   -2.5020  -20.8730  -21.4050 C   0  0  0  0  0
   -3.0520  -21.6390  -22.6310 C   0  0  0  0  0
   -0.7410  -15.0460  -19.3600 C   0  0  0  0  0
   -1.8490  -16.0810  -19.0120 C   0  0  0  0  0
   -2.2940  -16.7690  -20.6530 S   0  0  0  0  0
   -4.7573  -26.8525  -24.2210 H   0  0  0  0  0
   -4.2921  -14.0037  -18.1249 H   0  0  0  0  0
   -2.3680  -22.8513  -24.8254 H   0  0  0  0  0
   -2.2021  -19.5869  -23.5623 H   0  0  0  0  0
    1.7755  -14.6830  -20.1741 H   0  0  0  0  0
   -1.5847  -23.1574  -21.1858 H   0  0  0  0  0
   -3.4380  -22.0629  -20.1340 H   0  0  0  0  0
   -4.2844  -20.1965  -23.1481 H   0  0  0  0  0
   -0.3425  -14.4484  -17.5232 H   0  0  0  0  0
   -2.8973  -25.8966  -23.2135 H   0  0  0  0  0
   -4.4025  -25.4501  -22.4056 H   0  0  0  0  0
   -3.8426  -16.2597  -18.2347 H   0  0  0  0  0
   -2.6745  -15.3389  -17.1739 H   0  0  0  0  0
   -0.9102  -18.7000  -20.3839 H   0  0  0  0  0
   -2.4899  -18.8725  -19.5336 H   0  0  0  0  0
   -0.5631  -16.5617  -22.4293 H   0  0  0  0  0
   -1.2492  -15.0560  -22.1256 H   0  0  0  0  0
   -4.4903  -23.4501  -24.0618 H   0  0  0  0  0
   -3.5887  -19.0714  -21.7438 H   0  0  0  0  0
    0.5929  -16.6386  -20.1940 H   0  0  0  0  0
   -3.9023  -23.3222  -21.6025 H   0  0  0  0  0
   -1.4790  -21.1911  -21.2040 H   0  0  0  0  0
   -2.3459  -21.4793  -23.4458 H   0  0  0  0  0
   -1.1780  -14.0862  -19.6356 H   0  0  0  0  0
   -1.4984  -16.8472  -18.3205 H   0  0  0  0  0
 10  1  1  0  0  0
 11  2  1  0  0  0
 14  3  1  0  0  0
 15  4  1  0  0  0
 16  5  1  0  0  0
 17  6  1  0  0  0
 18  7  1  0  0  0
 19  8  1  0  0  0
 20  9  1  0  0  0
 14 10  1  0  0  0
 21 11  1  0  0  0
 12 15  1  0  0  0
 22 12  1  0  0  0
 16 13  1  0  0  0
 13 22  1  0  0  0
 17 14  1  0  0  0
 15 18  1  0  0  0
 20 16  1  0  0  0
 19 17  1  0  0  0
 18 19  1  0  0  0
 20 21  1  0  0  0
 21 22  1  0  0  0
  1 23  1  0  0  0
  2 24  1  0  0  0
  3 25  1  0  0  0
  4 26  1  0  0  0
  5 27  1  0  0  0
  6 28  1  0  0  0
  7 29  1  0  0  0
  8 30  1  0  0  0
  9 31  1  0  0  0
 10 32  1  0  0  0
 10 33  1  0  0  0
 11 34  1  0  0  0
 11 35  1  0  0  0
 12 36  1  0  0  0
 12 37  1  0  0  0
 13 38  1  0  0  0
 13 39  1  0  0  0
 14 40  1  0  0  0
 15 41  1  0  0  0
 16 42  1  0  0  0
 17 43  1  0  0  0
 18 44  1  0  0  0
 19 45  1  0  0  0
 20 46  1  0  0  0
 21 47  1  0  0  0
M  END
$$$$
