2c5y_ligand
  -I-interpret- 

 43 46  0  0  0  0  0  0  0  0999 V2000
   27.3170   24.7460   25.0060 C   0  0  0  0  0
   28.1710   23.8510   25.4950 N   0  0  0  0  0
   29.3960   24.3630   25.3530 C   0  0  0  0  0
   29.2690   25.5500   24.7660 N   0  0  0  0  0
   28.0710   25.7450   24.5510 N   0  0  0  0  0
   27.5270   26.9730   23.9470 C   0  0  0  0  0
   27.8720   28.1490   24.8670 C   0  0  0  0  0
   27.0430   28.6400   25.8710 C   0  0  0  0  0
   29.1360   28.7020   24.7240 C   0  0  0  0  0
   29.5460   29.7810   25.4940 C   0  0  0  0  0
   28.6960   30.2900   26.4670 C   0  0  0  0  0
   27.4590   29.6960   26.6770 C   0  0  0  0  0
   26.6340   30.2650   27.6430 C   0  0  0  0  0
   25.6740   29.5350   28.2430 N   0  0  0  0  0
   26.7960   31.6240   27.9280 C   0  0  0  0  0
   25.8880   32.1930   28.8060 C   0  0  0  0  0
   24.9650   31.4110   29.3600 N   0  0  0  0  0
   24.8130   30.0970   29.1150 C   0  0  0  0  0
   23.8420   29.3780   29.6980 N   0  0  0  0  0
   23.5140   28.1070   29.4030 C   0  0  0  0  0
   24.2540   27.2850   28.5510 C   0  0  0  0  0
   22.3480   27.5550   29.9320 C   0  0  0  0  0
   21.9220   26.2700   29.6070 C   0  0  0  0  0
   22.6820   25.4680   28.7580 C   0  0  0  0  0
   23.8590   25.9830   28.2190 C   0  0  0  0  0
   24.6680   25.1940   27.4930 N   0  0  0  0  0
   24.5510   24.8250   26.1040 O   0  0  0  0  0
   25.8130   24.7340   28.1950 O   0  0  0  0  0
   26.2295   24.6764   24.9826 H   0  0  0  0  0
   30.3301   23.8937   25.6619 H   0  0  0  0  0
   26.4462   26.8891   23.8337 H   0  0  0  0  0
   27.9598   27.1294   22.9589 H   0  0  0  0  0
   26.0606   28.1944   26.0275 H   0  0  0  0  0
   29.8225   28.2795   23.9903 H   0  0  0  0  0
   30.5284   30.2260   25.3362 H   0  0  0  0  0
   28.9984   31.1513   27.0626 H   0  0  0  0  0
   27.5995   32.2088   27.4802 H   0  0  0  0  0
   25.9288   33.2573   29.0378 H   0  0  0  0  0
   23.3030   29.8370   30.4323 H   0  0  0  0  0
   25.1794   27.6735   28.1257 H   0  0  0  0  0
   21.7501   28.1493   30.6230 H   0  0  0  0  0
   20.9878   25.8888   30.0194 H   0  0  0  0  0
   22.3609   24.4541   28.5194 H   0  0  0  0  0
  1  2  4  0  0  0
  1  5  4  0  0  0
  2  3  4  0  0  0
  3  4  4  0  0  0
  4  5  4  0  0  0
  5  6  1  0  0  0
  6  7  1  0  0  0
  7  8  4  0  0  0
  7  9  4  0  0  0
  8 12  4  0  0  0
  9 10  4  0  0  0
 10 11  4  0  0  0
 11 12  4  0  0  0
 12 13  1  0  0  0
 13 14  4  0  0  0
 13 15  4  0  0  0
 14 18  4  0  0  0
 15 16  4  0  0  0
 16 17  4  0  0  0
 17 18  4  0  0  0
 18 19  1  0  0  0
 19 20  1  0  0  0
 20 21  4  0  0  0
 20 22  4  0  0  0
 21 25  4  0  0  0
 22 23  4  0  0  0
 23 24  4  0  0  0
 24 25  4  0  0  0
 25 26  1  0  0  0
 26 27  2  0  0  0
 26 28  2  0  0  0
  1 29  1  0  0  0
  3 30  1  0  0  0
  6 31  1  0  0  0
  6 32  1  0  0  0
  8 33  1  0  0  0
  9 34  1  0  0  0
 10 35  1  0  0  0
 11 36  1  0  0  0
 15 37  1  0  0  0
 16 38  1  0  0  0
 19 39  1  0  0  0
 21 40  1  0  0  0
 22 41  1  0  0  0
 23 42  1  0  0  0
 24 43  1  0  0  0
M  END
$$$$
