1yw7_ligand
  -I-interpret- 

 33 34  0  0  0  0  0  0  0  0999 V2000
   18.3980   27.9220   21.5180 C   0  0  0  0  0
   17.9200   29.2550   21.4410 C   0  0  0  0  0
   16.8110   29.5640   20.6140 C   0  0  0  0  0
   16.1820   28.5390   19.8650 C   0  0  0  0  0
   16.6570   27.2050   19.9400 C   0  0  0  0  0
   17.7640   26.8990   20.7670 C   0  0  0  0  0
   14.7920   28.9280   18.8220 S   0  0  0  0  0
   15.4180   29.1300   17.3190 N   0  0  0  0  0
   14.2360   30.1930   19.2310 O   0  0  0  0  0
   13.9270   27.7770   18.7920 O   0  0  0  0  0
   16.1920   30.2060   16.9140 C   0  0  0  0  0
   15.5740   31.4630   16.6610 C   0  0  0  0  0
   16.3350   32.5830   16.2500 C   0  0  0  0  0
   17.7380   32.4800   16.0770 C   0  0  0  0  0
   18.3660   31.2360   16.3230 C   0  0  0  0  0
   17.6240   30.0910   16.7380 C   0  0  0  0  0
   18.3960   28.8410   16.9660 C   0  0  0  0  0
   19.3470   28.8430   17.6950 O   0  0  0  0  0
   17.8460   27.6820   16.5470 O   0  0  0  0  0
   18.5480   33.6740   15.6400 C   0  0  0  0  0
   19.2512   27.6839   22.1532 H   0  0  0  0  0
   18.4055   30.0421   22.0179 H   0  0  0  0  0
   16.4429   30.5882   20.5544 H   0  0  0  0  0
   16.1713   26.4182   19.3628 H   0  0  0  0  0
   18.1305   25.8742   20.8271 H   0  0  0  0  0
   15.2220   28.4061   16.6276 H   0  0  0  0  0
   14.4960   31.5646   16.7860 H   0  0  0  0  0
   15.8371   33.5347   16.0645 H   0  0  0  0  0
   19.4447   31.1507   16.1919 H   0  0  0  0  0
   17.0994   27.8721   15.9742 H   0  0  0  0  0
   18.1929   34.0163   14.6680 H   0  0  0  0  0
   18.4366   34.4744   16.3714 H   0  0  0  0  0
   19.5981   33.3915   15.5657 H   0  0  0  0  0
  1  2  4  0  0  0
  1  6  4  0  0  0
  2  3  4  0  0  0
  3  4  4  0  0  0
  4  5  4  0  0  0
  4  7  1  0  0  0
  5  6  4  0  0  0
  7  8  1  0  0  0
  7  9  2  0  0  0
  7 10  2  0  0  0
  8 11  1  0  0  0
 11 12  4  0  0  0
 11 16  4  0  0  0
 12 13  4  0  0  0
 13 14  4  0  0  0
 14 15  4  0  0  0
 14 20  1  0  0  0
 15 16  4  0  0  0
 16 17  1  0  0  0
 17 18  2  0  0  0
 17 19  1  0  0  0
  1 21  1  0  0  0
  2 22  1  0  0  0
  3 23  1  0  0  0
  5 24  1  0  0  0
  6 25  1  0  0  0
  8 26  1  0  0  0
 12 27  1  0  0  0
 13 28  1  0  0  0
 15 29  1  0  0  0
 19 30  1  0  0  0
 20 31  1  0  0  0
 20 32  1  0  0  0
 20 33  1  0  0  0
M  END
$$$$
