2gss_ligand
  -I-interpret- 

 31 31  0  0  0  0  0  0  0  0999 V2000
    7.9400    3.6820   25.9280 C   0  0  0  0  0
    8.9290    4.1010   25.0970 O   0  0  0  0  0
    8.2770    2.6700   26.8480 C   0  0  0  0  0
    9.9000    2.0990   26.8510 Cl  0  0  0  0  0
    7.3580    2.1900   27.7220 C   0  0  0  0  0
    7.8080    0.9230   28.8280 Cl  0  0  0  0  0
    6.0400    2.6530   27.7270 C   0  0  0  0  0
    5.7110    3.6480   26.8010 C   0  0  0  0  0
    6.6340    4.1410   25.9200 C   0  0  0  0  0
    5.0500    2.2350   28.7710 C   0  0  0  0  0
    4.5330    1.1470   28.7190 O   0  0  0  0  0
    4.7170    3.1410   29.9000 C   0  0  0  0  0
    4.9690    2.6060   31.2620 C   0  0  0  0  0
    5.6550    3.4510   32.2280 C   0  0  0  0  0
    4.1860    4.3020   29.6430 C   0  0  0  0  0
    8.6800    5.2280   24.2860 C   0  0  0  0  0
    9.9070    5.5890   23.5350 C   0  0  0  0  0
    9.8520    6.6840   22.9080 O   0  0  0  0  0
   10.9340    4.8540   23.5630 O   0  0  0  0  0
    4.6942    4.0403   26.7808 H   0  0  0  0  0
    6.3372    4.9055   25.2020 H   0  0  0  0  0
    5.6292    1.7515   31.1134 H   0  0  0  0  0
    3.9799    2.4348   31.6869 H   0  0  0  0  0
    6.6419    3.7110   31.8451 H   0  0  0  0  0
    5.0756    4.3599   32.3898 H   0  0  0  0  0
    5.7596    2.9127   33.1700 H   0  0  0  0  0
    3.9922    4.5964   28.6115 H   0  0  0  0  0
    3.9353    4.9794   30.4593 H   0  0  0  0  0
    8.3839    6.0666   24.9162 H   0  0  0  0  0
    7.8820    4.9949   23.5810 H   0  0  0  0  0
   10.7546    4.0756   24.0954 H   0  0  0  0  0
  1  2  1  0  0  0
  1  3  4  0  0  0
  1  9  4  0  0  0
  2 16  1  0  0  0
  3  4  1  0  0  0
  3  5  4  0  0  0
  5  6  1  0  0  0
  5  7  4  0  0  0
  7  8  4  0  0  0
  7 10  1  0  0  0
  8  9  4  0  0  0
 10 11  2  0  0  0
 10 12  1  0  0  0
 12 13  1  0  0  0
 12 15  2  0  0  0
 13 14  1  0  0  0
 16 17  1  0  0  0
 17 18  2  0  0  0
 17 19  1  0  0  0
  8 20  1  0  0  0
  9 21  1  0  0  0
 13 22  1  0  0  0
 13 23  1  0  0  0
 14 24  1  0  0  0
 14 25  1  0  0  0
 14 26  1  0  0  0
 15 27  1  0  0  0
 15 28  1  0  0  0
 16 29  1  0  0  0
 16 30  1  0  0  0
 19 31  1  0  0  0
M  END
$$$$
