### 
### Created by X-TOOL on Mon Sep 10 21:13:05 2018
### 

@<TRIPOS>MOLECULE
2xu4_ligand
   60    64     1     0     0
SMALL
GAST_HUCK


@<TRIPOS>ATOM
      1 C1         26.9200    8.7730    0.2170 C.3       1 DJT         0.1342
      2 C2         26.2000    7.8600   -0.7520 C.2       1 DJT         0.1971
      3 CL2        30.2190   13.6830    0.1290 Cl        1 DJT        -0.0687
      4 N3         24.9900    7.4560   -0.2670 N.am      1 DJT        -0.2955
      5 C4         24.0510    6.6900   -1.0660 C.3       1 DJT         0.0783
      6 C5         23.0780    7.5470   -1.8060 C.2       1 DJT         0.0437
      7 O6         26.6070    7.5890   -1.8940 O.2       1 DJT        -0.3951
      8 C7         24.5070    5.3750   -1.6550 C.3       1 DJT        -0.0407
      9 C8         23.5580    5.3880   -0.4670 C.3       1 DJT        -0.0407
     10 N9         22.0630    7.0960   -2.4300 N.2       1 DJT        -0.2686
     11 N10        28.2430    8.2980    0.6260 N.am      1 DJT        -0.2571
     12 C11        29.3160    9.2270    0.2160 C.3       1 DJT         0.0587
     13 C12        28.5550   10.5710    0.0270 C.3       1 DJT         0.1066
     14 C13        27.1780   10.1060   -0.4940 C.3       1 DJT         0.0125
     15 S14        28.2550   11.4910    1.5570 S.o2      1 DJT         0.0023
     16 C15        29.8720   11.9200    2.1770 C.ar      1 DJT         0.1025
     17 C16        30.6830   12.8440    1.5410 C.ar      1 DJT         0.0651
     18 C17        31.9370   13.1480    2.0290 C.ar      1 DJT        -0.0460
     19 C18        32.3740   12.5330    3.1650 C.ar      1 DJT        -0.0612
     20 C19        31.5850   11.6250    3.8210 C.ar      1 DJT        -0.0598
     21 C20        30.3420   11.3080    3.3310 C.ar      1 DJT        -0.0364
     22 O22        27.5390   12.7030    1.1600 O.2       1 DJT        -0.1690
     23 O23        27.6840   10.6380    2.5520 O.2       1 DJT        -0.1690
     24 C24        28.3600    7.2230    1.4110 C.2       1 DJT         0.1674
     25 O25        27.3350    6.6260    1.7580 O.2       1 DJT        -0.3672
     26 C26        30.2660    7.4980    3.1300 C.3       1 DJT        -0.0731
     27 C27        29.7410    6.8450    1.8490 C.3       1 DJT         0.0372
     28 C28        29.8650    6.0220    3.1210 C.3       1 DJT        -0.0731
     29 C29        31.1650    5.4280   -1.3990 C.ar      1 DJT         0.0038
     30 C30        32.4320    5.9510   -1.3560 C.ar      1 DJT         0.1675
     31 C31        32.8290    6.7430   -0.3010 C.ar      1 DJT         0.0038
     32 C32        31.9560    7.0330    0.7140 C.ar      1 DJT        -0.0403
     33 C33        30.6730    6.5250    0.6950 C.ar      1 DJT        -0.0438
     34 C34        30.2850    5.7050   -0.3500 C.ar      1 DJT        -0.0403
     35 F35        33.3190    5.6740   -2.3470 F         1 DJT        -0.1550
     36 H          26.2824    8.8349    1.0989 H         1 DJT         0.0804
     37 H          24.7367    7.7008    0.6902 H         1 DJT         0.1774
     38 H          23.2462    8.6239   -1.8128 H         1 DJT         0.1090
     39 H          25.4373    4.8914   -1.9531 H         1 DJT         0.0220
     40 H          24.5859    4.9009   -2.6333 H         1 DJT         0.0220
     41 H          22.6167    4.9292   -0.1645 H         1 DJT         0.0220
     42 H          23.4645    4.9198    0.5129 H         1 DJT         0.0220
     43 H          21.8767    6.0933   -2.4434 H         1 DJT         0.2165
     44 H          29.8357    8.9033   -0.6858 H         1 DJT         0.0544
     45 H          30.1211    9.2946    0.9477 H         1 DJT         0.0544
     46 H          29.1328   11.2384   -0.6124 H         1 DJT         0.0563
     47 H          26.3967   10.8362   -0.2831 H         1 DJT         0.0332
     48 H          27.1707    9.9955   -1.5784 H         1 DJT         0.0332
     49 H          32.5701   13.8701    1.5135 H         1 DJT         0.0624
     50 H          33.3641   12.7669    3.5563 H         1 DJT         0.0618
     51 H          31.9452   11.1527    4.7349 H         1 DJT         0.0620
     52 H          29.7236   10.5749    3.8488 H         1 DJT         0.0636
     53 H          30.0903    8.3929    3.7269 H         1 DJT         0.0152
     54 H          31.1014    8.1199    3.4517 H         1 DJT         0.0152
     55 H          29.2557    5.3389    3.7129 H         1 DJT         0.0152
     56 H          30.2774    5.0631    3.4348 H         1 DJT         0.0152
     57 H          30.8500    4.8068   -2.2374 H         1 DJT         0.0695
     58 H          33.8433    7.1411   -0.2738 H         1 DJT         0.0695
     59 H          32.2761    7.6678    1.5403 H         1 DJT         0.0839
     60 H          29.2848    5.2718   -0.3547 H         1 DJT         0.0839
@<TRIPOS>BOND
     1    1    2 1  
     2   11    1 1  
     3    1   14 1  
     4    2    4 am 
     5    2    7 2  
     6   17    3 1  
     7    4    5 1  
     8    5    6 1  
     9    5    8 1  
    10    5    9 1  
    11    6   10 2  
    12    9    8 1  
    13   11   12 1  
    14   24   11 am 
    15   12   13 1  
    16   13   14 1  
    17   13   15 1  
    18   15   16 1  
    19   15   22 2  
    20   15   23 2  
    21   16   17 ar 
    22   16   21 ar 
    23   17   18 ar 
    24   18   19 ar 
    25   20   19 ar 
    26   21   20 ar 
    27   24   25 2  
    28   27   24 1  
    29   27   26 1  
    30   28   26 1  
    31   27   28 1  
    32   33   27 1  
    33   30   29 ar 
    34   29   34 ar 
    35   31   30 ar 
    36   30   35 1  
    37   32   31 ar 
    38   32   33 ar 
    39   33   34 ar 
    40    1   36 1  
    41    4   37 1  
    42    6   38 1  
    43    8   39 1  
    44    8   40 1  
    45    9   41 1  
    46    9   42 1  
    47   10   43 1  
    48   12   44 1  
    49   12   45 1  
    50   13   46 1  
    51   14   47 1  
    52   14   48 1  
    53   18   49 1  
    54   19   50 1  
    55   20   51 1  
    56   21   52 1  
    57   26   53 1  
    58   26   54 1  
    59   28   55 1  
    60   28   56 1  
    61   29   57 1  
    62   31   58 1  
    63   32   59 1  
    64   34   60 1  
@<TRIPOS>SUBSTRUCTURE
     1 DJT         1

