2xu4_ligand
  -I-interpret- 

 60 64  0  0  0  0  0  0  0  0999 V2000
   26.9200    8.7730    0.2170 C   0  0  0  0  0
   26.2000    7.8600   -0.7520 C   0  0  0  0  0
   30.2190   13.6830    0.1290 Cl  0  0  0  0  0
   24.9900    7.4560   -0.2670 N   0  0  0  0  0
   24.0510    6.6900   -1.0660 C   0  0  0  0  0
   23.0780    7.5470   -1.8060 C   0  0  0  0  0
   26.6070    7.5890   -1.8940 O   0  0  0  0  0
   24.5070    5.3750   -1.6550 C   0  0  0  0  0
   23.5580    5.3880   -0.4670 C   0  0  0  0  0
   22.0630    7.0960   -2.4300 N   0  0  0  0  0
   28.2430    8.2980    0.6260 N   0  0  0  0  0
   29.3160    9.2270    0.2160 C   0  0  0  0  0
   28.5550   10.5710    0.0270 C   0  0  0  0  0
   27.1780   10.1060   -0.4940 C   0  0  0  0  0
   28.2550   11.4910    1.5570 S   0  0  0  0  0
   29.8720   11.9200    2.1770 C   0  0  0  0  0
   30.6830   12.8440    1.5410 C   0  0  0  0  0
   31.9370   13.1480    2.0290 C   0  0  0  0  0
   32.3740   12.5330    3.1650 C   0  0  0  0  0
   31.5850   11.6250    3.8210 C   0  0  0  0  0
   30.3420   11.3080    3.3310 C   0  0  0  0  0
   27.5390   12.7030    1.1600 O   0  0  0  0  0
   27.6840   10.6380    2.5520 O   0  0  0  0  0
   28.3600    7.2230    1.4110 C   0  0  0  0  0
   27.3350    6.6260    1.7580 O   0  0  0  0  0
   30.2660    7.4980    3.1300 C   0  0  0  0  0
   29.7410    6.8450    1.8490 C   0  0  0  0  0
   29.8650    6.0220    3.1210 C   0  0  0  0  0
   31.1650    5.4280   -1.3990 C   0  0  0  0  0
   32.4320    5.9510   -1.3560 C   0  0  0  0  0
   32.8290    6.7430   -0.3010 C   0  0  0  0  0
   31.9560    7.0330    0.7140 C   0  0  0  0  0
   30.6730    6.5250    0.6950 C   0  0  0  0  0
   30.2850    5.7050   -0.3500 C   0  0  0  0  0
   33.3190    5.6740   -2.3470 F   0  0  0  0  0
   26.2824    8.8349    1.0989 H   0  0  0  0  0
   24.7367    7.7008    0.6902 H   0  0  0  0  0
   23.2462    8.6239   -1.8128 H   0  0  0  0  0
   25.4373    4.8914   -1.9531 H   0  0  0  0  0
   24.5859    4.9009   -2.6333 H   0  0  0  0  0
   22.6167    4.9292   -0.1645 H   0  0  0  0  0
   23.4645    4.9198    0.5129 H   0  0  0  0  0
   21.8767    6.0933   -2.4434 H   0  0  0  0  0
   29.8357    8.9033   -0.6858 H   0  0  0  0  0
   30.1211    9.2946    0.9477 H   0  0  0  0  0
   29.1328   11.2384   -0.6124 H   0  0  0  0  0
   26.3967   10.8362   -0.2831 H   0  0  0  0  0
   27.1707    9.9955   -1.5784 H   0  0  0  0  0
   32.5701   13.8701    1.5135 H   0  0  0  0  0
   33.3641   12.7669    3.5563 H   0  0  0  0  0
   31.9452   11.1527    4.7349 H   0  0  0  0  0
   29.7236   10.5749    3.8488 H   0  0  0  0  0
   30.0903    8.3929    3.7269 H   0  0  0  0  0
   31.1014    8.1199    3.4517 H   0  0  0  0  0
   29.2557    5.3389    3.7129 H   0  0  0  0  0
   30.2774    5.0631    3.4348 H   0  0  0  0  0
   30.8500    4.8068   -2.2374 H   0  0  0  0  0
   33.8433    7.1411   -0.2738 H   0  0  0  0  0
   32.2761    7.6678    1.5403 H   0  0  0  0  0
   29.2848    5.2718   -0.3547 H   0  0  0  0  0
  1  2  1  0  0  0
 11  1  1  0  0  0
  1 14  1  0  0  0
  2  4  1  0  0  0
  2  7  2  0  0  0
 17  3  1  0  0  0
  4  5  1  0  0  0
  5  6  1  0  0  0
  5  8  1  0  0  0
  5  9  1  0  0  0
  6 10  2  0  0  0
  9  8  1  0  0  0
 11 12  1  0  0  0
 24 11  1  0  0  0
 12 13  1  0  0  0
 13 14  1  0  0  0
 13 15  1  0  0  0
 15 16  1  0  0  0
 15 22  2  0  0  0
 15 23  2  0  0  0
 16 17  4  0  0  0
 16 21  4  0  0  0
 17 18  4  0  0  0
 18 19  4  0  0  0
 20 19  4  0  0  0
 21 20  4  0  0  0
 24 25  2  0  0  0
 27 24  1  0  0  0
 27 26  1  0  0  0
 28 26  1  0  0  0
 27 28  1  0  0  0
 33 27  1  0  0  0
 30 29  4  0  0  0
 29 34  4  0  0  0
 31 30  4  0  0  0
 30 35  1  0  0  0
 32 31  4  0  0  0
 32 33  4  0  0  0
 33 34  4  0  0  0
  1 36  1  0  0  0
  4 37  1  0  0  0
  6 38  1  0  0  0
  8 39  1  0  0  0
  8 40  1  0  0  0
  9 41  1  0  0  0
  9 42  1  0  0  0
 10 43  1  0  0  0
 12 44  1  0  0  0
 12 45  1  0  0  0
 13 46  1  0  0  0
 14 47  1  0  0  0
 14 48  1  0  0  0
 18 49  1  0  0  0
 19 50  1  0  0  0
 20 51  1  0  0  0
 21 52  1  0  0  0
 26 53  1  0  0  0
 26 54  1  0  0  0
 28 55  1  0  0  0
 28 56  1  0  0  0
 29 57  1  0  0  0
 31 58  1  0  0  0
 32 59  1  0  0  0
 34 60  1  0  0  0
M  END
$$$$
