2wvz_ligand
  -I-interpret- 

 28 29  0  0  0  0  0  0  0  0999 V2000
  -15.1620  -21.7940   47.1850 C   0  0  0  0  0
  -16.3110  -22.4880   47.6020 O   0  0  0  0  0
  -15.3790  -20.2730   47.4290 C   0  0  0  0  0
  -16.0680  -19.6680   46.3000 O   0  0  0  0  0
  -14.0380  -19.5430   47.7070 C   0  0  0  0  0
  -14.1070  -18.1820   47.2900 O   0  0  0  0  0
  -12.8710  -20.2760   47.0480 C   0  0  0  0  0
  -11.5840  -19.5460   47.3080 N   0  0  0  0  0
  -10.9190  -20.2010   48.2880 C   0  0  0  0  0
   -9.8290  -19.8920   48.7910 O   0  0  0  0  0
  -11.6400  -21.3410   48.6720 C   0  0  0  0  0
  -11.2800  -22.1100   49.5610 O   0  0  0  0  0
  -12.8050  -21.4790   47.8830 N   0  0  0  0  0
  -13.9650  -22.3840   47.9640 C   0  0  0  0  0
  -13.6040  -23.7940   47.5100 C   0  0  0  0  0
  -13.1980  -23.6940   46.1550 O   0  0  0  0  0
  -14.9593  -21.9076   46.1201 H   0  0  0  0  0
  -17.0771  -22.1455   47.1358 H   0  0  0  0  0
  -16.0027  -20.1655   48.3165 H   0  0  0  0  0
  -16.8935  -20.1325   46.1441 H   0  0  0  0  0
  -13.8611  -19.5487   48.7825 H   0  0  0  0  0
  -14.8493  -17.7533   47.7222 H   0  0  0  0  0
  -12.9971  -20.4088   45.9735 H   0  0  0  0  0
  -11.2665  -18.7032   46.8292 H   0  0  0  0  0
  -14.2686  -22.4707   49.0073 H   0  0  0  0  0
  -14.4568  -24.4652   47.6115 H   0  0  0  0  0
  -12.8051  -24.2077   48.1254 H   0  0  0  0  0
  -12.9606  -24.5649   45.8282 H   0  0  0  0  0
  1  2  1  0  0  0
  1  3  1  0  0  0
  1 14  1  0  0  0
  3  4  1  0  0  0
  3  5  1  0  0  0
  5  6  1  0  0  0
  5  7  1  0  0  0
  7  8  1  0  0  0
  7 13  1  0  0  0
  8  9  1  0  0  0
  9 10  2  0  0  0
  9 11  1  0  0  0
 11 12  2  0  0  0
 11 13  1  0  0  0
 13 14  1  0  0  0
 14 15  1  0  0  0
 15 16  1  0  0  0
  1 17  1  0  0  0
  2 18  1  0  0  0
  3 19  1  0  0  0
  4 20  1  0  0  0
  5 21  1  0  0  0
  6 22  1  0  0  0
  7 23  1  0  0  0
  8 24  1  0  0  0
 14 25  1  0  0  0
 15 26  1  0  0  0
 15 27  1  0  0  0
 16 28  1  0  0  0
M  END
$$$$
