3qup_ligand
  -I-interpret- 

 59 64  0  0  0  0  0  0  0  0999 V2000
   10.4110   -7.6330   14.6510 C   0  0  0  0  0
    9.0600   -7.0270   14.8810 C   0  0  0  0  0
   10.1140   -9.1220   14.7860 C   0  0  0  0  0
   11.0310   -7.3660   13.2940 C   0  0  0  0  0
   11.4010   -7.1810   15.6740 C   0  0  0  0  0
    8.1400   -7.9940   15.2020 C   0  0  0  0  0
    8.6740   -5.7040   14.8030 C   0  0  0  0  0
    8.7300   -9.2630   15.2120 N   0  0  0  0  0
   12.4500   -6.9770   13.5480 N   0  3  0  0  0
   12.7510   -7.1270   14.9920 C   0  0  0  0  0
    6.8250   -7.6850   15.4460 C   0  0  0  0  0
    7.3540   -5.3730   15.0490 C   0  0  0  0  0
    7.9510  -10.4290   15.1240 C   0  0  0  0  0
   13.4640   -7.6100   12.6550 C   0  0  0  0  0
    6.4340   -6.3650   15.3650 C   0  0  0  0  0
    8.5430  -11.6450   14.6620 C   0  0  0  0  0
    6.7560  -10.4270   15.4130 O   0  0  0  0  0
   14.8460   -7.0420   12.9640 C   0  0  0  0  0
   13.1270   -7.2050   11.2400 C   0  0  0  0  0
    9.8320  -12.1490   14.6400 C   0  0  0  0  0
    7.7680  -12.6110   14.0910 N   0  0  0  0  0
   15.8630   -7.5510   11.9460 C   0  0  0  0  0
   14.0820   -7.7900   10.2980 N   0  3  0  0  0
    9.8090  -13.4370   14.0360 C   0  0  0  0  0
    8.4950  -13.6980   13.6990 C   0  0  0  0  0
   15.4130   -7.2160   10.5330 C   0  0  0  0  0
   10.7790  -14.3920   13.7520 C   0  0  0  0  0
    8.0610  -14.8540   13.0850 C   0  0  0  0  0
   10.3600  -15.5620   13.1450 C   0  0  0  0  0
    9.0420  -15.7820   12.8190 C   0  0  0  0  0
   11.2700  -16.5290   12.8460 F   0  0  0  0  0
   10.7829   -9.5764   15.5169 H   0  0  0  0  0
   10.2696   -9.6267   13.8325 H   0  0  0  0  0
   10.4965   -6.5745   12.7687 H   0  0  0  0  0
   10.9755   -8.2495   12.6580 H   0  0  0  0  0
   11.4235   -7.8695   16.5187 H   0  0  0  0  0
   11.1287   -6.2015   16.0670 H   0  0  0  0  0
    9.3997   -4.9307   14.5510 H   0  0  0  0  0
   12.5348   -5.9935   13.2911 H   0  0  0  0  0
   13.3381   -8.0239   15.1898 H   0  0  0  0  0
   13.3575   -6.3015   15.3646 H   0  0  0  0  0
    6.1064   -8.4649   15.6980 H   0  0  0  0  0
    7.0349   -4.3322   14.9949 H   0  0  0  0  0
   13.4610   -8.6912   12.7932 H   0  0  0  0  0
    5.3938   -6.0975   15.5506 H   0  0  0  0  0
   15.1485   -7.3608   13.9615 H   0  0  0  0  0
   14.8045   -5.9539   12.9143 H   0  0  0  0  0
   13.1730   -6.1188   11.1621 H   0  0  0  0  0
   12.1264   -7.5631   10.9980 H   0  0  0  0  0
   10.7183  -11.6427   15.0223 H   0  0  0  0  0
   15.9509   -8.6331   12.0431 H   0  0  0  0  0
   16.8240   -7.0726   12.1350 H   0  0  0  0  0
   13.7869   -7.5861    9.3431 H   0  0  0  0  0
   14.1182   -8.8004   10.4330 H   0  0  0  0  0
   16.1212   -7.6320    9.8165 H   0  0  0  0  0
   15.3701   -6.1337   10.4109 H   0  0  0  0  0
   11.8277  -14.2252   13.9979 H   0  0  0  0  0
    7.0149  -15.0210   12.8284 H   0  0  0  0  0
    8.7662  -16.7192   12.3356 H   0  0  0  0  0
  1  2  1  0  0  0
  1  3  1  0  0  0
  1  4  1  0  0  0
  1  5  1  0  0  0
  2  6  4  0  0  0
  2  7  4  0  0  0
  3  8  1  0  0  0
  4  9  1  0  0  0
  5 10  1  0  0  0
  6  8  1  0  0  0
  6 11  4  0  0  0
  7 12  4  0  0  0
  8 13  1  0  0  0
  9 10  1  0  0  0
  9 14  1  0  0  0
 11 15  4  0  0  0
 12 15  4  0  0  0
 13 16  1  0  0  0
 13 17  2  0  0  0
 14 18  1  0  0  0
 14 19  1  0  0  0
 16 20  4  0  0  0
 16 21  4  0  0  0
 18 22  1  0  0  0
 19 23  1  0  0  0
 20 24  4  0  0  0
 21 25  4  0  0  0
 22 26  1  0  0  0
 23 26  1  0  0  0
 24 25  4  0  0  0
 24 27  4  0  0  0
 25 28  4  0  0  0
 27 29  4  0  0  0
 28 30  4  0  0  0
 29 30  4  0  0  0
 29 31  1  0  0  0
  3 32  1  0  0  0
  3 33  1  0  0  0
  4 34  1  0  0  0
  4 35  1  0  0  0
  5 36  1  0  0  0
  5 37  1  0  0  0
  7 38  1  0  0  0
  9 39  1  0  0  0
 10 40  1  0  0  0
 10 41  1  0  0  0
 11 42  1  0  0  0
 12 43  1  0  0  0
 14 44  1  0  0  0
 15 45  1  0  0  0
 18 46  1  0  0  0
 18 47  1  0  0  0
 19 48  1  0  0  0
 19 49  1  0  0  0
 20 50  1  0  0  0
 22 51  1  0  0  0
 22 52  1  0  0  0
 23 53  1  0  0  0
 23 54  1  0  0  0
 26 55  1  0  0  0
 26 56  1  0  0  0
 27 57  1  0  0  0
 28 58  1  0  0  0
 30 59  1  0  0  0
M  END
$$$$
