6hmb_ligand
  -I-interpret- 

 37 40  0  0  0  0  0  0  0  0999 V2000
   43.9700   31.5670    9.1500 C   0  0  0  0  0
   44.4530   31.8700   10.4240 C   0  0  0  0  0
   45.7680   32.3550   10.5550 C   0  0  0  0  0
   46.5300   32.5760    9.4230 C   0  0  0  0  0
   46.0300   32.2780    8.1530 C   0  0  0  0  0
   44.7550   31.7600    8.0100 C   0  0  0  0  0
   42.3490   31.0730   11.3210 C   0  0  0  0  0
   43.6060   31.6140   11.5510 C   0  0  0  0  0
   42.6990   31.1090    8.9560 N   0  0  0  0  0
   41.9210   30.8590    9.9880 C   0  0  0  0  0
   41.9980   31.0460   13.7090 C   0  0  0  0  0
   43.2040   31.5700   13.9120 N   0  0  0  0  0
   44.0040   31.8340   12.8840 C   0  0  0  0  0
   41.5470   30.7730   12.4300 C   0  0  0  0  0
   40.5850   30.4130    9.8130 N   0  0  0  0  0
   39.9630   30.0310    8.5740 C   0  0  0  0  0
   40.6850   29.5210    7.5260 C   0  0  0  0  0
   40.0100   29.1250    6.3910 C   0  0  0  0  0
   38.6370   29.2210    6.2800 C   0  0  0  0  0
   37.9220   29.7080    7.3480 C   0  0  0  0  0
   38.5900   30.1190    8.4860 C   0  0  0  0  0
   40.9510   28.4970    5.0330 Cl  0  0  0  0  0
   46.8840   32.5700    6.9350 C   0  0  0  0  0
   46.6050   32.0170    5.8490 O   0  0  0  0  0
   47.8170   33.4110    7.0880 O   0  0  0  0  0
   46.1828   32.5550   11.5429 H   0  0  0  0  0
   47.5341   32.9882    9.5226 H   0  0  0  0  0
   44.3686   31.5062    7.0229 H   0  0  0  0  0
   41.3561   30.8287   14.5627 H   0  0  0  0  0
   44.9994   32.2333   13.0787 H   0  0  0  0  0
   40.5648   30.3232   12.2846 H   0  0  0  0  0
   40.0071   30.3578   10.6517 H   0  0  0  0  0
   41.7694   29.4306    7.5888 H   0  0  0  0  0
   38.1305   28.9167    5.3640 H   0  0  0  0  0
   36.8349   29.7697    7.2978 H   0  0  0  0  0
   38.0227   30.5187    9.3266 H   0  0  0  0  0
   47.8413   33.6972    8.0040 H   0  0  0  0  0
  2  1  4  0  0  0
  1  6  4  0  0  0
  9  1  4  0  0  0
  2  3  4  0  0  0
  8  2  4  0  0  0
  3  4  4  0  0  0
  4  5  4  0  0  0
  6  5  4  0  0  0
  5 23  1  0  0  0
  7  8  4  0  0  0
  7 10  4  0  0  0
 14  7  4  0  0  0
  8 13  4  0  0  0
 10  9  4  0  0  0
 10 15  1  0  0  0
 11 12  4  0  0  0
 11 14  4  0  0  0
 12 13  4  0  0  0
 15 16  1  0  0  0
 16 17  4  0  0  0
 16 21  4  0  0  0
 17 18  4  0  0  0
 18 19  4  0  0  0
 18 22  1  0  0  0
 19 20  4  0  0  0
 20 21  4  0  0  0
 23 24  2  0  0  0
 23 25  1  0  0  0
  3 26  1  0  0  0
  4 27  1  0  0  0
  6 28  1  0  0  0
 11 29  1  0  0  0
 13 30  1  0  0  0
 14 31  1  0  0  0
 15 32  1  0  0  0
 17 33  1  0  0  0
 19 34  1  0  0  0
 20 35  1  0  0  0
 21 36  1  0  0  0
 25 37  1  0  0  0
M  END
$$$$
