### 
### Created by X-TOOL on Mon Aug  2 16:13:38 2021
### 

@<TRIPOS>MOLECULE
6gy5_ligand
  176   177     1     0     0
SMALL
GAST_HUCK


@<TRIPOS>ATOM
      1 N          -3.3830   -7.4200  -28.6910 N.4       1 LEU         0.2379
      2 CA         -4.2620   -6.8710  -27.6630 C.3       1 LEU         0.0652
      3 C          -3.8580   -7.4300  -26.3080 C.2       1 LEU         0.2265
      4 O          -2.8010   -8.0560  -26.1810 O.2       1 LEU        -0.3907
      5 CB         -5.7240   -7.1970  -27.9640 C.3       1 LEU         0.0102
      6 CG         -6.2230   -6.7220  -29.3280 C.3       1 LEU        -0.0394
      7 CD1        -7.6690   -7.1320  -29.5210 C.3       1 LEU        -0.0623
      8 CD2        -6.0650   -5.2180  -29.4700 C.3       1 LEU        -0.0623
      9 N          -4.6900   -7.2040  -25.2970 N.am      1 LEU        -0.2637
     10 CA         -4.3910   -7.6520  -23.9540 C.3       1 LEU         0.1202
     11 C          -3.6340   -6.6190  -23.1460 C.2       1 LEU         0.2007
     12 O          -2.8730   -5.8070  -23.6910 O.2       1 LEU        -0.3947
     13 N          -3.8280   -6.6530  -21.8360 N.am      1 LEU        -0.2639
     14 CA         -2.9980   -5.8790  -20.9310 C.3       1 LEU         0.1314
     15 C          -1.5410   -6.3030  -21.0800 C.2       1 LEU         0.2064
     16 O          -1.2650   -7.4860  -21.2780 O.2       1 LEU        -0.3942
     17 CB         -3.4470   -6.1100  -19.4910 C.3       1 LEU        -0.0101
     18 CG         -4.8690   -5.6830  -19.1400 C.3       1 LEU        -0.0425
     19 CD1        -5.2660   -6.2230  -17.7730 C.3       1 LEU        -0.0625
     20 CD2        -4.9570   -4.1720  -19.1680 C.3       1 LEU        -0.0625
     21 N          -0.6020   -5.3770  -20.9450 N.am      1 LEU        -0.2498
     22 CA          0.8010   -5.7940  -20.9630 C.3       1 LEU         0.1338
     23 C           1.0780   -6.7760  -19.7880 C.2       1 LEU         0.2042
     24 O           0.5010   -6.6710  -18.6960 O.2       1 LEU        -0.3944
     25 CB          1.5790   -4.5160  -20.6790 C.3       1 LEU        -0.0104
     26 CG          0.6740   -3.4200  -20.9810 C.3       1 LEU        -0.0281
     27 CD         -0.7270   -3.9140  -20.8990 C.3       1 LEU         0.0369
     28 N           1.9640   -7.7180  -20.0540 N.am      1 LEU        -0.2622
     29 CA          2.3420   -8.6850  -19.0540 C.3       1 LEU         0.1423
     30 C           2.8790   -8.0590  -17.7720 C.2       1 LEU         0.2056
     31 O           2.7170   -8.5920  -16.6680 O.2       1 LEU        -0.3943
     32 CB          3.3630   -9.6700  -19.6230 C.3       1 LEU         0.0406
     33 CG          3.7020  -10.7540  -18.6160 C.2       1 LEU         0.0393
     34 OD1         2.8830  -11.6430  -18.3900 O.co2     1 LEU        -0.5688
     35 OD2         4.7950  -10.6910  -18.0170 O.co2     1 LEU        -0.5688
     36 N           3.5370   -6.9080  -17.9400 N.am      1 LEU        -0.2636
     37 CA          4.0740   -6.1980  -16.8110 C.3       1 LEU         0.1312
     38 C           3.0420   -5.8830  -15.7380 C.2       1 LEU         0.2039
     39 O           3.3370   -5.9270  -14.5370 O.2       1 LEU        -0.3944
     40 CB          4.6770   -4.8840  -17.3240 C.3       1 LEU        -0.0101
     41 CG          5.0830   -3.8610  -16.2830 C.3       1 LEU        -0.0425
     42 CD1         6.3540   -4.2810  -15.5200 C.3       1 LEU        -0.0625
     43 CD2         5.2130   -2.4940  -16.9840 C.3       1 LEU        -0.0625
     44 N           1.8360   -5.5190  -16.1710 N.am      1 LEU        -0.2635
     45 CA          0.8320   -4.9570  -15.2810 C.3       1 LEU         0.1332
     46 C          -0.3900   -5.7510  -14.9190 C.2       1 LEU         0.2041
     47 O          -1.0490   -5.4280  -13.9420 O.2       1 LEU        -0.3944
     48 CB          0.3540   -3.5690  -15.8370 C.3       1 LEU        -0.0063
     49 CG1         1.5110   -2.6860  -16.2640 C.3       1 LEU        -0.0584
     50 CG2        -0.6840   -3.7430  -16.9430 C.3       1 LEU        -0.0584
     51 N          -0.7270   -6.7560  -15.6880 N.am      1 LEU        -0.2640
     52 CA         -1.9310   -7.5320  -15.3780 C.3       1 LEU         0.1282
     53 C          -1.8060   -8.2090  -14.0100 C.2       1 LEU         0.2036
     54 O          -0.7150   -8.6360  -13.6030 O.2       1 LEU        -0.3944
     55 CB         -2.2030   -8.5660  -16.4630 C.3       1 LEU        -0.0244
     56 N          -2.9220   -8.3070  -13.2960 N.am      1 LEU        -0.2637
     57 CA         -2.9170   -8.9060  -11.9660 C.3       1 LEU         0.1310
     58 C          -2.6410  -10.4010  -12.0080 C.2       1 LEU         0.2040
     59 O          -2.9190  -11.0680  -13.0080 O.2       1 LEU        -0.3944
     60 CB         -4.2560   -8.6690  -11.2680 C.3       1 LEU        -0.0122
     61 CG         -4.7210   -7.2200  -11.2300 C.3       1 LEU        -0.0440
     62 CD         -3.7250   -6.3290  -10.5000 C.3       1 LEU        -0.0124
     63 CE         -4.3430   -4.9690  -10.2080 C.3       1 LEU        -0.0354
     64 NZ         -3.3830   -4.0360   -9.5610 N.4       1 LEU         0.2185
     65 N          -2.1100  -10.9320  -10.9090 N.am      1 LEU        -0.2621
     66 CA         -1.9130  -12.3750  -10.7890 C.3       1 LEU         0.1390
     67 C          -2.9330  -13.0860   -9.9070 C.2       1 LEU         0.2053
     68 O          -3.0090  -14.3170   -9.8980 O.2       1 LEU        -0.3942
     69 CB         -0.5010  -12.6680  -10.2730 C.3       1 LEU         0.0163
     70 CG          0.5470  -12.4480  -11.3330 C.ar      1 LEU        -0.0493
     71 CD1         1.1240  -11.2020  -11.5200 C.ar      1 LEU        -0.0685
     72 CD2         0.9380  -13.4880  -12.1710 C.ar      1 LEU        -0.0685
     73 CE1         2.0690  -11.0020  -12.5050 C.ar      1 LEU        -0.0398
     74 CE2         1.8880  -13.3020  -13.1550 C.ar      1 LEU        -0.0398
     75 CZ          2.4420  -12.0630  -13.3190 C.ar      1 LEU         0.0805
     76 OH          3.3930  -11.8900  -14.3020 O.3       1 LEU        -0.3376
     77 N          -3.7110  -12.3230   -9.1530 N.am      1 LEU        -0.2672
     78 CA         -4.6570  -12.9370   -8.2230 C.3       1 LEU         0.1110
     79 C          -6.0430  -13.2120   -8.8170 C.2       1 LEU         0.0624
     80 O          -6.2420  -13.3130  -10.0330 O.co2     1 LEU        -0.5665
     81 CB         -4.7890  -12.0830   -6.9560 C.3       1 LEU         0.0718
     82 CG         -5.2520  -10.6700   -7.2420 C.2       1 LEU         0.1774
     83 OD1        -4.7700  -10.0190   -8.1670 O.2       1 LEU        -0.3971
     84 ND2        -6.1930  -10.1850   -6.4400 N.am      1 LEU        -0.3007
     85 OXT        -7.0090  -13.3690   -8.0670 O.co2     1 LEU        -0.5665
     86 H1         -3.6477   -7.0516  -29.5912 H         1 LEU         0.2015
     87 H2         -3.4650   -8.4246  -28.7018 H         1 LEU         0.2015
     88 H3         -2.4293   -7.1628  -28.4900 H         1 LEU         0.2015
     89 H4         -4.1451   -5.7774  -27.6449 H         1 LEU         0.1098
     90 H5         -6.3457   -6.7242  -27.1895 H         1 LEU         0.0348
     91 H6         -5.8470   -8.2891  -27.9169 H         1 LEU         0.0348
     92 H7         -5.6171   -7.2068  -30.1076 H         1 LEU         0.0299
     93 H8         -8.0199   -6.7864  -30.5046 H         1 LEU         0.0232
     94 H9         -8.2870   -6.6795  -28.7315 H         1 LEU         0.0232
     95 H10        -7.7498   -8.2277  -29.4672 H         1 LEU         0.0232
     96 H11        -5.0092   -4.9451  -29.3261 H         1 LEU         0.0232
     97 H12        -6.6811   -4.7114  -28.7125 H         1 LEU         0.0232
     98 H13        -6.3902   -4.9083  -30.4742 H         1 LEU         0.0232
     99 H14        -5.5437   -6.7123  -25.4684 H         1 LEU         0.1882
    100 H15        -3.7815   -8.5656  -24.0157 H         1 LEU         0.0763
    101 H16        -5.3370   -7.8764  -23.4395 H         1 LEU         0.0763
    102 H17        -4.5604   -7.2229  -21.4634 H         1 LEU         0.1883
    103 H18        -3.0936   -4.8107  -21.1751 H         1 LEU         0.0800
    104 H19        -2.7607   -5.5548  -18.8347 H         1 LEU         0.0315
    105 H20        -3.3617   -7.1869  -19.2839 H         1 LEU         0.0315
    106 H21        -5.5594   -6.0924  -19.8921 H         1 LEU         0.0298
    107 H22        -6.2925   -5.9055  -17.5374 H         1 LEU         0.0232
    108 H23        -4.5770   -5.8318  -17.0100 H         1 LEU         0.0232
    109 H24        -5.2155   -7.3218  -17.7840 H         1 LEU         0.0232
    110 H25        -4.6661   -3.8062  -20.1638 H         1 LEU         0.0232
    111 H26        -4.2796   -3.7511  -18.4104 H         1 LEU         0.0232
    112 H27        -5.9893   -3.8607  -18.9503 H         1 LEU         0.0232
    113 H28         1.0784   -6.2436  -21.9278 H         1 LEU         0.0802
    114 H29         2.4717   -4.4618  -21.3194 H         1 LEU         0.0313
    115 H30         1.8829   -4.4804  -19.6224 H         1 LEU         0.0313
    116 H31         0.8742   -3.0449  -21.9955 H         1 LEU         0.0287
    117 H32         0.8221   -2.6080  -20.2539 H         1 LEU         0.0287
    118 H33        -1.1984   -3.5930  -19.9584 H         1 LEU         0.0524
    119 H34        -1.3195   -3.5470  -21.7500 H         1 LEU         0.0524
    120 H35         2.3791   -7.7613  -20.9628 H         1 LEU         0.1884
    121 H36         1.4367   -9.2505  -18.7883 H         1 LEU         0.0819
    122 H37         4.2812   -9.1237  -19.8844 H         1 LEU         0.0478
    123 H38         2.9449  -10.1380  -20.5264 H         1 LEU         0.0478
    124 H39         3.6571   -6.5366  -18.8607 H         1 LEU         0.1883
    125 H40         4.8662   -6.8120  -16.3578 H         1 LEU         0.0800
    126 H41         3.9321   -4.4112  -17.9810 H         1 LEU         0.0315
    127 H42         5.5739   -5.1364  -17.9086 H         1 LEU         0.0315
    128 H43         4.2725   -3.7853  -15.5432 H         1 LEU         0.0298
    129 H44         6.6080   -3.5096  -14.7781 H         1 LEU         0.0232
    130 H45         7.1867   -4.3956  -16.2296 H         1 LEU         0.0232
    131 H46         6.1747   -5.2376  -15.0075 H         1 LEU         0.0232
    132 H47         4.2738   -2.2590  -17.5062 H         1 LEU         0.0232
    133 H48         6.0373   -2.5318  -17.7113 H         1 LEU         0.0232
    134 H49         5.4205   -1.7159  -16.2347 H         1 LEU         0.0232
    135 H50         1.6137   -5.6358  -17.1390 H         1 LEU         0.1883
    136 H51         1.3571   -4.7746  -14.3318 H         1 LEU         0.0802
    137 H52        -0.1483   -3.0497  -15.0076 H         1 LEU         0.0343
    138 H53         1.1217   -1.7299  -16.6440 H         1 LEU         0.0234
    139 H54         2.0836   -3.1897  -17.0567 H         1 LEU         0.0234
    140 H55         2.1667   -2.4979  -15.4010 H         1 LEU         0.0234
    141 H56        -1.4983   -4.3891  -16.5832 H         1 LEU         0.0234
    142 H57        -0.2100   -4.2054  -17.8213 H         1 LEU         0.0234
    143 H58        -1.0916   -2.7600  -17.2213 H         1 LEU         0.0234
    144 H59        -0.1664   -6.9924  -16.4816 H         1 LEU         0.1883
    145 H60        -2.7848   -6.8394  -15.3417 H         1 LEU         0.0797
    146 H61        -3.1096   -9.1347  -16.2085 H         1 LEU         0.0277
    147 H62        -1.3476   -9.2536  -16.5370 H         1 LEU         0.0277
    148 H63        -2.3483   -8.0565  -17.4270 H         1 LEU         0.0277
    149 H64        -3.7806   -7.9641  -13.6770 H         1 LEU         0.1883
    150 H65        -2.1223   -8.4235  -11.3780 H         1 LEU         0.0800
    151 H66        -4.1666   -9.0247  -10.2310 H         1 LEU         0.0312
    152 H67        -5.0222   -9.2583  -11.7930 H         1 LEU         0.0312
    153 H68        -5.6904   -7.1699  -10.7125 H         1 LEU         0.0269
    154 H69        -4.8366   -6.8553  -12.2613 H         1 LEU         0.0269
    155 H70        -2.8319   -6.1938  -11.1278 H         1 LEU         0.0317
    156 H71        -3.4379   -6.8075   -9.5520 H         1 LEU         0.0317
    157 H72        -5.2046   -5.1091   -9.5387 H         1 LEU         0.0813
    158 H73        -4.6829   -4.5249  -11.1552 H         1 LEU         0.0813
    159 H74        -3.8372   -3.1528   -9.3885 H         1 LEU         0.1994
    160 H75        -2.5914   -3.8936  -10.1686 H         1 LEU         0.1994
    161 H76        -3.0695   -4.4289   -8.6873 H         1 LEU         0.1994
    162 H77        -1.8417  -10.3341  -10.1537 H         1 LEU         0.1885
    163 H78        -2.0040  -12.7996  -11.7996 H         1 LEU         0.0821
    164 H79        -0.4550  -13.7157   -9.9409 H         1 LEU         0.0453
    165 H80        -0.2895  -12.0039   -9.4220 H         1 LEU         0.0453
    166 H81         0.8293  -10.3746  -10.8847 H         1 LEU         0.0530
    167 H82         0.4865  -14.4658  -12.0483 H         1 LEU         0.0530
    168 H83         2.5167  -10.0243  -12.6423 H         1 LEU         0.0525
    169 H84         2.1907  -14.1273  -13.7892 H         1 LEU         0.0525
    170 H85         3.6872  -10.9867  -14.3010 H         1 LEU         0.2458
    171 H86        -3.6510  -11.3271   -9.2202 H         1 LEU         0.1877
    172 H87        -4.2337  -13.9093   -7.9308 H         1 LEU         0.0752
    173 H88        -3.8082  -12.0371   -6.4602 H         1 LEU         0.0544
    174 H89        -5.5172  -12.5616   -6.2847 H         1 LEU         0.0544
    175 H90        -6.5392   -9.2572   -6.5792 H         1 LEU         0.1814
    176 H91        -6.5553  -10.7476   -5.6969 H         1 LEU         0.1814
@<TRIPOS>BOND
     1    1    2 1  
     2    2    3 1  
     3    2    5 1  
     4    3    4 2  
     5    3    9 am 
     6    5    6 1  
     7    6    7 1  
     8    6    8 1  
     9    9   10 1  
    10   10   11 1  
    11   11   12 2  
    12   11   13 am 
    13   13   14 1  
    14   14   15 1  
    15   14   17 1  
    16   15   16 2  
    17   15   21 am 
    18   17   18 1  
    19   18   19 1  
    20   18   20 1  
    21   21   22 1  
    22   21   27 1  
    23   22   23 1  
    24   22   25 1  
    25   23   24 2  
    26   23   28 am 
    27   25   26 1  
    28   26   27 1  
    29   28   29 1  
    30   29   30 1  
    31   29   32 1  
    32   30   31 2  
    33   30   36 am 
    34   32   33 1  
    35   33   34 ar 
    36   33   35 ar 
    37   36   37 1  
    38   37   38 1  
    39   37   40 1  
    40   38   39 2  
    41   38   44 am 
    42   40   41 1  
    43   41   42 1  
    44   41   43 1  
    45   44   45 1  
    46   45   46 1  
    47   45   48 1  
    48   46   47 2  
    49   46   51 am 
    50   48   49 1  
    51   48   50 1  
    52   51   52 1  
    53   52   53 1  
    54   52   55 1  
    55   53   54 2  
    56   53   56 am 
    57   56   57 1  
    58   57   58 1  
    59   57   60 1  
    60   58   59 2  
    61   58   65 am 
    62   60   61 1  
    63   61   62 1  
    64   62   63 1  
    65   63   64 1  
    66   65   66 1  
    67   66   67 1  
    68   66   69 1  
    69   67   68 2  
    70   67   77 am 
    71   69   70 1  
    72   70   71 ar 
    73   70   72 ar 
    74   71   73 ar 
    75   72   74 ar 
    76   73   75 ar 
    77   74   75 ar 
    78   75   76 1  
    79   77   78 1  
    80   78   79 1  
    81   78   81 1  
    82   79   80 ar 
    83   79   85 ar 
    84   81   82 1  
    85   82   83 2  
    86   82   84 am 
    87    1   86 1  
    88    1   87 1  
    89    1   88 1  
    90    2   89 1  
    91    5   90 1  
    92    5   91 1  
    93    6   92 1  
    94    7   93 1  
    95    7   94 1  
    96    7   95 1  
    97    8   96 1  
    98    8   97 1  
    99    8   98 1  
   100    9   99 1  
   101   10  100 1  
   102   10  101 1  
   103   13  102 1  
   104   14  103 1  
   105   17  104 1  
   106   17  105 1  
   107   18  106 1  
   108   19  107 1  
   109   19  108 1  
   110   19  109 1  
   111   20  110 1  
   112   20  111 1  
   113   20  112 1  
   114   22  113 1  
   115   25  114 1  
   116   25  115 1  
   117   26  116 1  
   118   26  117 1  
   119   27  118 1  
   120   27  119 1  
   121   28  120 1  
   122   29  121 1  
   123   32  122 1  
   124   32  123 1  
   125   36  124 1  
   126   37  125 1  
   127   40  126 1  
   128   40  127 1  
   129   41  128 1  
   130   42  129 1  
   131   42  130 1  
   132   42  131 1  
   133   43  132 1  
   134   43  133 1  
   135   43  134 1  
   136   44  135 1  
   137   45  136 1  
   138   48  137 1  
   139   49  138 1  
   140   49  139 1  
   141   49  140 1  
   142   50  141 1  
   143   50  142 1  
   144   50  143 1  
   145   51  144 1  
   146   52  145 1  
   147   55  146 1  
   148   55  147 1  
   149   55  148 1  
   150   56  149 1  
   151   57  150 1  
   152   60  151 1  
   153   60  152 1  
   154   61  153 1  
   155   61  154 1  
   156   62  155 1  
   157   62  156 1  
   158   63  157 1  
   159   63  158 1  
   160   64  159 1  
   161   64  160 1  
   162   64  161 1  
   163   65  162 1  
   164   66  163 1  
   165   69  164 1  
   166   69  165 1  
   167   71  166 1  
   168   72  167 1  
   169   73  168 1  
   170   74  169 1  
   171   76  170 1  
   172   77  171 1  
   173   78  172 1  
   174   81  173 1  
   175   81  174 1  
   176   84  175 1  
   177   84  176 1  
@<TRIPOS>SUBSTRUCTURE
     1 LEU         1

