6gy5_ligand
  -I-interpret- 

178179  0  0  0  0  0  0  0  0999 V2000
   -3.3830   -7.4200  -28.6910 N   0  3  0  0  0
   -4.2620   -6.8710  -27.6630 C   0  0  0  0  0
   -3.8580   -7.4300  -26.3080 C   0  0  0  0  0
   -2.8010   -8.0560  -26.1810 O   0  0  0  0  0
   -5.7240   -7.1970  -27.9640 C   0  0  0  0  0
   -6.2230   -6.7220  -29.3280 C   0  0  0  0  0
   -7.6690   -7.1320  -29.5210 C   0  0  0  0  0
   -6.0650   -5.2180  -29.4700 C   0  0  0  0  0
   -4.6900   -7.2040  -25.2970 N   0  0  0  0  0
   -4.3910   -7.6520  -23.9540 C   0  0  0  0  0
   -3.6340   -6.6190  -23.1460 C   0  0  0  0  0
   -2.8730   -5.8070  -23.6910 O   0  0  0  0  0
   -3.8280   -6.6530  -21.8360 N   0  0  0  0  0
   -2.9980   -5.8790  -20.9310 C   0  0  0  0  0
   -1.5410   -6.3030  -21.0800 C   0  0  0  0  0
   -1.2650   -7.4860  -21.2780 O   0  0  0  0  0
   -3.4470   -6.1100  -19.4910 C   0  0  0  0  0
   -4.8690   -5.6830  -19.1400 C   0  0  0  0  0
   -5.2660   -6.2230  -17.7730 C   0  0  0  0  0
   -4.9570   -4.1720  -19.1680 C   0  0  0  0  0
   -0.6020   -5.3770  -20.9450 N   0  0  0  0  0
    0.8010   -5.7940  -20.9630 C   0  0  0  0  0
    1.0780   -6.7760  -19.7880 C   0  0  0  0  0
    0.5010   -6.6710  -18.6960 O   0  0  0  0  0
    1.5790   -4.5160  -20.6790 C   0  0  0  0  0
    0.6740   -3.4200  -20.9810 C   0  0  0  0  0
   -0.7270   -3.9140  -20.8990 C   0  0  0  0  0
    1.9640   -7.7180  -20.0540 N   0  0  0  0  0
    2.3420   -8.6850  -19.0540 C   0  0  0  0  0
    2.8790   -8.0590  -17.7720 C   0  0  0  0  0
    2.7170   -8.5920  -16.6680 O   0  0  0  0  0
    3.3630   -9.6700  -19.6230 C   0  0  0  0  0
    3.7020  -10.7540  -18.6160 C   0  0  0  0  0
    2.8830  -11.6430  -18.3900 O   0  0  0  0  0
    4.7950  -10.6910  -18.0170 O   0  0  0  0  0
    3.5370   -6.9080  -17.9400 N   0  0  0  0  0
    4.0740   -6.1980  -16.8110 C   0  0  0  0  0
    3.0420   -5.8830  -15.7380 C   0  0  0  0  0
    3.3370   -5.9270  -14.5370 O   0  0  0  0  0
    4.6770   -4.8840  -17.3240 C   0  0  0  0  0
    5.0830   -3.8610  -16.2830 C   0  0  0  0  0
    6.3540   -4.2810  -15.5200 C   0  0  0  0  0
    5.2130   -2.4940  -16.9840 C   0  0  0  0  0
    1.8360   -5.5190  -16.1710 N   0  0  0  0  0
    0.8320   -4.9570  -15.2810 C   0  0  0  0  0
   -0.3900   -5.7510  -14.9190 C   0  0  0  0  0
   -1.0490   -5.4280  -13.9420 O   0  0  0  0  0
    0.3540   -3.5690  -15.8370 C   0  0  0  0  0
    1.5110   -2.6860  -16.2640 C   0  0  0  0  0
   -0.6840   -3.7430  -16.9430 C   0  0  0  0  0
   -0.7270   -6.7560  -15.6880 N   0  0  0  0  0
   -1.9310   -7.5320  -15.3780 C   0  0  0  0  0
   -1.8060   -8.2090  -14.0100 C   0  0  0  0  0
   -0.7150   -8.6360  -13.6030 O   0  0  0  0  0
   -2.2030   -8.5660  -16.4630 C   0  0  0  0  0
   -2.9220   -8.3070  -13.2960 N   0  0  0  0  0
   -2.9170   -8.9060  -11.9660 C   0  0  0  0  0
   -2.6410  -10.4010  -12.0080 C   0  0  0  0  0
   -2.9190  -11.0680  -13.0080 O   0  0  0  0  0
   -4.2560   -8.6690  -11.2680 C   0  0  0  0  0
   -4.7210   -7.2200  -11.2300 C   0  0  0  0  0
   -3.7250   -6.3290  -10.5000 C   0  0  0  0  0
   -4.3430   -4.9690  -10.2080 C   0  0  0  0  0
   -3.3830   -4.0360   -9.5610 N   0  3  0  0  0
   -2.1100  -10.9320  -10.9090 N   0  0  0  0  0
   -1.9130  -12.3750  -10.7890 C   0  0  0  0  0
   -2.9330  -13.0860   -9.9070 C   0  0  0  0  0
   -3.0090  -14.3170   -9.8980 O   0  0  0  0  0
   -0.5010  -12.6680  -10.2730 C   0  0  0  0  0
    0.5470  -12.4480  -11.3330 C   0  0  0  0  0
    1.1240  -11.2020  -11.5200 C   0  0  0  0  0
    0.9380  -13.4880  -12.1710 C   0  0  0  0  0
    2.0690  -11.0020  -12.5050 C   0  0  0  0  0
    1.8880  -13.3020  -13.1550 C   0  0  0  0  0
    2.4420  -12.0630  -13.3190 C   0  0  0  0  0
    3.3930  -11.8900  -14.3020 O   0  0  0  0  0
   -3.7110  -12.3230   -9.1530 N   0  0  0  0  0
   -4.6570  -12.9370   -8.2230 C   0  0  0  0  0
   -6.0430  -13.2120   -8.8170 C   0  0  0  0  0
   -6.2420  -13.3130  -10.0330 O   0  0  0  0  0
   -4.7890  -12.0830   -6.9560 C   0  0  0  0  0
   -5.2520  -10.6700   -7.2420 C   0  0  0  0  0
   -4.7700  -10.0190   -8.1670 O   0  0  0  0  0
   -6.1930  -10.1850   -6.4400 N   0  0  0  0  0
   -7.0090  -13.3690   -8.0670 O   0  0  0  0  0
   -2.4149   -7.1893  -28.4675 H   0  0  0  0  0
   -3.4931   -8.4335  -28.7250 H   0  0  0  0  0
   -3.6290   -7.0195  -29.5963 H   0  0  0  0  0
   -4.1611   -5.7857  -27.6516 H   0  0  0  0  0
   -6.3227   -6.6820  -27.2127 H   0  0  0  0  0
   -5.8124   -8.2834  -27.9571 H   0  0  0  0  0
   -5.6188   -7.1936  -30.1030 H   0  0  0  0  0
   -8.2879   -6.6407  -28.7702 H   0  0  0  0  0
   -7.9995   -6.8359  -30.5166 H   0  0  0  0  0
   -7.7560   -8.2133  -29.4145 H   0  0  0  0  0
   -6.3876   -4.9124  -30.4653 H   0  0  0  0  0
   -6.6760   -4.7173  -28.7190 H   0  0  0  0  0
   -5.0185   -4.9488  -29.3272 H   0  0  0  0  0
   -5.5608   -6.7024  -25.4719 H   0  0  0  0  0
   -3.7647   -8.5408  -24.0302 H   0  0  0  0  0
   -5.3370   -7.8442  -23.4478 H   0  0  0  0  0
   -4.5750   -7.2343  -21.4559 H   0  0  0  0  0
   -3.0964   -4.8213  -21.1754 H   0  0  0  0  0
   -2.7890   -5.5021  -18.8701 H   0  0  0  0  0
   -3.4098   -7.1880  -19.3341 H   0  0  0  0  0
   -5.5621   -6.0940  -19.8740 H   0  0  0  0  0
   -5.2155   -7.3118  -17.7852 H   0  0  0  0  0
   -4.5825   -5.8347  -17.0179 H   0  0  0  0  0
   -6.2832   -5.9078  -17.5407 H   0  0  0  0  0
   -4.2596   -3.7552  -18.4413 H   0  0  0  0  0
   -4.7025   -3.8129  -20.1652 H   0  0  0  0  0
   -5.9721   -3.8637  -18.9176 H   0  0  0  0  0
    1.0665   -6.2794  -21.9021 H   0  0  0  0  0
    2.4823   -4.4607  -21.2866 H   0  0  0  0  0
    1.9115   -4.4787  -19.6416 H   0  0  0  0  0
    0.8735   -3.0437  -21.9843 H   0  0  0  0  0
    0.8220   -2.6122  -20.2643 H   0  0  0  0  0
   -1.2285   -3.5743  -19.9928 H   0  0  0  0  0
   -1.3446   -3.5302  -21.7110 H   0  0  0  0  0
    2.3874   -7.7622  -20.9809 H   0  0  0  0  0
    1.4275   -9.2123  -18.7826 H   0  0  0  0  0
    4.2746   -9.1240  -19.8659 H   0  0  0  0  0
    2.9361  -10.1400  -20.5090 H   0  0  0  0  0
    5.2886   -9.9307  -18.3332 H   0  0  0  0  0
    3.6595   -6.5292  -18.8791 H   0  0  0  0  0
    4.8183   -6.8419  -16.3425 H   0  0  0  0  0
    3.8957   -4.4100  -17.9182 H   0  0  0  0  0
    5.5946   -5.1604  -17.8433 H   0  0  0  0  0
    4.3172   -3.7879  -15.5108 H   0  0  0  0  0
    6.1751   -5.2290  -15.0126 H   0  0  0  0  0
    7.1782   -4.3942  -16.2242 H   0  0  0  0  0
    6.6047   -3.5159  -14.7853 H   0  0  0  0  0
    5.9706   -2.5582  -17.7651 H   0  0  0  0  0
    4.2550   -2.2216  -17.4268 H   0  0  0  0  0
    5.5051   -1.7391  -16.2540 H   0  0  0  0  0
    1.6093   -5.6382  -17.1583 H   0  0  0  0  0
    1.3859   -4.9170  -14.3431 H   0  0  0  0  0
   -0.1343   -3.0447  -15.0156 H   0  0  0  0  0
    2.1599   -2.5004  -15.4081 H   0  0  0  0  0
    2.0776   -3.1862  -17.0494 H   0  0  0  0  0
    1.1241   -1.7390  -16.6403 H   0  0  0  0  0
   -0.2477   -4.3142  -17.7624 H   0  0  0  0  0
   -1.5488   -4.2755  -16.5473 H   0  0  0  0  0
   -0.9939   -2.7631  -17.3061 H   0  0  0  0  0
   -0.1552   -6.9972  -16.4975 H   0  0  0  0  0
   -2.7750   -6.8432  -15.3424 H   0  0  0  0  0
   -2.3468   -8.0599  -17.4176 H   0  0  0  0  0
   -1.3547   -9.2466  -16.5353 H   0  0  0  0  0
   -3.1015   -9.1288  -16.2097 H   0  0  0  0  0
   -3.7978   -7.9572  -13.6847 H   0  0  0  0  0
   -2.1125   -8.4250  -11.4096 H   0  0  0  0  0
   -4.1285   -8.9835  -10.2322 H   0  0  0  0  0
   -5.0055   -9.2230  -11.8333 H   0  0  0  0  0
   -5.6726   -7.1781  -10.7001 H   0  0  0  0  0
   -4.8153   -6.8622  -12.2553 H   0  0  0  0  0
   -2.8453   -6.1912  -11.1286 H   0  0  0  0  0
   -3.4492   -6.8029   -9.5579 H   0  0  0  0  0
   -5.1793   -5.1187   -9.5252 H   0  0  0  0  0
   -4.6530   -4.5294  -11.1560 H   0  0  0  0  0
   -3.8437   -3.1428   -9.3869 H   0  0  0  0  0
   -3.0665   -4.4347   -8.6771 H   0  0  0  0  0
   -2.5825   -3.8928  -10.1767 H   0  0  0  0  0
   -1.8363  -10.3222  -10.1385 H   0  0  0  0  0
   -2.0553  -12.7726  -11.7939 H   0  0  0  0  0
   -0.4610  -13.7135   -9.9672 H   0  0  0  0  0
   -0.2943  -11.9902   -9.4448 H   0  0  0  0  0
    0.8277  -10.3700  -10.8812 H   0  0  0  0  0
    0.4840  -14.4712  -12.0476 H   0  0  0  0  0
    2.5191  -10.0189  -12.6430 H   0  0  0  0  0
    2.1924  -14.1319  -13.7927 H   0  0  0  0  0
    3.5274  -12.7200  -14.7652 H   0  0  0  0  0
   -3.6498  -11.3072   -9.2216 H   0  0  0  0  0
   -4.2369  -13.9133   -7.9811 H   0  0  0  0  0
   -5.4177  -13.1706  -10.5039 H   0  0  0  0  0
   -3.8047  -12.0228   -6.4916 H   0  0  0  0  0
   -5.5338  -12.5534   -6.3140 H   0  0  0  0  0
   -6.5435   -9.2374   -6.5798 H   0  0  0  0  0
   -6.5652  -10.7602   -5.6843 H   0  0  0  0  0
  1  2  1  0  0  0
  2  3  1  0  0  0
  2  5  1  0  0  0
  3  4  2  0  0  0
  3  9  1  0  0  0
  5  6  1  0  0  0
  6  7  1  0  0  0
  6  8  1  0  0  0
  9 10  1  0  0  0
 10 11  1  0  0  0
 11 12  2  0  0  0
 11 13  1  0  0  0
 13 14  1  0  0  0
 14 15  1  0  0  0
 14 17  1  0  0  0
 15 16  2  0  0  0
 15 21  1  0  0  0
 17 18  1  0  0  0
 18 19  1  0  0  0
 18 20  1  0  0  0
 21 22  1  0  0  0
 21 27  1  0  0  0
 22 23  1  0  0  0
 22 25  1  0  0  0
 23 24  2  0  0  0
 23 28  1  0  0  0
 25 26  1  0  0  0
 26 27  1  0  0  0
 28 29  1  0  0  0
 29 30  1  0  0  0
 29 32  1  0  0  0
 30 31  2  0  0  0
 30 36  1  0  0  0
 32 33  1  0  0  0
 33 34  2  0  0  0
 33 35  1  0  0  0
 36 37  1  0  0  0
 37 38  1  0  0  0
 37 40  1  0  0  0
 38 39  2  0  0  0
 38 44  1  0  0  0
 40 41  1  0  0  0
 41 42  1  0  0  0
 41 43  1  0  0  0
 44 45  1  0  0  0
 45 46  1  0  0  0
 45 48  1  0  0  0
 46 47  2  0  0  0
 46 51  1  0  0  0
 48 49  1  0  0  0
 48 50  1  0  0  0
 51 52  1  0  0  0
 52 53  1  0  0  0
 52 55  1  0  0  0
 53 54  2  0  0  0
 53 56  1  0  0  0
 56 57  1  0  0  0
 57 58  1  0  0  0
 57 60  1  0  0  0
 58 59  2  0  0  0
 58 65  1  0  0  0
 60 61  1  0  0  0
 61 62  1  0  0  0
 62 63  1  0  0  0
 63 64  1  0  0  0
 65 66  1  0  0  0
 66 67  1  0  0  0
 66 69  1  0  0  0
 67 68  2  0  0  0
 67 77  1  0  0  0
 69 70  1  0  0  0
 70 71  4  0  0  0
 70 72  4  0  0  0
 71 73  4  0  0  0
 72 74  4  0  0  0
 73 75  4  0  0  0
 74 75  4  0  0  0
 75 76  1  0  0  0
 77 78  1  0  0  0
 78 79  1  0  0  0
 78 81  1  0  0  0
 79 80  1  0  0  0
 79 85  2  0  0  0
 81 82  1  0  0  0
 82 83  2  0  0  0
 82 84  1  0  0  0
  1 86  1  0  0  0
  1 87  1  0  0  0
  1 88  1  0  0  0
  2 89  1  0  0  0
  5 90  1  0  0  0
  5 91  1  0  0  0
  6 92  1  0  0  0
  7 93  1  0  0  0
  7 94  1  0  0  0
  7 95  1  0  0  0
  8 96  1  0  0  0
  8 97  1  0  0  0
  8 98  1  0  0  0
  9 99  1  0  0  0
 10100  1  0  0  0
 10101  1  0  0  0
 13102  1  0  0  0
 14103  1  0  0  0
 17104  1  0  0  0
 17105  1  0  0  0
 18106  1  0  0  0
 19107  1  0  0  0
 19108  1  0  0  0
 19109  1  0  0  0
 20110  1  0  0  0
 20111  1  0  0  0
 20112  1  0  0  0
 22113  1  0  0  0
 25114  1  0  0  0
 25115  1  0  0  0
 26116  1  0  0  0
 26117  1  0  0  0
 27118  1  0  0  0
 27119  1  0  0  0
 28120  1  0  0  0
 29121  1  0  0  0
 32122  1  0  0  0
 32123  1  0  0  0
 35124  1  0  0  0
 36125  1  0  0  0
 37126  1  0  0  0
 40127  1  0  0  0
 40128  1  0  0  0
 41129  1  0  0  0
 42130  1  0  0  0
 42131  1  0  0  0
 42132  1  0  0  0
 43133  1  0  0  0
 43134  1  0  0  0
 43135  1  0  0  0
 44136  1  0  0  0
 45137  1  0  0  0
 48138  1  0  0  0
 49139  1  0  0  0
 49140  1  0  0  0
 49141  1  0  0  0
 50142  1  0  0  0
 50143  1  0  0  0
 50144  1  0  0  0
 51145  1  0  0  0
 52146  1  0  0  0
 55147  1  0  0  0
 55148  1  0  0  0
 55149  1  0  0  0
 56150  1  0  0  0
 57151  1  0  0  0
 60152  1  0  0  0
 60153  1  0  0  0
 61154  1  0  0  0
 61155  1  0  0  0
 62156  1  0  0  0
 62157  1  0  0  0
 63158  1  0  0  0
 63159  1  0  0  0
 64160  1  0  0  0
 64161  1  0  0  0
 64162  1  0  0  0
 65163  1  0  0  0
 66164  1  0  0  0
 69165  1  0  0  0
 69166  1  0  0  0
 71167  1  0  0  0
 72168  1  0  0  0
 73169  1  0  0  0
 74170  1  0  0  0
 76171  1  0  0  0
 77172  1  0  0  0
 78173  1  0  0  0
 80174  1  0  0  0
 81175  1  0  0  0
 81176  1  0  0  0
 84177  1  0  0  0
 84178  1  0  0  0
M  END
$$$$
