6hgg_ligand
  -I-interpret- 

 56 59  0  0  0  0  0  0  0  0999 V2000
   -5.1580   21.6460   86.8110 C   0  0  0  0  0
   -5.2940   21.4490   88.3380 C   0  0  0  0  0
   -4.0370   20.8240   88.8670 C   0  0  0  0  0
   -2.7760   21.3400   88.3100 C   0  0  0  0  0
   -2.6660   21.8240   87.0720 C   0  0  0  0  0
   -1.3350   22.3150   86.6200 C   0  0  0  0  0
   -1.0650   22.1880   85.1410 C   0  0  0  0  0
   -2.2530   22.5690   84.3130 C   0  0  0  0  0
   -3.5660   21.9360   84.8050 C   0  0  0  0  0
   -3.8470   22.3090   86.3170 C   0  0  0  0  0
   -4.4080   21.8360   82.3410 C   0  0  0  0  0
   -4.7700   22.1610   83.8510 C   0  0  0  0  0
   -3.0710   22.4260   81.9140 C   0  0  0  0  0
   -1.9900   22.0380   82.9130 C   0  0  0  0  0
   -0.7050   22.5450   82.2380 C   0  0  0  0  0
   -0.9000   22.1430   80.7340 C   0  0  0  0  0
   -2.4150   21.8510   80.5540 C   0  0  0  0  0
   -3.1790   23.9670   81.7420 C   0  0  0  0  0
   -3.9460   23.8670   86.5690 C   0  0  0  0  0
   -3.0410   22.5130   79.3400 C   0  0  0  0  0
   -4.2970   21.8500   78.7770 C   0  0  0  0  0
   -4.0630   19.9170   89.6980 O   0  0  0  0  0
   -5.2740   23.4340   83.9770 O   0  0  0  0  0
   -2.6450   20.4990   80.4340 O   0  0  0  0  0
   -2.5850   23.5010   78.8160 O   0  0  0  0  0
   -4.0550   21.7410   77.3880 O   0  0  0  0  0
   -5.9658   22.3170   86.5188 H   0  0  0  0  0
   -5.1763   20.6477   86.3738 H   0  0  0  0  0
   -6.1433   20.7993   88.5494 H   0  0  0  0  0
   -5.4539   22.4139   88.8191 H   0  0  0  0  0
   -1.8873   21.3259   88.9410 H   0  0  0  0  0
   -0.5893   21.7016   87.1258 H   0  0  0  0  0
   -1.3014   23.3795   86.8518 H   0  0  0  0  0
   -0.8245   21.1462   84.9289 H   0  0  0  0  0
   -0.2457   22.8607   84.8874 H   0  0  0  0  0
   -2.3734   23.6511   84.3643 H   0  0  0  0  0
   -3.4301   20.8549   84.7761 H   0  0  0  0  0
   -5.1822   22.2736   81.7108 H   0  0  0  0  0
   -4.3422   20.7527   82.2395 H   0  0  0  0  0
   -5.5473   21.4581   84.1508 H   0  0  0  0  0
   -1.9357   20.9679   83.1128 H   0  0  0  0  0
    0.1953   22.1115   82.6735 H   0  0  0  0  0
   -0.5588   23.6172   82.3688 H   0  0  0  0  0
   -0.2994   21.2694   80.4806 H   0  0  0  0  0
   -0.5729   22.9422   80.0689 H   0  0  0  0  0
   -3.9243   24.1949   80.9800 H   0  0  0  0  0
   -3.4765   24.4171   82.6891 H   0  0  0  0  0
   -2.2117   24.3659   81.4367 H   0  0  0  0  0
   -3.0069   24.3405   86.2825 H   0  0  0  0  0
   -4.7593   24.2794   85.9719 H   0  0  0  0  0
   -4.1397   24.0513   87.6257 H   0  0  0  0  0
   -5.1935   22.4327   78.9886 H   0  0  0  0  0
   -4.4831   20.8783   79.2344 H   0  0  0  0  0
   -6.0153   23.5443   83.3771 H   0  0  0  0  0
   -2.2476   20.1789   79.6209 H   0  0  0  0  0
   -4.8111   21.3284   76.9640 H   0  0  0  0  0
  1  2  1  0  0  0
  1 10  1  0  0  0
  2  3  1  0  0  0
  3  4  1  0  0  0
  3 22  2  0  0  0
  4  5  2  0  0  0
  5  6  1  0  0  0
  5 10  1  0  0  0
  6  7  1  0  0  0
  7  8  1  0  0  0
  8  9  1  0  0  0
  8 14  1  0  0  0
  9 10  1  0  0  0
  9 12  1  0  0  0
 10 19  1  0  0  0
 12 11  1  0  0  0
 11 13  1  0  0  0
 12 23  1  0  0  0
 13 14  1  0  0  0
 13 17  1  0  0  0
 13 18  1  0  0  0
 14 15  1  0  0  0
 15 16  1  0  0  0
 16 17  1  0  0  0
 17 20  1  0  0  0
 17 24  1  0  0  0
 20 21  1  0  0  0
 20 25  2  0  0  0
 21 26  1  0  0  0
  1 27  1  0  0  0
  1 28  1  0  0  0
  2 29  1  0  0  0
  2 30  1  0  0  0
  4 31  1  0  0  0
  6 32  1  0  0  0
  6 33  1  0  0  0
  7 34  1  0  0  0
  7 35  1  0  0  0
  8 36  1  0  0  0
  9 37  1  0  0  0
 11 38  1  0  0  0
 11 39  1  0  0  0
 12 40  1  0  0  0
 14 41  1  0  0  0
 15 42  1  0  0  0
 15 43  1  0  0  0
 16 44  1  0  0  0
 16 45  1  0  0  0
 18 46  1  0  0  0
 18 47  1  0  0  0
 18 48  1  0  0  0
 19 49  1  0  0  0
 19 50  1  0  0  0
 19 51  1  0  0  0
 21 52  1  0  0  0
 21 53  1  0  0  0
 23 54  1  0  0  0
 24 55  1  0  0  0
 26 56  1  0  0  0
M  END
$$$$
