1etz_ligand
  -I-interpret- 

 51 53  0  0  0  0  0  0  0  0999 V2000
    8.9410   39.1790  -30.0280 C   0  0  0  0  0
    9.4310   38.0070  -29.4770 C   0  0  0  0  0
    8.7410   36.8200  -29.6320 C   0  0  0  0  0
    7.5530   36.8020  -30.3360 C   0  0  0  0  0
    7.0600   37.9730  -30.8870 C   0  0  0  0  0
    7.7560   39.1720  -30.7420 C   0  0  0  0  0
    7.3150   40.3360  -31.3810 C   0  0  0  0  0
    6.5700   41.3630  -30.6820 N   0  0  0  0  0
    7.2260   40.3030  -32.7520 C   0  0  0  0  0
    6.1920   40.9790  -33.3650 C   0  0  0  0  0
    6.0970   40.9860  -34.7340 C   0  0  0  0  0
    7.0400   40.3140  -35.4950 C   0  0  0  0  0
    8.0790   39.6340  -34.8860 C   0  0  0  0  0
    8.1720   39.6300  -33.5110 C   0  0  0  0  0
    7.1340   42.0790  -29.7140 C   0  0  0  0  0
    7.8890   43.1400  -30.0320 N   0  0  0  0  0
    8.8550   43.7660  -29.1250 C   0  0  0  0  0
    9.8120   42.9410  -28.2740 C   0  0  0  0  0
   10.3800   43.5230  -27.3280 O   0  0  0  0  0
   10.2010   41.8230  -28.6830 O   0  0  0  0  0
    7.4300   41.4320  -28.5930 N   0  0  0  0  0
    6.6980   40.5900  -27.5150 C   0  0  0  0  0
    7.2200   39.3550  -27.1680 C   0  0  0  0  0
    6.5670   38.5500  -26.2750 C   0  0  0  0  0
    5.3850   38.9600  -25.7120 C   0  0  0  0  0
    4.6560   37.9990  -24.7990 C   0  0  0  0  0
    4.1220   37.2440  -24.1020 N   0  0  0  0  0
    4.8530   40.2000  -26.0230 C   0  0  0  0  0
    5.5110   41.0220  -26.9300 C   0  0  0  0  0
    9.4912   40.1110  -29.8987 H   0  0  0  0  0
   10.3665   38.0209  -28.9177 H   0  0  0  0  0
    9.1335   35.8997  -29.1995 H   0  0  0  0  0
    7.0045   35.8680  -30.4577 H   0  0  0  0  0
    6.1200   37.9570  -31.4386 H   0  0  0  0  0
    8.2500   40.8567  -31.1742 H   0  0  0  0  0
    5.8259   40.8502  -30.2089 H   0  0  0  0  0
    5.4518   41.5066  -32.7634 H   0  0  0  0  0
    5.2811   41.5193  -35.2219 H   0  0  0  0  0
    6.9623   40.3214  -36.5822 H   0  0  0  0  0
    8.8180   39.1057  -35.4884 H   0  0  0  0  0
    8.9878   39.0988  -33.0207 H   0  0  0  0  0
    6.2530   42.6493  -29.4195 H   0  0  0  0  0
    7.1954   43.8765  -30.1620 H   0  0  0  0  0
    8.2278   44.2709  -28.3903 H   0  0  0  0  0
    9.5159   44.3170  -29.7940 H   0  0  0  0  0
    9.6440   41.5384  -29.4113 H   0  0  0  0  0
    8.4242   41.5113  -28.3792 H   0  0  0  0  0
    8.1589   39.0216  -27.6100 H   0  0  0  0  0
    6.9872   37.5798  -26.0100 H   0  0  0  0  0
    3.9234   40.5295  -25.5590 H   0  0  0  0  0
    5.0999   41.9996  -27.1819 H   0  0  0  0  0
  1  2  4  0  0  0
  1  6  4  0  0  0
  2  3  4  0  0  0
  3  4  4  0  0  0
  4  5  4  0  0  0
  5  6  4  0  0  0
  6  7  1  0  0  0
  7  8  1  0  0  0
  7  9  1  0  0  0
  8 15  1  0  0  0
  9 10  4  0  0  0
  9 14  4  0  0  0
 10 11  4  0  0  0
 11 12  4  0  0  0
 12 13  4  0  0  0
 13 14  4  0  0  0
 15 16  1  0  0  0
 15 21  1  0  0  0
 16 17  1  0  0  0
 17 18  1  0  0  0
 18 19  2  0  0  0
 18 20  1  0  0  0
 21 22  1  0  0  0
 22 23  4  0  0  0
 22 29  4  0  0  0
 23 24  4  0  0  0
 24 25  4  0  0  0
 25 26  1  0  0  0
 25 28  4  0  0  0
 26 27  3  0  0  0
 28 29  4  0  0  0
  1 30  1  0  0  0
  2 31  1  0  0  0
  3 32  1  0  0  0
  4 33  1  0  0  0
  5 34  1  0  0  0
  7 35  1  0  0  0
  8 36  1  0  0  0
 10 37  1  0  0  0
 11 38  1  0  0  0
 12 39  1  0  0  0
 13 40  1  0  0  0
 14 41  1  0  0  0
 15 42  1  0  0  0
 16 43  1  0  0  0
 17 44  1  0  0  0
 17 45  1  0  0  0
 20 46  1  0  0  0
 21 47  1  0  0  0
 23 48  1  0  0  0
 24 49  1  0  0  0
 28 50  1  0  0  0
 29 51  1  0  0  0
M  END
$$$$
