6ft3_ligand
  -I-interpret- 

 36 38  0  0  0  0  0  0  0  0999 V2000
   32.9910   15.3120   -1.6910 C   0  0  0  0  0
   28.0110   17.7630   -4.5330 C   0  0  0  0  0
   31.0510   18.7950    1.5550 C   0  0  0  0  0
   30.1350   16.4130   -0.2920 C   0  0  0  0  0
   29.3190   16.2190    0.8360 C   0  0  0  0  0
   29.6550   16.1950   -1.5350 C   0  0  0  0  0
   28.3130   15.7670   -1.6830 C   0  0  0  0  0
   27.5000   15.5240   -0.5480 C   0  0  0  0  0
   27.9880   15.7950    0.7190 C   0  0  0  0  0
   27.8100   15.5970   -3.0510 C   0  0  0  0  0
   27.1850   16.8850   -3.6110 C   0  0  0  0  0
   33.2800   18.0020    0.6020 N   0  0  0  0  0
   31.9300   17.8980    0.7090 C   0  0  0  0  0
   33.6810   17.0830   -0.2540 O   0  0  0  0  0
   32.7000   16.4110   -0.6970 C   0  0  0  0  0
   31.5350   16.8790   -0.1170 C   0  0  0  0  0
   27.2570   15.6360    1.8850 O   0  0  0  0  0
   28.8300   15.1350   -3.9610 O   0  0  0  0  0
   26.8620   16.9870   -5.1030 C   0  0  0  0  0
   33.4671   15.7389   -2.5737 H   0  0  0  0  0
   33.6573   14.5792   -1.2358 H   0  0  0  0  0
   32.0579   14.8274   -1.9784 H   0  0  0  0  0
   29.0633   17.9351   -4.7591 H   0  0  0  0  0
   28.3874   18.7857   -4.5546 H   0  0  0  0  0
   31.3530   18.7171    2.5994 H   0  0  0  0  0
   31.1582   19.8268    1.2204 H   0  0  0  0  0
   30.0113   18.4845    1.4520 H   0  0  0  0  0
   29.7321   16.4031    1.8278 H   0  0  0  0  0
   30.2889   16.3457   -2.4088 H   0  0  0  0  0
   26.4933   15.1249   -0.6721 H   0  0  0  0  0
   27.0353   14.8339   -2.9755 H   0  0  0  0  0
   26.6244   17.0310   -2.6877 H   0  0  0  0  0
   26.3686   15.3446    1.6672 H   0  0  0  0  0
   28.4543   15.0395   -4.8392 H   0  0  0  0  0
   26.6631   16.3211   -5.9427 H   0  0  0  0  0
   25.9954   17.1613   -5.7407 H   0  0  0  0  0
 15  1  1  0  0  0
 11  2  1  0  0  0
 19  2  1  0  0  0
 13  3  1  0  0  0
  4  5  4  0  0  0
  4  6  4  0  0  0
 16  4  1  0  0  0
  5  9  4  0  0  0
  6  7  4  0  0  0
  7  8  4  0  0  0
  7 10  1  0  0  0
  9  8  4  0  0  0
  9 17  1  0  0  0
 10 11  1  0  0  0
 10 18  1  0  0  0
 11 19  1  0  0  0
 12 13  4  0  0  0
 14 12  4  0  0  0
 13 16  4  0  0  0
 14 15  4  0  0  0
 15 16  4  0  0  0
  1 20  1  0  0  0
  1 21  1  0  0  0
  1 22  1  0  0  0
  2 23  1  0  0  0
  2 24  1  0  0  0
  3 25  1  0  0  0
  3 26  1  0  0  0
  3 27  1  0  0  0
  5 28  1  0  0  0
  6 29  1  0  0  0
  8 30  1  0  0  0
 10 31  1  0  0  0
 11 32  1  0  0  0
 17 33  1  0  0  0
 18 34  1  0  0  0
 19 35  1  0  0  0
 19 36  1  0  0  0
M  END
$$$$
