2ael_ligand
  -I-interpret- 

 41 41  0  0  0  0  0  0  0  0999 V2000
   38.1100   72.2130   35.1580 C   0  0  0  0  0
   38.6790   70.7410   35.2550 C   0  0  0  0  0
   36.6010   72.1120   34.7780 C   0  0  0  0  0
   38.0410   70.0760   36.5180 C   0  0  0  0  0
   35.8650   71.2050   35.7960 C   0  0  0  0  0
   38.8470   73.1630   34.1990 N   0  3  0  0  0
   38.4460   74.8150   37.2320 C   0  0  0  0  0
   38.4460   75.1940   35.7700 C   0  0  0  0  0
   39.4210   74.3550   34.8810 C   0  0  0  0  0
   37.4230   74.4450   38.0420 C   0  0  0  0  0
   35.9560   74.3140   37.6820 C   0  0  0  0  0
   37.7010   74.1060   39.4730 C   0  0  0  0  0
   39.9710   72.5760   33.4730 C   0  0  0  0  0
   36.5090   70.2840   36.5910 C   0  0  0  0  0
   35.7680   69.4360   37.5720 C   0  0  0  0  0
   38.2659   72.6712   36.1347 H   0  0  0  0  0
   39.7657   70.7560   35.3387 H   0  0  0  0  0
   38.4294   70.1748   34.3577 H   0  0  0  0  0
   36.5079   71.6841   33.7798 H   0  0  0  0  0
   36.1571   73.1074   34.7944 H   0  0  0  0  0
   38.4844   70.5378   37.4002 H   0  0  0  0  0
   38.2317   69.0041   36.4650 H   0  0  0  0  0
   34.7831   71.3010   35.8872 H   0  0  0  0  0
   38.0979   73.4054   33.5505 H   0  0  0  0  0
   39.4239   74.8433   37.7127 H   0  0  0  0  0
   38.7738   76.2318   35.7101 H   0  0  0  0  0
   37.4386   75.0146   35.3945 H   0  0  0  0  0
   39.7534   75.0237   34.0870 H   0  0  0  0  0
   40.1887   73.9743   35.5547 H   0  0  0  0  0
   35.5803   75.2774   37.3374 H   0  0  0  0  0
   35.8423   73.5738   36.8900 H   0  0  0  0  0
   35.3945   73.9969   38.5608 H   0  0  0  0  0
   38.3964   73.2678   39.5180 H   0  0  0  0  0
   38.1394   74.9706   39.9713 H   0  0  0  0  0
   36.7690   73.8335   39.9682 H   0  0  0  0  0
   40.3609   73.3028   32.7604 H   0  0  0  0  0
   40.7545   72.3014   34.1793 H   0  0  0  0  0
   39.6331   71.6875   32.9397 H   0  0  0  0  0
   35.2641   70.0763   38.2960 H   0  0  0  0  0
   35.0303   68.8319   37.0438 H   0  0  0  0  0
   36.4708   68.7831   38.0896 H   0  0  0  0  0
  1  2  1  0  0  0
  1  3  1  0  0  0
  6  1  1  0  0  0
  2  4  1  0  0  0
  3  5  1  0  0  0
  4 14  1  0  0  0
  5 14  2  0  0  0
  9  6  1  0  0  0
  6 13  1  0  0  0
  8  7  1  0  0  0
  7 10  2  0  0  0
  8  9  1  0  0  0
 10 11  1  0  0  0
 10 12  1  0  0  0
 14 15  1  0  0  0
  1 16  1  0  0  0
  2 17  1  0  0  0
  2 18  1  0  0  0
  3 19  1  0  0  0
  3 20  1  0  0  0
  4 21  1  0  0  0
  4 22  1  0  0  0
  5 23  1  0  0  0
  6 24  1  0  0  0
  7 25  1  0  0  0
  8 26  1  0  0  0
  8 27  1  0  0  0
  9 28  1  0  0  0
  9 29  1  0  0  0
 11 30  1  0  0  0
 11 31  1  0  0  0
 11 32  1  0  0  0
 12 33  1  0  0  0
 12 34  1  0  0  0
 12 35  1  0  0  0
 13 36  1  0  0  0
 13 37  1  0  0  0
 13 38  1  0  0  0
 15 39  1  0  0  0
 15 40  1  0  0  0
 15 41  1  0  0  0
M  END
$$$$
