6mju_ligand
  -I-interpret- 

 33 36  0  0  0  0  0  0  0  0999 V2000
   30.7610  226.5550   -9.2530 C   0  0  0  0  0
   26.7380  229.0030   -9.9860 C   0  0  0  0  0
   27.4750  226.7550   -9.2090 C   0  0  0  0  0
   28.1390  226.0890   -8.2250 C   0  0  0  0  0
   26.4570  225.9410   -9.6480 C   0  0  0  0  0
   31.6490  223.9310  -10.3820 C   0  0  0  0  0
   32.6360  225.0290   -9.9950 C   0  0  0  0  0
   33.0560  227.3400   -9.0770 C   0  0  0  0  0
   32.8240  228.5200  -10.0270 C   0  0  0  0  0
   31.3310  228.8470  -10.0970 C   0  0  0  0  0
   30.3940  227.9430   -9.7440 C   0  0  0  0  0
   29.1190  228.5510   -9.9140 C   0  0  0  0  0
   27.7860  228.1390   -9.7200 C   0  0  0  0  0
   27.0170  230.2770  -10.4490 C   0  0  0  0  0
   28.3300  230.6810  -10.6370 C   0  0  0  0  0
   29.3780  229.8000  -10.3580 C   0  0  0  0  0
   32.1550  226.2710   -9.4440 N   0  0  0  0  0
   30.7080  229.9730  -10.4700 N   0  0  0  0  0
   27.5630  224.9340   -8.0730 N   0  0  0  0  0
   26.5270  224.8150   -8.9430 N   0  0  0  0  0
   31.7980  223.6210  -11.7430 O   0  0  0  0  0
   33.7970  224.8820  -10.1270 O   0  0  0  0  0
   25.6530  231.3470  -10.7760 Cl  0  0  0  0  0
   28.8240  232.2790  -11.2210 Cl  0  0  0  0  0
   30.0512  225.8573   -8.8086 H   0  0  0  0  0
   25.7069  228.6844   -9.8329 H   0  0  0  0  0
   28.9987  226.4578   -7.6655 H   0  0  0  0  0
   25.7304  226.1743  -10.4263 H   0  0  0  0  0
   30.6319  224.2778  -10.1991 H   0  0  0  0  0
   31.8455  223.0408   -9.7845 H   0  0  0  0  0
   33.7789  227.3117   -8.2617 H   0  0  0  0  0
   33.6065  229.0480  -10.5720 H   0  0  0  0  0
   31.1758  222.9303  -11.9827 H   0  0  0  0  0
 11  1  4  0  0  0
  1 17  4  0  0  0
 13  2  4  0  0  0
  2 14  4  0  0  0
  3  4  4  0  0  0
  3  5  4  0  0  0
 13  3  1  0  0  0
  4 19  4  0  0  0
  5 20  4  0  0  0
  7  6  1  0  0  0
  6 21  1  0  0  0
 17  7  1  0  0  0
  7 22  2  0  0  0
  9  8  4  0  0  0
 17  8  4  0  0  0
 10  9  4  0  0  0
 11 10  1  0  0  0
 10 18  4  0  0  0
 12 11  4  0  0  0
 12 13  4  0  0  0
 12 16  4  0  0  0
 14 15  4  0  0  0
 14 23  1  0  0  0
 15 16  4  0  0  0
 15 24  1  0  0  0
 16 18  4  0  0  0
 19 20  4  0  0  0
  1 25  1  0  0  0
  2 26  1  0  0  0
  4 27  1  0  0  0
  5 28  1  0  0  0
  6 29  1  0  0  0
  6 30  1  0  0  0
  8 31  1  0  0  0
  9 32  1  0  0  0
 21 33  1  0  0  0
M  END
$$$$
