2am9_ligand
  -I-interpret- 

 51 54  0  0  0  0  0  0  0  0999 V2000
   26.9610    5.2750    4.7480 C   0  0  0  0  0
   26.0870    6.5150    5.0500 C   0  0  0  0  0
   24.7140    6.3800    4.4550 C   0  0  0  0  0
   24.0440    7.4060    3.9390 O   0  0  0  0  0
   24.1250    5.0470    4.4570 C   0  0  0  0  0
   24.8080    3.9090    4.8030 C   0  0  0  0  0
   24.0890    2.5690    4.7900 C   0  0  0  0  0
   24.8770    1.4740    4.0590 C   0  0  0  0  0
   26.3060    1.3630    4.6670 C   0  0  0  0  0
   27.0680    2.7200    4.5650 C   0  0  0  0  0
   26.3230    3.9250    5.2440 C   0  0  0  0  0
   28.5550    2.7000    5.0980 C   0  0  0  0  0
   29.3370    1.5340    4.4490 C   0  0  0  0  0
   28.6170    0.1640    4.6020 C   0  0  0  0  0
   27.1900    0.2970    3.9730 C   0  0  0  0  0
   26.6680   -1.1630    3.8940 C   0  0  0  0  0
   27.9500   -1.9990    3.6690 C   0  0  0  0  0
   29.1270   -0.9850    3.6840 C   0  0  0  0  0
   30.3270   -1.5900    4.2060 O   0  0  0  0  0
   28.5870   -0.2730    6.1200 C   0  0  0  0  0
   26.3440    3.8460    6.7980 C   0  0  0  0  0
   27.9071    5.4040    5.2737 H   0  0  0  0  0
   27.0728    5.2075    3.6658 H   0  0  0  0  0
   26.5676    7.3905    4.6134 H   0  0  0  0  0
   25.9866    6.6113    6.1311 H   0  0  0  0  0
   24.5983    7.4476    4.2682 H   0  0  0  0  0
   24.5720    8.2038    4.0182 H   0  0  0  0  0
   23.0792    4.9485    4.1661 H   0  0  0  0  0
   23.1432    2.7043    4.2654 H   0  0  0  0  0
   23.9597    2.2511    5.8246 H   0  0  0  0  0
   24.9524    1.7273    3.0015 H   0  0  0  0  0
   24.3609    0.5205    4.1715 H   0  0  0  0  0
   26.1436    1.0723    5.7049 H   0  0  0  0  0
   27.0958    2.8696    3.4857 H   0  0  0  0  0
   28.5454    2.5658    6.1797 H   0  0  0  0  0
   29.0395    3.6421    4.8415 H   0  0  0  0  0
   30.3024    1.4608    4.9498 H   0  0  0  0  0
   29.4274    1.7457    3.3836 H   0  0  0  0  0
   27.1839    0.7208    2.9688 H   0  0  0  0  0
   25.9367   -1.3006    3.0976 H   0  0  0  0  0
   26.1295   -1.4614    4.7935 H   0  0  0  0  0
   27.9076   -2.5423    2.7250 H   0  0  0  0  0
   28.0699   -2.7561    4.4439 H   0  0  0  0  0
   29.3943   -0.6318    2.6881 H   0  0  0  0  0
   30.6124   -2.2921    3.6168 H   0  0  0  0  0
   29.6079   -0.3634    6.4910 H   0  0  0  0  0
   28.0526    0.4776    6.7023 H   0  0  0  0  0
   28.0798   -1.2336    6.2103 H   0  0  0  0  0
   25.8555    2.9265    7.1204 H   0  0  0  0  0
   27.3766    3.8520    7.1469 H   0  0  0  0  0
   25.8145    4.7044    7.2114 H   0  0  0  0  0
  1  2  1  0  0  0
  1 11  1  0  0  0
  2  3  1  0  0  0
  3  4  1  0  0  0
  3  5  1  0  0  0
  5  6  2  0  0  0
  6  7  1  0  0  0
  6 11  1  0  0  0
  7  8  1  0  0  0
  8  9  1  0  0  0
  9 10  1  0  0  0
  9 15  1  0  0  0
 10 11  1  0  0  0
 10 12  1  0  0  0
 11 21  1  0  0  0
 12 13  1  0  0  0
 13 14  1  0  0  0
 14 15  1  0  0  0
 14 18  1  0  0  0
 14 20  1  0  0  0
 15 16  1  0  0  0
 16 17  1  0  0  0
 17 18  1  0  0  0
 18 19  1  0  0  0
  1 22  1  0  0  0
  1 23  1  0  0  0
  2 24  1  0  0  0
  2 25  1  0  0  0
  3 26  1  0  0  0
  4 27  1  0  0  0
  5 28  1  0  0  0
  7 29  1  0  0  0
  7 30  1  0  0  0
  8 31  1  0  0  0
  8 32  1  0  0  0
  9 33  1  0  0  0
 10 34  1  0  0  0
 12 35  1  0  0  0
 12 36  1  0  0  0
 13 37  1  0  0  0
 13 38  1  0  0  0
 15 39  1  0  0  0
 16 40  1  0  0  0
 16 41  1  0  0  0
 17 42  1  0  0  0
 17 43  1  0  0  0
 18 44  1  0  0  0
 19 45  1  0  0  0
 20 46  1  0  0  0
 20 47  1  0  0  0
 20 48  1  0  0  0
 21 49  1  0  0  0
 21 50  1  0  0  0
 21 51  1  0  0  0
M  END
$$$$
