4i7k_ligand
  -I-interpret- 

 15 15  0  0  0  0  0  0  0  0999 V2000
    5.3240   11.1740    0.4770 C   0  0  0  0  0
    4.1140   10.4210    0.9760 C   0  0  0  0  0
    3.6980    9.2710    0.3200 C   0  0  0  0  0
    2.5810    8.5880    0.7720 C   0  0  0  0  0
    1.8610    9.0510    1.8670 C   0  0  0  0  0
    2.2770   10.2010    2.5280 C   0  0  0  0  0
    3.3990   10.8980    2.0850 C   0  0  0  0  0
    6.1955   10.5201    0.5080 H   0  0  0  0  0
    5.1497   11.5009   -0.5481 H   0  0  0  0  0
    5.4972   12.0427    1.1122 H   0  0  0  0  0
    4.2481    8.9067   -0.5476 H   0  0  0  0  0
    2.2632    7.6777    0.2636 H   0  0  0  0  0
    0.9744    8.5150    2.2058 H   0  0  0  0  0
    1.7233   10.5587    3.3961 H   0  0  0  0  0
    3.7187   11.8063    2.5957 H   0  0  0  0  0
  1  2  1  0  0  0
  2  3  4  0  0  0
  2  7  4  0  0  0
  3  4  4  0  0  0
  4  5  4  0  0  0
  5  6  4  0  0  0
  6  7  4  0  0  0
  1  8  1  0  0  0
  1  9  1  0  0  0
  1 10  1  0  0  0
  3 11  1  0  0  0
  4 12  1  0  0  0
  5 13  1  0  0  0
  6 14  1  0  0  0
  7 15  1  0  0  0
M  END
$$$$
