6axb_ligand
  -I-interpret- 

 28 29  0  0  0  0  0  0  0  0999 V2000
   34.2110   77.8650   63.1880 C   0  0  0  0  0
   31.1240   75.9320   62.3380 C   0  0  0  0  0
   30.0800   76.9450   60.3950 C   0  0  0  0  0
   32.1180   77.8890   61.2870 C   0  0  0  0  0
   38.1100   81.5290   64.0750 C   0  0  0  0  0
   36.9890   81.4000   63.1010 C   0  0  0  0  0
   36.1110   80.1870   63.2660 C   0  0  0  0  0
   35.1920   79.9190   62.0950 C   0  0  0  0  0
   34.1640   78.8660   62.1710 C   0  0  0  0  0
   33.2240   76.9050   63.2490 C   0  0  0  0  0
   32.1590   76.8980   62.3010 C   0  0  0  0  0
   30.1130   75.9560   61.4150 C   0  0  0  0  0
   31.0610   77.9000   60.3320 C   0  0  0  0  0
   33.1430   78.8660   61.2430 C   0  0  0  0  0
   39.2790   81.4440   63.6730 O   0  0  0  0  0
   37.9010   81.1290   65.3640 O   0  0  0  0  0
   37.2060   81.9360   62.0040 O   0  0  0  0  0
   35.4130   80.4600   61.0150 O   0  0  0  0  0
   35.0245   77.8601   63.9135 H   0  0  0  0  0
   31.1324   75.1616   63.1091 H   0  0  0  0  0
   29.2734   76.9440   59.6618 H   0  0  0  0  0
   35.4784   80.3652   64.1356 H   0  0  0  0  0
   36.7706   79.3243   63.3597 H   0  0  0  0  0
   33.2579   76.1443   64.0289 H   0  0  0  0  0
   29.3230   75.2066   61.4632 H   0  0  0  0  0
   31.0326   78.6641   59.5551 H   0  0  0  0  0
   33.1247   79.6288   60.4646 H   0  0  0  0  0
   36.9718   81.2309   65.5828 H   0  0  0  0  0
  9  1  4  0  0  0
  1 10  4  0  0  0
 11  2  4  0  0  0
  2 12  4  0  0  0
  3 12  4  0  0  0
 13  3  4  0  0  0
  4 11  4  0  0  0
  4 13  4  0  0  0
 14  4  4  0  0  0
  6  5  1  0  0  0
  5 15  2  0  0  0
  5 16  1  0  0  0
  7  6  1  0  0  0
  6 17  2  0  0  0
  8  7  1  0  0  0
  9  8  1  0  0  0
  8 18  2  0  0  0
  9 14  4  0  0  0
 10 11  4  0  0  0
  1 19  1  0  0  0
  2 20  1  0  0  0
  3 21  1  0  0  0
  7 22  1  0  0  0
  7 23  1  0  0  0
 10 24  1  0  0  0
 12 25  1  0  0  0
 13 26  1  0  0  0
 14 27  1  0  0  0
 16 28  1  0  0  0
M  END
$$$$
