### 
### Created by X-TOOL on Mon Aug  2 16:13:18 2021
### 

@<TRIPOS>MOLECULE
6eqa_ligand
  124   123     1     0     0
SMALL
GAST_HUCK


@<TRIPOS>ATOM
      1 N          50.2750  -11.6540   28.6190 N.4       1 ALA         0.2377
      2 CA         49.8820  -10.3630   27.9870 C.3       1 ALA         0.0621
      3 C          49.5330   -9.3940   29.1040 C.2       1 ALA         0.2264
      4 O          48.6190   -9.6700   29.8800 O.2       1 ALA        -0.3907
      5 CB         48.6980  -10.5670   27.0720 C.3       1 ALA        -0.0040
      6 N          50.2530   -8.2790   29.2180 N.am      1 ALA        -0.2613
      7 CA         50.0620   -7.4070   30.3700 C.3       1 ALA         0.1283
      8 C          48.7090   -6.6950   30.2850 C.2       1 ALA         0.2034
      9 O          48.2040   -6.4520   29.1960 O.2       1 ALA        -0.3944
     10 CB         51.2090   -6.4060   30.4920 C.3       1 ALA        -0.0244
     11 N          48.1210   -6.3860   31.4380 N.am      1 ALA        -0.2664
     12 CA         46.9040   -5.5950   31.4930 C.3       1 ALA         0.1201
     13 C          47.1530   -4.1170   31.7100 C.2       1 ALA         0.2008
     14 O          46.4580   -3.2990   31.1460 O.2       1 ALA        -0.3947
     15 N          48.1260   -3.7640   32.5490 N.am      1 ALA        -0.2637
     16 CA         48.5510   -2.3630   32.6810 C.3       1 ALA         0.1335
     17 C          50.0350   -2.1800   32.3890 C.2       1 ALA         0.2040
     18 O          50.7450   -3.1440   32.1650 O.2       1 ALA        -0.3944
     19 CB         48.2630   -1.7890   34.0720 C.3       1 ALA        -0.0037
     20 CG1        49.0120   -2.5570   35.1490 C.3       1 ALA        -0.0491
     21 CG2        46.7840   -1.8130   34.3470 C.3       1 ALA        -0.0582
     22 CD1        48.9260   -1.8790   36.4790 C.3       1 ALA        -0.0648
     23 N          50.5030   -0.9420   32.3830 N.am      1 ALA        -0.2664
     24 CA         51.9210   -0.6670   32.1360 C.3       1 ALA         0.1201
     25 C          52.3220   -0.6080   30.6600 C.2       1 ALA         0.2008
     26 O          53.4880   -0.4060   30.3210 O.2       1 ALA        -0.3947
     27 N          51.3580   -0.7750   29.7670 N.am      1 ALA        -0.2637
     28 CA         51.6590   -0.7300   28.3520 C.3       1 ALA         0.1335
     29 C          51.1880    0.5880   27.7370 C.2       1 ALA         0.2042
     30 O          50.0740    0.6640   27.2340 O.2       1 ALA        -0.3944
     31 CB         51.0050   -1.9190   27.6340 C.3       1 ALA        -0.0037
     32 CG1        51.5730   -3.2330   28.1690 C.3       1 ALA        -0.0491
     33 CG2        51.2420   -1.8290   26.1250 C.3       1 ALA        -0.0582
     34 CD1        52.9550   -3.5620   27.6210 C.3       1 ALA        -0.0648
     35 N          52.0320    1.6230   27.7800 N.am      1 ALA        -0.2637
     36 CA         51.6600    2.9510   27.2270 C.3       1 ALA         0.1312
     37 C          52.3690    3.1430   25.9290 C.2       1 ALA         0.2040
     38 O          53.1780    2.3140   25.5860 O.2       1 ALA        -0.3944
     39 CB         52.0620    4.0870   28.1920 C.3       1 ALA        -0.0101
     40 CG         51.2010    4.2180   29.4660 C.3       1 ALA        -0.0425
     41 CD1        49.7640    4.6790   29.1120 C.3       1 ALA        -0.0625
     42 CD2        51.1400    2.8750   30.2350 C.3       1 ALA        -0.0625
     43 N          52.0740    4.2100   25.1940 N.am      1 ALA        -0.2613
     44 CA         52.7640    4.4920   23.9300 C.3       1 ALA         0.1564
     45 C          54.1330    5.0440   24.2760 C.2       1 ALA         0.2059
     46 O          54.5270    5.0080   25.4330 O.2       1 ALA        -0.3943
     47 CB         52.0340    5.5460   23.0980 C.3       1 ALA         0.0924
     48 OG1        51.9850    6.7680   23.8270 O.3       1 ALA        -0.3874
     49 CG2        50.6410    5.1180   22.7820 C.3       1 ALA        -0.0346
     50 N          54.8450    5.5830   23.2930 N.am      1 ALA        -0.2692
     51 CA         56.2360    6.0230   23.4690 C.3       1 ALA         0.0967
     52 C          56.3990    7.5630   23.2910 C.2       1 ALA         0.0603
     53 O          57.4270    8.1960   23.5990 O.co2     1 ALA        -0.5666
     54 CB         57.1270    5.2480   22.4580 C.3       1 ALA        -0.0118
     55 CG1        58.5470    5.6660   22.5650 C.3       1 ALA        -0.0590
     56 CG2        57.0200    3.7450   22.6890 C.3       1 ALA        -0.0590
     57 OXT        55.4860    8.2550   22.8110 O.co2     1 ALA        -0.5666
     58 H1         50.5133  -12.3205   27.9014 H         1 ALA         0.2015
     59 H2         49.5055  -12.0088   29.1649 H         1 ALA         0.2015
     60 H3         51.0720  -11.5060   29.2181 H         1 ALA         0.2015
     61 H4         50.7243   -9.9650   27.4021 H         1 ALA         0.1095
     62 H5         48.4195   -9.6068   26.6132 H         1 ALA         0.0310
     63 H6         47.8486  -10.9559   27.6527 H         1 ALA         0.0310
     64 H7         48.9635  -11.2867   26.2837 H         1 ALA         0.0310
     65 H8         50.9229   -8.0409   28.5148 H         1 ALA         0.1884
     66 H9         50.0608   -8.0323   31.2750 H         1 ALA         0.0797
     67 H10        51.0413   -5.7611   31.3672 H         1 ALA         0.0277
     68 H11        51.2537   -5.7871   29.5837 H         1 ALA         0.0277
     69 H12        52.1581   -6.9488   30.6130 H         1 ALA         0.0277
     70 H13        48.5292   -6.7080   32.2922 H         1 ALA         0.1881
     71 H14        46.2831   -5.9685   32.3206 H         1 ALA         0.0763
     72 H15        46.3636   -5.7211   30.5433 H         1 ALA         0.0763
     73 H16        48.5763   -4.4665   33.1001 H         1 ALA         0.1883
     74 H17        47.9814   -1.7772   31.9446 H         1 ALA         0.0803
     75 H18        48.6048   -0.7437   34.0923 H         1 ALA         0.0345
     76 H19        50.0699   -2.6369   34.8583 H         1 ALA         0.0267
     77 H20        48.5781   -3.5642   35.2346 H         1 ALA         0.0267
     78 H21        46.2557   -1.2541   33.5605 H         1 ALA         0.0235
     79 H22        46.5851   -1.3480   35.3238 H         1 ALA         0.0235
     80 H23        46.4298   -2.8544   34.3576 H         1 ALA         0.0235
     81 H24        49.4796   -2.4663   37.2264 H         1 ALA         0.0230
     82 H25        47.8717   -1.7996   36.7826 H         1 ALA         0.0230
     83 H26        49.3635   -0.8724   36.4064 H         1 ALA         0.0230
     84 H27        49.8773   -0.1801   32.5501 H         1 ALA         0.1881
     85 H28        52.5113   -1.4601   32.6183 H         1 ALA         0.0763
     86 H29        52.1654    0.3024   32.5947 H         1 ALA         0.0763
     87 H30        50.4187   -0.9328   30.0717 H         1 ALA         0.1883
     88 H31        52.7493   -0.8020   28.2257 H         1 ALA         0.0803
     89 H32        49.9220   -1.8952   27.8250 H         1 ALA         0.0345
     90 H33        50.8862   -4.0472   27.8945 H         1 ALA         0.0267
     91 H34        51.6399   -3.1635   29.2647 H         1 ALA         0.0267
     92 H35        50.8314   -0.8818   25.7452 H         1 ALA         0.0235
     93 H36        50.7428   -2.6718   25.6245 H         1 ALA         0.0235
     94 H37        52.3221   -1.8686   25.9204 H         1 ALA         0.0235
     95 H38        53.3005   -4.5159   28.0462 H         1 ALA         0.0230
     96 H39        53.6583   -2.7621   27.8956 H         1 ALA         0.0230
     97 H40        52.9046   -3.6458   26.5254 H         1 ALA         0.0230
     98 H41        52.9342    1.5011   28.1936 H         1 ALA         0.1883
     99 H42        50.5728    2.9839   27.0633 H         1 ALA         0.0800
    100 H43        51.9976    5.0370   27.6413 H         1 ALA         0.0315
    101 H44        53.1026    3.9136   28.5036 H         1 ALA         0.0315
    102 H45        51.6616    4.9744   30.1185 H         1 ALA         0.0298
    103 H46        49.1693    4.7654   30.0333 H         1 ALA         0.0232
    104 H47        49.2971    3.9421   28.4420 H         1 ALA         0.0232
    105 H48        49.8059    5.6566   28.6096 H         1 ALA         0.0232
    106 H49        52.1604    2.5492   30.4854 H         1 ALA         0.0232
    107 H50        50.6562    2.1136   29.6055 H         1 ALA         0.0232
    108 H51        50.5602    3.0082   31.1602 H         1 ALA         0.0232
    109 H52        51.3628    4.8376   25.5107 H         1 ALA         0.1884
    110 H53        52.8590    3.5643   23.3466 H         1 ALA         0.0826
    111 H54        52.5832    5.7022   22.1578 H         1 ALA         0.0639
    112 H55        51.5316    7.4248   23.3118 H         1 ALA         0.2101
    113 H56        50.1449    5.8967   22.1841 H         1 ALA         0.0257
    114 H57        50.0837    4.9635   23.7177 H         1 ALA         0.0257
    115 H58        50.6668    4.1781   22.2111 H         1 ALA         0.0257
    116 H59        54.4169    5.6940   22.3961 H         1 ALA         0.1875
    117 H60        56.5552    5.7652   24.4896 H         1 ALA         0.0729
    118 H61        56.7721    5.4733   21.4415 H         1 ALA         0.0336
    119 H62        59.1510    5.1017   21.8392 H         1 ALA         0.0234
    120 H63        58.9131    5.4639   23.5824 H         1 ALA         0.0234
    121 H64        58.6295    6.7421   22.3526 H         1 ALA         0.0234
    122 H65        55.9673    3.4359   22.6096 H         1 ALA         0.0234
    123 H66        57.3993    3.5002   23.6921 H         1 ALA         0.0234
    124 H67        57.6161    3.2143   21.9320 H         1 ALA         0.0234
@<TRIPOS>BOND
     1    1    2 1  
     2    2    3 1  
     3    2    5 1  
     4    3    4 2  
     5    3    6 am 
     6    6    7 1  
     7    7    8 1  
     8    7   10 1  
     9    8    9 2  
    10    8   11 am 
    11   11   12 1  
    12   12   13 1  
    13   13   14 2  
    14   13   15 am 
    15   15   16 1  
    16   16   17 1  
    17   16   19 1  
    18   17   18 2  
    19   17   23 am 
    20   19   20 1  
    21   19   21 1  
    22   20   22 1  
    23   23   24 1  
    24   24   25 1  
    25   25   26 2  
    26   25   27 am 
    27   27   28 1  
    28   28   29 1  
    29   28   31 1  
    30   29   30 2  
    31   29   35 am 
    32   31   32 1  
    33   31   33 1  
    34   32   34 1  
    35   35   36 1  
    36   36   37 1  
    37   36   39 1  
    38   37   38 2  
    39   37   43 am 
    40   39   40 1  
    41   40   41 1  
    42   40   42 1  
    43   43   44 1  
    44   44   45 1  
    45   44   47 1  
    46   45   46 2  
    47   45   50 am 
    48   47   48 1  
    49   47   49 1  
    50   50   51 1  
    51   51   52 1  
    52   51   54 1  
    53   52   53 ar 
    54   52   57 ar 
    55   54   55 1  
    56   54   56 1  
    57    1   58 1  
    58    1   59 1  
    59    1   60 1  
    60    2   61 1  
    61    5   62 1  
    62    5   63 1  
    63    5   64 1  
    64    6   65 1  
    65    7   66 1  
    66   10   67 1  
    67   10   68 1  
    68   10   69 1  
    69   11   70 1  
    70   12   71 1  
    71   12   72 1  
    72   15   73 1  
    73   16   74 1  
    74   19   75 1  
    75   20   76 1  
    76   20   77 1  
    77   21   78 1  
    78   21   79 1  
    79   21   80 1  
    80   22   81 1  
    81   22   82 1  
    82   22   83 1  
    83   23   84 1  
    84   24   85 1  
    85   24   86 1  
    86   27   87 1  
    87   28   88 1  
    88   31   89 1  
    89   32   90 1  
    90   32   91 1  
    91   33   92 1  
    92   33   93 1  
    93   33   94 1  
    94   34   95 1  
    95   34   96 1  
    96   34   97 1  
    97   35   98 1  
    98   36   99 1  
    99   39  100 1  
   100   39  101 1  
   101   40  102 1  
   102   41  103 1  
   103   41  104 1  
   104   41  105 1  
   105   42  106 1  
   106   42  107 1  
   107   42  108 1  
   108   43  109 1  
   109   44  110 1  
   110   47  111 1  
   111   48  112 1  
   112   49  113 1  
   113   49  114 1  
   114   49  115 1  
   115   50  116 1  
   116   51  117 1  
   117   54  118 1  
   118   55  119 1  
   119   55  120 1  
   120   55  121 1  
   121   56  122 1  
   122   56  123 1  
   123   56  124 1  
@<TRIPOS>SUBSTRUCTURE
     1 ALA         1

