6eqa_ligand
  -I-interpret- 

125124  0  0  0  0  0  0  0  0999 V2000
   50.2750  -11.6540   28.6190 N   0  3  0  0  0
   49.8820  -10.3630   27.9870 C   0  0  0  0  0
   49.5330   -9.3940   29.1040 C   0  0  0  0  0
   48.6190   -9.6700   29.8800 O   0  0  0  0  0
   48.6980  -10.5670   27.0720 C   0  0  0  0  0
   50.2530   -8.2790   29.2180 N   0  0  0  0  0
   50.0620   -7.4070   30.3700 C   0  0  0  0  0
   48.7090   -6.6950   30.2850 C   0  0  0  0  0
   48.2040   -6.4520   29.1960 O   0  0  0  0  0
   51.2090   -6.4060   30.4920 C   0  0  0  0  0
   48.1210   -6.3860   31.4380 N   0  0  0  0  0
   46.9040   -5.5950   31.4930 C   0  0  0  0  0
   47.1530   -4.1170   31.7100 C   0  0  0  0  0
   46.4580   -3.2990   31.1460 O   0  0  0  0  0
   48.1260   -3.7640   32.5490 N   0  0  0  0  0
   48.5510   -2.3630   32.6810 C   0  0  0  0  0
   50.0350   -2.1800   32.3890 C   0  0  0  0  0
   50.7450   -3.1440   32.1650 O   0  0  0  0  0
   48.2630   -1.7890   34.0720 C   0  0  0  0  0
   49.0120   -2.5570   35.1490 C   0  0  0  0  0
   46.7840   -1.8130   34.3470 C   0  0  0  0  0
   48.9260   -1.8790   36.4790 C   0  0  0  0  0
   50.5030   -0.9420   32.3830 N   0  0  0  0  0
   51.9210   -0.6670   32.1360 C   0  0  0  0  0
   52.3220   -0.6080   30.6600 C   0  0  0  0  0
   53.4880   -0.4060   30.3210 O   0  0  0  0  0
   51.3580   -0.7750   29.7670 N   0  0  0  0  0
   51.6590   -0.7300   28.3520 C   0  0  0  0  0
   51.1880    0.5880   27.7370 C   0  0  0  0  0
   50.0740    0.6640   27.2340 O   0  0  0  0  0
   51.0050   -1.9190   27.6340 C   0  0  0  0  0
   51.5730   -3.2330   28.1690 C   0  0  0  0  0
   51.2420   -1.8290   26.1250 C   0  0  0  0  0
   52.9550   -3.5620   27.6210 C   0  0  0  0  0
   52.0320    1.6230   27.7800 N   0  0  0  0  0
   51.6600    2.9510   27.2270 C   0  0  0  0  0
   52.3690    3.1430   25.9290 C   0  0  0  0  0
   53.1780    2.3140   25.5860 O   0  0  0  0  0
   52.0620    4.0870   28.1920 C   0  0  0  0  0
   51.2010    4.2180   29.4660 C   0  0  0  0  0
   49.7640    4.6790   29.1120 C   0  0  0  0  0
   51.1400    2.8750   30.2350 C   0  0  0  0  0
   52.0740    4.2100   25.1940 N   0  0  0  0  0
   52.7640    4.4920   23.9300 C   0  0  0  0  0
   54.1330    5.0440   24.2760 C   0  0  0  0  0
   54.5270    5.0080   25.4330 O   0  0  0  0  0
   52.0340    5.5460   23.0980 C   0  0  0  0  0
   51.9850    6.7680   23.8270 O   0  0  0  0  0
   50.6410    5.1180   22.7820 C   0  0  0  0  0
   54.8450    5.5830   23.2930 N   0  0  0  0  0
   56.2360    6.0230   23.4690 C   0  0  0  0  0
   56.3990    7.5630   23.2910 C   0  0  0  0  0
   57.4270    8.1960   23.5990 O   0  0  0  0  0
   57.1270    5.2480   22.4580 C   0  0  0  0  0
   58.5470    5.6660   22.5650 C   0  0  0  0  0
   57.0200    3.7450   22.6890 C   0  0  0  0  0
   55.4860    8.2550   22.8110 O   0  0  0  0  0
   51.0747  -11.5009   29.2333 H   0  0  0  0  0
   49.4920  -12.0174   29.1624 H   0  0  0  0  0
   50.5263  -12.3243   27.8924 H   0  0  0  0  0
   50.6991   -9.9668   27.3841 H   0  0  0  0  0
   47.8637  -10.9723   27.6444 H   0  0  0  0  0
   48.4098   -9.6112   26.6343 H   0  0  0  0  0
   48.9690  -11.2642   26.2791 H   0  0  0  0  0
   50.9363   -8.0361   28.5007 H   0  0  0  0  0
   50.0638   -8.0208   31.2707 H   0  0  0  0  0
   51.2142   -5.7532   29.6191 H   0  0  0  0  0
   51.0737   -5.8084   31.3935 H   0  0  0  0  0
   52.1549   -6.9445   30.5502 H   0  0  0  0  0
   48.5374   -6.7144   32.3093 H   0  0  0  0  0
   46.3169   -5.9556   32.3376 H   0  0  0  0  0
   46.3986   -5.7045   30.5335 H   0  0  0  0  0
   48.5853   -4.4805   33.1112 H   0  0  0  0  0
   47.9632   -1.8210   31.9401 H   0  0  0  0  0
   48.6115   -0.7564   34.0912 H   0  0  0  0  0
   50.0618   -2.6133   34.8612 H   0  0  0  0  0
   48.5619   -3.5456   35.2395 H   0  0  0  0  0
   46.2667   -1.2130   33.5983 H   0  0  0  0  0
   46.4241   -2.8409   34.3027 H   0  0  0  0  0
   46.5934   -1.4024   35.3386 H   0  0  0  0  0
   49.3598   -0.8817   36.4057 H   0  0  0  0  0
   47.8809   -1.8009   36.7787 H   0  0  0  0  0
   49.4749   -2.4619   37.2187 H   0  0  0  0  0
   49.8648   -0.1648   32.5535 H   0  0  0  0  0
   52.4827   -1.4880   32.5817 H   0  0  0  0  0
   52.1285    0.3165   32.5576 H   0  0  0  0  0
   50.3999   -0.9359   30.0777 H   0  0  0  0  0
   52.7400   -0.7949   28.2284 H   0  0  0  0  0
   49.9321   -1.8891   27.8237 H   0  0  0  0  0
   50.8986   -4.0320   27.8610 H   0  0  0  0  0
   51.6632   -3.1357   29.2509 H   0  0  0  0  0
   50.8095   -0.9034   25.7452 H   0  0  0  0  0
   52.3135   -1.8396   25.9255 H   0  0  0  0  0
   50.7712   -2.6802   25.6332 H   0  0  0  0  0
   52.9037   -3.6447   26.5354 H   0  0  0  0  0
   53.6509   -2.7687   27.8938 H   0  0  0  0  0
   53.2962   -4.5073   28.0430 H   0  0  0  0  0
   52.9523    1.4987   28.2019 H   0  0  0  0  0
   50.5794    2.9830   27.0879 H   0  0  0  0  0
   51.9404    5.0189   27.6398 H   0  0  0  0  0
   53.0756    3.8647   28.5257 H   0  0  0  0  0
   51.6688    4.9676   30.1043 H   0  0  0  0  0
   49.8069    5.6477   28.6142 H   0  0  0  0  0
   49.3025    3.9480   28.4481 H   0  0  0  0  0
   49.1757    4.7643   30.0257 H   0  0  0  0  0
   50.7023    2.1101   29.5936 H   0  0  0  0  0
   52.1481    2.5764   30.5227 H   0  0  0  0  0
   50.5269    2.9966   31.1280 H   0  0  0  0  0
   51.3485    4.8501   25.5170 H   0  0  0  0  0
   52.8119    3.5718   23.3477 H   0  0  0  0  0
   52.5779    5.6771   22.1625 H   0  0  0  0  0
   51.5268    7.4318   23.3063 H   0  0  0  0  0
   50.6679    4.1866   22.2164 H   0  0  0  0  0
   50.0899    4.9653   23.7099 H   0  0  0  0  0
   50.1505    5.8904   22.1895 H   0  0  0  0  0
   54.4083    5.6962   22.3782 H   0  0  0  0  0
   56.5466    5.8035   24.4905 H   0  0  0  0  0
   58.0784    7.5902   23.9599 H   0  0  0  0  0
   56.7677    5.4838   21.4563 H   0  0  0  0  0
   58.6273    6.7324   22.3544 H   0  0  0  0  0
   58.9085    5.4653   23.5735 H   0  0  0  0  0
   59.1444    5.1062   21.8454 H   0  0  0  0  0
   57.3481    3.5100   23.7015 H   0  0  0  0  0
   55.9841    3.4316   22.5595 H   0  0  0  0  0
   57.6515    3.2224   21.9706 H   0  0  0  0  0
  1  2  1  0  0  0
  2  3  1  0  0  0
  2  5  1  0  0  0
  3  4  2  0  0  0
  3  6  1  0  0  0
  6  7  1  0  0  0
  7  8  1  0  0  0
  7 10  1  0  0  0
  8  9  2  0  0  0
  8 11  1  0  0  0
 11 12  1  0  0  0
 12 13  1  0  0  0
 13 14  2  0  0  0
 13 15  1  0  0  0
 15 16  1  0  0  0
 16 17  1  0  0  0
 16 19  1  0  0  0
 17 18  2  0  0  0
 17 23  1  0  0  0
 19 20  1  0  0  0
 19 21  1  0  0  0
 20 22  1  0  0  0
 23 24  1  0  0  0
 24 25  1  0  0  0
 25 26  2  0  0  0
 25 27  1  0  0  0
 27 28  1  0  0  0
 28 29  1  0  0  0
 28 31  1  0  0  0
 29 30  2  0  0  0
 29 35  1  0  0  0
 31 32  1  0  0  0
 31 33  1  0  0  0
 32 34  1  0  0  0
 35 36  1  0  0  0
 36 37  1  0  0  0
 36 39  1  0  0  0
 37 38  2  0  0  0
 37 43  1  0  0  0
 39 40  1  0  0  0
 40 41  1  0  0  0
 40 42  1  0  0  0
 43 44  1  0  0  0
 44 45  1  0  0  0
 44 47  1  0  0  0
 45 46  2  0  0  0
 45 50  1  0  0  0
 47 48  1  0  0  0
 47 49  1  0  0  0
 50 51  1  0  0  0
 51 52  1  0  0  0
 51 54  1  0  0  0
 52 53  1  0  0  0
 52 57  2  0  0  0
 54 55  1  0  0  0
 54 56  1  0  0  0
  1 58  1  0  0  0
  1 59  1  0  0  0
  1 60  1  0  0  0
  2 61  1  0  0  0
  5 62  1  0  0  0
  5 63  1  0  0  0
  5 64  1  0  0  0
  6 65  1  0  0  0
  7 66  1  0  0  0
 10 67  1  0  0  0
 10 68  1  0  0  0
 10 69  1  0  0  0
 11 70  1  0  0  0
 12 71  1  0  0  0
 12 72  1  0  0  0
 15 73  1  0  0  0
 16 74  1  0  0  0
 19 75  1  0  0  0
 20 76  1  0  0  0
 20 77  1  0  0  0
 21 78  1  0  0  0
 21 79  1  0  0  0
 21 80  1  0  0  0
 22 81  1  0  0  0
 22 82  1  0  0  0
 22 83  1  0  0  0
 23 84  1  0  0  0
 24 85  1  0  0  0
 24 86  1  0  0  0
 27 87  1  0  0  0
 28 88  1  0  0  0
 31 89  1  0  0  0
 32 90  1  0  0  0
 32 91  1  0  0  0
 33 92  1  0  0  0
 33 93  1  0  0  0
 33 94  1  0  0  0
 34 95  1  0  0  0
 34 96  1  0  0  0
 34 97  1  0  0  0
 35 98  1  0  0  0
 36 99  1  0  0  0
 39100  1  0  0  0
 39101  1  0  0  0
 40102  1  0  0  0
 41103  1  0  0  0
 41104  1  0  0  0
 41105  1  0  0  0
 42106  1  0  0  0
 42107  1  0  0  0
 42108  1  0  0  0
 43109  1  0  0  0
 44110  1  0  0  0
 47111  1  0  0  0
 48112  1  0  0  0
 49113  1  0  0  0
 49114  1  0  0  0
 49115  1  0  0  0
 50116  1  0  0  0
 51117  1  0  0  0
 53118  1  0  0  0
 54119  1  0  0  0
 55120  1  0  0  0
 55121  1  0  0  0
 55122  1  0  0  0
 56123  1  0  0  0
 56124  1  0  0  0
 56125  1  0  0  0
M  END
$$$$
