4urv_ligand
  -I-interpret- 

 29 30  0  0  0  0  0  0  0  0999 V2000
   44.6850   42.2550   73.7790 Br  0  0  0  0  0
   45.2670   41.4970   75.4250 C   0  0  0  0  0
   45.8670   42.3090   76.3740 C   0  0  0  0  0
   46.2650   41.7550   77.5800 C   0  0  0  0  0
   45.0560   40.1500   75.6700 C   0  0  0  0  0
   45.4570   39.6170   76.8860 C   0  0  0  0  0
   46.0550   40.4080   77.8650 C   0  0  0  0  0
   46.5420   39.7990   79.1790 C   0  0  0  0  0
   45.7350   38.6690   79.5310 O   0  0  0  0  0
   46.4550   40.8210   80.3210 C   0  0  0  0  0
   47.0670   40.3010   81.6050 C   0  0  0  0  0
   48.4740   39.9270   81.3870 N   0  3  0  0  0
   48.5760   38.8720   80.3640 C   0  0  0  0  0
   47.9880   39.3070   79.0380 C   0  0  0  0  0
   46.0237   43.3691   76.1745 H   0  0  0  0  0
   46.7531   42.3871   78.3218 H   0  0  0  0  0
   44.5820   39.5186   74.9185 H   0  0  0  0  0
   45.3009   38.5559   77.0802 H   0  0  0  0  0
   46.0512   38.2963   80.3573 H   0  0  0  0  0
   45.4018   41.0299   80.5086 H   0  0  0  0  0
   47.0060   41.7121   80.0202 H   0  0  0  0  0
   46.5122   39.4218   81.9325 H   0  0  0  0  0
   47.0205   41.0829   82.3630 H   0  0  0  0  0
   48.8631   39.5776   82.2627 H   0  0  0  0  0
   48.9891   40.7477   81.0686 H   0  0  0  0  0
   48.0192   38.0030   80.7146 H   0  0  0  0  0
   49.6315   38.6472   80.2109 H   0  0  0  0  0
   48.5904   40.1301   78.6536 H   0  0  0  0  0
   47.9899   38.4474   78.3678 H   0  0  0  0  0
  1  2  1  0  0  0
  2  3  4  0  0  0
  2  5  4  0  0  0
  3  4  4  0  0  0
  4  7  4  0  0  0
  5  6  4  0  0  0
  6  7  4  0  0  0
  7  8  1  0  0  0
  8  9  1  0  0  0
  8 10  1  0  0  0
  8 14  1  0  0  0
 10 11  1  0  0  0
 11 12  1  0  0  0
 12 13  1  0  0  0
 13 14  1  0  0  0
  3 15  1  0  0  0
  4 16  1  0  0  0
  5 17  1  0  0  0
  6 18  1  0  0  0
  9 19  1  0  0  0
 10 20  1  0  0  0
 10 21  1  0  0  0
 11 22  1  0  0  0
 11 23  1  0  0  0
 12 24  1  0  0  0
 12 25  1  0  0  0
 13 26  1  0  0  0
 13 27  1  0  0  0
 14 28  1  0  0  0
 14 29  1  0  0  0
M  END
$$$$
