5k51_ligand
  -I-interpret- 

 34 35  0  0  0  0  0  0  0  0999 V2000
  -24.8110    5.7430  -16.2150 C   0  0  0  0  0
  -19.5710   12.9130  -15.8040 O   0  0  0  0  0
  -19.7070   11.9150  -15.0570 C   0  0  0  0  0
  -19.4330   12.0250  -13.6960 N   0  0  0  0  0
  -19.5890   10.8930  -12.8520 C   0  0  0  0  0
  -20.0310    9.6280  -13.4060 N   0  0  0  0  0
  -20.3110    9.5160  -14.7980 C   0  0  0  0  0
  -20.1620   10.6110  -15.6230 C   0  0  0  0  0
  -20.4950   10.2130  -16.8730 N   0  0  0  0  0
  -20.8300    8.9490  -16.8330 C   0  0  0  0  0
  -20.7270    8.5070  -15.5910 N   0  0  0  0  0
  -21.0090    7.1710  -15.1530 C   0  0  0  0  0
  -22.5370    6.9070  -15.1510 C   0  0  0  0  0
  -22.8780    5.5620  -14.5330 C   0  0  0  0  0
  -24.1520    4.8810  -15.1850 C   0  0  0  0  0
  -25.7440    4.7590  -17.4080 P   0  0  0  0  0
  -25.4140    5.2320  -18.8080 O   0  0  0  0  0
  -25.3820    3.3210  -17.2680 O   0  0  0  0  0
  -27.2310    4.9340  -17.1520 O   0  0  0  0  0
  -24.0367    6.2912  -16.7516 H   0  0  0  0  0
  -25.5024    6.4167  -15.7088 H   0  0  0  0  0
  -19.3761   10.9755  -11.7862 H   0  0  0  0  0
  -20.1416    8.8168  -12.7977 H   0  0  0  0  0
  -21.1449    8.3532  -17.6897 H   0  0  0  0  0
  -20.6278    7.0441  -14.1397 H   0  0  0  0  0
  -20.5305    6.4679  -15.8347 H   0  0  0  0  0
  -22.8854    6.9070  -16.1838 H   0  0  0  0  0
  -23.0180    7.6866  -14.5603 H   0  0  0  0  0
  -23.0958    5.7287  -13.4781 H   0  0  0  0  0
  -22.0287    4.8985  -14.6961 H   0  0  0  0  0
  -23.8243    3.9656  -15.6777 H   0  0  0  0  0
  -24.8757    4.7000  -14.3903 H   0  0  0  0  0
  -25.6484    6.1589  -18.8950 H   0  0  0  0  0
  -27.4632    5.8611  -17.2425 H   0  0  0  0  0
 15  1  1  0  0  0
  1 16  1  0  0  0
  3  2  2  0  0  0
  3  4  1  0  0  0
  8  3  1  0  0  0
  5  4  2  0  0  0
  6  5  1  0  0  0
  7  6  1  0  0  0
  7  8  4  0  0  0
 11  7  4  0  0  0
  9  8  4  0  0  0
 10  9  4  0  0  0
 11 10  4  0  0  0
 12 11  1  0  0  0
 13 12  1  0  0  0
 14 13  1  0  0  0
 14 15  1  0  0  0
 16 17  1  0  0  0
 16 18  2  0  0  0
 16 19  1  0  0  0
  1 20  1  0  0  0
  1 21  1  0  0  0
  5 22  1  0  0  0
  6 23  1  0  0  0
 10 24  1  0  0  0
 12 25  1  0  0  0
 12 26  1  0  0  0
 13 27  1  0  0  0
 13 28  1  0  0  0
 14 29  1  0  0  0
 14 30  1  0  0  0
 15 31  1  0  0  0
 15 32  1  0  0  0
 17 33  1  0  0  0
 19 34  1  0  0  0
M  END
$$$$
