### 
### Created by X-TOOL on Mon Sep 10 21:13:30 2018
### 

@<TRIPOS>MOLECULE
5k51_ligand
   32    33     1     0     0
SMALL
GAST_HUCK


@<TRIPOS>ATOM
      1 C15       -24.8110    5.7430  -16.2150 C.3       1 6QD         0.0196
      2 O01       -19.5710   12.9130  -15.8040 O.2       1 6QD        -0.4217
      3 C02       -19.7070   11.9150  -15.0570 C.2       1 6QD         0.1461
      4 N03       -19.4330   12.0250  -13.6960 N.2       1 6QD        -0.2575
      5 C04       -19.5890   10.8930  -12.8520 C.2       1 6QD         0.1280
      6 N05       -20.0310    9.6280  -13.4060 N.pl3     1 6QD        -0.2068
      7 C06       -20.3110    9.5160  -14.7980 C.2       1 6QD         0.2120
      8 C07       -20.1620   10.6110  -15.6230 C.2       1 6QD         0.1015
      9 N08       -20.4950   10.2130  -16.8730 N.2       1 6QD        -0.3233
     10 C09       -20.8300    8.9490  -16.8330 C.2       1 6QD         0.0964
     11 N10       -20.7270    8.5070  -15.5910 N.pl3     1 6QD        -0.2133
     12 C11       -21.0090    7.1710  -15.1530 C.3       1 6QD         0.0623
     13 C12       -22.5370    6.9070  -15.1510 C.3       1 6QD        -0.0248
     14 C13       -22.8780    5.5620  -14.5330 C.3       1 6QD        -0.0492
     15 C14       -24.1520    4.8810  -15.1850 C.3       1 6QD        -0.0379
     16 P16       -25.7440    4.7590  -17.4080 P.3       1 6QD         0.0579
     17 O17       -25.4140    5.2320  -18.8080 O.co2     1 6QD        -0.5623
     18 O18       -25.3820    3.3210  -17.2680 O.co2     1 6QD        -0.5623
     19 O19       -27.2310    4.9340  -17.1520 O.co2     1 6QD        -0.5623
     20 H1        -24.0380    6.3139  -16.7502 H         1 6QD         0.0451
     21 H2        -25.4981    6.4389  -15.7114 H         1 6QD         0.0451
     22 H3        -19.3763   10.9754  -11.7872 H         1 6QD         0.1570
     23 H4        -20.1427    8.8088  -12.7917 H         1 6QD         0.2411
     24 H5        -21.1446    8.3538  -17.6890 H         1 6QD         0.1177
     25 H6        -20.6175    7.0346  -14.1341 H         1 6QD         0.0620
     26 H7        -20.5200    6.4573  -15.8323 H         1 6QD         0.0620
     27 H8        -22.9024    6.9247  -16.1884 H         1 6QD         0.0292
     28 H9        -23.0343    7.7001  -14.5734 H         1 6QD         0.0292
     29 H10       -23.0706    5.7089  -13.4600 H         1 6QD         0.0267
     30 H11       -22.0173    4.8894  -14.6623 H         1 6QD         0.0267
     31 H12       -23.8412    3.9398  -15.6620 H         1 6QD         0.0279
     32 H13       -24.8805    4.6658  -14.3894 H         1 6QD         0.0279
@<TRIPOS>BOND
     1   15    1 1  
     2    1   16 1  
     3    3    2 2  
     4    3    4 1  
     5    8    3 1  
     6    5    4 2  
     7    6    5 1  
     8    7    6 1  
     9    7    8 2  
    10   11    7 1  
    11    9    8 1  
    12   10    9 2  
    13   11   10 1  
    14   12   11 1  
    15   13   12 1  
    16   14   13 1  
    17   14   15 1  
    18   16   17 ar 
    19   16   18 ar 
    20   16   19 ar 
    21    1   20 1  
    22    1   21 1  
    23    5   22 1  
    24    6   23 1  
    25   10   24 1  
    26   12   25 1  
    27   12   26 1  
    28   13   27 1  
    29   13   28 1  
    30   14   29 1  
    31   14   30 1  
    32   15   31 1  
    33   15   32 1  
@<TRIPOS>SUBSTRUCTURE
     1 6QD         1

