3waw_ligand
  -I-interpret- 

 42 44  0  0  0  0  0  0  0  0999 V2000
   19.9710   40.3730   19.8830 C   0  0  0  0  0
   19.4810   40.3840   18.6120 C   0  0  0  0  0
   18.1580   39.9420   18.2970 N   0  0  0  0  0
   17.7170   40.0860   16.7560 C   0  0  0  0  0
   17.4020   39.3810   16.4460 C   0  0  0  0  0
   16.9650   39.3530   19.2140 C   0  0  0  0  0
   16.5140   38.7210   18.8830 C   0  0  0  0  0
   16.1620   38.8370   17.3110 N   0  0  0  0  0
   14.8190   38.3730   17.0310 C   0  0  0  0  0
   14.1340   38.2060   15.4910 S   0  0  0  0  0
   13.8980   37.9610   17.9460 N   0  0  0  0  0
   12.6990   37.5390   17.4030 C   0  0  0  0  0
   11.6260   37.0750   18.1290 O   0  0  0  0  0
   12.6370   37.6030   16.0090 C   0  0  0  0  0
   11.4170   37.1950   15.2490 C   0  0  0  0  0
   11.4620   37.1850   13.7560 C   0  0  0  0  0
   11.0400   36.0190   13.1460 C   0  0  0  0  0
   11.0160   35.9110   11.7690 C   0  0  0  0  0
   10.4950   34.4230   11.0520 Cl  0  0  0  0  0
   11.4140   36.9880   10.9810 C   0  0  0  0  0
   11.3780   36.8250    9.2530 Cl  0  0  0  0  0
   11.8280   38.1740   11.5900 C   0  0  0  0  0
   11.8450   38.2810   12.9810 C   0  0  0  0  0
   19.3493   41.0060   20.5162 H   0  0  0  0  0
   19.9613   39.3525   20.2660 H   0  0  0  0  0
   20.9931   40.7517   19.8803 H   0  0  0  0  0
   20.1174   39.6700   18.0893 H   0  0  0  0  0
   19.4609   41.4437   18.3578 H   0  0  0  0  0
   18.6039   40.3407   16.1758 H   0  0  0  0  0
   16.9441   40.8524   16.6986 H   0  0  0  0  0
   18.1855   38.6234   16.4635 H   0  0  0  0  0
   17.0470   39.5841   15.4356 H   0  0  0  0  0
   16.2664   40.1756   19.3666 H   0  0  0  0  0
   17.4413   38.9492   20.1074 H   0  0  0  0  0
   15.5588   38.7232   19.4082 H   0  0  0  0  0
   17.1243   37.8244   18.9913 H   0  0  0  0  0
   10.9122   36.8434   17.5304 H   0  0  0  0  0
   10.6659   37.9434   15.5018 H   0  0  0  0  0
   11.2452   36.1563   15.5312 H   0  0  0  0  0
   10.7225   35.1750   13.7583 H   0  0  0  0  0
   12.1391   39.0196   10.9765 H   0  0  0  0  0
   12.1543   39.2111   13.4578 H   0  0  0  0  0
  1  2  1  0  0  0
  2  3  1  0  0  0
  3  4  1  0  0  0
  3  6  1  0  0  0
  4  5  1  0  0  0
  5  8  1  0  0  0
  6  7  1  0  0  0
  7  8  1  0  0  0
  8  9  1  0  0  0
  9 10  4  0  0  0
  9 11  4  0  0  0
 10 14  4  0  0  0
 11 12  4  0  0  0
 12 13  1  0  0  0
 12 14  4  0  0  0
 14 15  1  0  0  0
 15 16  1  0  0  0
 16 17  4  0  0  0
 16 23  4  0  0  0
 17 18  4  0  0  0
 18 19  1  0  0  0
 18 20  4  0  0  0
 20 21  1  0  0  0
 20 22  4  0  0  0
 22 23  4  0  0  0
  1 24  1  0  0  0
  1 25  1  0  0  0
  1 26  1  0  0  0
  2 27  1  0  0  0
  2 28  1  0  0  0
  4 29  1  0  0  0
  4 30  1  0  0  0
  5 31  1  0  0  0
  5 32  1  0  0  0
  6 33  1  0  0  0
  6 34  1  0  0  0
  7 35  1  0  0  0
  7 36  1  0  0  0
 13 37  1  0  0  0
 15 38  1  0  0  0
 15 39  1  0  0  0
 17 40  1  0  0  0
 22 41  1  0  0  0
 23 42  1  0  0  0
M  END
$$$$
