5h0g_ligand
  -I-interpret- 

 78 82  0  0  0  0  0  0  0  0999 V2000
    5.3380   -5.3380   -2.5520 N   0  0  0  0  0
    6.2980   -4.8320   -1.6890 C   0  0  0  0  0
    6.1780   -3.7610   -0.8730 N   0  0  0  0  0
    4.9400   -3.1710   -0.9740 C   0  0  0  0  0
    3.8380   -3.5770   -1.8050 C   0  0  0  0  0
    4.1330   -4.7070   -2.5920 C   0  0  0  0  0
    4.5540   -2.0580   -0.2670 N   0  0  0  0  0
    3.2290   -1.7660   -0.6410 C   0  0  0  0  0
    2.7620   -2.6340   -1.5860 C   0  0  0  0  0
    1.4190   -2.5520   -2.0770 C   0  0  0  0  0
    5.3920   -1.3530    0.7160 C   0  0  0  0  0
    3.1360   -5.1960   -3.4880 N   0  0  0  0  0
    5.5830    0.0740    0.2220 C   0  0  0  0  0
    6.3470    0.9290    1.2680 C   0  0  0  0  0
    5.6070    0.9320    2.6380 C   0  0  0  0  0
    5.4400   -0.5120    3.1010 C   0  0  0  0  0
    4.6920   -1.3470    2.0610 C   0  0  0  0  0
    6.4120    1.7010    3.6170 N   0  3  0  0  0
    6.7470    3.0850    3.2650 C   0  0  0  0  0
    0.7860   -1.4270   -2.5940 C   0  0  0  0  0
   -0.5420   -1.4600   -3.0300 C   0  0  0  0  0
   -1.3010   -2.6290   -2.9320 C   0  0  0  0  0
   -0.6910   -3.7620   -2.3940 C   0  0  0  0  0
    0.6310   -3.7090   -1.9730 C   0  0  0  0  0
   -2.6300   -2.6760   -3.3160 O   0  0  0  0  0
   -3.1040   -2.1970   -4.5030 C   0  0  0  0  0
   -2.3320   -2.2870   -5.6760 C   0  0  0  0  0
   -2.8340   -1.8120   -6.8710 C   0  0  0  0  0
   -4.1070   -1.2540   -6.9170 C   0  0  0  0  0
   -4.8780   -1.1830   -5.7660 C   0  0  0  0  0
   -4.3910   -1.6410   -4.5480 C   0  0  0  0  0
    7.3990    3.6590    4.5250 C   0  0  0  0  0
    6.8560    3.5500    5.6270 O   0  0  0  0  0
    8.6230    4.2900    4.4020 N   0  0  0  0  0
    5.5240    3.9810    2.8560 C   0  0  0  0  0
    5.9680    5.3770    2.3610 C   0  0  0  0  0
    6.7440    5.2790    1.0340 C   0  0  0  0  0
    4.7510    6.2950    2.1700 C   0  0  0  0  0
    9.2700    4.8400    5.5900 C   0  0  0  0  0
    7.2540   -5.3550   -1.6660 H   0  0  0  0  0
    2.6450   -0.9446   -0.2257 H   0  0  0  0  0
    6.3576   -1.8460    0.8285 H   0  0  0  0  0
    3.3342   -6.0021   -4.0808 H   0  0  0  0  0
    2.2251   -4.7395   -3.5357 H   0  0  0  0  0
    4.6024    0.5200    0.0557 H   0  0  0  0  0
    6.1638    0.0494   -0.7001 H   0  0  0  0  0
    6.4085    1.9541    0.9026 H   0  0  0  0  0
    7.3400    0.5023    1.4090 H   0  0  0  0  0
    4.6250    1.3963    2.5472 H   0  0  0  0  0
    4.8646   -0.5148    4.0268 H   0  0  0  0  0
    6.4292   -0.9457    3.2474 H   0  0  0  0  0
    4.6452   -2.3743    2.4224 H   0  0  0  0  0
    3.7025   -0.9106    1.9252 H   0  0  0  0  0
    7.3028    1.2097    3.6914 H   0  0  0  0  0
    5.8421    1.7590    4.4610 H   0  0  0  0  0
    7.3862    3.0827    2.3821 H   0  0  0  0  0
    1.3416   -0.4917   -2.6613 H   0  0  0  0  0
   -0.9915   -0.5612   -3.4522 H   0  0  0  0  0
   -1.2535   -4.6913   -2.3038 H   0  0  0  0  0
    1.0768   -4.6057   -1.5426 H   0  0  0  0  0
   -1.3375   -2.7318   -5.6411 H   0  0  0  0  0
   -2.2329   -1.8743   -7.7781 H   0  0  0  0  0
   -4.4997   -0.8717   -7.8592 H   0  0  0  0  0
   -5.8818   -0.7612   -5.8179 H   0  0  0  0  0
   -4.9973   -1.5696   -3.6450 H   0  0  0  0  0
    9.0704    4.3707    3.4889 H   0  0  0  0  0
    4.8919    4.1159    3.7337 H   0  0  0  0  0
    4.9942    3.4840    2.0434 H   0  0  0  0  0
    6.6254    5.7984    3.1214 H   0  0  0  0  0
    7.6315    4.6629    1.1782 H   0  0  0  0  0
    6.1062    4.8274    0.2741 H   0  0  0  0  0
    7.0414    6.2776    0.7139 H   0  0  0  0  0
    4.0783    5.8558    1.4333 H   0  0  0  0  0
    4.2287    6.4061    3.1202 H   0  0  0  0  0
    5.0856    7.2720    1.8214 H   0  0  0  0  0
    8.6224    5.5931    6.0391 H   0  0  0  0  0
    9.4503    4.0395    6.3075 H   0  0  0  0  0
   10.2185    5.2966    5.3071 H   0  0  0  0  0
  1  2  4  0  0  0
  1  6  4  0  0  0
  2  3  4  0  0  0
  3  4  4  0  0  0
  4  5  4  0  0  0
  4  7  4  0  0  0
  5  6  4  0  0  0
  5  9  4  0  0  0
  6 12  1  0  0  0
  7  8  4  0  0  0
  7 11  1  0  0  0
  8  9  4  0  0  0
  9 10  1  0  0  0
 10 20  4  0  0  0
 10 24  4  0  0  0
 11 13  1  0  0  0
 11 17  1  0  0  0
 13 14  1  0  0  0
 14 15  1  0  0  0
 15 16  1  0  0  0
 15 18  1  0  0  0
 16 17  1  0  0  0
 18 19  1  0  0  0
 19 32  1  0  0  0
 19 35  1  0  0  0
 20 21  4  0  0  0
 21 22  4  0  0  0
 22 23  4  0  0  0
 22 25  1  0  0  0
 23 24  4  0  0  0
 25 26  1  0  0  0
 26 27  4  0  0  0
 26 31  4  0  0  0
 27 28  4  0  0  0
 28 29  4  0  0  0
 29 30  4  0  0  0
 30 31  4  0  0  0
 32 33  2  0  0  0
 32 34  1  0  0  0
 34 39  1  0  0  0
 35 36  1  0  0  0
 36 37  1  0  0  0
 36 38  1  0  0  0
  2 40  1  0  0  0
  8 41  1  0  0  0
 11 42  1  0  0  0
 12 43  1  0  0  0
 12 44  1  0  0  0
 13 45  1  0  0  0
 13 46  1  0  0  0
 14 47  1  0  0  0
 14 48  1  0  0  0
 15 49  1  0  0  0
 16 50  1  0  0  0
 16 51  1  0  0  0
 17 52  1  0  0  0
 17 53  1  0  0  0
 18 54  1  0  0  0
 18 55  1  0  0  0
 19 56  1  0  0  0
 20 57  1  0  0  0
 21 58  1  0  0  0
 23 59  1  0  0  0
 24 60  1  0  0  0
 27 61  1  0  0  0
 28 62  1  0  0  0
 29 63  1  0  0  0
 30 64  1  0  0  0
 31 65  1  0  0  0
 34 66  1  0  0  0
 35 67  1  0  0  0
 35 68  1  0  0  0
 36 69  1  0  0  0
 37 70  1  0  0  0
 37 71  1  0  0  0
 37 72  1  0  0  0
 38 73  1  0  0  0
 38 74  1  0  0  0
 38 75  1  0  0  0
 39 76  1  0  0  0
 39 77  1  0  0  0
 39 78  1  0  0  0
M  END
$$$$
