6eip_ligand
  -I-interpret- 

 59 63  0  0  0  0  0  0  0  0999 V2000
   -4.1760   30.5670   -9.8970 C   0  0  0  0  0
   -4.5420   31.6910   -9.1400 C   0  0  0  0  0
   -5.9030   31.8340   -8.8090 C   0  0  0  0  0
   -6.8410   30.8860   -9.2360 N   0  0  0  0  0
   -5.1430   29.6810  -10.2670 N   0  0  0  0  0
   -1.3640   29.6230  -12.3270 C   0  0  0  0  0
   -1.6880   28.9390  -13.5850 C   0  0  0  0  0
   -2.4840   27.7080  -13.1360 C   0  0  0  0  0
   -3.0140   28.0670  -11.7500 C   0  0  0  0  0
   -2.7770   29.5860  -11.6900 C   0  0  0  0  0
   -2.9230   30.2290  -10.3110 N   0  0  0  0  0
   -1.6530   30.4260   -9.5050 C   0  0  0  0  0
   -1.2440   29.0960   -8.8360 C   0  0  0  0  0
   -1.0680   29.3430   -7.3530 C   0  0  0  0  0
   -2.0370   30.4820   -7.1900 C   0  0  0  0  0
   -1.6350   31.3860   -8.2930 C   0  0  0  0  0
   -2.4270   32.5420   -8.3320 C   0  0  0  0  0
   -1.8490   33.5610   -7.9450 O   0  0  0  0  0
   -3.7290   32.6800   -8.6820 N   0  0  0  0  0
   -4.2690   34.0920   -8.6460 C   0  0  0  0  0
   -6.4590   29.8230   -9.9610 C   0  0  0  0  0
   -7.4350   28.9640  -10.3280 N   0  0  0  0  0
   -7.2200   27.9830  -11.2200 C   0  0  0  0  0
   -7.5690   26.6850  -10.8600 C   0  0  0  0  0
   -7.3800   25.6240  -11.7430 C   0  0  0  0  0
   -6.8410   25.8290  -13.0150 C   0  0  0  0  0
   -6.6650   24.7200  -13.8600 C   0  0  0  0  0
   -7.4680   23.7890  -13.8530 O   0  0  0  0  0
   -5.5510   24.6820  -14.5980 N   0  0  0  0  0
   -6.5030   27.1400  -13.3850 C   0  0  0  0  0
   -6.6970   28.2060  -12.4980 C   0  0  0  0  0
   -6.2288   32.6887   -8.2162 H   0  0  0  0  0
   -0.9231   30.6143  -12.4324 H   0  0  0  0  0
   -0.5710   29.1656  -11.7354 H   0  0  0  0  0
   -0.7975   28.6729  -14.1545 H   0  0  0  0  0
   -2.2531   29.5725  -14.2687 H   0  0  0  0  0
   -1.8643   26.8116  -13.1127 H   0  0  0  0  0
   -3.2913   27.4729  -13.8296 H   0  0  0  0  0
   -2.5159   27.5237  -10.9470 H   0  0  0  0  0
   -4.0584   27.7904  -11.6060 H   0  0  0  0  0
   -3.5222   30.1971  -12.1993 H   0  0  0  0  0
   -1.0166   30.8465  -10.2836 H   0  0  0  0  0
   -0.3114   28.7323   -9.2673 H   0  0  0  0  0
   -2.0146   28.3428   -9.0003 H   0  0  0  0  0
   -0.0465   29.5589   -7.0400 H   0  0  0  0  0
   -1.2607   28.4796   -6.7162 H   0  0  0  0  0
   -1.9910   30.9516   -6.2074 H   0  0  0  0  0
   -3.0808   30.1727   -7.2430 H   0  0  0  0  0
   -0.6545   31.8558   -8.2153 H   0  0  0  0  0
   -4.1791   34.4883   -7.6346 H   0  0  0  0  0
   -3.6982   34.7156   -9.3340 H   0  0  0  0  0
   -5.3176   34.0863   -8.9435 H   0  0  0  0  0
   -8.3626   29.0633   -9.9155 H   0  0  0  0  0
   -7.9956   26.4959   -9.8749 H   0  0  0  0  0
   -7.6578   24.6158  -11.4355 H   0  0  0  0  0
   -5.3492   23.8656  -15.1751 H   0  0  0  0  0
   -4.9028   25.4694  -14.5840 H   0  0  0  0  0
   -6.0850   27.3304  -14.3735 H   0  0  0  0  0
   -6.4381   29.2189  -12.8063 H   0  0  0  0  0
  1  2  4  0  0  0
  1  5  4  0  0  0
 11  1  1  0  0  0
  2  3  4  0  0  0
  2 19  1  0  0  0
  3  4  4  0  0  0
 21  4  4  0  0  0
  5 21  4  0  0  0
  6  7  1  0  0  0
 10  6  1  0  0  0
  8  7  1  0  0  0
  9  8  1  0  0  0
 10  9  1  0  0  0
 10 11  1  0  0  0
 11 12  1  0  0  0
 12 13  1  0  0  0
 12 16  1  0  0  0
 13 14  1  0  0  0
 14 15  1  0  0  0
 15 16  1  0  0  0
 16 17  1  0  0  0
 17 18  2  0  0  0
 17 19  1  0  0  0
 19 20  1  0  0  0
 21 22  1  0  0  0
 22 23  1  0  0  0
 23 24  4  0  0  0
 23 31  4  0  0  0
 24 25  4  0  0  0
 25 26  4  0  0  0
 26 27  1  0  0  0
 26 30  4  0  0  0
 27 28  2  0  0  0
 27 29  1  0  0  0
 30 31  4  0  0  0
  3 32  1  0  0  0
  6 33  1  0  0  0
  6 34  1  0  0  0
  7 35  1  0  0  0
  7 36  1  0  0  0
  8 37  1  0  0  0
  8 38  1  0  0  0
  9 39  1  0  0  0
  9 40  1  0  0  0
 10 41  1  0  0  0
 12 42  1  0  0  0
 13 43  1  0  0  0
 13 44  1  0  0  0
 14 45  1  0  0  0
 14 46  1  0  0  0
 15 47  1  0  0  0
 15 48  1  0  0  0
 16 49  1  0  0  0
 20 50  1  0  0  0
 20 51  1  0  0  0
 20 52  1  0  0  0
 22 53  1  0  0  0
 24 54  1  0  0  0
 25 55  1  0  0  0
 29 56  1  0  0  0
 29 57  1  0  0  0
 30 58  1  0  0  0
 31 59  1  0  0  0
M  END
$$$$
