5mjb_ligand
  -I-interpret- 

 36 38  0  0  0  0  0  0  0  0999 V2000
    0.3770   47.8060  -11.4050 C   0  0  0  0  0
   -1.0360   47.8490  -11.5540 C   0  0  0  0  0
   -1.7230   49.0390  -11.1940 C   0  0  0  0  0
    2.0760   53.1420   -9.2090 C   0  0  0  0  0
   -3.7240   48.0480  -11.6880 C   0  0  0  0  0
   -1.8640   46.7500  -11.9730 C   0  0  0  0  0
   -1.7770   44.4020  -12.7550 C   0  0  0  0  0
   -1.7750   43.2900  -11.9130 C   0  0  0  0  0
   -2.2410   42.0640  -12.3720 C   0  0  0  0  0
   -2.7120   41.9350  -13.6730 C   0  0  0  0  0
   -2.6900   43.0250  -14.5250 C   0  0  0  0  0
   -2.2560   44.2500  -14.0590 C   0  0  0  0  0
   -2.2260   45.5980  -15.1530 Cl  0  0  0  0  0
   -2.2120   40.9990  -11.5170 O   0  0  0  0  0
   -1.2780   45.5990  -12.3510 N   0  0  0  0  0
   -3.1970   46.8760  -12.0780 N   0  0  0  0  0
   -3.0890   49.1530  -11.2760 N   0  0  0  0  0
   -0.9840   50.1380  -10.6960 C   0  0  0  0  0
    0.3970   50.0770  -10.6210 C   0  0  0  0  0
    1.0630   48.8990  -10.9680 C   0  0  0  0  0
    1.2380   51.0930  -10.1150 N   0  0  0  0  0
    0.9930   52.4110   -9.9710 C   0  0  0  0  0
   -0.0160   52.9930  -10.3810 O   0  0  0  0  0
    0.9170   46.8895  -11.6427 H   0  0  0  0  0
    2.4847   53.9365   -9.8334 H   0  0  0  0  0
    1.6525   53.5727   -8.3017 H   0  0  0  0  0
    2.8684   52.4417   -8.9448 H   0  0  0  0  0
   -4.8121   48.1079  -11.7096 H   0  0  0  0  0
   -1.4066   43.3830  -10.8914 H   0  0  0  0  0
   -3.0980   40.9771  -14.0216 H   0  0  0  0  0
   -3.0141   42.9170  -15.5601 H   0  0  0  0  0
   -2.5604   40.2231  -11.9622 H   0  0  0  0  0
   -0.2587   45.6320  -12.3300 H   0  0  0  0  0
   -1.5051   51.0380  -10.3695 H   0  0  0  0  0
    2.1491   48.8536  -10.8878 H   0  0  0  0  0
    2.1633   50.7854   -9.8156 H   0  0  0  0  0
  1  2  4  0  0  0
 20  1  4  0  0  0
  3  2  4  0  0  0
  2  6  4  0  0  0
  3 17  4  0  0  0
 18  3  4  0  0  0
 22  4  1  0  0  0
  5 16  4  0  0  0
 17  5  4  0  0  0
  6 15  1  0  0  0
  6 16  4  0  0  0
  7  8  4  0  0  0
  7 12  4  0  0  0
 15  7  1  0  0  0
  8  9  4  0  0  0
  9 10  4  0  0  0
  9 14  1  0  0  0
 11 10  4  0  0  0
 12 11  4  0  0  0
 12 13  1  0  0  0
 19 18  4  0  0  0
 19 20  4  0  0  0
 21 19  1  0  0  0
 21 22  1  0  0  0
 22 23  2  0  0  0
  1 24  1  0  0  0
  4 25  1  0  0  0
  4 26  1  0  0  0
  4 27  1  0  0  0
  5 28  1  0  0  0
  8 29  1  0  0  0
 10 30  1  0  0  0
 11 31  1  0  0  0
 14 32  1  0  0  0
 15 33  1  0  0  0
 18 34  1  0  0  0
 20 35  1  0  0  0
 21 36  1  0  0  0
M  END
$$$$
