4r0i_ligand
  -I-interpret- 

 71 74  0  0  0  0  0  0  0  0999 V2000
   15.1450    7.1660   28.1250 N   0  0  0  0  0
   13.1490   13.7230   25.6980 N   0  0  0  0  0
   20.1130    5.5960   28.1660 C   0  0  0  0  0
   19.7500    6.5760   29.1070 C   0  0  0  0  0
   20.7800    7.3410   29.7160 C   0  0  0  0  0
   19.1120    4.8300   27.5710 C   0  0  0  0  0
   17.7630    5.0210   27.9030 C   0  0  0  0  0
   18.3890    6.7800   29.4290 C   0  0  0  0  0
   13.5680    7.1150   26.3790 C   0  0  0  0  0
   15.9800    5.8320   24.0110 C   0  0  0  0  0
   18.2860    5.2260   23.3980 C   0  0  0  0  0
   13.4320   10.0530   25.5850 C   0  0  0  0  0
   13.7620   11.3740   25.2590 C   0  0  0  0  0
   14.5050   11.6420   24.0840 C   0  0  0  0  0
   14.6000    9.2970   23.6020 C   0  0  0  0  0
   19.3730    4.1390   23.4180 C   0  0  0  0  0
   22.1470    7.1460   29.3850 C   0  0  0  0  0
   13.5070    7.7230   25.0870 O   0  0  0  0  0
   15.7630    6.1930   29.2110 S   0  0  0  0  0
   22.4990    6.1610   28.4400 C   0  0  0  0  0
   16.5580    6.9520   24.7470 N   0  0  0  0  0
   16.7720    8.3600   26.4770 O   0  0  0  0  0
   21.4780    5.3890   27.8390 C   0  0  0  0  0
   15.5850    6.8380   30.5460 O   0  0  0  0  0
   12.7360   12.1800   27.3340 N   0  0  0  0  0
   14.9720    4.9240   29.0900 O   0  0  0  0  0
   18.6970    3.3130   21.2210 N   0  3  0  0  0
   17.3620    5.9940   28.8440 C   0  0  0  0  0
   15.0110    6.7520   26.7500 C   0  0  0  0  0
   16.1670    7.4060   25.9590 C   0  0  0  0  0
   13.8540    9.0130   24.7720 C   0  0  0  0  0
   17.0250    4.7180   24.0900 C   0  0  0  0  0
   18.7480    6.5070   24.1050 C   0  0  0  0  0
   17.6690    7.5800   24.0230 C   0  0  0  0  0
   14.9410   10.6130   23.2560 C   0  0  0  0  0
   13.2220   12.4580   26.1440 C   0  0  0  0  0
   18.9580    2.9120   22.5980 C   0  0  0  0  0
   14.8375    8.0983   28.4018 H   0  0  0  0  0
   12.7231   14.4449   26.2792 H   0  0  0  0  0
   13.5195   13.9616   24.7781 H   0  0  0  0  0
   20.5146    8.0964   30.4557 H   0  0  0  0  0
   19.3818    4.0711   26.8366 H   0  0  0  0  0
   17.0049    4.4026   27.4224 H   0  0  0  0  0
   18.1219    7.5590   30.1431 H   0  0  0  0  0
   12.9715    6.2029   26.3640 H   0  0  0  0  0
   13.1854    7.8215   27.1156 H   0  0  0  0  0
   15.7570    6.1016   22.9787 H   0  0  0  0  0
   15.0266    5.5199   24.4374 H   0  0  0  0  0
   18.0814    5.4573   22.3527 H   0  0  0  0  0
   12.8434    9.8426   26.4779 H   0  0  0  0  0
   14.7397   12.6740   23.8234 H   0  0  0  0  0
   14.9155    8.4765   22.9575 H   0  0  0  0  0
   19.5293    3.8267   24.4506 H   0  0  0  0  0
   20.2825    4.5530   22.9826 H   0  0  0  0  0
   22.9185    7.7535   29.8581 H   0  0  0  0  0
   23.5438    5.9967   28.1762 H   0  0  0  0  0
   21.7442    4.6217   27.1120 H   0  0  0  0  0
   12.7226   11.2160   27.6670 H   0  0  0  0  0
   18.4210    2.4957   20.6766 H   0  0  0  0  0
   17.9458    4.0028   21.2056 H   0  0  0  0  0
   19.5422    3.7201   20.8207 H   0  0  0  0  0
   15.1233    5.6912   26.5262 H   0  0  0  0  0
   16.6586    3.8150   23.6018 H   0  0  0  0  0
   17.2351    4.4641   25.1290 H   0  0  0  0  0
   19.6511    6.8746   23.6177 H   0  0  0  0  0
   18.9449    6.2819   25.1532 H   0  0  0  0  0
   17.9768    8.5349   24.4490 H   0  0  0  0  0
   17.4148    7.8591   23.0005 H   0  0  0  0  0
   15.5308   10.8231   22.3638 H   0  0  0  0  0
   18.0553    2.4769   23.0269 H   0  0  0  0  0
   19.7608    2.1749   22.6157 H   0  0  0  0  0
  1 19  1  0  0  0
 29  1  1  0  0  0
 36  2  1  0  0  0
  4  3  4  0  0  0
  6  3  4  0  0  0
  3 23  4  0  0  0
  4  5  4  0  0  0
  8  4  4  0  0  0
  5 17  4  0  0  0
  7  6  4  0  0  0
 28  7  4  0  0  0
 28  8  4  0  0  0
  9 18  1  0  0  0
 29  9  1  0  0  0
 21 10  1  0  0  0
 10 32  1  0  0  0
 11 16  1  0  0  0
 32 11  1  0  0  0
 11 33  1  0  0  0
 12 13  4  0  0  0
 31 12  4  0  0  0
 13 14  4  0  0  0
 13 36  1  0  0  0
 35 14  4  0  0  0
 31 15  4  0  0  0
 15 35  4  0  0  0
 16 37  1  0  0  0
 17 20  4  0  0  0
 18 31  1  0  0  0
 19 24  2  0  0  0
 19 26  2  0  0  0
 19 28  1  0  0  0
 23 20  4  0  0  0
 30 21  1  0  0  0
 21 34  1  0  0  0
 30 22  2  0  0  0
 36 25  2  0  0  0
 37 27  1  0  0  0
 29 30  1  0  0  0
 33 34  1  0  0  0
  1 38  1  0  0  0
  2 39  1  0  0  0
  2 40  1  0  0  0
  5 41  1  0  0  0
  6 42  1  0  0  0
  7 43  1  0  0  0
  8 44  1  0  0  0
  9 45  1  0  0  0
  9 46  1  0  0  0
 10 47  1  0  0  0
 10 48  1  0  0  0
 11 49  1  0  0  0
 12 50  1  0  0  0
 14 51  1  0  0  0
 15 52  1  0  0  0
 16 53  1  0  0  0
 16 54  1  0  0  0
 17 55  1  0  0  0
 20 56  1  0  0  0
 23 57  1  0  0  0
 25 58  1  0  0  0
 27 59  1  0  0  0
 27 60  1  0  0  0
 27 61  1  0  0  0
 29 62  1  0  0  0
 32 63  1  0  0  0
 32 64  1  0  0  0
 33 65  1  0  0  0
 33 66  1  0  0  0
 34 67  1  0  0  0
 34 68  1  0  0  0
 35 69  1  0  0  0
 37 70  1  0  0  0
 37 71  1  0  0  0
M  END
$$$$
