3oim_ligand
  -I-interpret- 

 55 58  0  0  0  0  0  0  0  0999 V2000
   -3.0620    2.7340   14.1670 C   0  0  0  0  0
   -5.1170   -0.7390   15.9480 N   0  0  0  0  0
   -4.4020    1.2790   17.1310 O   0  0  0  0  0
   -5.2740    0.7810   16.1110 S   0  0  0  0  0
   -4.4670    2.5980   14.3770 C   0  0  0  0  0
   -6.6830    1.1870   16.1950 O   0  0  0  0  0
   -5.0080    3.8360   14.5630 C   0  0  0  0  0
   -4.6540    1.3080   14.8050 O   0  0  0  0  0
   -4.3750    5.0280   14.1670 C   0  0  0  0  0
   -3.0060    5.1270   13.8860 C   0  0  0  0  0
   -2.3470    3.9150   13.8370 C   0  0  0  0  0
   -0.8530    3.8840   13.5160 C   0  0  0  0  0
   -0.4460    5.0250   12.5850 C   0  0  0  0  0
   -0.8010    6.3280   13.2820 C   0  0  0  0  0
   -2.3530    6.3670   13.5500 C   0  0  0  0  0
   -2.7200    7.6610   14.2930 C   0  0  0  0  0
   -2.2710    8.9680   13.5560 C   0  0  0  0  0
   -0.7460    8.8660   13.4180 C   0  0  0  0  0
   -0.3170    7.6450   12.6140 C   0  0  0  0  0
    1.2060    7.8570   12.5910 C   0  0  0  0  0
    1.3530    9.4210   12.7070 C   0  0  0  0  0
   -0.0670    9.9350   12.5770 C   0  0  0  0  0
   -0.0540   11.2270   13.2360 O   0  0  0  0  0
   -0.1600    8.8810   14.8380 C   0  0  0  0  0
   -6.4730    3.8660   14.8490 C   0  0  0  0  0
   -6.6690    4.2120   16.3070 C   0  0  0  0  0
   -2.4691    1.8255   14.2722 H   0  0  0  0  0
   -4.4541   -1.2488   16.5321 H   0  0  0  0  0
   -5.6757   -1.2381   15.2558 H   0  0  0  0  0
   -4.9848    5.9266   14.0733 H   0  0  0  0  0
   -0.6302    2.9405   13.0177 H   0  0  0  0  0
   -0.3007    3.9913   14.4496 H   0  0  0  0  0
   -0.9695    4.9462   11.6322 H   0  0  0  0  0
    0.6225    4.9833   12.3737 H   0  0  0  0  0
   -0.2317    6.3088   14.2113 H   0  0  0  0  0
   -2.8670    6.4425   12.5918 H   0  0  0  0  0
   -2.2061    7.6389   15.2540 H   0  0  0  0  0
   -3.8067    7.6914   14.3720 H   0  0  0  0  0
   -2.5603    9.8581   14.1147 H   0  0  0  0  0
   -2.7524    9.0600   12.5824 H   0  0  0  0  0
   -0.7387    7.5476   11.6136 H   0  0  0  0  0
    1.6729    7.4562   11.6913 H   0  0  0  0  0
    1.7168    7.3258   13.3941 H   0  0  0  0  0
    2.0120    9.8313   11.9419 H   0  0  0  0  0
    1.8169    9.7233   13.6459 H   0  0  0  0  0
   -0.5161   10.0713   11.5932 H   0  0  0  0  0
    0.3826   11.8687   12.6710 H   0  0  0  0  0
   -0.4395    9.8098   15.3352 H   0  0  0  0  0
   -0.5524    8.0339   15.4006 H   0  0  0  0  0
    0.9262    8.8099   14.7822 H   0  0  0  0  0
   -6.9143    2.8926   14.6347 H   0  0  0  0  0
   -6.9599    4.6117   14.2206 H   0  0  0  0  0
   -6.1834    3.4580   16.9265 H   0  0  0  0  0
   -6.2294    5.1886   16.5096 H   0  0  0  0  0
   -7.7350    4.2381   16.5328 H   0  0  0  0  0
  5  1  4  0  0  0
  1 11  4  0  0  0
  4  2  1  0  0  0
  4  3  2  0  0  0
  4  6  2  0  0  0
  8  4  1  0  0  0
  5  7  4  0  0  0
  5  8  1  0  0  0
  7  9  4  0  0  0
  7 25  1  0  0  0
  9 10  4  0  0  0
 10 11  4  0  0  0
 10 15  1  0  0  0
 11 12  1  0  0  0
 12 13  1  0  0  0
 13 14  1  0  0  0
 14 15  1  0  0  0
 14 19  1  0  0  0
 15 16  1  0  0  0
 16 17  1  0  0  0
 17 18  1  0  0  0
 18 19  1  0  0  0
 18 22  1  0  0  0
 18 24  1  0  0  0
 19 20  1  0  0  0
 20 21  1  0  0  0
 21 22  1  0  0  0
 22 23  1  0  0  0
 25 26  1  0  0  0
  1 27  1  0  0  0
  2 28  1  0  0  0
  2 29  1  0  0  0
  9 30  1  0  0  0
 12 31  1  0  0  0
 12 32  1  0  0  0
 13 33  1  0  0  0
 13 34  1  0  0  0
 14 35  1  0  0  0
 15 36  1  0  0  0
 16 37  1  0  0  0
 16 38  1  0  0  0
 17 39  1  0  0  0
 17 40  1  0  0  0
 19 41  1  0  0  0
 20 42  1  0  0  0
 20 43  1  0  0  0
 21 44  1  0  0  0
 21 45  1  0  0  0
 22 46  1  0  0  0
 23 47  1  0  0  0
 24 48  1  0  0  0
 24 49  1  0  0  0
 24 50  1  0  0  0
 25 51  1  0  0  0
 25 52  1  0  0  0
 26 53  1  0  0  0
 26 54  1  0  0  0
 26 55  1  0  0  0
M  END
$$$$
