4kwp_ligand
  -I-interpret- 

 31 33  0  0  0  0  0  0  0  0999 V2000
   22.9530  -32.0450   15.4250 Br  0  0  0  0  0
   22.8590  -30.6640   14.0990 C   0  0  0  0  0
   22.9950  -30.9840   12.7640 C   0  0  0  0  0
   23.3250  -32.8170   12.1400 Br  0  0  0  0  0
   22.9260  -29.9680   11.8710 C   0  0  0  0  0
   23.1630  -30.4300   10.0030 Br  0  0  0  0  0
   22.7190  -28.6510   12.2770 C   0  0  0  0  0
   22.6190  -27.3020   10.9000 Br  0  0  0  0  0
   22.5800  -28.3330   13.6560 C   0  0  0  0  0
   22.6620  -29.3580   14.5400 C   0  0  0  0  0
   22.5210  -28.8680   15.7930 N   0  0  0  0  0
   22.3390  -27.5300   15.7000 C   0  0  0  0  0
   22.3990  -27.1770   14.3900 N   0  0  0  0  0
   22.2170  -25.9730   13.9700 C   0  0  0  0  0
   23.1550  -25.0000   14.5030 O   0  0  0  0  0
   20.7550  -25.5210   14.5620 C   0  0  0  0  0
   21.0060  -24.1570   14.8930 C   0  0  0  0  0
   20.6370  -23.2880   13.7980 O   0  0  0  0  0
   22.3600  -24.0730   15.2090 C   0  0  0  0  0
   22.6590  -24.0540   16.7980 C   0  0  0  0  0
   22.0380  -25.1120   17.4430 O   0  0  0  0  0
   22.1724  -26.8504   16.5357 H   0  0  0  0  0
   22.3241  -25.9838   12.8853 H   0  0  0  0  0
   20.4143  -26.1238   15.4038 H   0  0  0  0  0
   19.9326  -25.6606   13.8604 H   0  0  0  0  0
   20.4048  -23.8287   15.7409 H   0  0  0  0  0
   20.8136  -22.3762   14.0410 H   0  0  0  0  0
   22.6712  -23.0907   14.8536 H   0  0  0  0  0
   22.2729  -23.1223   17.2114 H   0  0  0  0  0
   23.7351  -24.1409   16.9485 H   0  0  0  0  0
   22.2343  -25.0726   18.3819 H   0  0  0  0  0
  1  2  1  0  0  0
  2  3  4  0  0  0
  2 10  4  0  0  0
  3  4  1  0  0  0
  3  5  4  0  0  0
  5  6  1  0  0  0
  5  7  4  0  0  0
  7  8  1  0  0  0
  7  9  4  0  0  0
  9 10  4  0  0  0
  9 13  4  0  0  0
 10 11  4  0  0  0
 11 12  4  0  0  0
 12 13  4  0  0  0
 13 14  1  0  0  0
 14 15  1  0  0  0
 14 16  1  0  0  0
 15 19  1  0  0  0
 16 17  1  0  0  0
 17 18  1  0  0  0
 17 19  1  0  0  0
 19 20  1  0  0  0
 20 21  1  0  0  0
 12 22  1  0  0  0
 14 23  1  0  0  0
 16 24  1  0  0  0
 16 25  1  0  0  0
 17 26  1  0  0  0
 18 27  1  0  0  0
 19 28  1  0  0  0
 20 29  1  0  0  0
 20 30  1  0  0  0
 21 31  1  0  0  0
M  END
$$$$
