2r3y_ligand
  -I-interpret- 

 84 87  0  0  0  0  0  0  0  0999 V2000
   78.5220   24.1470   12.9790 N   0  3  0  0  0
   79.7540   24.0550   13.8150 C   0  0  0  0  0
   80.9240   23.5490   12.9780 C   0  0  0  0  0
   80.8340   22.4980   12.3420 O   0  0  0  0  0
   79.5480   23.0960   15.0090 C   0  0  0  0  0
   80.7680   23.1210   15.9160 C   0  0  0  0  0
   78.3000   23.4910   15.7810 C   0  0  0  0  0
   82.0190   24.3040   12.9830 N   0  0  0  0  0
   83.2110   23.9410   12.2220 C   0  0  0  0  0
   84.4250   23.6950   13.1200 C   0  0  0  0  0
   84.4140   24.0240   14.3090 O   0  0  0  0  0
   83.5430   25.0420   11.2030 C   0  0  0  0  0
   82.6270   25.1020    9.9930 C   0  0  0  0  0
   82.8510   26.0310    8.9760 C   0  0  0  0  0
   81.5510   24.2230    9.8510 C   0  0  0  0  0
   82.0310   26.0820    7.8480 C   0  0  0  0  0
   80.7240   24.2670    8.7270 C   0  0  0  0  0
   80.9710   25.1990    7.7310 C   0  0  0  0  0
   80.1630   25.2490    6.6180 O   0  0  0  0  0
   85.4680   23.1060   12.5400 N   0  0  0  0  0
   86.7040   22.8220   13.2630 C   0  0  0  0  0
   87.9290   23.0480   12.3710 C   0  0  0  0  0
   88.4880   22.1070   11.8090 O   0  0  0  0  0
   86.6990   21.3810   13.8110 C   0  0  0  0  0
   86.2650   20.2980   12.8360 C   0  0  0  0  0
   86.4290   20.2950   11.4810 C   0  0  0  0  0
   85.6600   19.0380   13.1650 C   0  0  0  0  0
   85.9690   19.1160   10.9440 N   0  0  0  0  0
   85.4900   18.3260   11.9550 C   0  0  0  0  0
   85.2450   18.4410   14.3640 C   0  0  0  0  0
   84.9250   17.0460   11.9100 C   0  0  0  0  0
   84.6830   17.1660   14.3190 C   0  0  0  0  0
   84.5290   16.4850   13.0980 C   0  0  0  0  0
   88.3450   24.3060   12.2480 N   0  0  0  0  0
   89.4950   24.6590   11.4190 C   0  0  0  0  0
   90.7870   24.7930   12.2170 C   0  0  0  0  0
   91.2480   25.9360   12.4120 O   0  0  0  0  0
   89.2140   25.9590   10.6620 C   0  0  0  0  0
   88.1760   25.8190    9.5870 C   0  0  0  0  0
   86.9140   25.3170    9.8830 C   0  0  0  0  0
   88.4610   26.1840    8.2770 C   0  0  0  0  0
   85.9520   25.1790    8.8890 C   0  0  0  0  0
   87.5040   26.0500    7.2730 C   0  0  0  0  0
   86.2460   25.5470    7.5810 C   0  0  0  0  0
   91.3210   23.7480   12.6400 O   0  0  0  0  0
   78.6875   24.7852   12.2008 H   0  0  0  0  0
   78.2877   23.2223   12.6180 H   0  0  0  0  0
   77.7513   24.4962   13.5486 H   0  0  0  0  0
   79.9694   25.0545   14.1927 H   0  0  0  0  0
   79.4184   22.0810   14.6335 H   0  0  0  0  0
   80.9020   24.1265   16.3149 H   0  0  0  0  0
   80.6230   22.4192   16.7373 H   0  0  0  0  0
   81.6505   22.8351   15.3437 H   0  0  0  0  0
   78.1452   22.7907   16.6018 H   0  0  0  0  0
   78.4243   24.4980   16.1794 H   0  0  0  0  0
   77.4386   23.4667   15.1136 H   0  0  0  0  0
   82.0262   25.1619   13.5347 H   0  0  0  0  0
   82.9869   23.0076   11.7057 H   0  0  0  0  0
   84.5437   24.8288   10.8273 H   0  0  0  0  0
   83.4352   25.9932   11.7242 H   0  0  0  0  0
   83.6825   26.7302    9.0644 H   0  0  0  0  0
   81.3532   23.4890   10.6322 H   0  0  0  0  0
   82.2240   26.8132    7.0631 H   0  0  0  0  0
   79.8891   23.5726    8.6332 H   0  0  0  0  0
   79.4807   24.5774    6.6889 H   0  0  0  0  0
   85.4015   22.8440   11.5565 H   0  0  0  0  0
   86.7627   23.5125   14.1043 H   0  0  0  0  0
   85.9757   21.3663   14.6263 H   0  0  0  0  0
   87.7299   21.1533   14.0821 H   0  0  0  0  0
   86.8636   21.1124   10.9056 H   0  0  0  0  0
   85.3597   18.9640   15.3134 H   0  0  0  0  0
   84.8041   16.5146   10.9660 H   0  0  0  0  0
   84.3580   16.6897   15.2440 H   0  0  0  0  0
   84.0852   15.4894   13.0954 H   0  0  0  0  0
   87.8474   25.0440   12.7461 H   0  0  0  0  0
   89.6403   23.8387   10.7160 H   0  0  0  0  0
   90.6755   26.5857   11.9976 H   0  0  0  0  0
   90.1433   26.2629   10.1801 H   0  0  0  0  0
   88.8384   26.6827   11.3854 H   0  0  0  0  0
   86.6759   25.0281   10.9067 H   0  0  0  0  0
   89.4462   26.5804    8.0314 H   0  0  0  0  0
   84.9671   24.7822    9.1352 H   0  0  0  0  0
   87.7416   26.3389    6.2492 H   0  0  0  0  0
   85.4927   25.4414    6.8003 H   0  0  0  0  0
  1  2  1  0  0  0
  2  3  1  0  0  0
  2  5  1  0  0  0
  3  4  2  0  0  0
  3  8  1  0  0  0
  5  6  1  0  0  0
  5  7  1  0  0  0
  8  9  1  0  0  0
  9 10  1  0  0  0
  9 12  1  0  0  0
 10 11  2  0  0  0
 10 20  1  0  0  0
 12 13  1  0  0  0
 13 14  4  0  0  0
 13 15  4  0  0  0
 14 16  4  0  0  0
 15 17  4  0  0  0
 16 18  4  0  0  0
 17 18  4  0  0  0
 18 19  1  0  0  0
 20 21  1  0  0  0
 21 22  1  0  0  0
 21 24  1  0  0  0
 22 23  2  0  0  0
 22 34  1  0  0  0
 24 25  1  0  0  0
 25 26  4  0  0  0
 25 27  4  0  0  0
 26 28  4  0  0  0
 27 29  4  0  0  0
 27 30  4  0  0  0
 28 29  4  0  0  0
 29 31  4  0  0  0
 30 32  4  0  0  0
 31 33  4  0  0  0
 32 33  4  0  0  0
 34 35  1  0  0  0
 35 36  1  0  0  0
 35 38  1  0  0  0
 36 37  1  0  0  0
 36 45  2  0  0  0
 38 39  1  0  0  0
 39 40  4  0  0  0
 39 41  4  0  0  0
 40 42  4  0  0  0
 41 43  4  0  0  0
 42 44  4  0  0  0
 43 44  4  0  0  0
  1 46  1  0  0  0
  1 47  1  0  0  0
  1 48  1  0  0  0
  2 49  1  0  0  0
  5 50  1  0  0  0
  6 51  1  0  0  0
  6 52  1  0  0  0
  6 53  1  0  0  0
  7 54  1  0  0  0
  7 55  1  0  0  0
  7 56  1  0  0  0
  8 57  1  0  0  0
  9 58  1  0  0  0
 12 59  1  0  0  0
 12 60  1  0  0  0
 14 61  1  0  0  0
 15 62  1  0  0  0
 16 63  1  0  0  0
 17 64  1  0  0  0
 19 65  1  0  0  0
 20 66  1  0  0  0
 21 67  1  0  0  0
 24 68  1  0  0  0
 24 69  1  0  0  0
 26 70  1  0  0  0
 30 71  1  0  0  0
 31 72  1  0  0  0
 32 73  1  0  0  0
 33 74  1  0  0  0
 34 75  1  0  0  0
 35 76  1  0  0  0
 37 77  1  0  0  0
 38 78  1  0  0  0
 38 79  1  0  0  0
 40 80  1  0  0  0
 41 81  1  0  0  0
 42 82  1  0  0  0
 43 83  1  0  0  0
 44 84  1  0  0  0
M  END
$$$$
