3fu0_ligand
  -I-interpret- 

 23 24  0  0  0  0  0  0  0  0999 V2000
   29.6910   -0.7530    1.3560 F   0  0  0  0  0
   28.5660   -0.6370    0.6190 C   0  0  0  0  0
   28.5360   -0.0180   -0.6350 C   0  0  0  0  0
   27.3520    0.0850   -1.3830 C   0  0  0  0  0
   27.3950   -1.1530    1.1220 C   0  0  0  0  0
   26.2330   -1.0510    0.3660 C   0  0  0  0  0
   26.1810   -0.4690   -0.8880 C   0  0  0  0  0
   24.8210   -0.4170   -1.5570 C   0  0  0  0  0
   24.0040    0.2620   -0.9700 O   0  0  0  0  0
   24.2950   -1.1060   -2.8090 C   0  0  0  0  0
   23.9340   -2.4480   -2.8180 C   0  0  0  0  0
   23.4180   -3.0300   -3.9750 C   0  0  0  0  0
   23.2340   -2.3150   -5.0910 N   0  0  0  0  0
   23.5400   -1.0170   -5.1120 C   0  0  0  0  0
   24.0580   -0.3890   -3.9770 C   0  0  0  0  0
   29.4579    0.3962   -1.0432 H   0  0  0  0  0
   27.3534    0.5966   -2.3455 H   0  0  0  0  0
   27.3781   -1.6351    2.0995 H   0  0  0  0  0
   25.3103   -1.4524    0.7850 H   0  0  0  0  0
   24.0549   -3.0483   -1.9163 H   0  0  0  0  0
   23.1592   -4.0888   -3.9704 H   0  0  0  0  0
   23.3843   -0.4406   -6.0239 H   0  0  0  0  0
   24.2796    0.6778   -4.0070 H   0  0  0  0  0
  1  2  1  0  0  0
  2  3  4  0  0  0
  2  5  4  0  0  0
  3  4  4  0  0  0
  4  7  4  0  0  0
  5  6  4  0  0  0
  6  7  4  0  0  0
  7  8  1  0  0  0
  8  9  2  0  0  0
  8 10  1  0  0  0
 10 11  4  0  0  0
 10 15  4  0  0  0
 11 12  4  0  0  0
 12 13  4  0  0  0
 13 14  4  0  0  0
 14 15  4  0  0  0
  3 16  1  0  0  0
  4 17  1  0  0  0
  5 18  1  0  0  0
  6 19  1  0  0  0
 11 20  1  0  0  0
 12 21  1  0  0  0
 14 22  1  0  0  0
 15 23  1  0  0  0
M  END
$$$$
