5u7j_ligand
  -I-interpret- 

 46 48  0  0  0  0  0  0  0  0999 V2000
    7.5250    4.3780    6.3210 N   0  0  0  0  0
    7.7890    4.3560    3.7980 C   0  0  0  0  0
    5.6220    3.2400    6.5090 N   0  0  0  0  0
    8.6220    5.0470    6.8480 C   0  0  0  0  0
    6.5870    3.8150    7.1970 C   0  0  0  0  0
    6.8030    3.8920    8.6100 C   0  0  0  0  0
   10.0530    7.7490    3.0640 C   0  0  0  0  0
    8.7490    5.0780    8.2490 C   0  0  0  0  0
   10.8090   11.0730    6.4220 C   0  0  0  0  0
    9.6920   10.3500    3.9350 C   0  0  0  0  0
    8.5190    1.9980    3.3490 C   0  0  0  0  0
    8.9720    3.4290    3.5290 C   0  0  0  0  0
    9.7350    3.8900    2.3100 C   0  0  0  0  0
    7.0440    4.0670    5.0650 C   0  0  0  0  0
    5.9170    3.4080    5.1580 N   0  0  0  0  0
    7.8510    4.4940    9.1050 N   0  0  0  0  0
    9.4180    5.6110    5.9130 O   0  0  0  0  0
   10.4610    6.5100    6.3810 C   0  0  0  0  0
   11.2070    7.0620    5.1870 C   0  0  0  0  0
   10.4530    8.0840    4.3550 C   0  0  0  0  0
    9.5190    8.7000    2.2110 C   0  0  0  0  0
    9.3320    9.9930    2.6470 C   0  0  0  0  0
   10.2750    9.4060    4.7780 C   0  0  0  0  0
   10.7750    9.7000    6.0190 O   0  0  0  0  0
    7.0850    4.2188    2.9772 H   0  0  0  0  0
    8.1906    5.3652    3.8888 H   0  0  0  0  0
    6.0782    3.4391    9.2865 H   0  0  0  0  0
   10.1621    6.7208    2.7191 H   0  0  0  0  0
    9.6081    5.5944    8.6772 H   0  0  0  0  0
   11.4270   11.6396    5.7255 H   0  0  0  0  0
    9.7961   11.4757    6.4214 H   0  0  0  0  0
   11.2297   11.1456    7.4249 H   0  0  0  0  0
    9.5200   11.3665    4.2888 H   0  0  0  0  0
    7.8716    1.9304    2.4747 H   0  0  0  0  0
    9.3897    1.3576    3.2083 H   0  0  0  0  0
    7.9702    1.6778    4.2347 H   0  0  0  0  0
    9.6305    3.4685    4.3967 H   0  0  0  0  0
   10.6082    3.2534    2.1672 H   0  0  0  0  0
    9.0900    3.8262    1.4336 H   0  0  0  0  0
   10.0556    4.9220    2.4524 H   0  0  0  0  0
   11.1512    5.9676    7.0272 H   0  0  0  0  0
   10.0148    7.3283    6.9462 H   0  0  0  0  0
   11.4071    6.2158    4.5297 H   0  0  0  0  0
   12.0859    7.5724    5.5810 H   0  0  0  0  0
    9.2460    8.4248    1.1923 H   0  0  0  0  0
    8.8999   10.7362    1.9769 H   0  0  0  0  0
  4  1  4  0  0  0
  1  5  4  0  0  0
  1 14  4  0  0  0
  2 12  1  0  0  0
 14  2  1  0  0  0
  5  3  4  0  0  0
 15  3  4  0  0  0
  4  8  4  0  0  0
 17  4  1  0  0  0
  5  6  4  0  0  0
 16  6  4  0  0  0
 20  7  4  0  0  0
  7 21  4  0  0  0
  8 16  4  0  0  0
 24  9  1  0  0  0
 10 22  4  0  0  0
 23 10  4  0  0  0
 12 11  1  0  0  0
 12 13  1  0  0  0
 14 15  4  0  0  0
 18 17  1  0  0  0
 19 18  1  0  0  0
 20 19  1  0  0  0
 23 20  4  0  0  0
 22 21  4  0  0  0
 23 24  1  0  0  0
  2 25  1  0  0  0
  2 26  1  0  0  0
  6 27  1  0  0  0
  7 28  1  0  0  0
  8 29  1  0  0  0
  9 30  1  0  0  0
  9 31  1  0  0  0
  9 32  1  0  0  0
 10 33  1  0  0  0
 11 34  1  0  0  0
 11 35  1  0  0  0
 11 36  1  0  0  0
 12 37  1  0  0  0
 13 38  1  0  0  0
 13 39  1  0  0  0
 13 40  1  0  0  0
 18 41  1  0  0  0
 18 42  1  0  0  0
 19 43  1  0  0  0
 19 44  1  0  0  0
 21 45  1  0  0  0
 22 46  1  0  0  0
M  END
$$$$
