4jfk_ligand
  -I-interpret- 

 66 70  0  0  0  0  0  0  0  0999 V2000
   11.3330  -14.2970  -17.9040 C   0  0  0  0  0
    8.9850  -14.0180  -18.1440 N   0  0  0  0  0
   12.4180  -14.0440  -17.3880 O   0  0  0  0  0
   10.1920  -13.6970  -17.3300 C   0  0  0  0  0
   10.0560  -14.1450  -15.8830 C   0  0  0  0  0
   19.0940  -13.1060  -17.6740 C   0  0  0  0  0
   15.9110   -9.6510  -20.3990 C   0  0  0  0  0
    6.2230  -11.6080  -25.5340 O   0  0  0  0  0
    8.4240  -11.4810  -17.8280 O   0  0  0  0  0
    6.6180  -13.1830  -17.3090 O   0  0  0  0  0
   15.5980  -14.4320  -19.4120 C   0  0  0  0  0
   16.8120  -14.0090  -18.8640 C   0  0  0  0  0
    6.0940  -13.5180  -20.1110 C   0  0  0  0  0
    5.5500  -13.5410  -21.3840 C   0  0  0  0  0
   15.1710  -12.1890  -20.1480 C   0  0  0  0  0
    7.7040  -11.9750  -20.8470 C   0  0  0  0  0
    9.7310  -15.6250  -15.8600 C   0  0  0  0  0
   13.2260  -15.2260  -20.7210 C   0  0  0  0  0
    8.3830  -15.8680  -16.5170 C   0  0  0  0  0
    9.2710  -16.3600  -18.8360 C   0  0  0  0  0
   12.6950  -15.6750  -19.3560 C   0  0  0  0  0
   10.1690  -15.5030  -19.7340 C   0  0  0  0  0
    5.6550  -12.7040  -23.6240 N   0  0  0  0  0
   18.3600  -12.1590  -18.4520 O   0  0  0  0  0
   16.8070  -10.4840  -19.6590 O   0  0  0  0  0
   13.5640  -13.8600  -20.6150 O   0  0  0  0  0
    7.5170  -11.2530  -23.4650 S   0  0  0  0  0
   14.7710  -13.5170  -20.0600 C   0  0  0  0  0
    7.1800  -12.7420  -19.8180 C   0  0  0  0  0
   17.1960  -12.6740  -18.9550 C   0  0  0  0  0
   16.3710  -11.7710  -19.6000 C   0  0  0  0  0
    6.3920  -11.8660  -24.3470 C   0  0  0  0  0
    6.0760  -12.7940  -22.3460 C   0  0  0  0  0
    7.1450  -12.0180  -22.0690 C   0  0  0  0  0
    8.4320  -15.3950  -17.9690 C   0  0  0  0  0
   11.3560  -15.1200  -18.9740 N   0  0  0  0  0
    7.7870  -12.7950  -18.1780 S   0  0  0  0  0
   10.2970  -12.6121  -17.3284 H   0  0  0  0  0
    9.2590  -13.5837  -15.3953 H   0  0  0  0  0
   10.9893  -13.9629  -15.3501 H   0  0  0  0  0
   18.4835  -13.4342  -16.8327 H   0  0  0  0  0
   19.3501  -13.9642  -18.2954 H   0  0  0  0  0
   20.0064  -12.6397  -17.3024 H   0  0  0  0  0
   15.8228  -10.0292  -21.4175 H   0  0  0  0  0
   14.9314   -9.6587  -19.9211 H   0  0  0  0  0
   16.2982   -8.6323  -20.4206 H   0  0  0  0  0
   15.2984  -15.4770  -19.3325 H   0  0  0  0  0
   17.4610  -14.7274  -18.3632 H   0  0  0  0  0
    5.6476  -14.1305  -19.3277 H   0  0  0  0  0
    4.6882  -14.1738  -21.5961 H   0  0  0  0  0
   14.5311  -11.4671  -20.6554 H   0  0  0  0  0
    8.5690  -11.3372  -20.6654 H   0  0  0  0  0
    9.6947  -15.9693  -14.8264 H   0  0  0  0  0
   10.5007  -16.1708  -16.4056 H   0  0  0  0  0
   12.4696  -15.3733  -21.4919 H   0  0  0  0  0
   14.0991  -15.8144  -21.0032 H   0  0  0  0  0
    7.6121  -15.3150  -15.9804 H   0  0  0  0  0
    8.1517  -16.9328  -16.4892 H   0  0  0  0  0
    9.8730  -17.0150  -18.2062 H   0  0  0  0  0
    8.6220  -16.9955  -19.4386 H   0  0  0  0  0
   13.4053  -15.3153  -18.6116 H   0  0  0  0  0
   12.5805  -16.7578  -19.4069 H   0  0  0  0  0
    9.6304  -14.6118  -20.0562 H   0  0  0  0  0
   10.4606  -16.0703  -20.6179 H   0  0  0  0  0
    4.8586  -13.2219  -23.9953 H   0  0  0  0  0
    7.3906  -15.3801  -18.2905 H   0  0  0  0  0
  1  3  2  0  0  0
  4  1  1  0  0  0
  1 36  1  0  0  0
  2  4  1  0  0  0
  2 35  1  0  0  0
 37  2  1  0  0  0
  4  5  1  0  0  0
  5 17  1  0  0  0
 24  6  1  0  0  0
 25  7  1  0  0  0
 32  8  2  0  0  0
 37  9  2  0  0  0
 37 10  2  0  0  0
 11 12  4  0  0  0
 28 11  4  0  0  0
 12 30  4  0  0  0
 13 14  4  0  0  0
 29 13  4  0  0  0
 14 33  4  0  0  0
 28 15  4  0  0  0
 15 31  4  0  0  0
 29 16  4  0  0  0
 16 34  4  0  0  0
 19 17  1  0  0  0
 21 18  1  0  0  0
 18 26  1  0  0  0
 35 19  1  0  0  0
 20 22  1  0  0  0
 35 20  1  0  0  0
 36 21  1  0  0  0
 22 36  1  0  0  0
 32 23  1  0  0  0
 33 23  1  0  0  0
 30 24  1  0  0  0
 31 25  1  0  0  0
 26 28  1  0  0  0
 27 32  1  0  0  0
 34 27  1  0  0  0
 29 37  1  0  0  0
 30 31  4  0  0  0
 33 34  4  0  0  0
  4 38  1  0  0  0
  5 39  1  0  0  0
  5 40  1  0  0  0
  6 41  1  0  0  0
  6 42  1  0  0  0
  6 43  1  0  0  0
  7 44  1  0  0  0
  7 45  1  0  0  0
  7 46  1  0  0  0
 11 47  1  0  0  0
 12 48  1  0  0  0
 13 49  1  0  0  0
 14 50  1  0  0  0
 15 51  1  0  0  0
 16 52  1  0  0  0
 17 53  1  0  0  0
 17 54  1  0  0  0
 18 55  1  0  0  0
 18 56  1  0  0  0
 19 57  1  0  0  0
 19 58  1  0  0  0
 20 59  1  0  0  0
 20 60  1  0  0  0
 21 61  1  0  0  0
 21 62  1  0  0  0
 22 63  1  0  0  0
 22 64  1  0  0  0
 23 65  1  0  0  0
 35 66  1  0  0  0
M  END
$$$$
