6gl9_ligand
  -I-interpret- 

 48 52  0  0  0  0  0  0  0  0999 V2000
   43.8290   -0.4220   67.6070 C   0  0  0  0  0
   39.9710    1.1100   68.0450 C   0  0  0  0  0
   40.2790    1.8010   69.1690 C   0  0  0  0  0
   41.6170    1.6690   69.4520 N   0  0  0  0  0
   42.0730   -1.9030   64.9860 C   0  0  0  0  0
   41.9750   -2.8040   63.8260 C   0  0  0  0  0
   41.0480   -1.1440   65.5200 N   0  0  0  0  0
   40.9720   -3.7570   63.6510 C   0  0  0  0  0
   41.0000   -4.6460   62.5700 C   0  0  0  0  0
   42.0780   -4.5880   61.6840 C   0  0  0  0  0
   43.0780   -3.6500   61.8580 C   0  0  0  0  0
   43.2040   -1.7660   65.6430 N   0  0  0  0  0
   39.9530   -5.6520   62.3870 C   0  0  0  0  0
   39.9920   -6.5710   61.4290 C   0  0  0  0  0
   38.9640   -7.5440   61.3400 C   0  0  0  0  0
   38.1620   -8.3430   61.2560 N   0  0  0  0  0
   43.0220   -2.7550   62.9130 C   0  0  0  0  0
   42.9260   -0.8770   66.6630 C   0  0  0  0  0
   43.5100    0.4610   68.5540 N   0  0  0  0  0
   41.5920   -0.4510   66.6270 C   0  0  0  0  0
   41.1800    0.4800   67.6070 C   0  0  0  0  0
   42.2230    0.8710   68.5360 C   0  0  0  0  0
   39.6340   -1.0910   65.0830 C   0  0  0  0  0
   38.6910   -1.6930   66.1210 C   0  0  0  0  0
   37.2210   -1.5700   65.7160 C   0  0  0  0  0
   36.8820   -0.1580   65.3070 C   0  0  0  0  0
   37.7780    0.3170   64.1890 C   0  0  0  0  0
   39.2410    0.3020   64.6170 C   0  0  0  0  0
   44.8496   -0.8033   67.5753 H   0  0  0  0  0
   38.9934    1.0461   67.5672 H   0  0  0  0  0
   39.5690    2.3774   69.7621 H   0  0  0  0  0
   40.1526   -3.8105   64.3678 H   0  0  0  0  0
   42.1310   -5.2873   60.8496 H   0  0  0  0  0
   43.9153   -3.6146   61.1610 H   0  0  0  0  0
   39.1021   -5.6468   63.0682 H   0  0  0  0  0
   40.8130   -6.5774   60.7121 H   0  0  0  0  0
   43.8053   -2.0059   63.0285 H   0  0  0  0  0
   39.5310   -1.7288   64.2051 H   0  0  0  0  0
   38.8292   -1.1506   67.0563 H   0  0  0  0  0
   38.9267   -2.7530   66.2156 H   0  0  0  0  0
   36.6015   -1.8421   66.5706 H   0  0  0  0  0
   37.0380   -2.2304   64.8684 H   0  0  0  0  0
   37.0226    0.4965   66.1672 H   0  0  0  0  0
   35.8494   -0.1353   64.9586 H   0  0  0  0  0
   37.5004    1.3384   63.9286 H   0  0  0  0  0
   37.6565   -0.3507   63.3360 H   0  0  0  0  0
   39.8649    0.5852   63.7693 H   0  0  0  0  0
   39.3815    1.0066   65.4367 H   0  0  0  0  0
  1 18  4  0  0  0
 19  1  4  0  0  0
  3  2  4  0  0  0
  2 21  4  0  0  0
  4  3  4  0  0  0
 22  4  4  0  0  0
  5  6  1  0  0  0
  7  5  4  0  0  0
 12  5  4  0  0  0
  6  8  4  0  0  0
  6 17  4  0  0  0
 20  7  4  0  0  0
  7 23  1  0  0  0
  8  9  4  0  0  0
  9 10  4  0  0  0
  9 13  1  0  0  0
 11 10  4  0  0  0
 17 11  4  0  0  0
 18 12  4  0  0  0
 13 14  2  0  0  0
 14 15  1  0  0  0
 15 16  3  0  0  0
 18 20  4  0  0  0
 19 22  4  0  0  0
 20 21  4  0  0  0
 21 22  4  0  0  0
 23 24  1  0  0  0
 23 28  1  0  0  0
 24 25  1  0  0  0
 25 26  1  0  0  0
 26 27  1  0  0  0
 27 28  1  0  0  0
  1 29  1  0  0  0
  2 30  1  0  0  0
  3 31  1  0  0  0
  8 32  1  0  0  0
 10 33  1  0  0  0
 11 34  1  0  0  0
 13 35  1  0  0  0
 14 36  1  0  0  0
 17 37  1  0  0  0
 23 38  1  0  0  0
 24 39  1  0  0  0
 24 40  1  0  0  0
 25 41  1  0  0  0
 25 42  1  0  0  0
 26 43  1  0  0  0
 26 44  1  0  0  0
 27 45  1  0  0  0
 27 46  1  0  0  0
 28 47  1  0  0  0
 28 48  1  0  0  0
M  END
$$$$
