4rj8_ligand
  -I-interpret- 

 57 61  0  0  0  0  0  0  0  0999 V2000
  -51.8500   -2.5060  -28.1050 C   0  0  0  0  0
  -53.0670   -1.6340  -27.7620 C   0  0  0  0  0
  -56.3870    0.4030  -26.4600 C   0  0  0  0  0
  -52.1570   -1.3780  -25.3740 C   0  0  0  0  0
  -50.8320   -2.0140  -25.8300 C   0  0  0  0  0
  -54.3220   -0.5820  -25.9920 C   0  0  0  0  0
  -56.2340    1.2340  -25.3540 C   0  0  0  0  0
  -55.0760    1.1070  -24.5710 C   0  0  0  0  0
  -50.6530   -1.9060  -27.3520 C   0  0  0  0  0
  -48.9370   -3.6880  -27.6630 C   0  0  0  0  0
  -49.3620   -2.3200  -27.8220 O   0  0  0  0  0
  -53.3310   -1.5260  -26.2920 N   0  0  0  0  0
  -55.4300   -0.4750  -26.7380 N   0  0  0  0  0
  -54.1640    0.2100  -24.9300 N   0  0  0  0  0
  -54.8730    1.9400  -23.4810 N   0  0  0  0  0
  -54.2190    1.6270  -22.2810 C   0  0  0  0  0
  -53.2060    0.6660  -22.1940 C   0  0  0  0  0
  -52.5990    0.4120  -20.9530 C   0  0  0  0  0
  -53.0180    1.1890  -19.8360 C   0  0  0  0  0
  -52.2240    0.7390  -18.6910 C   0  0  0  0  0
  -51.4320   -0.2390  -19.1430 C   0  0  0  0  0
  -51.6300   -0.4530  -20.4980 N   0  0  0  0  0
  -50.9100   -1.4390  -21.3380 C   0  0  0  0  0
  -49.9180   -0.7260  -22.2730 C   0  0  0  0  0
  -48.6880   -0.4610  -21.3770 C   0  0  0  0  0
  -48.5750   -1.7690  -20.5540 C   0  0  0  0  0
  -49.9960   -2.3850  -20.5340 C   0  0  0  0  0
  -54.0040    2.1600  -20.0210 C   0  0  0  0  0
  -54.5730    2.3320  -21.2050 N   0  0  0  0  0
  -51.6685   -2.5152  -29.1797 H   0  0  0  0  0
  -52.0171   -3.5413  -27.8080 H   0  0  0  0  0
  -53.9412   -2.0986  -28.2180 H   0  0  0  0  0
  -52.8643   -0.6292  -28.1326 H   0  0  0  0  0
  -57.2762    0.4715  -27.0867 H   0  0  0  0  0
  -51.9657   -0.3072  -25.3045 H   0  0  0  0  0
  -52.4324   -1.8906  -24.4523 H   0  0  0  0  0
  -50.8424   -3.0691  -25.5567 H   0  0  0  0  0
  -50.0101   -1.4860  -25.3465 H   0  0  0  0  0
  -56.9983    1.9688  -25.1009 H   0  0  0  0  0
  -50.6586   -0.8439  -27.5971 H   0  0  0  0  0
  -48.9241   -3.9423  -26.6031 H   0  0  0  0  0
  -49.6302   -4.3458  -28.1873 H   0  0  0  0  0
  -47.9364   -3.8069  -28.0787 H   0  0  0  0  0
  -55.2412    2.8878  -23.5614 H   0  0  0  0  0
  -52.8903    0.1187  -23.0822 H   0  0  0  0  0
  -52.2695    1.1246  -17.6725 H   0  0  0  0  0
  -50.7244   -0.7944  -18.5274 H   0  0  0  0  0
  -51.7054   -1.9840  -21.8464 H   0  0  0  0  0
  -50.3305    0.1919  -22.6918 H   0  0  0  0  0
  -49.6706   -1.3257  -23.1489 H   0  0  0  0  0
  -48.8010    0.4250  -20.7523 H   0  0  0  0  0
  -47.7865   -0.2399  -21.9484 H   0  0  0  0  0
  -48.2167   -1.5702  -19.5440 H   0  0  0  0  0
  -47.8538   -2.4544  -20.9992 H   0  0  0  0  0
  -49.9900   -3.3818  -20.9750 H   0  0  0  0  0
  -50.3558   -2.4905  -19.5105 H   0  0  0  0  0
  -54.3093    2.7841  -19.1811 H   0  0  0  0  0
  2  1  1  0  0  0
  1  9  1  0  0  0
 12  2  1  0  0  0
  3  7  4  0  0  0
 13  3  4  0  0  0
  4  5  1  0  0  0
 12  4  1  0  0  0
  5  9  1  0  0  0
  6 12  1  0  0  0
  6 13  4  0  0  0
  6 14  4  0  0  0
  7  8  4  0  0  0
  8 14  4  0  0  0
  8 15  1  0  0  0
  9 11  1  0  0  0
 11 10  1  0  0  0
 15 16  1  0  0  0
 16 17  4  0  0  0
 16 29  4  0  0  0
 17 18  4  0  0  0
 18 19  4  0  0  0
 18 22  4  0  0  0
 19 20  4  0  0  0
 19 28  4  0  0  0
 20 21  4  0  0  0
 21 22  4  0  0  0
 22 23  1  0  0  0
 23 24  1  0  0  0
 23 27  1  0  0  0
 24 25  1  0  0  0
 25 26  1  0  0  0
 26 27  1  0  0  0
 28 29  4  0  0  0
  1 30  1  0  0  0
  1 31  1  0  0  0
  2 32  1  0  0  0
  2 33  1  0  0  0
  3 34  1  0  0  0
  4 35  1  0  0  0
  4 36  1  0  0  0
  5 37  1  0  0  0
  5 38  1  0  0  0
  7 39  1  0  0  0
  9 40  1  0  0  0
 10 41  1  0  0  0
 10 42  1  0  0  0
 10 43  1  0  0  0
 15 44  1  0  0  0
 17 45  1  0  0  0
 20 46  1  0  0  0
 21 47  1  0  0  0
 23 48  1  0  0  0
 24 49  1  0  0  0
 24 50  1  0  0  0
 25 51  1  0  0  0
 25 52  1  0  0  0
 26 53  1  0  0  0
 26 54  1  0  0  0
 27 55  1  0  0  0
 27 56  1  0  0  0
 28 57  1  0  0  0
M  END
$$$$
