1bm2_ligand
  -I-interpret- 

113114  0  0  0  0  0  0  0  0999 V2000
   35.4540   27.7120   22.8160 C   0  0  0  0  0
   35.6410   28.6930   22.0890 O   0  0  0  0  0
   34.6570   27.8440   24.1000 C   0  0  0  0  0
   35.9300   26.4970   22.5490 N   0  0  0  0  0
   36.7080   26.1910   21.3590 C   0  0  0  0  0
   37.9670   25.4240   21.7290 C   0  0  0  0  0
   39.0610   26.2590   22.8870 S   0  0  0  0  0
   39.3040   27.8400   22.0480 C   0  0  0  0  0
   40.5490   27.9090   21.1710 C   0  0  0  0  0
   40.3500   27.1840   19.9170 N   0  0  0  0  0
   35.8790   25.3380   20.4100 C   0  0  0  0  0
   35.1690   24.4140   20.8300 O   0  0  0  0  0
   35.9850   25.6380   19.1240 N   0  3  0  0  0
   35.2310   24.9020   18.1280 C   0  0  0  0  0
   36.1270   24.4840   16.9810 C   0  0  0  0  0
   37.2350   24.9910   16.8400 O   0  0  0  0  0
   34.0670   25.7520   17.6330 C   0  0  0  0  0
   33.0930   26.1350   18.7300 C   0  0  0  0  0
   31.9110   25.4300   18.9200 C   0  0  0  0  0
   33.3370   27.2310   19.5530 C   0  0  0  0  0
   30.9870   25.8160   19.8990 C   0  0  0  0  0
   32.4200   27.6200   20.5370 C   0  0  0  0  0
   31.2480   26.9170   20.7010 C   0  0  0  0  0
   30.2860   27.3970   21.6040 O   0  0  0  0  0
   29.7000   26.4850   22.7420 P   0  0  0  0  0
   30.2160   27.0720   24.0820 O   0  0  0  0  0
   30.1810   25.0280   22.5510 O   0  0  0  0  0
   28.1610   26.5680   22.6730 O   0  0  0  0  0
   35.6540   23.5410   16.1770 N   0  0  0  0  0
   36.4170   23.0580   15.0410 C   0  0  0  0  0
   36.7320   24.2130   14.0900 C   0  0  0  0  0
   37.8790   24.3750   13.6740 O   0  0  0  0  0
   35.6530   21.9390   14.3000 C   0  0  0  0  0
   36.3890   21.5380   13.0190 C   0  0  0  0  0
   35.4880   20.7330   15.2150 C   0  0  0  0  0
   35.7370   25.0580   13.8130 N   0  0  0  0  0
   35.9190   26.1940   12.9060 C   0  0  0  0  0
   36.5320   27.4350   13.5410 C   0  0  0  0  0
   36.8770   28.3850   12.8410 O   0  0  0  0  0
   34.6200   26.5410   12.1690 C   0  0  0  0  0
   33.4930   26.9030   13.1050 C   0  0  0  0  0
   33.3590   26.3290   14.1910 O   0  0  0  0  0
   32.6570   27.8390   12.6850 N   0  0  0  0  0
   36.5970   27.4610   14.8670 N   0  0  0  0  0
   37.2310   28.5670   15.5840 C   0  0  0  0  0
   37.9860   27.9350   16.7640 C   0  0  0  0  0
   37.4390   27.7930   17.8660 O   0  0  0  0  0
   36.2220   29.6200   16.1120 C   0  0  0  0  0
   36.9800   30.8220   16.6570 C   0  0  0  0  0
   35.2550   30.0610   15.0140 C   0  0  0  0  0
   39.2090   27.4280   16.5070 N   0  0  0  0  0
   40.0350   26.8000   17.5410 C   0  0  0  0  0
   40.2580   27.7530   18.7190 C   0  0  0  0  0
   40.3540   28.9730   18.5360 O   0  0  0  0  0
   41.3410   26.5230   16.7960 C   0  0  0  0  0
   40.8900   26.2690   15.4100 C   0  0  0  0  0
   39.9070   27.3880   15.2070 C   0  0  0  0  0
   35.1457   28.5633   24.7572 H   0  0  0  0  0
   33.6496   28.1888   23.8670 H   0  0  0  0  0
   34.6051   26.8744   24.5952 H   0  0  0  0  0
   35.7397   25.7448   23.2111 H   0  0  0  0  0
   36.9841   27.1294   20.8781 H   0  0  0  0  0
   38.5325   25.2880   20.8072 H   0  0  0  0  0
   37.6413   24.5040   22.2144 H   0  0  0  0  0
   39.4192   28.5971   22.8237 H   0  0  0  0  0
   38.4453   27.9876   21.3931 H   0  0  0  0  0
   41.3805   27.4537   21.7091 H   0  0  0  0  0
   40.7561   28.9541   20.9407 H   0  0  0  0  0
   40.2764   26.1678   19.9648 H   0  0  0  0  0
   35.9106   25.5440   19.3401 H   0  0  0  0  0
   36.7625   25.0651   19.4520 H   0  0  0  0  0
   36.3455   26.4973   18.7093 H   0  0  0  0  0
   35.3755   25.8676   19.9090 H   0  0  0  0  0
   34.8313   23.9953   18.5821 H   0  0  0  0  0
   33.5190   25.1630   16.8976 H   0  0  0  0  0
   34.4827   26.6737   17.2257 H   0  0  0  0  0
   31.6992   24.5615   18.2963 H   0  0  0  0  0
   34.2600   27.7974   19.4289 H   0  0  0  0  0
   30.0637   25.2518   20.0305 H   0  0  0  0  0
   32.6341   28.4791   21.1728 H   0  0  0  0  0
   31.1738   27.0126   24.1083 H   0  0  0  0  0
   31.1395   24.9999   22.5975 H   0  0  0  0  0
   34.7319   23.1459   16.3616 H   0  0  0  0  0
   37.3542   22.6395   15.4081 H   0  0  0  0  0
   34.6675   22.3133   14.0228 H   0  0  0  0  0
   36.4708   22.4041   12.3622 H   0  0  0  0  0
   37.3858   21.1769   13.2721 H   0  0  0  0  0
   35.8326   20.7486   12.5138 H   0  0  0  0  0
   36.4708   20.3649   15.5096 H   0  0  0  0  0
   34.9273   21.0260   16.1026 H   0  0  0  0  0
   34.9483   19.9479   14.6855 H   0  0  0  0  0
   34.8249   24.9089   14.2445 H   0  0  0  0  0
   36.6587   25.8484   12.1838 H   0  0  0  0  0
   34.3132   25.6616   11.6027 H   0  0  0  0  0
   34.8174   27.4056   11.5353 H   0  0  0  0  0
   31.8641   28.1123   13.2655 H   0  0  0  0  0
   32.8056   28.2871   11.7808 H   0  0  0  0  0
   36.1944   26.6897   15.3993 H   0  0  0  0  0
   37.8863   29.1071   14.9007 H   0  0  0  0  0
   35.6348   29.1653   16.9099 H   0  0  0  0  0
   37.6302   30.5014   17.4710 H   0  0  0  0  0
   37.5815   31.2618   15.8615 H   0  0  0  0  0
   36.2692   31.5607   17.0275 H   0  0  0  0  0
   35.8181   30.5012   14.1910 H   0  0  0  0  0
   34.6981   29.1962   14.6533 H   0  0  0  0  0
   34.5615   30.7990   15.4172 H   0  0  0  0  0
   39.5872   25.9067   17.9765 H   0  0  0  0  0
   41.8972   25.6860   17.2180 H   0  0  0  0  0
   42.0482   27.3497   16.8640 H   0  0  0  0  0
   40.4601   25.2779   15.2650 H   0  0  0  0  0
   41.7004   26.2616   14.6811 H   0  0  0  0  0
   39.2365   27.2240   14.3634 H   0  0  0  0  0
   40.3802   28.3339   14.9434 H   0  0  0  0  0
  1  2  2  0  0  0
  1  3  1  0  0  0
  5  4  1  0  0  0
  5 11  1  0  0  0
  6  5  1  0  0  0
  7  6  1  0  0  0
  8  7  1  0  0  0
  9  8  1  0  0  0
 10  9  1  0  0  0
 11 12  2  0  0  0
 14 13  1  0  0  0
 14 17  1  0  0  0
 15 14  1  0  0  0
 15 16  2  0  0  0
 17 18  1  0  0  0
 18 20  4  0  0  0
 18 19  4  0  0  0
 19 21  4  0  0  0
 21 23  4  0  0  0
 23 24  1  0  0  0
 22 23  4  0  0  0
 20 22  4  0  0  0
 24 25  1  0  0  0
 25 28  2  0  0  0
 25 27  1  0  0  0
 25 26  1  0  0  0
 30 31  1  0  0  0
 30 33  1  0  0  0
 29 30  1  0  0  0
 33 34  1  0  0  0
 33 35  1  0  0  0
 31 32  2  0  0  0
 37 38  1  0  0  0
 37 40  1  0  0  0
 36 37  1  0  0  0
 40 41  1  0  0  0
 41 42  2  0  0  0
 41 43  1  0  0  0
 38 39  2  0  0  0
 45 46  1  0  0  0
 45 48  1  0  0  0
 44 45  1  0  0  0
 48 49  1  0  0  0
 48 50  1  0  0  0
 46 47  2  0  0  0
 51 52  1  0  0  0
 52 55  1  0  0  0
 52 53  1  0  0  0
 53 54  2  0  0  0
 56 55  1  0  0  0
 57 56  1  0  0  0
 51 57  1  0  0  0
 31 36  1  0  0  0
 38 44  1  0  0  0
 46 51  1  0  0  0
 53 10  1  0  0  0
  4  1  1  0  0  0
 29 15  1  0  0  0
  3 58  1  0  0  0
  3 59  1  0  0  0
  3 60  1  0  0  0
  4 61  1  0  0  0
  5 62  1  0  0  0
  6 63  1  0  0  0
  6 64  1  0  0  0
  8 65  1  0  0  0
  8 66  1  0  0  0
  9 67  1  0  0  0
  9 68  1  0  0  0
 10 69  1  0  0  0
 11 70  1  0  0  0
 13 71  1  0  0  0
 13 72  1  0  0  0
 13 73  1  0  0  0
 14 74  1  0  0  0
 17 75  1  0  0  0
 17 76  1  0  0  0
 19 77  1  0  0  0
 20 78  1  0  0  0
 21 79  1  0  0  0
 22 80  1  0  0  0
 26 81  1  0  0  0
 27 82  1  0  0  0
 29 83  1  0  0  0
 30 84  1  0  0  0
 33 85  1  0  0  0
 34 86  1  0  0  0
 34 87  1  0  0  0
 34 88  1  0  0  0
 35 89  1  0  0  0
 35 90  1  0  0  0
 35 91  1  0  0  0
 36 92  1  0  0  0
 37 93  1  0  0  0
 40 94  1  0  0  0
 40 95  1  0  0  0
 43 96  1  0  0  0
 43 97  1  0  0  0
 44 98  1  0  0  0
 45 99  1  0  0  0
 48100  1  0  0  0
 49101  1  0  0  0
 49102  1  0  0  0
 49103  1  0  0  0
 50104  1  0  0  0
 50105  1  0  0  0
 50106  1  0  0  0
 52107  1  0  0  0
 55108  1  0  0  0
 55109  1  0  0  0
 56110  1  0  0  0
 56111  1  0  0  0
 57112  1  0  0  0
 57113  1  0  0  0
M  END
$$$$
