### 
### Created by X-TOOL on Mon Sep 10 21:12:46 2018
### 

@<TRIPOS>MOLECULE
1bm2_ligand
  111   112     1     0     0
SMALL
GAST_HUCK


@<TRIPOS>ATOM
      1 C          35.4540   27.7120   22.8160 C.2       1 ACE         0.1752
      2 O          35.6410   28.6930   22.0890 O.2       1 ACE        -0.3972
      3 CH3        34.6570   27.8440   24.1000 C.3       1 ACE         0.0258
      4 N          35.9300   26.4970   22.5490 N.am      1 SLZ        -0.2663
      5 CA         36.7080   26.1910   21.3590 C.3       1 SLZ         0.1216
      6 CB         37.9670   25.4240   21.7290 C.3       1 SLZ         0.0328
      7 SG         39.0610   26.2590   22.8870 S.3       1 SLZ        -0.1540
      8 CD         39.3040   27.8400   22.0480 C.3       1 SLZ         0.0141
      9 CE         40.5490   27.9090   21.1710 C.3       1 SLZ         0.0399
     10 NZ         40.3500   27.1840   19.9170 N.am      1 SLZ        -0.2843
     11 C          35.8790   25.3380   20.4100 C.2       1 SLZ         0.1253
     12 O          35.1690   24.4140   20.8300 O.2       1 SLZ        -0.3724
     13 N          35.9850   25.6380   19.1240 N.4       1 PTR         0.2404
     14 CA         35.2310   24.9020   18.1280 C.3       1 PTR         0.0807
     15 C          36.1270   24.4840   16.9810 C.2       1 PTR         0.2303
     16 O          37.2350   24.9910   16.8400 O.2       1 PTR        -0.3904
     17 CB         34.0670   25.7520   17.6330 C.3       1 PTR         0.0601
     18 CG         33.0930   26.1350   18.7300 C.ar      1 PTR         0.0029
     19 CD1        31.9110   25.4300   18.9200 C.ar      1 PTR        -0.0237
     20 CD2        33.3370   27.2310   19.5530 C.ar      1 PTR        -0.0237
     21 CE1        30.9870   25.8160   19.8990 C.ar      1 PTR         0.0115
     22 CE2        32.4200   27.6200   20.5370 C.ar      1 PTR         0.0115
     23 CZ         31.2480   26.9170   20.7010 C.ar      1 PTR         0.1728
     24 OH         30.2860   27.3970   21.6040 O.3       1 PTR        -0.2040
     25 P          29.7000   26.4850   22.7420 P.3       1 PTR         0.1348
     26 O1P        30.2160   27.0720   24.0820 O.co2     1 PTR        -0.6653
     27 O2P        30.1810   25.0280   22.5510 O.co2     1 PTR        -0.6653
     28 O3P        28.1610   26.5680   22.6730 O.co2     1 PTR        -0.6653
     29 N          35.6540   23.5410   16.1770 N.am      1 VAL        -0.2605
     30 CA         36.4170   23.0580   15.0410 C.3       1 VAL         0.1334
     31 C          36.7320   24.2130   14.0900 C.2       1 VAL         0.2043
     32 O          37.8790   24.3750   13.6740 O.2       1 VAL        -0.3944
     33 CB         35.6530   21.9390   14.3000 C.3       1 VAL        -0.0063
     34 CG1        36.3890   21.5380   13.0190 C.3       1 VAL        -0.0584
     35 CG2        35.4880   20.7330   15.2150 C.3       1 VAL        -0.0584
     36 N          35.7370   25.0580   13.8130 N.am      1 ASN        -0.2616
     37 CA         35.9190   26.1940   12.9060 C.3       1 ASN         0.1476
     38 C          36.5320   27.4350   13.5410 C.2       1 ASN         0.2063
     39 O          36.8770   28.3850   12.8410 O.2       1 ASN        -0.3942
     40 CB         34.6200   26.5410   12.1690 C.3       1 ASN         0.0773
     41 CG         33.4930   26.9030   13.1050 C.2       1 ASN         0.1780
     42 OD1        33.3590   26.3290   14.1910 O.2       1 ASN        -0.3970
     43 ND2        32.6570   27.8390   12.6850 N.am      1 ASN        -0.3007
     44 N          36.5970   27.4610   14.8670 N.am      1 VAL        -0.2633
     45 CA         37.2310   28.5670   15.5840 C.3       1 VAL         0.1334
     46 C          37.9860   27.9350   16.7640 C.2       1 VAL         0.2066
     47 O          37.4390   27.7930   17.8660 O.2       1 VAL        -0.3942
     48 CB         36.2220   29.6200   16.1120 C.3       1 VAL        -0.0062
     49 CG1        36.9800   30.8220   16.6570 C.3       1 VAL        -0.0584
     50 CG2        35.2550   30.0610   15.0140 C.3       1 VAL        -0.0584
     51 N          39.2090   27.4280   16.5070 N.am      1 PRO        -0.2498
     52 CA         40.0350   26.8000   17.5410 C.3       1 PRO         0.1336
     53 C          40.2580   27.7530   18.7190 C.2       1 PRO         0.2019
     54 O          40.3540   28.9730   18.5360 O.2       1 PRO        -0.3945
     55 CB         41.3410   26.5230   16.7960 C.3       1 PRO        -0.0104
     56 CG         40.8900   26.2690   15.4100 C.3       1 PRO        -0.0281
     57 CD         39.9070   27.3880   15.2070 C.3       1 PRO         0.0369
     58 H1         34.6039   26.8660   24.6007 H         1 ACE         0.0467
     59 H2         33.6400   28.1919   23.8662 H         1 ACE         0.0467
     60 H3         35.1492   28.5697   24.7642 H         1 ACE         0.0467
     61 H4         35.7434   25.7596   23.1982 H         1 SLZ         0.1884
     62 H5         36.9874   27.1303   20.8594 H         1 SLZ         0.0798
     63 H6         38.5323   25.2321   20.8051 H         1 SLZ         0.0425
     64 H7         37.6627   24.4671   22.1782 H         1 SLZ         0.0425
     65 H8         39.3797   28.6264   22.8134 H         1 SLZ         0.0396
     66 H9         38.4262   28.0297   21.4128 H         1 SLZ         0.0396
     67 H10        41.3957   27.4630   21.7133 H         1 SLZ         0.0528
     68 H11        40.7718   28.9623   20.9455 H         1 SLZ         0.0528
     69 H12        40.2779   26.1877   19.9639 H         1 SLZ         0.1852
     70 H13        35.9105   25.5438   19.3411 H         1 SLZ         0.1374
     71 H14        35.3725   25.9070   19.8780 H         1 PTR         0.2018
     72 H15        36.3819   26.4633   18.7028 H         1 PTR         0.2018
     73 H16        36.7247   25.0554   19.4837 H         1 PTR         0.2018
     74 H17        34.8246   23.9938   18.5971 H         1 PTR         0.1140
     75 H18        33.5217   25.1836   16.8652 H         1 PTR         0.0618
     76 H19        34.4719   26.6733   17.1888 H         1 PTR         0.0618
     77 H20        31.7004   24.5663   18.2998 H         1 PTR         0.0703
     78 H21        34.2549   27.7943   19.4296 H         1 PTR         0.0703
     79 H22        30.0688   25.2549   20.0298 H         1 PTR         0.0736
     80 H23        32.6329   28.4743   21.1693 H         1 PTR         0.0736
     81 H24        34.7500   23.1536   16.3580 H         1 VAL         0.1885
     82 H25        37.3658   22.6424   15.4112 H         1 VAL         0.0802
     83 H26        34.6557   22.3147   14.0277 H         1 VAL         0.0343
     84 H27        35.8284   20.7413   12.5082 H         1 VAL         0.0234
     85 H28        37.3952   21.1733   13.2731 H         1 VAL         0.0234
     86 H29        36.4722   22.4112   12.3553 H         1 VAL         0.0234
     87 H30        34.9582   21.0367   16.1299 H         1 VAL         0.0234
     88 H31        36.4788   20.3355   15.4800 H         1 VAL         0.0234
     89 H32        34.9078   19.9557   14.6962 H         1 VAL         0.0234
     90 H33        34.8428   24.9118   14.2361 H         1 ASN         0.1885
     91 H34        36.6359   25.8579   12.1424 H         1 ASN         0.0826
     92 H35        34.3130   25.6710   11.5700 H         1 ASN         0.0551
     93 H36        34.8115   27.3954   11.5033 H         1 ASN         0.0551
     94 H37        31.8906   28.1205   13.2624 H         1 ASN         0.1814
     95 H38        32.7917   28.2647   11.7902 H         1 ASN         0.1814
     96 H39        36.2023   26.7048   15.3889 H         1 VAL         0.1883
     97 H40        37.9411   29.0718   14.9125 H         1 VAL         0.0803
     98 H41        35.6392   29.1684   16.9283 H         1 VAL         0.0343
     99 H42        36.2637   31.5683   17.0312 H         1 VAL         0.0234
    100 H43        37.5875   31.2668   15.8551 H         1 VAL         0.0234
    101 H44        37.6366   30.4997   17.4786 H         1 VAL         0.0234
    102 H45        34.7136   29.1845   14.6285 H         1 VAL         0.0234
    103 H46        35.8194   30.5324   14.1959 H         1 VAL         0.0234
    104 H47        34.5358   30.7835   15.4272 H         1 VAL         0.0234
    105 H48        39.5787   25.8674   17.9043 H         1 PRO         0.0802
    106 H49        41.8537   25.6431   17.2118 H         1 PRO         0.0313
    107 H50        42.0125   27.3932   16.8394 H         1 PRO         0.0313
    108 H51        40.4048   25.2860   15.3187 H         1 PRO         0.0287
    109 H52        41.7253   26.3333   14.6971 H         1 PRO         0.0287
    110 H53        39.2098   27.1627   14.3866 H         1 PRO         0.0524
    111 H54        40.4212   28.3383   15.0008 H         1 PRO         0.0524
@<TRIPOS>BOND
     1    1    2 2  
     2    1    3 1  
     3    5    4 1  
     4    5   11 1  
     5    6    5 1  
     6    7    6 1  
     7    8    7 1  
     8    9    8 1  
     9   10    9 1  
    10   11   12 2  
    11   14   13 1  
    12   14   17 1  
    13   15   14 1  
    14   15   16 2  
    15   17   18 1  
    16   18   20 ar 
    17   18   19 ar 
    18   19   21 ar 
    19   21   23 ar 
    20   23   24 1  
    21   22   23 ar 
    22   20   22 ar 
    23   24   25 1  
    24   25   28 ar 
    25   25   27 ar 
    26   25   26 ar 
    27   30   31 1  
    28   30   33 1  
    29   29   30 1  
    30   33   34 1  
    31   33   35 1  
    32   31   32 2  
    33   37   38 1  
    34   37   40 1  
    35   36   37 1  
    36   40   41 1  
    37   41   42 2  
    38   41   43 am 
    39   38   39 2  
    40   45   46 1  
    41   45   48 1  
    42   44   45 1  
    43   48   49 1  
    44   48   50 1  
    45   46   47 2  
    46   51   52 1  
    47   52   55 1  
    48   52   53 1  
    49   53   54 2  
    50   56   55 1  
    51   57   56 1  
    52   51   57 1  
    53   31   36 am 
    54   38   44 am 
    55   46   51 am 
    56   53   10 am 
    57    4    1 am 
    58   29   15 am 
    59    3   58 1  
    60    3   59 1  
    61    3   60 1  
    62    4   61 1  
    63    5   62 1  
    64    6   63 1  
    65    6   64 1  
    66    8   65 1  
    67    8   66 1  
    68    9   67 1  
    69    9   68 1  
    70   10   69 1  
    71   11   70 1  
    72   13   71 1  
    73   13   72 1  
    74   13   73 1  
    75   14   74 1  
    76   17   75 1  
    77   17   76 1  
    78   19   77 1  
    79   20   78 1  
    80   21   79 1  
    81   22   80 1  
    82   29   81 1  
    83   30   82 1  
    84   33   83 1  
    85   34   84 1  
    86   34   85 1  
    87   34   86 1  
    88   35   87 1  
    89   35   88 1  
    90   35   89 1  
    91   36   90 1  
    92   37   91 1  
    93   40   92 1  
    94   40   93 1  
    95   43   94 1  
    96   43   95 1  
    97   44   96 1  
    98   45   97 1  
    99   48   98 1  
   100   49   99 1  
   101   49  100 1  
   102   49  101 1  
   103   50  102 1  
   104   50  103 1  
   105   50  104 1  
   106   52  105 1  
   107   55  106 1  
   108   55  107 1  
   109   56  108 1  
   110   56  109 1  
   111   57  110 1  
   112   57  111 1  
@<TRIPOS>SUBSTRUCTURE
     1 ACE         1

