2w78_ligand
  -I-interpret- 

 96 95  0  0  0  0  0  0  0  0999 V2000
  -69.9010  -35.8820   20.2420 N   0  3  0  0  0
  -70.6310  -36.5940   19.1370 C   0  0  0  0  0
  -69.7860  -36.5980   17.8440 C   0  0  0  0  0
  -70.1750  -35.9210   16.8560 O   0  0  0  0  0
  -71.0670  -38.0010   19.5820 C   0  0  0  0  0
  -70.8930  -38.9520   18.5480 O   0  0  0  0  0
  -68.6420  -37.3130   17.8750 N   0  0  0  0  0
  -67.6360  -37.2850   16.7940 C   0  0  0  0  0
  -67.3870  -38.6420   16.1800 C   0  0  0  0  0
  -66.5750  -38.7950   15.2420 O   0  0  0  0  0
  -66.3080  -36.7050   17.2850 C   0  0  0  0  0
  -66.3940  -35.2440   17.7700 C   0  0  0  0  0
  -66.6230  -34.2180   16.6610 C   0  0  0  0  0
  -67.8150  -33.3620   17.0040 C   0  0  0  0  0
  -67.7630  -32.0300   16.3690 N   0  3  0  0  0
  -68.0770  -39.6310   16.7350 N   0  0  0  0  0
  -68.0510  -40.9950   16.2230 C   0  0  0  0  0
  -66.9410  -41.8670   16.7570 C   0  0  0  0  0
  -66.6520  -42.9120   16.1690 O   0  0  0  0  0
  -65.7340  -43.4120   19.9860 N   0  3  0  0  0
  -65.5470  -44.5350   20.9490 C   0  0  0  0  0
  -65.1860  -44.1090   22.3640 C   0  0  0  0  0
  -65.9480  -44.3830   23.2880 O   0  0  0  0  0
  -64.5790  -45.6510   20.4500 C   0  0  0  0  0
  -64.0470  -46.6570   21.5230 C   0  0  0  0  0
  -65.1220  -47.2770   22.4770 C   0  0  0  0  0
  -64.4400  -48.0550   23.5980 C   0  0  0  0  0
  -65.0420  -47.9700   24.9800 N   0  0  0  0  0
  -64.0330  -43.4770   22.5660 N   0  0  0  0  0
  -63.6870  -43.1010   23.9500 C   0  0  0  0  0
  -62.5280  -42.1190   24.1000 C   0  0  0  0  0
  -63.1720  -40.7530   24.3710 C   0  0  0  0  0
  -62.1540  -39.6280   24.2430 C   0  0  0  0  0
  -62.6310  -38.5590   23.3790 N   0  3  0  0  0
  -63.4560  -38.7480   22.5280 O   0  0  0  0  0
  -62.1340  -37.4280   23.5360 C   0  0  0  0  0
  -62.4480  -36.4320   22.9130 O   0  0  0  0  0
  -63.5880  -44.3630   24.7880 C   0  0  0  0  0
  -62.5870  -45.0910   24.7240 O   0  0  0  0  0
  -64.6520  -44.6560   25.5380 N   0  0  0  0  0
  -64.7310  -45.9030   26.3050 C   0  0  0  0  0
  -65.5530  -46.9210   25.5170 C   0  0  0  0  0
  -66.7860  -46.8190   25.5400 O   0  0  0  0  0
  -65.3890  -45.6480   27.6760 C   0  0  0  0  0
  -64.5670  -46.1360   28.7310 O   0  0  0  0  0
  -69.6237  -34.9541   19.9219 H   0  0  0  0  0
  -70.5148  -35.7942   21.0519 H   0  0  0  0  0
  -69.0711  -36.4164   20.4991 H   0  0  0  0  0
  -71.5481  -36.0512   18.9081 H   0  0  0  0  0
  -72.1245  -37.9670   19.8441 H   0  0  0  0  0
  -70.4524  -38.2994   20.4313 H   0  0  0  0  0
  -71.1738  -39.8158   18.8587 H   0  0  0  0  0
  -68.4627  -37.9035   18.6872 H   0  0  0  0  0
  -68.0565  -36.6412   16.0214 H   0  0  0  0  0
  -65.6188  -36.7225   16.4407 H   0  0  0  0  0
  -65.9903  -37.3072   18.1362 H   0  0  0  0  0
  -65.4359  -35.0051   18.2315 H   0  0  0  0  0
  -67.2496  -35.1819   18.4425 H   0  0  0  0  0
  -66.8075  -34.7363   15.7200 H   0  0  0  0  0
  -65.7397  -33.5870   16.5628 H   0  0  0  0  0
  -67.8228  -33.2172   18.0843 H   0  0  0  0  0
  -68.7077  -33.8710   16.6405 H   0  0  0  0  0
  -68.5904  -31.4957   16.6342 H   0  0  0  0  0
  -66.9252  -31.5386   16.6805 H   0  0  0  0  0
  -67.7376  -32.1388   15.3551 H   0  0  0  0  0
  -68.6495  -39.4276   17.5543 H   0  0  0  0  0
  -67.8969  -40.9201   15.1466 H   0  0  0  0  0
  -68.9873  -41.4604   16.5308 H   0  0  0  0  0
  -66.3984  -41.5753   17.6562 H   0  0  0  0  0
  -65.9722  -43.7886   19.0685 H   0  0  0  0  0
  -66.4877  -42.8074   20.3128 H   0  0  0  0  0
  -64.8696  -42.8746   19.9203 H   0  0  0  0  0
  -66.5462  -44.9679   20.9976 H   0  0  0  0  0
  -63.7006  -45.1338   20.0640 H   0  0  0  0  0
  -65.1515  -46.2472   19.7395 H   0  0  0  0  0
  -63.3635  -46.0934   22.1580 H   0  0  0  0  0
  -63.6111  -47.4900   20.9714 H   0  0  0  0  0
  -65.7587  -47.9538   21.9073 H   0  0  0  0  0
  -65.7212  -46.4760   22.9100 H   0  0  0  0  0
  -63.4432  -47.6232   23.6875 H   0  0  0  0  0
  -64.5149  -49.1041   23.3118 H   0  0  0  0  0
  -65.0430  -48.8237   25.5383 H   0  0  0  0  0
  -63.4085  -43.2595   21.7894 H   0  0  0  0  0
  -64.4991  -42.4914   24.3462 H   0  0  0  0  0
  -61.9090  -42.0953   23.2031 H   0  0  0  0  0
  -61.8618  -42.4119   24.9115 H   0  0  0  0  0
  -63.5669  -40.7504   25.3869 H   0  0  0  0  0
  -63.9633  -40.5905   23.6392 H   0  0  0  0  0
  -61.2438  -40.0393   23.8065 H   0  0  0  0  0
  -61.9781  -39.2123   25.2351 H   0  0  0  0  0
  -61.3558  -37.3225   24.2918 H   0  0  0  0  0
  -65.4291  -43.9966   25.5787 H   0  0  0  0  0
  -63.7251  -46.2888   26.4705 H   0  0  0  0  0
  -66.3466  -46.1677   27.7079 H   0  0  0  0  0
  -65.5259  -44.5744   27.8055 H   0  0  0  0  0
  -64.9954  -45.9669   29.5733 H   0  0  0  0  0
  1  2  1  0  0  0
  2  3  1  0  0  0
  2  5  1  0  0  0
  3  4  2  0  0  0
  3  7  1  0  0  0
  5  6  1  0  0  0
  7  8  1  0  0  0
  8  9  1  0  0  0
  8 11  1  0  0  0
  9 10  2  0  0  0
  9 16  1  0  0  0
 11 12  1  0  0  0
 12 13  1  0  0  0
 13 14  1  0  0  0
 14 15  1  0  0  0
 16 17  1  0  0  0
 17 18  1  0  0  0
 18 19  2  0  0  0
 20 21  1  0  0  0
 21 22  1  0  0  0
 21 24  1  0  0  0
 22 23  2  0  0  0
 22 29  1  0  0  0
 24 25  1  0  0  0
 25 26  1  0  0  0
 26 27  1  0  0  0
 27 28  1  0  0  0
 28 42  1  0  0  0
 29 30  1  0  0  0
 30 31  1  0  0  0
 30 38  1  0  0  0
 31 32  1  0  0  0
 32 33  1  0  0  0
 33 34  1  0  0  0
 34 35  2  0  0  0
 34 36  1  0  0  0
 36 37  2  0  0  0
 38 39  2  0  0  0
 38 40  1  0  0  0
 40 41  1  0  0  0
 41 42  1  0  0  0
 41 44  1  0  0  0
 42 43  2  0  0  0
 44 45  1  0  0  0
  1 46  1  0  0  0
  1 47  1  0  0  0
  1 48  1  0  0  0
  2 49  1  0  0  0
  5 50  1  0  0  0
  5 51  1  0  0  0
  6 52  1  0  0  0
  7 53  1  0  0  0
  8 54  1  0  0  0
 11 55  1  0  0  0
 11 56  1  0  0  0
 12 57  1  0  0  0
 12 58  1  0  0  0
 13 59  1  0  0  0
 13 60  1  0  0  0
 14 61  1  0  0  0
 14 62  1  0  0  0
 15 63  1  0  0  0
 15 64  1  0  0  0
 15 65  1  0  0  0
 16 66  1  0  0  0
 17 67  1  0  0  0
 17 68  1  0  0  0
 18 69  1  0  0  0
 20 70  1  0  0  0
 20 71  1  0  0  0
 20 72  1  0  0  0
 21 73  1  0  0  0
 24 74  1  0  0  0
 24 75  1  0  0  0
 25 76  1  0  0  0
 25 77  1  0  0  0
 26 78  1  0  0  0
 26 79  1  0  0  0
 27 80  1  0  0  0
 27 81  1  0  0  0
 28 82  1  0  0  0
 29 83  1  0  0  0
 30 84  1  0  0  0
 31 85  1  0  0  0
 31 86  1  0  0  0
 32 87  1  0  0  0
 32 88  1  0  0  0
 33 89  1  0  0  0
 33 90  1  0  0  0
 36 91  1  0  0  0
 40 92  1  0  0  0
 41 93  1  0  0  0
 44 94  1  0  0  0
 44 95  1  0  0  0
 45 96  1  0  0  0
M  END
$$$$
