### 
### Created by X-TOOL on Sun Sep  9 21:51:02 2018
### 

@<TRIPOS>MOLECULE
2w78_ligand
   96    95     2     0     0
SMALL
GAST_HUCK


@<TRIPOS>ATOM
      1 N         -69.9010  -35.8820   20.2420 N.4       1 NON         0.2396
      2 CA        -70.6310  -36.5940   19.1370 C.3       1 NON         0.0885
      3 C         -69.7860  -36.5980   17.8440 C.2       1 NON         0.2290
      4 O         -70.1750  -35.9210   16.8560 O.2       1 NON        -0.3906
      5 CB        -71.0670  -38.0010   19.5820 C.3       1 NON         0.1041
      6 OG        -70.8930  -38.9520   18.5480 O.3       1 NON        -0.3870
      7 N         -68.6420  -37.3130   17.8750 N.am      1 NON        -0.2610
      8 CA        -67.6360  -37.2850   16.7940 C.3       1 NON         0.1311
      9 C         -67.3870  -38.6420   16.1800 C.2       1 NON         0.2038
     10 O         -66.5750  -38.7950   15.2420 O.2       1 NON        -0.3944
     11 CB        -66.3080  -36.7050   17.2850 C.3       1 NON        -0.0122
     12 CG        -66.3940  -35.2440   17.7700 C.3       1 NON        -0.0440
     13 CD        -66.6230  -34.2180   16.6610 C.3       1 NON        -0.0124
     14 CE        -67.8150  -33.3620   17.0040 C.3       1 NON        -0.0354
     15 NZ        -67.7630  -32.0300   16.3690 N.4       1 NON         0.2185
     16 N         -68.0770  -39.6310   16.7350 N.am      1 NON        -0.2677
     17 CA        -68.0510  -40.9950   16.2230 C.3       1 NON         0.1018
     18 C         -66.9410  -41.8670   16.7570 C.2       1 NON         0.1214
     19 O         -66.6520  -42.9120   16.1690 O.2       1 NON        -0.3728
     20 N         -65.7340  -43.4120   19.9860 N.4       2 NON         0.2379
     21 CA        -65.5470  -44.5350   20.9490 C.3       2 NON         0.0650
     22 C         -65.1860  -44.1090   22.3640 C.2       2 NON         0.2267
     23 O         -65.9480  -44.3830   23.2880 O.2       2 NON        -0.3907
     24 CB        -64.5790  -45.6510   20.4500 C.3       2 NON         0.0079
     25 CG        -64.0470  -46.6570   21.5230 C.3       2 NON        -0.0439
     26 CD        -65.1220  -47.2770   22.4770 C.3       2 NON        -0.0324
     27 CE        -64.4400  -48.0550   23.5980 C.3       2 NON         0.0310
     28 NZ        -65.0420  -47.9700   24.9800 N.am      2 NON        -0.2850
     29 N         -64.0330  -43.4770   22.5660 N.am      2 NON        -0.2610
     30 CA        -63.6870  -43.1010   23.9500 C.3       2 NON         0.1312
     31 CB        -62.5280  -42.1190   24.1000 C.3       2 NON        -0.0090
     32 CG        -63.1720  -40.7530   24.3710 C.3       2 NON        -0.0081
     33 CD        -62.1540  -39.6280   24.2430 C.3       2 NON         0.1516
     34 NE        -62.6310  -38.5590   23.3790 N.2       2 NON         0.0851
     35 OZ        -63.4560  -38.7480   22.5280 O.2       2 NON         0.1605
     36 CZ        -62.1340  -37.4280   23.5360 C.2       2 NON         0.3885
     37 OH        -62.4480  -36.4320   22.9130 O.2       2 NON        -0.2003
     38 C         -63.5880  -44.3630   24.7880 C.2       2 NON         0.2040
     39 O         -62.5870  -45.0910   24.7240 O.2       2 NON        -0.3944
     40 N         -64.6520  -44.6560   25.5380 N.am      2 NON        -0.2616
     41 CA        -64.7310  -45.9030   26.3050 C.3       2 NON         0.1538
     42 C         -65.5530  -46.9210   25.5170 C.2       2 NON         0.2039
     43 O         -66.7860  -46.8190   25.5400 O.2       2 NON        -0.3945
     44 CB        -65.3890  -45.6480   27.6760 C.3       2 NON         0.0843
     45 OG        -64.5670  -46.1360   28.7310 O.3       2 NON        -0.3903
     46 H1        -70.4659  -35.8889   21.0768 H         1 NON         0.2016
     47 H2        -69.7206  -34.9294   19.9663 H         1 NON         0.2016
     48 H3        -69.0272  -36.3504   20.4238 H         1 NON         0.2016
     49 H4        -71.5477  -36.0248   18.9234 H         1 NON         0.1122
     50 H5        -72.1294  -37.9725   19.8656 H         1 NON         0.0640
     51 H6        -70.4636  -38.3037   20.4505 H         1 NON         0.0640
     52 H7        -71.1709  -39.8068   18.8554 H         1 NON         0.2099
     53 H8        -68.4662  -37.8919   18.6712 H         1 NON         0.1884
     54 H9        -68.0243  -36.6263   16.0033 H         1 NON         0.0800
     55 H10       -65.5850  -36.7511   16.4573 H         1 NON         0.0312
     56 H11       -65.9493  -37.3246   18.1202 H         1 NON         0.0312
     57 H12       -65.4507  -34.9951   18.2782 H         1 NON         0.0269
     58 H13       -67.2267  -35.1682   18.4847 H         1 NON         0.0269
     59 H14       -66.8086  -34.7406   15.7111 H         1 NON         0.0317
     60 H15       -65.7315  -33.5814   16.5612 H         1 NON         0.0317
     61 H16       -67.8509  -33.2301   18.0955 H         1 NON         0.0813
     62 H17       -68.7266  -33.8770   16.6667 H         1 NON         0.0813
     63 H18       -68.5803  -31.5010   16.6304 H         1 NON         0.1994
     64 H19       -67.7379  -32.1362   15.3669 H         1 NON         0.1994
     65 H20       -66.9354  -31.5434   16.6762 H         1 NON         0.1994
     66 H21       -68.6382  -39.4315   17.5383 H         1 NON         0.1882
     67 H22       -67.9463  -40.9447   15.1292 H         1 NON         0.0754
     68 H23       -69.0091  -41.4714   16.4782 H         1 NON         0.0754
     69 H24       -66.3989  -41.5755   17.6554 H         1 NON         0.1370
     70 H25       -65.9695  -43.7830   19.0788 H         2 NON         0.2015
     71 H26       -64.8803  -42.8801   19.9201 H         2 NON         0.2015
     72 H27       -66.4786  -42.8137   20.3079 H         2 NON         0.2015
     73 H28       -66.5361  -45.0101   21.0257 H         2 NON         0.1098
     74 H29       -63.7072  -45.1566   19.9967 H         2 NON         0.0346
     75 H30       -65.1103  -46.2334   19.6829 H         2 NON         0.0346
     76 H31       -63.3109  -46.1269   22.1453 H         2 NON         0.0269
     77 H32       -63.5514  -47.4835   20.9926 H         2 NON         0.0269
     78 H33       -65.7690  -47.9570   21.9034 H         2 NON         0.0285
     79 H34       -65.7312  -46.4709   22.9118 H         2 NON         0.0285
     80 H35       -63.4046  -47.6902   23.6680 H         2 NON         0.0520
     81 H36       -64.4362  -49.1156   23.3063 H         2 NON         0.0520
     82 H37       -65.0430  -48.8069   25.5273 H         2 NON         0.1851
     83 H38       -63.4208  -43.2637   21.8046 H         2 NON         0.1884
     84 H39       -64.5598  -42.5544   24.3366 H         2 NON         0.0800
     85 H40       -61.9321  -42.0853   23.1760 H         2 NON         0.0313
     86 H41       -61.8833  -42.4125   24.9416 H         2 NON         0.0313
     87 H42       -63.5861  -40.7476   25.3900 H         2 NON         0.0303
     88 H43       -63.9819  -40.5880   23.6452 H         2 NON         0.0303
     89 H44       -61.2236  -40.0368   23.8220 H         2 NON         0.0767
     90 H45       -61.9537  -39.2145   25.2424 H         2 NON         0.0767
     91 H46       -61.3565  -37.3225   24.2912 H         2 NON         0.2097
     92 H47       -65.4139  -44.0095   25.5779 H         2 NON         0.1884
     93 H48       -63.7160  -46.2972   26.4613 H         2 NON         0.0823
     94 H49       -66.3615  -46.1610   27.7101 H         2 NON         0.0606
     95 H50       -65.5401  -44.5664   27.8077 H         2 NON         0.0606
     96 H51       -64.9909  -45.9687   29.5645 H         2 NON         0.2097
@<TRIPOS>BOND
     1    1    2 1  
     2    2    3 1  
     3    2    5 1  
     4    3    4 2  
     5    3    7 am 
     6    5    6 1  
     7    7    8 1  
     8    8    9 1  
     9    8   11 1  
    10    9   10 2  
    11    9   16 am 
    12   11   12 1  
    13   12   13 1  
    14   13   14 1  
    15   14   15 1  
    16   16   17 1  
    17   17   18 1  
    18   18   19 2  
    19   20   21 1  
    20   21   22 1  
    21   21   24 1  
    22   22   23 2  
    23   22   29 am 
    24   24   25 1  
    25   25   26 1  
    26   26   27 1  
    27   27   28 1  
    28   28   42 am 
    29   29   30 1  
    30   30   31 1  
    31   30   38 1  
    32   31   32 1  
    33   32   33 1  
    34   33   34 1  
    35   34   35 2  
    36   34   36 1  
    37   36   37 2  
    38   38   39 2  
    39   38   40 am 
    40   40   41 1  
    41   41   42 1  
    42   41   44 1  
    43   42   43 2  
    44   44   45 1  
    45    1   46 1  
    46    1   47 1  
    47    1   48 1  
    48    2   49 1  
    49    5   50 1  
    50    5   51 1  
    51    6   52 1  
    52    7   53 1  
    53    8   54 1  
    54   11   55 1  
    55   11   56 1  
    56   12   57 1  
    57   12   58 1  
    58   13   59 1  
    59   13   60 1  
    60   14   61 1  
    61   14   62 1  
    62   15   63 1  
    63   15   64 1  
    64   15   65 1  
    65   16   66 1  
    66   17   67 1  
    67   17   68 1  
    68   18   69 1  
    69   20   70 1  
    70   20   71 1  
    71   20   72 1  
    72   21   73 1  
    73   24   74 1  
    74   24   75 1  
    75   25   76 1  
    76   25   77 1  
    77   26   78 1  
    78   26   79 1  
    79   27   80 1  
    80   27   81 1  
    81   28   82 1  
    82   29   83 1  
    83   30   84 1  
    84   31   85 1  
    85   31   86 1  
    86   32   87 1  
    87   32   88 1  
    88   33   89 1  
    89   33   90 1  
    90   36   91 1  
    91   40   92 1  
    92   41   93 1  
    93   44   94 1  
    94   44   95 1  
    95   45   96 1  
@<TRIPOS>SUBSTRUCTURE
     1 NON         1
     2 NON        20

