6mm2_ligand
  -I-interpret- 

 47 49  0  0  0  0  0  0  0  0999 V2000
    9.0660   19.7700    6.4970 P   0  0  0  0  0
    8.8070   21.2020    6.2060 O   0  0  0  0  0
    8.1210   19.2710    7.6040 O   0  0  0  0  0
   10.4620   19.3700    6.8100 O   0  0  0  0  0
    7.2890   18.9670    4.3420 P   0  0  0  0  0
    6.4140   17.8900    4.8030 O   0  0  0  0  0
    6.7220   20.3320    4.3100 O   0  0  0  0  0
    8.6880   18.9300    5.1560 O   0  0  0  0  0
    8.7810   17.7800    2.0470 P   0  0  0  0  0
    8.8950   18.2950    0.5930 O   0  0  0  0  0
    8.3970   16.3900    2.1990 O   0  0  0  0  0
    7.7810   18.8020    2.7690 O   0  0  0  0  0
   10.2450   18.0900    2.7360 O   0  0  0  0  0
   10.8460   17.1390    3.5780 C   0  0  0  0  0
   12.3460   17.4580    3.6180 C   0  0  0  0  0
   12.8540   17.3530    2.3430 O   0  0  0  0  0
   12.6750   18.8390    4.1820 C   0  0  0  0  0
   12.7420   18.8800    5.5600 O   0  0  0  0  0
   14.0420   19.0370    3.4460 C   0  0  0  0  0
   15.0520   18.3820    4.2830 O   0  0  0  0  0
   13.9430   18.4410    2.2320 C   0  0  0  0  0
   13.5180   19.3090    1.1120 N   0  0  0  0  0
   12.2510   19.6400    0.7260 C   0  0  0  0  0
   12.2950   20.5000   -0.2940 N   0  0  0  0  0
   13.6350   20.7050   -0.5190 C   0  0  0  0  0
   14.2930   21.4620   -1.4420 C   0  0  0  0  0
   13.6970   22.3020   -2.4150 N   0  0  0  0  0
   15.6360   21.4630   -1.4480 N   0  0  0  0  0
   16.2980   20.7200   -0.5590 C   0  0  0  0  0
   15.7160   19.9390    0.3790 N   0  0  0  0  0
   14.3740   19.9600    0.3420 C   0  0  0  0  0
    8.2993   18.3446    7.7818 H   0  0  0  0  0
   10.4931   18.4252    6.9775 H   0  0  0  0  0
    7.3876   20.9464    3.9922 H   0  0  0  0  0
    9.1527   19.2197    0.6015 H   0  0  0  0  0
   10.6766   16.1300    3.2022 H   0  0  0  0  0
   10.4158   17.1837    4.5785 H   0  0  0  0  0
   12.8033   16.7374    4.2960 H   0  0  0  0  0
   11.9352   19.6220    4.0156 H   0  0  0  0  0
   12.9513   19.7732    5.8426 H   0  0  0  0  0
   14.3081   20.0832    3.2953 H   0  0  0  0  0
   15.9151   18.4752    3.8731 H   0  0  0  0  0
   14.9489   18.0896    2.0023 H   0  0  0  0  0
   11.3381   19.2583    1.1833 H   0  0  0  0  0
   12.6814   22.3800   -2.4682 H   0  0  0  0  0
   14.2836   22.8287   -3.0622 H   0  0  0  0  0
   17.3872   20.7444   -0.5913 H   0  0  0  0  0
  1  2  2  0  0  0
  1  3  1  0  0  0
  1  4  1  0  0  0
  8  1  1  0  0  0
  5  6  2  0  0  0
  5  7  1  0  0  0
  5  8  1  0  0  0
 12  5  1  0  0  0
  9 10  1  0  0  0
  9 11  2  0  0  0
  9 12  1  0  0  0
  9 13  1  0  0  0
 13 14  1  0  0  0
 14 15  1  0  0  0
 15 16  1  0  0  0
 15 17  1  0  0  0
 16 21  1  0  0  0
 17 18  1  0  0  0
 17 19  1  0  0  0
 19 20  1  0  0  0
 19 21  1  0  0  0
 21 22  1  0  0  0
 22 23  4  0  0  0
 22 31  4  0  0  0
 23 24  4  0  0  0
 24 25  4  0  0  0
 25 26  4  0  0  0
 25 31  4  0  0  0
 26 27  1  0  0  0
 26 28  4  0  0  0
 28 29  4  0  0  0
 29 30  4  0  0  0
 30 31  4  0  0  0
  3 32  1  0  0  0
  4 33  1  0  0  0
  7 34  1  0  0  0
 10 35  1  0  0  0
 14 36  1  0  0  0
 14 37  1  0  0  0
 15 38  1  0  0  0
 17 39  1  0  0  0
 18 40  1  0  0  0
 19 41  1  0  0  0
 20 42  1  0  0  0
 21 43  1  0  0  0
 23 44  1  0  0  0
 27 45  1  0  0  0
 27 46  1  0  0  0
 29 47  1  0  0  0
M  END
$$$$
