### 
### Created by X-TOOL on Mon Aug  2 16:14:56 2021
### 

@<TRIPOS>MOLECULE
6mm2_ligand
   43    45     1     0     0
SMALL
GAST_HUCK


@<TRIPOS>ATOM
      1 PG          9.0660   19.7700    6.4970 P.3       1 ATP         0.1879
      2 O1G         8.8070   21.2020    6.2060 O.co2     1 ATP        -0.6091
      3 O2G         8.1210   19.2710    7.6040 O.co2     1 ATP        -0.6091
      4 O3G        10.4620   19.3700    6.8100 O.co2     1 ATP        -0.6091
      5 PB          7.2890   18.9670    4.3420 P.3       1 ATP         0.3553
      6 O1B         6.4140   17.8900    4.8030 O.co2     1 ATP        -0.5652
      7 O2B         6.7220   20.3320    4.3100 O.co2     1 ATP        -0.5652
      8 O3B         8.6880   18.9300    5.1560 O.3       1 ATP        -0.1546
      9 PA          8.7810   17.7800    2.0470 P.3       1 ATP         0.3266
     10 O1A         8.8950   18.2950    0.5930 O.co2     1 ATP        -0.5692
     11 O2A         8.3970   16.3900    2.1990 O.co2     1 ATP        -0.5692
     12 O3A         7.7810   18.8020    2.7690 O.3       1 ATP        -0.1171
     13 O5'        10.2450   18.0900    2.7360 O.3       1 ATP        -0.2441
     14 C5'        10.8460   17.1390    3.5780 C.3       1 ATP         0.1131
     15 C4'        12.3460   17.4580    3.6180 C.3       1 ATP         0.1189
     16 O4'        12.8540   17.3530    2.3430 O.3       1 ATP        -0.3364
     17 C3'        12.6750   18.8390    4.1820 C.3       1 ATP         0.1149
     18 O3'        12.7420   18.8800    5.5600 O.3       1 ATP        -0.3864
     19 C2'        14.0420   19.0370    3.4460 C.3       1 ATP         0.1385
     20 O2'        15.0520   18.3820    4.2830 O.3       1 ATP        -0.3836
     21 C1'        13.9430   18.4410    2.2320 C.3       1 ATP         0.2010
     22 N9         13.5180   19.3090    1.1120 N.pl3     1 ATP        -0.1919
     23 C8         12.2510   19.6400    0.7260 C.2       1 ATP         0.1123
     24 N7         12.2950   20.5000   -0.2940 N.2       1 ATP        -0.2958
     25 C5         13.6350   20.7050   -0.5190 C.ar      1 ATP         0.1045
     26 C6         14.2930   21.4620   -1.4420 C.ar      1 ATP         0.1298
     27 N6         13.6970   22.3020   -2.4150 N.pl3     1 ATP        -0.3152
     28 N1         15.6360   21.4630   -1.4480 N.ar      1 ATP        -0.2698
     29 C2         16.2980   20.7200   -0.5590 C.ar      1 ATP         0.0533
     30 N3         15.7160   19.9390    0.3790 N.ar      1 ATP        -0.2714
     31 C4         14.3740   19.9600    0.3420 C.ar      1 ATP         0.1613
     32 H1         10.6859   16.1265    3.1789 H         1 ATP         0.0648
     33 H2         10.4186   17.2064    4.5893 H         1 ATP         0.0648
     34 H3         12.8343   16.7086    4.2582 H         1 ATP         0.0651
     35 H4         11.9389   19.5890    3.8570 H         1 ATP         0.0648
     36 H5         11.9043   18.6194    5.9245 H         1 ATP         0.2100
     37 H6         14.2777   20.1046    3.3251 H         1 ATP         0.0676
     38 H7         15.9060   18.4743    3.8774 H         1 ATP         0.2101
     39 H8         14.9161   17.9922    1.9837 H         1 ATP         0.0996
     40 H9         11.3390   19.2587    1.1828 H         1 ATP         0.1349
     41 H10        14.2893   22.8339   -3.0686 H         1 ATP         0.1820
     42 H11        12.6714   22.3807   -2.4688 H         1 ATP         0.1820
     43 H12        17.3813   20.7443   -0.5911 H         1 ATP         0.0996
@<TRIPOS>BOND
     1    1    2 ar 
     2    1    3 ar 
     3    1    4 ar 
     4    8    1 1  
     5    5    6 ar 
     6    5    7 ar 
     7    5    8 1  
     8   12    5 1  
     9    9   10 ar 
    10    9   11 ar 
    11    9   12 1  
    12    9   13 1  
    13   13   14 1  
    14   14   15 1  
    15   15   16 1  
    16   15   17 1  
    17   16   21 1  
    18   17   18 1  
    19   17   19 1  
    20   19   20 1  
    21   19   21 1  
    22   21   22 1  
    23   22   23 1  
    24   22   31 1  
    25   23   24 2  
    26   24   25 1  
    27   25   26 ar 
    28   25   31 ar 
    29   26   27 1  
    30   26   28 ar 
    31   28   29 ar 
    32   29   30 ar 
    33   30   31 ar 
    34   14   32 1  
    35   14   33 1  
    36   15   34 1  
    37   17   35 1  
    38   18   36 1  
    39   19   37 1  
    40   20   38 1  
    41   21   39 1  
    42   23   40 1  
    43   27   41 1  
    44   27   42 1  
    45   29   43 1  
@<TRIPOS>SUBSTRUCTURE
     1 ATP         1

