3s7b_ligand
  -I-interpret- 

 79 82  0  0  0  0  0  0  0  0999 V2000
  -16.9480  -64.9640    1.4010 C   0  0  0  0  0
  -15.8390  -65.4740    2.0660 C   0  0  0  0  0
  -14.7820  -66.0000    1.3280 C   0  0  0  0  0
  -14.8290  -66.0070   -0.0710 C   0  0  0  0  0
  -15.9440  -65.4900   -0.7260 C   0  0  0  0  0
  -17.0060  -64.9690    0.0080 C   0  0  0  0  0
  -18.2330  -64.4330   -0.6970 C   0  0  0  0  0
  -18.1060  -62.9680   -1.1500 C   0  0  0  0  0
  -17.0010  -62.2520   -0.4870 N   0  3  0  0  0
  -17.5060  -61.1460    0.3320 C   0  0  0  0  0
  -16.5170  -59.9770    0.2140 C   0  0  0  0  0
  -17.2360  -58.6450    0.0490 C   0  0  0  0  0
  -18.4470  -58.5770    0.1660 O   0  0  0  0  0
  -16.5010  -57.5280   -0.1910 N   0  0  0  0  0
  -17.0900  -56.1970   -0.3950 C   0  0  0  0  0
  -18.2020  -55.8410    0.6050 C   0  0  0  0  0
  -17.6830  -55.2490    1.8400 N   0  3  0  0  0
  -18.7420  -54.4690    2.5150 C   0  0  0  0  0
  -19.6400  -55.2590    3.4860 C   0  0  0  0  0
  -19.6460  -54.5560    4.8280 C   0  0  0  0  0
  -20.4490  -53.4200    5.0580 C   0  0  0  0  0
  -20.4630  -52.7610    6.2990 C   0  0  0  0  0
  -19.6250  -53.2280    7.3250 C   0  0  0  0  0
  -18.8490  -54.3710    7.1050 C   0  0  0  0  0
  -18.8520  -54.9890    5.8710 C   0  0  0  0  0
  -18.0140  -56.0280    5.6390 O   0  0  0  0  0
  -16.7210  -55.9740    6.2880 C   0  0  0  0  0
  -16.8270  -55.5250    7.7340 C   0  0  0  0  0
  -15.9950  -55.8120    8.5630 O   0  0  0  0  0
  -17.8990  -54.7810    8.0420 N   0  0  0  0  0
  -19.4920  -52.6630    8.5480 O   0  0  0  0  0
  -15.0170  -57.6240   -0.3710 C   0  0  0  0  0
  -14.6450  -57.7460   -1.8680 C   0  0  0  0  0
  -13.1290  -57.8760   -2.0710 C   0  0  0  0  0
  -12.3690  -56.7120   -1.4060 C   0  0  0  0  0
  -12.7170  -56.5580    0.0860 C   0  0  0  0  0
  -14.2390  -56.4840    0.3140 C   0  0  0  0  0
  -13.5240  -66.6660   -1.0250 Cl  0  0  0  0  0
  -13.3720  -66.6030    2.1410 Cl  0  0  0  0  0
  -17.7805  -64.5561    1.9743 H   0  0  0  0  0
  -15.7972  -65.4622    3.1551 H   0  0  0  0  0
  -15.9852  -65.4933   -1.8152 H   0  0  0  0  0
  -19.0596  -64.4813    0.0118 H   0  0  0  0  0
  -18.3802  -65.0364   -1.5928 H   0  0  0  0  0
  -19.0341  -62.4590   -0.8898 H   0  0  0  0  0
  -17.9050  -62.9686   -2.2213 H   0  0  0  0  0
  -16.3818  -61.8721   -1.2030 H   0  0  0  0  0
  -16.5043  -62.9061    0.1179 H   0  0  0  0  0
  -17.5965  -61.4588    1.3722 H   0  0  0  0  0
  -18.4929  -60.8405   -0.0155 H   0  0  0  0  0
  -15.8939  -60.1419   -0.6650 H   0  0  0  0  0
  -15.9235  -59.9359    1.1273 H   0  0  0  0  0
  -17.5372  -56.1918   -1.3890 H   0  0  0  0  0
  -16.2912  -55.4675   -0.2613 H   0  0  0  0  0
  -18.7228  -56.7616    0.8682 H   0  0  0  0  0
  -18.8559  -55.1085    0.1317 H   0  0  0  0  0
  -16.9050  -54.6297    1.6127 H   0  0  0  0  0
  -17.3689  -55.9941    2.4617 H   0  0  0  0  0
  -19.3957  -54.0920    1.7284 H   0  0  0  0  0
  -18.2338  -53.7120    3.1122 H   0  0  0  0  0
  -19.2562  -56.2726    3.6020 H   0  0  0  0  0
  -20.6548  -55.3101    3.0915 H   0  0  0  0  0
  -21.0764  -53.0425    4.2506 H   0  0  0  0  0
  -21.1133  -51.9017    6.4627 H   0  0  0  0  0
  -16.1015  -55.2543    5.7528 H   0  0  0  0  0
  -16.2909  -56.9754    6.2734 H   0  0  0  0  0
  -18.0274  -54.4992    9.0139 H   0  0  0  0  0
  -18.8610  -53.1683    9.0658 H   0  0  0  0  0
  -14.7078  -58.5378    0.1365 H   0  0  0  0  0
  -14.9827  -56.8444   -2.3791 H   0  0  0  0  0
  -15.1218  -58.6412   -2.2673 H   0  0  0  0  0
  -12.9209  -57.8581   -3.1408 H   0  0  0  0  0
  -12.7982  -58.8095   -1.6157 H   0  0  0  0  0
  -12.6524  -55.7906   -1.9147 H   0  0  0  0  0
  -11.3016  -56.9191   -1.4831 H   0  0  0  0  0
  -12.2710  -55.6316    0.4479 H   0  0  0  0  0
  -12.3327  -57.4277    0.6189 H   0  0  0  0  0
  -14.4147  -56.5648    1.3867 H   0  0  0  0  0
  -14.5897  -55.5444   -0.1128 H   0  0  0  0  0
  1  2  4  0  0  0
  1  6  4  0  0  0
  2  3  4  0  0  0
  3  4  4  0  0  0
  3 39  1  0  0  0
  4  5  4  0  0  0
  4 38  1  0  0  0
  5  6  4  0  0  0
  6  7  1  0  0  0
  7  8  1  0  0  0
  8  9  1  0  0  0
  9 10  1  0  0  0
 10 11  1  0  0  0
 11 12  1  0  0  0
 12 13  2  0  0  0
 12 14  1  0  0  0
 14 15  1  0  0  0
 14 32  1  0  0  0
 15 16  1  0  0  0
 16 17  1  0  0  0
 17 18  1  0  0  0
 18 19  1  0  0  0
 19 20  1  0  0  0
 20 21  4  0  0  0
 20 25  4  0  0  0
 21 22  4  0  0  0
 22 23  4  0  0  0
 23 24  4  0  0  0
 23 31  1  0  0  0
 24 25  4  0  0  0
 24 30  1  0  0  0
 25 26  1  0  0  0
 26 27  1  0  0  0
 27 28  1  0  0  0
 28 29  2  0  0  0
 28 30  1  0  0  0
 32 33  1  0  0  0
 32 37  1  0  0  0
 33 34  1  0  0  0
 34 35  1  0  0  0
 35 36  1  0  0  0
 36 37  1  0  0  0
  1 40  1  0  0  0
  2 41  1  0  0  0
  5 42  1  0  0  0
  7 43  1  0  0  0
  7 44  1  0  0  0
  8 45  1  0  0  0
  8 46  1  0  0  0
  9 47  1  0  0  0
  9 48  1  0  0  0
 10 49  1  0  0  0
 10 50  1  0  0  0
 11 51  1  0  0  0
 11 52  1  0  0  0
 15 53  1  0  0  0
 15 54  1  0  0  0
 16 55  1  0  0  0
 16 56  1  0  0  0
 17 57  1  0  0  0
 17 58  1  0  0  0
 18 59  1  0  0  0
 18 60  1  0  0  0
 19 61  1  0  0  0
 19 62  1  0  0  0
 21 63  1  0  0  0
 22 64  1  0  0  0
 27 65  1  0  0  0
 27 66  1  0  0  0
 30 67  1  0  0  0
 31 68  1  0  0  0
 32 69  1  0  0  0
 33 70  1  0  0  0
 33 71  1  0  0  0
 34 72  1  0  0  0
 34 73  1  0  0  0
 35 74  1  0  0  0
 35 75  1  0  0  0
 36 76  1  0  0  0
 36 77  1  0  0  0
 37 78  1  0  0  0
 37 79  1  0  0  0
M  END
$$$$
