6eks_ligand
  -I-interpret- 

 45 45  0  0  0  0  0  0  0  0999 V2000
  -17.7630   22.7680   -0.5830 C   0  0  0  0  0
  -17.9870   22.3110   -1.7360 O   0  0  0  0  0
  -18.4440   23.7560   -0.2000 O   0  0  0  0  0
  -16.7500   22.1870    0.2390 C   0  0  0  0  0
  -15.9690   21.0900   -0.2510 C   0  0  0  0  0
  -14.6270   20.9490    0.5150 C   0  0  0  0  0
  -14.9330   20.8840    2.0350 C   0  0  0  0  0
  -13.6810   20.5660    2.7910 N   0  0  0  0  0
  -13.5210   19.4090    3.4600 C   0  0  0  0  0
  -14.3900   18.5360    3.5190 O   0  0  0  0  0
  -12.1430   19.2040    4.1220 C   0  0  0  0  0
  -15.4680   22.2400    2.4070 C   0  0  0  0  0
  -16.5080   22.7020    1.5300 C   0  0  0  0  0
  -15.8510   22.2340    3.8000 O   0  0  0  0  0
  -16.1140   23.6030    4.1570 C   0  0  0  0  0
  -16.7740   23.6520    5.5390 C   0  0  0  0  0
  -14.8400   24.4600    4.1160 C   0  0  0  0  0
  -13.7340   23.8650    4.9920 C   0  0  0  0  0
  -18.2590   23.3410    5.3280 C   0  0  0  0  0
  -13.9080   19.7430    0.1070 N   0  3  0  0  0
  -17.4053   21.5656   -1.9021 H   0  0  0  0  0
  -15.7455   21.2717   -1.3023 H   0  0  0  0  0
  -16.5412   20.1729   -0.1106 H   0  0  0  0  0
  -13.9958   21.8077    0.2862 H   0  0  0  0  0
  -15.6559   20.1049    2.2771 H   0  0  0  0  0
  -12.9235   21.2490    2.7995 H   0  0  0  0  0
  -12.2752   19.0488    5.1928 H   0  0  0  0  0
  -11.6573   18.3318    3.6844 H   0  0  0  0  0
  -11.5261   20.0870    3.9550 H   0  0  0  0  0
  -14.6727   22.9732    2.2732 H   0  0  0  0  0
  -17.1537   23.5047    1.8861 H   0  0  0  0  0
  -16.7966   24.0273    3.4207 H   0  0  0  0  0
  -16.6435   24.6322    5.9975 H   0  0  0  0  0
  -16.3173   22.9279    6.2137 H   0  0  0  0  0
  -15.0808   25.4542    4.4923 H   0  0  0  0  0
  -14.4824   24.4975    3.0870 H   0  0  0  0  0
  -14.0800   23.8098    6.0242 H   0  0  0  0  0
  -13.4888   22.8645    4.6357 H   0  0  0  0  0
  -12.8488   24.4986    4.9376 H   0  0  0  0  0
  -18.6942   24.0869    4.6629 H   0  0  0  0  0
  -18.3620   22.3513    4.8830 H   0  0  0  0  0
  -18.7738   23.3643    6.2885 H   0  0  0  0  0
  -13.7086   19.7892   -0.8923 H   0  0  0  0  0
  -13.0328   19.6781    0.6269 H   0  0  0  0  0
  -14.4827   18.9234    0.3027 H   0  0  0  0  0
  1  2  1  0  0  0
  1  3  2  0  0  0
  1  4  1  0  0  0
  4  5  1  0  0  0
  4 13  2  0  0  0
  5  6  1  0  0  0
  6  7  1  0  0  0
  6 20  1  0  0  0
  7  8  1  0  0  0
  7 12  1  0  0  0
  8  9  1  0  0  0
  9 10  2  0  0  0
  9 11  1  0  0  0
 12 13  1  0  0  0
 12 14  1  0  0  0
 14 15  1  0  0  0
 15 16  1  0  0  0
 15 17  1  0  0  0
 16 19  1  0  0  0
 17 18  1  0  0  0
  2 21  1  0  0  0
  5 22  1  0  0  0
  5 23  1  0  0  0
  6 24  1  0  0  0
  7 25  1  0  0  0
  8 26  1  0  0  0
 11 27  1  0  0  0
 11 28  1  0  0  0
 11 29  1  0  0  0
 12 30  1  0  0  0
 13 31  1  0  0  0
 15 32  1  0  0  0
 16 33  1  0  0  0
 16 34  1  0  0  0
 17 35  1  0  0  0
 17 36  1  0  0  0
 18 37  1  0  0  0
 18 38  1  0  0  0
 18 39  1  0  0  0
 19 40  1  0  0  0
 19 41  1  0  0  0
 19 42  1  0  0  0
 20 43  1  0  0  0
 20 44  1  0  0  0
 20 45  1  0  0  0
M  END
$$$$
