4n1b_ligand
  -I-interpret- 

 60 64  0  0  0  0  0  0  0  0999 V2000
   16.1620  -23.8440  -32.8680 C   0  0  0  0  0
   17.3630  -24.2600  -33.6590 C   0  0  0  0  0
   17.6200  -25.7520  -33.5600 C   0  0  0  0  0
   18.8170  -26.0890  -34.4110 C   0  0  0  0  0
   18.4680  -25.7790  -35.8450 C   0  0  0  0  0
   18.2590  -24.2890  -36.0010 C   0  0  0  0  0
   15.8210  -24.0860  -35.6470 C   0  0  0  0  0
   15.1940  -25.0650  -35.2670 O   0  0  0  0  0
   14.8460  -21.0070  -35.8380 C   0  0  0  0  0
   13.0630  -22.4180  -36.8840 C   0  0  0  0  0
   11.7450  -22.5990  -37.2390 C   0  0  0  0  0
   10.8070  -21.6320  -36.9660 C   0  0  0  0  0
   11.1840  -20.4720  -36.3330 C   0  0  0  0  0
   12.4970  -20.2840  -35.9750 C   0  0  0  0  0
   14.5300  -26.0650  -39.0250 C   0  0  0  0  0
   15.7940  -26.7910  -39.2780 C   0  0  0  0  0
   16.0170  -28.1460  -39.3230 C   0  0  0  0  0
   17.3020  -28.5840  -39.5810 C   0  0  0  0  0
   18.3380  -27.6900  -39.7880 C   0  0  0  0  0
   18.1120  -26.3300  -39.7420 C   0  0  0  0  0
   15.4070  -24.9040  -32.4690 O   0  0  0  0  0
   15.8930  -22.6750  -32.6220 O   0  0  0  0  0
   17.1810  -23.7570  -35.0810 C   0  0  0  0  0
   15.3430  -23.2210  -36.6230 N   0  0  0  0  0
   15.7450  -21.8370  -36.7160 C   0  0  0  0  0
   13.4360  -21.2520  -36.2460 C   0  0  0  0  0
   14.0480  -23.4930  -37.2050 C   0  0  0  0  0
   14.1500  -23.6040  -38.7120 C   0  0  0  0  0
   14.9890  -24.6970  -39.1190 N   0  0  0  0  0
   16.8260  -25.9240  -39.4850 C   0  0  0  0  0
   16.3350  -24.5600  -39.3860 C   0  0  0  0  0
   17.0360  -23.5670  -39.5190 O   0  0  0  0  0
   18.2668  -23.8104  -33.2479 H   0  0  0  0  0
   16.7476  -26.3037  -33.9102 H   0  0  0  0  0
   17.8112  -26.0284  -32.5231 H   0  0  0  0  0
   19.0716  -27.1434  -34.3038 H   0  0  0  0  0
   19.6805  -25.5024  -34.0973 H   0  0  0  0  0
   17.5535  -26.3052  -36.1188 H   0  0  0  0  0
   19.2808  -26.1024  -36.4953 H   0  0  0  0  0
   17.9494  -24.0980  -37.0285 H   0  0  0  0  0
   19.1942  -23.7894  -35.7484 H   0  0  0  0  0
   15.0884  -19.9501  -35.9487 H   0  0  0  0  0
   14.9857  -21.2837  -34.7930 H   0  0  0  0  0
   11.4426  -23.5179  -37.7413 H   0  0  0  0  0
    9.7661  -21.7850  -37.2511 H   0  0  0  0  0
   10.4430  -19.7028  -36.1154 H   0  0  0  0  0
   12.7961  -19.3634  -35.4738 H   0  0  0  0  0
   14.0564  -26.3121  -38.0749 H   0  0  0  0  0
   13.7263  -26.3142  -39.7179 H   0  0  0  0  0
   15.2047  -28.8543  -39.1601 H   0  0  0  0  0
   17.5036  -29.6544  -39.6223 H   0  0  0  0  0
   19.3418  -28.0640  -39.9892 H   0  0  0  0  0
   18.9162  -25.6119  -39.9021 H   0  0  0  0  0
   15.8126  -25.7180  -32.7762 H   0  0  0  0  0
   17.2643  -22.6717  -35.0246 H   0  0  0  0  0
   16.7792  -21.7312  -36.3885 H   0  0  0  0  0
   15.6648  -21.4990  -37.7491 H   0  0  0  0  0
   13.7054  -24.4359  -36.7788 H   0  0  0  0  0
   14.5873  -22.6806  -39.0917 H   0  0  0  0  0
   13.1496  -23.7781  -39.1081 H   0  0  0  0  0
  2  1  1  0  0  0
  1 21  1  0  0  0
  1 22  2  0  0  0
  2  3  1  0  0  0
 23  2  1  0  0  0
  3  4  1  0  0  0
  5  4  1  0  0  0
  6  5  1  0  0  0
 23  6  1  0  0  0
  7  8  2  0  0  0
  7 23  1  0  0  0
 24  7  1  0  0  0
 25  9  1  0  0  0
 26  9  1  0  0  0
 10 11  4  0  0  0
 10 26  4  0  0  0
 27 10  1  0  0  0
 11 12  4  0  0  0
 12 13  4  0  0  0
 14 13  4  0  0  0
 26 14  4  0  0  0
 15 16  1  0  0  0
 29 15  1  0  0  0
 16 17  4  0  0  0
 16 30  4  0  0  0
 17 18  4  0  0  0
 18 19  4  0  0  0
 20 19  4  0  0  0
 30 20  4  0  0  0
 24 25  1  0  0  0
 27 24  1  0  0  0
 28 27  1  0  0  0
 28 29  1  0  0  0
 29 31  1  0  0  0
 30 31  1  0  0  0
 31 32  2  0  0  0
  2 33  1  0  0  0
  3 34  1  0  0  0
  3 35  1  0  0  0
  4 36  1  0  0  0
  4 37  1  0  0  0
  5 38  1  0  0  0
  5 39  1  0  0  0
  6 40  1  0  0  0
  6 41  1  0  0  0
  9 42  1  0  0  0
  9 43  1  0  0  0
 11 44  1  0  0  0
 12 45  1  0  0  0
 13 46  1  0  0  0
 14 47  1  0  0  0
 15 48  1  0  0  0
 15 49  1  0  0  0
 17 50  1  0  0  0
 18 51  1  0  0  0
 19 52  1  0  0  0
 20 53  1  0  0  0
 21 54  1  0  0  0
 23 55  1  0  0  0
 25 56  1  0  0  0
 25 57  1  0  0  0
 27 58  1  0  0  0
 28 59  1  0  0  0
 28 60  1  0  0  0
M  END
$$$$
