1ao0_ligand
  -I-interpret- 

 42 44  0  0  0  0  0  0  0  0999 V2000
   15.0100   11.7900   76.4930 P   0  0  0  0  0
   14.1260   12.5010   77.4630 O   0  0  0  0  0
   14.7100   12.2550   75.0970 O   0  0  0  0  0
   16.4460   12.0540   76.8330 O   0  0  0  0  0
   14.9380    9.2270   75.4230 P   0  0  0  0  0
   14.4320    9.7940   74.1480 O   0  0  0  0  0
   16.3230    8.6660   75.4840 O   0  0  0  0  0
   14.7070   10.2380   76.6180 O   0  0  0  0  0
   13.9570    8.0960   75.8760 O   0  0  0  0  0
   13.3820    8.1670   77.1480 C   0  0  0  0  0
   12.3740    7.0920   77.2630 C   0  0  0  0  0
   12.8680    5.9400   76.5650 O   0  0  0  0  0
   12.1120    6.6280   78.6770 C   0  0  0  0  0
   11.0370    7.4020   79.2020 O   0  0  0  0  0
   11.8710    5.1080   78.5560 C   0  0  0  0  0
   10.6200    4.6040   78.9300 O   0  0  0  0  0
   12.1850    4.8390   77.0780 C   0  0  0  0  0
   12.8700    3.6310   76.6660 N   0  0  0  0  0
   14.0200    3.0550   77.1130 C   0  0  0  0  0
   14.3560    1.9750   76.4530 N   0  0  0  0  0
   13.3430    1.8280   75.5060 C   0  0  0  0  0
   13.1120    0.8660   74.4770 C   0  0  0  0  0
   13.9410   -0.1360   74.1990 N   0  0  0  0  0
   11.9950    0.9940   73.7370 N   0  0  0  0  0
   11.1720    2.0360   74.0000 C   0  0  0  0  0
   11.2900    3.0080   74.9160 N   0  0  0  0  0
   12.4160    2.8360   75.6440 C   0  0  0  0  0
   15.2812   11.7946   74.4779 H   0  0  0  0  0
   17.0114   11.5953   76.2073 H   0  0  0  0  0
   16.4969    8.3416   76.3706 H   0  0  0  0  0
   12.9097    9.1389   77.2908 H   0  0  0  0  0
   14.1492    8.0432   77.9123 H   0  0  0  0  0
   11.4498    7.5068   76.8605 H   0  0  0  0  0
   12.9243    6.7761   79.3885 H   0  0  0  0  0
   10.8531    7.1232   80.1020 H   0  0  0  0  0
   12.4950    4.5822   79.2787 H   0  0  0  0  0
   10.6092    3.6523   78.8047 H   0  0  0  0  0
   11.1890    4.6664   76.6703 H   0  0  0  0  0
   14.6051    3.4547   77.9412 H   0  0  0  0  0
   14.8010   -0.2502   74.7354 H   0  0  0  0  0
   13.7168   -0.7903   73.4493 H   0  0  0  0  0
   10.2813    2.0934   73.3744 H   0  0  0  0  0
  1  2  2  0  0  0
  1  3  1  0  0  0
  1  4  1  0  0  0
  8  1  1  0  0  0
  5  6  2  0  0  0
  5  7  1  0  0  0
  5  8  1  0  0  0
  5  9  1  0  0  0
  9 10  1  0  0  0
 10 11  1  0  0  0
 11 12  1  0  0  0
 11 13  1  0  0  0
 12 17  1  0  0  0
 13 14  1  0  0  0
 13 15  1  0  0  0
 15 16  1  0  0  0
 15 17  1  0  0  0
 17 18  1  0  0  0
 18 19  4  0  0  0
 18 27  4  0  0  0
 19 20  4  0  0  0
 20 21  4  0  0  0
 21 22  4  0  0  0
 21 27  4  0  0  0
 22 23  1  0  0  0
 22 24  4  0  0  0
 24 25  4  0  0  0
 25 26  4  0  0  0
 26 27  4  0  0  0
  3 28  1  0  0  0
  4 29  1  0  0  0
  7 30  1  0  0  0
 10 31  1  0  0  0
 10 32  1  0  0  0
 11 33  1  0  0  0
 13 34  1  0  0  0
 14 35  1  0  0  0
 15 36  1  0  0  0
 16 37  1  0  0  0
 17 38  1  0  0  0
 19 39  1  0  0  0
 23 40  1  0  0  0
 23 41  1  0  0  0
 25 42  1  0  0  0
M  END
$$$$
