6kdz_ligand
  -I-interpret- 

 43 47  0  0  0  0  0  0  0  0999 V2000
   26.7700    4.5660   57.2640 C   0  0  0  0  0
   25.4950    4.6100   57.7910 C   0  0  0  0  0
   27.0160    4.9170   55.9450 C   0  0  0  0  0
   24.6480    5.0390   56.7930 C   0  0  0  0  0
   24.9110    5.3900   55.4640 C   0  0  0  0  0
   23.3010    5.2000   56.9600 C   0  0  0  0  0
   18.9860    3.2980   59.9480 C   0  0  0  0  0
   18.4450    2.9980   61.9370 C   0  0  0  0  0
   16.0860    1.9480   62.8990 C   0  0  0  0  0
   20.6260    5.7340   56.5990 C   0  0  0  0  0
   16.2550    2.0690   61.5850 C   0  0  0  0  0
   21.4740    5.8960   55.5800 C   0  0  0  0  0
   17.2330    2.4190   63.7030 C   0  0  0  0  0
   21.2720    5.2630   57.8430 C   0  0  0  0  0
   15.1950    1.6500   60.6340 C   0  0  0  0  0
   17.0450    2.2990   65.1660 C   0  0  0  0  0
   19.7970    3.6810   58.7910 C   0  0  0  0  0
   20.4090    5.0430   59.0150 C   0  0  0  0  0
   26.1650    5.3310   54.9890 N   0  0  0  0  0
   23.7830    5.7480   54.8420 N   0  0  0  0  0
   19.4450    3.4490   61.2270 N   0  0  0  0  0
   17.7660    2.7900   59.8160 N   0  0  0  0  0
   22.5180    5.0040   58.0330 N   0  0  0  0  0
   18.3490    2.9160   63.2820 N   0  0  0  0  0
   22.8050    5.6350   55.7590 N   0  0  0  0  0
   17.4280    2.5960   61.1040 N   0  0  0  0  0
   21.0240    6.3200   54.3410 O   0  0  0  0  0
   27.5993    4.2494   57.8965 H   0  0  0  0  0
   25.2103    4.3522   58.8111 H   0  0  0  0  0
   28.0588    4.8466   55.6356 H   0  0  0  0  0
   15.1799    1.5370   63.3441 H   0  0  0  0  0
   19.5568    5.9307   56.5209 H   0  0  0  0  0
   14.9893    0.5878   60.7661 H   0  0  0  0  0
   14.2884    2.2237   60.8266 H   0  0  0  0  0
   15.5317    1.8320   59.6134 H   0  0  0  0  0
   16.1799    2.8887   65.4694 H   0  0  0  0  0
   16.8824    1.2529   65.4255 H   0  0  0  0  0
   17.9347    2.6674   65.6768 H   0  0  0  0  0
   19.1630    3.7148   57.9050 H   0  0  0  0  0
   20.5930    2.9491   58.6538 H   0  0  0  0  0
   19.6495    5.8188   59.1118 H   0  0  0  0  0
   20.9712    5.0875   59.9478 H   0  0  0  0  0
   23.6842    6.0457   53.8714 H   0  0  0  0  0
  2  1  4  0  0  0
  1  3  4  0  0  0
  4  2  4  0  0  0
 19  3  4  0  0  0
  4  5  4  0  0  0
  6  4  1  0  0  0
  5 19  4  0  0  0
  5 20  1  0  0  0
 23  6  2  0  0  0
  6 25  1  0  0  0
 17  7  1  0  0  0
  7 21  4  0  0  0
  7 22  4  0  0  0
 21  8  4  0  0  0
  8 24  4  0  0  0
  8 26  4  0  0  0
 11  9  4  0  0  0
 13  9  4  0  0  0
 10 12  1  0  0  0
 14 10  2  0  0  0
 11 15  1  0  0  0
 26 11  4  0  0  0
 12 25  1  0  0  0
 12 27  2  0  0  0
 13 16  1  0  0  0
 24 13  4  0  0  0
 18 14  1  0  0  0
 14 23  1  0  0  0
 17 18  1  0  0  0
 20 25  1  0  0  0
 22 26  4  0  0  0
  1 28  1  0  0  0
  2 29  1  0  0  0
  3 30  1  0  0  0
  9 31  1  0  0  0
 10 32  1  0  0  0
 15 33  1  0  0  0
 15 34  1  0  0  0
 15 35  1  0  0  0
 16 36  1  0  0  0
 16 37  1  0  0  0
 16 38  1  0  0  0
 17 39  1  0  0  0
 17 40  1  0  0  0
 18 41  1  0  0  0
 18 42  1  0  0  0
 20 43  1  0  0  0
M  END
$$$$
