### 
### Created by X-TOOL on Mon Sep 10 21:13:33 2018
### 

@<TRIPOS>MOLECULE
5tw5_ligand
  109   110     1     0     0
SMALL
GAST_HUCK


@<TRIPOS>ATOM
      1 C5          0.7120  -13.2730  -36.8140 C.3       1 7LM         0.1130
      2 C6         -0.6050  -13.1060  -37.5050 C.3       1 7LM         0.0730
      3 C2          3.3140  -14.2980  -36.2390 C.3       1 7LM         0.1341
      4 C4          1.8550  -12.8880  -37.7450 C.3       1 7LM         0.1119
      5 CAA        -2.0320   -4.9590  -29.4280 C.3       1 7LM        -0.0653
      6 CAB        -1.0330   -5.8720  -30.1320 C.3       1 7LM        -0.0559
      7 CAC        -1.6760   -6.3290  -31.4330 C.3       1 7LM        -0.0533
      8 CAD        -0.8260   -7.4160  -32.0670 C.3       1 7LM        -0.0529
      9 CAE        -1.7670   -8.4030  -32.7250 C.3       1 7LM        -0.0510
     10 CAF        -1.2130   -8.8740  -34.0550 C.3       1 7LM        -0.0361
     11 CAG         0.0320   -9.7430  -33.9060 C.3       1 7LM         0.0372
     12 CAH        -0.1420  -11.0210  -33.0840 C.2       1 7LM         0.1764
     13 OAI        -1.2210  -11.3980  -32.6100 O.2       1 7LM        -0.3971
     14 NAJ         1.0050  -11.6740  -32.9730 N.am      1 7LM        -0.2791
     15 CAK         1.1510  -12.9530  -32.2790 C.3       1 7LM         0.0936
     16 CAL         1.2200  -14.1190  -33.2390 C.3       1 7LM         0.0762
     17 O1          1.9160  -13.6190  -34.3730 O.3       1 7LM        -0.3463
     18 C1          2.0920  -14.6220  -35.4140 C.3       1 7LM         0.1880
     19 O5          0.9510  -14.6150  -36.2600 O.3       1 7LM        -0.3405
     20 O6         -1.4630  -14.2000  -37.1470 O.3       1 7LM        -0.3924
     21 O4          1.9310  -13.8130  -38.8520 O.3       1 7LM        -0.3865
     22 C3          3.1600  -12.9370  -36.9480 C.3       1 7LM         0.1141
     23 O3          4.2660  -12.7520  -37.8360 O.3       1 7LM        -0.3864
     24 O2          4.4590  -14.2840  -35.3820 O.3       1 7LM        -0.3841
     25 CAY         2.5090  -12.9370  -31.5850 C.3       1 7LM         0.1059
     26 OAZ         2.6990  -14.1760  -30.9010 O.3       1 7LM        -0.3869
     27 CBA         2.6950  -11.7680  -30.6120 C.3       1 7LM         0.0833
     28 OBB         3.9290  -12.0580  -29.9700 O.3       1 7LM        -0.3892
     29 CBC         1.5480  -11.7090  -29.6230 C.3       1 7LM        -0.0243
     30 CBD         1.9330  -10.8830  -28.4110 C.3       1 7LM        -0.0506
     31 CBE         2.3810   -9.4750  -28.8760 C.3       1 7LM        -0.0530
     32 CBF         2.0530   -8.4800  -27.7490 C.3       1 7LM        -0.0531
     33 CBG         3.3570   -7.8580  -27.2510 C.3       1 7LM        -0.0531
     34 CBH         2.9980   -7.4120  -25.8410 C.3       1 7LM        -0.0531
     35 CBI         4.2630   -6.7920  -25.2480 C.3       1 7LM        -0.0531
     36 CBJ         4.2650   -7.4310  -23.8990 C.3       1 7LM        -0.0531
     37 CBK         5.4540   -6.8890  -23.1420 C.3       1 7LM        -0.0529
     38 CBL         5.1620   -7.3900  -21.7320 C.3       1 7LM        -0.0513
     39 CBM         6.3540   -6.9500  -20.8970 C.3       1 7LM        -0.0433
     40 CBN         6.3160   -7.6890  -19.5650 C.3       1 7LM        -0.0192
     41 CBO         6.6400   -9.0870  -19.6550 C.ar      1 7LM        -0.0430
     42 CBP         6.2580   -9.9000  -18.5860 C.ar      1 7LM        -0.0603
     43 CBQ         6.5270  -11.2680  -18.5770 C.ar      1 7LM        -0.0686
     44 CBR         7.2090  -11.8580  -19.6440 C.ar      1 7LM        -0.0687
     45 CBS         7.6090  -11.0680  -20.7170 C.ar      1 7LM        -0.0686
     46 CBT         7.3340   -9.6990  -20.7250 C.ar      1 7LM        -0.0603
     47 H1          0.7178  -12.5712  -35.9670 H         1 7LM         0.0647
     48 H2         -0.4517  -13.0988  -38.5942 H         1 7LM         0.0584
     49 H3         -1.0672  -12.1577  -37.1935 H         1 7LM         0.0584
     50 H4          3.4461  -15.0788  -37.0024 H         1 7LM         0.0671
     51 H5          1.6917  -11.8705  -38.1298 H         1 7LM         0.0647
     52 H6         -1.6013   -4.6068  -28.4791 H         1 7LM         0.0230
     53 H7         -2.9586   -5.5162  -29.2256 H         1 7LM         0.0230
     54 H8         -2.2565   -4.0956  -30.0716 H         1 7LM         0.0230
     55 H9         -0.8067   -6.7420  -29.4981 H         1 7LM         0.0263
     56 H10        -0.1046   -5.3215  -30.3441 H         1 7LM         0.0263
     57 H11        -1.7531   -5.4756  -32.1228 H         1 7LM         0.0265
     58 H12        -2.6811   -6.7247  -31.2254 H         1 7LM         0.0265
     59 H13        -0.2286   -7.9237  -31.2954 H         1 7LM         0.0265
     60 H14        -0.1553   -6.9770  -32.8203 H         1 7LM         0.0265
     61 H15        -2.7396   -7.9171  -32.8918 H         1 7LM         0.0267
     62 H16        -1.8995   -9.2710  -32.0624 H         1 7LM         0.0267
     63 H17        -0.9550   -7.9921  -34.6597 H         1 7LM         0.0290
     64 H18        -1.9889   -9.4583  -34.5712 H         1 7LM         0.0290
     65 H19         0.8119   -9.1353  -33.4238 H         1 7LM         0.0502
     66 H20         0.3638  -10.0328  -34.9139 H         1 7LM         0.0502
     67 H21         1.8193  -11.2685  -33.3883 H         1 7LM         0.1856
     68 H22         0.3295  -13.0906  -31.5605 H         1 7LM         0.0605
     69 H23         0.2091  -14.4491  -33.5201 H         1 7LM         0.0585
     70 H24         1.7681  -14.9594  -32.7882 H         1 7LM         0.0585
     71 H25         2.2091  -15.6144  -34.9543 H         1 7LM         0.0937
     72 H26        -1.0609  -15.0176  -37.4161 H         1 7LM         0.2095
     73 H27         2.6466  -13.5622  -39.4242 H         1 7LM         0.2100
     74 H28         3.1541  -12.1343  -36.1959 H         1 7LM         0.0648
     75 H29         4.2658  -13.4426  -38.4883 H         1 7LM         0.2100
     76 H30         4.3553  -13.6028  -34.7280 H         1 7LM         0.2101
     77 H31         3.2811  -12.8463  -32.3632 H         1 7LM         0.0643
     78 H32         3.5441  -14.1705  -30.4670 H         1 7LM         0.2100
     79 H33         2.7556  -10.8130  -31.1544 H         1 7LM         0.0620
     80 H34         3.8630  -12.8931  -29.5220 H         1 7LM         0.2099
     81 H35         1.2958  -12.7298  -29.2999 H         1 7LM         0.0291
     82 H36         0.6738  -11.2519  -30.1095 H         1 7LM         0.0291
     83 H37         2.7600  -11.3749  -27.8781 H         1 7LM         0.0266
     84 H38         1.0673  -10.7903  -27.7388 H         1 7LM         0.0266
     85 H39         1.8406   -9.1940  -29.7920 H         1 7LM         0.0265
     86 H40         3.4631   -9.4730  -29.0735 H         1 7LM         0.0265
     87 H41         1.5551   -9.0078  -26.9223 H         1 7LM         0.0265
     88 H42         1.3894   -7.6912  -28.1329 H         1 7LM         0.0265
     89 H43         3.6515   -7.0014  -27.8750 H         1 7LM         0.0265
     90 H44         4.1701   -8.5987  -27.2377 H         1 7LM         0.0265
     91 H45         2.6794   -8.2755  -25.2386 H         1 7LM         0.0265
     92 H46         2.1885   -6.6679  -25.8721 H         1 7LM         0.0265
     93 H47         4.1861   -5.6968  -25.1796 H         1 7LM         0.0265
     94 H48         5.1585   -7.0613  -25.8273 H         1 7LM         0.0265
     95 H49         4.3505   -8.5229  -24.0007 H         1 7LM         0.0265
     96 H50         3.3355   -7.1841  -23.3650 H         1 7LM         0.0265
     97 H51         5.4891   -5.7902  -23.1800 H         1 7LM         0.0265
     98 H52         6.3987   -7.2996  -23.5279 H         1 7LM         0.0265
     99 H53         5.0690   -8.4860  -21.7237 H         1 7LM         0.0267
    100 H54         4.2347   -6.9404  -21.3473 H         1 7LM         0.0267
    101 H55         6.3022   -5.8655  -20.7203 H         1 7LM         0.0287
    102 H56         7.2869   -7.1910  -21.4276 H         1 7LM         0.0287
    103 H57         5.3022   -7.5964  -19.1483 H         1 7LM         0.0426
    104 H58         7.0369   -7.2113  -18.8852 H         1 7LM         0.0426
    105 H59         5.7400   -9.4570  -17.7431 H         1 7LM         0.0557
    106 H60         6.2058  -11.8760  -17.7390 H         1 7LM         0.0599
    107 H61         7.4243  -12.9204  -19.6359 H         1 7LM         0.0559
    108 H62         8.1365  -11.5172  -21.5506 H         1 7LM         0.0599
    109 H63         7.6577   -9.0952  -21.5651 H         1 7LM         0.0557
@<TRIPOS>BOND
     1    1    2 1  
     2    4    1 1  
     3    1   19 1  
     4    2   20 1  
     5   18    3 1  
     6    3   22 1  
     7    3   24 1  
     8    4   21 1  
     9   22    4 1  
    10    6    5 1  
    11    7    6 1  
    12    8    7 1  
    13    9    8 1  
    14   10    9 1  
    15   11   10 1  
    16   12   11 1  
    17   12   13 2  
    18   14   12 am 
    19   15   14 1  
    20   16   15 1  
    21   15   25 1  
    22   17   16 1  
    23   17   18 1  
    24   18   19 1  
    25   22   23 1  
    26   25   26 1  
    27   25   27 1  
    28   27   28 1  
    29   27   29 1  
    30   29   30 1  
    31   30   31 1  
    32   31   32 1  
    33   32   33 1  
    34   33   34 1  
    35   34   35 1  
    36   35   36 1  
    37   36   37 1  
    38   37   38 1  
    39   38   39 1  
    40   39   40 1  
    41   40   41 1  
    42   41   42 ar 
    43   41   46 ar 
    44   42   43 ar 
    45   43   44 ar 
    46   44   45 ar 
    47   45   46 ar 
    48    1   47 1  
    49    2   48 1  
    50    2   49 1  
    51    3   50 1  
    52    4   51 1  
    53    5   52 1  
    54    5   53 1  
    55    5   54 1  
    56    6   55 1  
    57    6   56 1  
    58    7   57 1  
    59    7   58 1  
    60    8   59 1  
    61    8   60 1  
    62    9   61 1  
    63    9   62 1  
    64   10   63 1  
    65   10   64 1  
    66   11   65 1  
    67   11   66 1  
    68   14   67 1  
    69   15   68 1  
    70   16   69 1  
    71   16   70 1  
    72   18   71 1  
    73   20   72 1  
    74   21   73 1  
    75   22   74 1  
    76   23   75 1  
    77   24   76 1  
    78   25   77 1  
    79   26   78 1  
    80   27   79 1  
    81   28   80 1  
    82   29   81 1  
    83   29   82 1  
    84   30   83 1  
    85   30   84 1  
    86   31   85 1  
    87   31   86 1  
    88   32   87 1  
    89   32   88 1  
    90   33   89 1  
    91   33   90 1  
    92   34   91 1  
    93   34   92 1  
    94   35   93 1  
    95   35   94 1  
    96   36   95 1  
    97   36   96 1  
    98   37   97 1  
    99   37   98 1  
   100   38   99 1  
   101   38  100 1  
   102   39  101 1  
   103   39  102 1  
   104   40  103 1  
   105   40  104 1  
   106   42  105 1  
   107   43  106 1  
   108   44  107 1  
   109   45  108 1  
   110   46  109 1  
@<TRIPOS>SUBSTRUCTURE
     1 7LM         1

