5tw5_ligand
  -I-interpret- 

109110  0  0  0  0  0  0  0  0999 V2000
    0.7120  -13.2730  -36.8140 C   0  0  0  0  0
   -0.6050  -13.1060  -37.5050 C   0  0  0  0  0
    3.3140  -14.2980  -36.2390 C   0  0  0  0  0
    1.8550  -12.8880  -37.7450 C   0  0  0  0  0
   -2.0320   -4.9590  -29.4280 C   0  0  0  0  0
   -1.0330   -5.8720  -30.1320 C   0  0  0  0  0
   -1.6760   -6.3290  -31.4330 C   0  0  0  0  0
   -0.8260   -7.4160  -32.0670 C   0  0  0  0  0
   -1.7670   -8.4030  -32.7250 C   0  0  0  0  0
   -1.2130   -8.8740  -34.0550 C   0  0  0  0  0
    0.0320   -9.7430  -33.9060 C   0  0  0  0  0
   -0.1420  -11.0210  -33.0840 C   0  0  0  0  0
   -1.2210  -11.3980  -32.6100 O   0  0  0  0  0
    1.0050  -11.6740  -32.9730 N   0  0  0  0  0
    1.1510  -12.9530  -32.2790 C   0  0  0  0  0
    1.2200  -14.1190  -33.2390 C   0  0  0  0  0
    1.9160  -13.6190  -34.3730 O   0  0  0  0  0
    2.0920  -14.6220  -35.4140 C   0  0  0  0  0
    0.9510  -14.6150  -36.2600 O   0  0  0  0  0
   -1.4630  -14.2000  -37.1470 O   0  0  0  0  0
    1.9310  -13.8130  -38.8520 O   0  0  0  0  0
    3.1600  -12.9370  -36.9480 C   0  0  0  0  0
    4.2660  -12.7520  -37.8360 O   0  0  0  0  0
    4.4590  -14.2840  -35.3820 O   0  0  0  0  0
    2.5090  -12.9370  -31.5850 C   0  0  0  0  0
    2.6990  -14.1760  -30.9010 O   0  0  0  0  0
    2.6950  -11.7680  -30.6120 C   0  0  0  0  0
    3.9290  -12.0580  -29.9700 O   0  0  0  0  0
    1.5480  -11.7090  -29.6230 C   0  0  0  0  0
    1.9330  -10.8830  -28.4110 C   0  0  0  0  0
    2.3810   -9.4750  -28.8760 C   0  0  0  0  0
    2.0530   -8.4800  -27.7490 C   0  0  0  0  0
    3.3570   -7.8580  -27.2510 C   0  0  0  0  0
    2.9980   -7.4120  -25.8410 C   0  0  0  0  0
    4.2630   -6.7920  -25.2480 C   0  0  0  0  0
    4.2650   -7.4310  -23.8990 C   0  0  0  0  0
    5.4540   -6.8890  -23.1420 C   0  0  0  0  0
    5.1620   -7.3900  -21.7320 C   0  0  0  0  0
    6.3540   -6.9500  -20.8970 C   0  0  0  0  0
    6.3160   -7.6890  -19.5650 C   0  0  0  0  0
    6.6400   -9.0870  -19.6550 C   0  0  0  0  0
    6.2580   -9.9000  -18.5860 C   0  0  0  0  0
    6.5270  -11.2680  -18.5770 C   0  0  0  0  0
    7.2090  -11.8580  -19.6440 C   0  0  0  0  0
    7.6090  -11.0680  -20.7170 C   0  0  0  0  0
    7.3340   -9.6990  -20.7250 C   0  0  0  0  0
    0.6719  -12.5995  -35.9579 H   0  0  0  0  0
   -0.4548  -13.0949  -38.5845 H   0  0  0  0  0
   -1.0630  -12.1649  -37.2005 H   0  0  0  0  0
    3.4362  -15.0592  -37.0096 H   0  0  0  0  0
    1.6867  -11.8865  -38.1409 H   0  0  0  0  0
   -2.2536   -4.1040  -30.0667 H   0  0  0  0  0
   -2.9496   -5.5123  -29.2281 H   0  0  0  0  0
   -1.6041   -4.6107  -28.4880 H   0  0  0  0  0
   -0.7889   -6.7288  -29.5040 H   0  0  0  0  0
   -0.1026   -5.3401  -30.3310 H   0  0  0  0  0
   -1.7512   -5.4832  -32.1165 H   0  0  0  0  0
   -2.6715   -6.7219  -31.2265 H   0  0  0  0  0
   -0.2181   -7.9140  -31.3117 H   0  0  0  0  0
   -0.1464   -6.9877  -32.8037 H   0  0  0  0  0
   -2.7248   -7.9123  -32.8982 H   0  0  0  0  0
   -1.8850   -9.2656  -32.0691 H   0  0  0  0  0
   -0.9356   -7.9913  -34.6312 H   0  0  0  0  0
   -1.9816   -9.4745  -34.5416 H   0  0  0  0  0
    0.7691   -9.1367  -33.3796 H   0  0  0  0  0
    0.3084  -10.0594  -34.9118 H   0  0  0  0  0
    1.8356  -11.2604  -33.3966 H   0  0  0  0  0
    0.2975  -13.0692  -31.6110 H   0  0  0  0  0
    0.2278  -14.4855  -33.5024 H   0  0  0  0  0
    1.7282  -14.9766  -32.7981 H   0  0  0  0  0
    2.2157  -15.6020  -34.9531 H   0  0  0  0  0
   -2.3099  -14.0984  -37.5875 H   0  0  0  0  0
    1.1115  -13.7811  -39.3510 H   0  0  0  0  0
    3.1380  -12.1453  -36.1991 H   0  0  0  0  0
    5.0850  -12.7827  -37.3360 H   0  0  0  0  0
    5.2416  -14.0786  -35.8987 H   0  0  0  0  0
    3.2600  -12.8009  -32.3632 H   0  0  0  0  0
    3.5530  -14.1705  -30.4625 H   0  0  0  0  0
    2.7052  -10.7953  -31.1039 H   0  0  0  0  0
    4.1275  -11.3671  -29.3338 H   0  0  0  0  0
    1.3074  -12.7216  -29.2993 H   0  0  0  0  0
    0.6870  -11.2477  -30.1067 H   0  0  0  0  0
    2.7510  -11.3707  -27.8807 H   0  0  0  0  0
    1.0765  -10.7924  -27.7429 H   0  0  0  0  0
    1.8591   -9.1952  -29.7911 H   0  0  0  0  0
    3.4505   -9.4688  -29.0864 H   0  0  0  0  0
    1.5534   -8.9985  -26.9306 H   0  0  0  0  0
    1.3901   -7.7004  -28.1242 H   0  0  0  0  0
    3.7049   -7.0389  -27.8804 H   0  0  0  0  0
    4.1964   -8.5529  -27.2763 H   0  0  0  0  0
    2.6570   -8.2547  -25.2396 H   0  0  0  0  0
    2.1798   -6.6920  -25.8554 H   0  0  0  0  0
    4.2605   -5.7022  -25.2274 H   0  0  0  0  0
    5.1662   -6.9731  -25.8308 H   0  0  0  0  0
    4.3333   -8.5150  -23.9907 H   0  0  0  0  0
    3.3400   -7.2048  -23.3686 H   0  0  0  0  0
    5.5609   -5.8064  -23.2096 H   0  0  0  0  0
    6.4141   -7.2222  -23.5360 H   0  0  0  0  0
    5.0326   -8.4720  -21.7088 H   0  0  0  0  0
    4.2281   -6.9816  -21.3458 H   0  0  0  0  0
    6.3094   -5.8745  -20.7254 H   0  0  0  0  0
    7.2803   -7.1814  -21.4228 H   0  0  0  0  0
    5.2954   -7.6197  -19.1886 H   0  0  0  0  0
    7.0638   -7.2271  -18.9203 H   0  0  0  0  0
    5.7371   -9.4546  -17.7384 H   0  0  0  0  0
    6.2040  -11.8794  -17.7344 H   0  0  0  0  0
    7.4255  -12.9263  -19.6359 H   0  0  0  0  0
    8.1395  -11.5197  -21.5552 H   0  0  0  0  0
    7.6595   -9.0919  -21.5697 H   0  0  0  0  0
  1  2  1  0  0  0
  4  1  1  0  0  0
  1 19  1  0  0  0
  2 20  1  0  0  0
 18  3  1  0  0  0
  3 22  1  0  0  0
  3 24  1  0  0  0
  4 21  1  0  0  0
 22  4  1  0  0  0
  6  5  1  0  0  0
  7  6  1  0  0  0
  8  7  1  0  0  0
  9  8  1  0  0  0
 10  9  1  0  0  0
 11 10  1  0  0  0
 12 11  1  0  0  0
 12 13  2  0  0  0
 14 12  1  0  0  0
 15 14  1  0  0  0
 16 15  1  0  0  0
 15 25  1  0  0  0
 17 16  1  0  0  0
 17 18  1  0  0  0
 18 19  1  0  0  0
 22 23  1  0  0  0
 25 26  1  0  0  0
 25 27  1  0  0  0
 27 28  1  0  0  0
 27 29  1  0  0  0
 29 30  1  0  0  0
 30 31  1  0  0  0
 31 32  1  0  0  0
 32 33  1  0  0  0
 33 34  1  0  0  0
 34 35  1  0  0  0
 35 36  1  0  0  0
 36 37  1  0  0  0
 37 38  1  0  0  0
 38 39  1  0  0  0
 39 40  1  0  0  0
 40 41  1  0  0  0
 41 42  4  0  0  0
 41 46  4  0  0  0
 42 43  4  0  0  0
 43 44  4  0  0  0
 44 45  4  0  0  0
 45 46  4  0  0  0
  1 47  1  0  0  0
  2 48  1  0  0  0
  2 49  1  0  0  0
  3 50  1  0  0  0
  4 51  1  0  0  0
  5 52  1  0  0  0
  5 53  1  0  0  0
  5 54  1  0  0  0
  6 55  1  0  0  0
  6 56  1  0  0  0
  7 57  1  0  0  0
  7 58  1  0  0  0
  8 59  1  0  0  0
  8 60  1  0  0  0
  9 61  1  0  0  0
  9 62  1  0  0  0
 10 63  1  0  0  0
 10 64  1  0  0  0
 11 65  1  0  0  0
 11 66  1  0  0  0
 14 67  1  0  0  0
 15 68  1  0  0  0
 16 69  1  0  0  0
 16 70  1  0  0  0
 18 71  1  0  0  0
 20 72  1  0  0  0
 21 73  1  0  0  0
 22 74  1  0  0  0
 23 75  1  0  0  0
 24 76  1  0  0  0
 25 77  1  0  0  0
 26 78  1  0  0  0
 27 79  1  0  0  0
 28 80  1  0  0  0
 29 81  1  0  0  0
 29 82  1  0  0  0
 30 83  1  0  0  0
 30 84  1  0  0  0
 31 85  1  0  0  0
 31 86  1  0  0  0
 32 87  1  0  0  0
 32 88  1  0  0  0
 33 89  1  0  0  0
 33 90  1  0  0  0
 34 91  1  0  0  0
 34 92  1  0  0  0
 35 93  1  0  0  0
 35 94  1  0  0  0
 36 95  1  0  0  0
 36 96  1  0  0  0
 37 97  1  0  0  0
 37 98  1  0  0  0
 38 99  1  0  0  0
 38100  1  0  0  0
 39101  1  0  0  0
 39102  1  0  0  0
 40103  1  0  0  0
 40104  1  0  0  0
 42105  1  0  0  0
 43106  1  0  0  0
 44107  1  0  0  0
 45108  1  0  0  0
 46109  1  0  0  0
M  END
$$$$
