6r1a_ligand
  -I-interpret- 

 36 37  0  0  0  0  0  0  0  0999 V2000
   25.7800  -14.0580   -1.8300 C   0  0  0  0  0
   24.3950  -14.5690   -2.1630 C   0  0  0  0  0
   25.4530  -13.4360    2.8930 C   0  0  0  0  0
   26.5100  -13.8840    8.7130 C   0  0  0  0  0
   26.8630  -13.6770    5.0220 C   0  0  0  0  0
   26.2740  -13.5570    6.4170 C   0  0  0  0  0
   25.2860  -14.6460    6.8070 C   0  0  0  0  0
   25.3330  -14.7700    8.3120 C   0  0  0  0  0
   23.4910  -14.7490   -1.1870 N   0  0  0  0  0
   25.2880  -14.2920    1.8910 N   0  0  0  0  0
   26.1040  -14.3520   -0.3670 C   0  0  0  0  0
   27.2740  -13.6040    7.5160 N   0  3  0  0  0
   23.6650  -14.4790    0.0990 C   0  0  0  0  0
   24.9630  -13.8690    0.5290 C   0  0  0  0  0
   22.7790  -14.7490    0.9050 O   0  0  0  0  0
   24.0850  -14.8000   -3.3280 O   0  0  0  0  0
   25.7590  -14.0450    4.1490 O   0  0  0  0  0
   25.3410  -12.2190    2.7850 O   0  0  0  0  0
   25.8160  -12.9815   -1.9971 H   0  0  0  0  0
   26.5102  -14.5566   -2.4674 H   0  0  0  0  0
   27.1321  -14.3892    9.4519 H   0  0  0  0  0
   26.1529  -12.9571    9.1619 H   0  0  0  0  0
   27.6555  -14.4247    4.9918 H   0  0  0  0  0
   27.3203  -12.7396    4.7053 H   0  0  0  0  0
   25.7904  -12.5844    6.3261 H   0  0  0  0  0
   25.5499  -15.5922    6.3345 H   0  0  0  0  0
   24.2803  -14.3907    6.4731 H   0  0  0  0  0
   24.4004  -14.4602    8.7836 H   0  0  0  0  0
   25.4592  -15.8018    8.6400 H   0  0  0  0  0
   22.5850  -15.1293   -1.4608 H   0  0  0  0  0
   25.3926  -15.2889    2.0797 H   0  0  0  0  0
   27.0212  -13.8315   -0.0914 H   0  0  0  0  0
   26.2315  -15.4267   -0.2371 H   0  0  0  0  0
   27.9844  -14.3164    7.3479 H   0  0  0  0  0
   27.7881  -12.7266    7.5945 H   0  0  0  0  0
   24.8545  -12.7862    0.4670 H   0  0  0  0  0
  1  2  1  0  0  0
 11  1  1  0  0  0
  2  9  1  0  0  0
  2 16  2  0  0  0
 10  3  1  0  0  0
  3 17  1  0  0  0
  3 18  2  0  0  0
  4  8  1  0  0  0
 12  4  1  0  0  0
  5  6  1  0  0  0
 17  5  1  0  0  0
  6  7  1  0  0  0
  6 12  1  0  0  0
  7  8  1  0  0  0
  9 13  1  0  0  0
 14 10  1  0  0  0
 14 11  1  0  0  0
 13 14  1  0  0  0
 13 15  2  0  0  0
  1 19  1  0  0  0
  1 20  1  0  0  0
  4 21  1  0  0  0
  4 22  1  0  0  0
  5 23  1  0  0  0
  5 24  1  0  0  0
  6 25  1  0  0  0
  7 26  1  0  0  0
  7 27  1  0  0  0
  8 28  1  0  0  0
  8 29  1  0  0  0
  9 30  1  0  0  0
 10 31  1  0  0  0
 11 32  1  0  0  0
 11 33  1  0  0  0
 12 34  1  0  0  0
 12 35  1  0  0  0
 14 36  1  0  0  0
M  END
$$$$
