5qak_ligand
  -I-interpret- 

 33 34  0  0  0  0  0  0  0  0999 V2000
   95.9690  252.1080    5.6830 C   0  0  0  0  0
   95.2010  250.7590    7.6660 C   0  0  0  0  0
   95.0340  249.5500    8.3150 C   0  0  0  0  0
   95.3640  248.3670    7.6770 C   0  0  0  0  0
   95.3090  246.1480    5.3980 C   0  0  0  0  0
   95.6740  244.9650    4.7450 C   0  0  0  0  0
   97.9520  245.7370    4.6790 C   0  0  0  0  0
   97.5880  246.8970    5.3290 C   0  0  0  0  0
   95.8700  248.3760    6.3760 C   0  0  0  0  0
   96.2660  247.1190    5.6980 C   0  0  0  0  0
   96.0260  249.6010    5.7310 C   0  0  0  0  0
   93.3450  244.2190    4.8260 C   0  0  0  0  0
   95.1120  242.6030    4.4330 C   0  0  0  0  0
   97.0070  244.7730    4.3860 C   0  0  0  0  0
   95.7020  250.7940    6.3700 C   0  0  0  0  0
   94.7360  244.0060    4.4670 N   0  0  0  0  0
   97.0650  252.6570    5.9230 O   0  0  0  0  0
   95.0900  252.5620    4.9020 O   0  0  0  0  0
   94.9389  251.6880    8.1723 H   0  0  0  0  0
   94.6415  249.5283    9.3316 H   0  0  0  0  0
   95.2274  247.4182    8.1959 H   0  0  0  0  0
   94.2677  246.3126    5.6749 H   0  0  0  0  0
   98.9923  245.5795    4.3944 H   0  0  0  0  0
   98.3446  247.6481    5.5560 H   0  0  0  0  0
   96.4077  249.6253    4.7103 H   0  0  0  0  0
   92.7031  243.7239    4.0974 H   0  0  0  0  0
   93.1592  243.8044    5.8168 H   0  0  0  0  0
   93.1323  245.2880    4.8323 H   0  0  0  0  0
   94.9550  242.1621    5.4174 H   0  0  0  0  0
   94.4989  242.0816    3.6980 H   0  0  0  0  0
   96.1632  242.5165    4.1582 H   0  0  0  0  0
   97.3048  243.8590    3.8722 H   0  0  0  0  0
   94.3396  251.9636    4.8841 H   0  0  0  0  0
 15  1  1  0  0  0
  1 17  2  0  0  0
  1 18  1  0  0  0
  3  2  4  0  0  0
  2 15  4  0  0  0
  4  3  4  0  0  0
  9  4  4  0  0  0
  5  6  4  0  0  0
 10  5  4  0  0  0
  6 14  4  0  0  0
  6 16  1  0  0  0
  8  7  4  0  0  0
  7 14  4  0  0  0
 10  8  4  0  0  0
  9 10  1  0  0  0
  9 11  4  0  0  0
 11 15  4  0  0  0
 16 12  1  0  0  0
 16 13  1  0  0  0
  2 19  1  0  0  0
  3 20  1  0  0  0
  4 21  1  0  0  0
  5 22  1  0  0  0
  7 23  1  0  0  0
  8 24  1  0  0  0
 11 25  1  0  0  0
 12 26  1  0  0  0
 12 27  1  0  0  0
 12 28  1  0  0  0
 13 29  1  0  0  0
 13 30  1  0  0  0
 13 31  1  0  0  0
 14 32  1  0  0  0
 18 33  1  0  0  0
M  END
$$$$
