4bzr_ligand
  -I-interpret- 

 71 72  0  0  0  0  0  0  0  0999 V2000
  -10.5120   -7.5920   15.7370 C   0  0  0  0  0
   -9.7960   -7.3710   14.5540 C   0  0  0  0  0
   -9.3100   -6.0930   14.2710 C   0  0  0  0  0
   -8.6110   -5.8630   13.1260 O   0  0  0  0  0
   -9.5410   -5.0350   15.1530 C   0  0  0  0  0
  -10.2520   -5.2610   16.3360 C   0  0  0  0  0
  -10.7370   -6.5410   16.6310 C   0  0  0  0  0
  -11.5300   -6.7850   17.9270 C   0  0  0  0  0
  -13.0230   -6.4420   17.7690 C   0  0  0  0  0
  -13.9100   -6.5420   19.3610 P   0  0  0  0  0
  -15.4730   -6.3730   18.9790 O   0  0  0  0  0
  -13.7510   -8.0480   19.9080 O   0  0  0  0  0
  -13.4940   -5.4590   20.2660 O   0  0  0  0  0
  -13.0810   -5.0740   17.2480 N   0  0  0  0  0
  -13.6580   -4.7880   16.0910 C   0  0  0  0  0
  -14.2510   -5.6030   15.3940 O   0  0  0  0  0
  -13.5110   -3.3540   15.6160 C   0  0  0  0  0
  -13.4980   -3.4270   14.1420 N   0  0  0  0  0
  -12.5340   -2.8760   13.4160 C   0  0  0  0  0
  -11.6200   -2.1960   13.8830 O   0  0  0  0  0
  -12.6600   -3.0870   11.9000 C   0  0  0  0  0
  -11.5600   -4.0480   11.4190 C   0  0  0  0  0
  -11.8710   -5.4840   11.8770 C   0  0  0  0  0
  -11.3470   -4.0210    9.9000 C   0  0  0  0  0
  -10.0920   -4.8140    9.5220 C   0  0  0  0  0
  -12.6150   -1.7610   11.2430 N   0  0  0  0  0
  -13.4730   -1.4290   10.2810 C   0  0  0  0  0
  -13.3460   -0.0030    9.7330 C   0  0  0  0  0
  -14.3160   -2.1990    9.8310 O   0  0  0  0  0
  -14.6450   -2.4590   16.1110 C   0  0  0  0  0
  -14.3260   -1.0010   15.7700 C   0  0  0  0  0
  -13.6780   -0.1840   16.7010 C   0  0  0  0  0
  -13.3890    1.1440   16.3710 C   0  0  0  0  0
  -13.7480    1.6430   15.1150 C   0  0  0  0  0
  -13.4750    2.9380   14.7800 O   0  0  0  0  0
  -14.3880    0.8260   14.1890 C   0  0  0  0  0
  -14.6790   -0.4960   14.5170 C   0  0  0  0  0
  -10.8954   -8.5873   15.9617 H   0  0  0  0  0
   -9.6192   -8.1915   13.8585 H   0  0  0  0  0
   -8.3537   -4.9388   13.0897 H   0  0  0  0  0
   -9.1687   -4.0373   14.9203 H   0  0  0  0  0
  -10.4289   -4.4391   17.0297 H   0  0  0  0  0
  -11.1151   -6.1433   18.7043 H   0  0  0  0  0
  -11.4499   -7.8423   18.1795 H   0  0  0  0  0
  -13.5042   -7.1534   17.0978 H   0  0  0  0  0
  -15.7356   -7.0832   18.3888 H   0  0  0  0  0
  -14.0517   -8.6646   19.2364 H   0  0  0  0  0
  -12.6644   -4.3191   17.7929 H   0  0  0  0  0
  -12.5998   -2.9062   16.0127 H   0  0  0  0  0
  -14.2551   -3.9173   13.6658 H   0  0  0  0  0
  -13.6085   -3.5546   11.6358 H   0  0  0  0  0
  -10.6312   -3.7014   11.8721 H   0  0  0  0  0
  -11.9209   -5.5141   12.9654 H   0  0  0  0  0
  -12.8276   -5.7981   11.4593 H   0  0  0  0  0
  -11.0840   -6.1533   11.5294 H   0  0  0  0  0
  -11.2241   -2.9872    9.5773 H   0  0  0  0  0
  -12.2116   -4.4714    9.4124 H   0  0  0  0  0
   -9.2236   -4.3720   10.0106 H   0  0  0  0  0
  -10.2058   -5.8483    9.8466 H   0  0  0  0  0
   -9.9567   -4.7839    8.4408 H   0  0  0  0  0
  -11.9090   -1.0851   11.5348 H   0  0  0  0  0
  -13.1161   -0.0434    8.6683 H   0  0  0  0  0
  -14.2862    0.5276    9.8831 H   0  0  0  0  0
  -12.5457    0.5172   10.2593 H   0  0  0  0  0
  -14.7493   -2.5664   17.1907 H   0  0  0  0  0
  -15.5772   -2.7508   15.6274 H   0  0  0  0  0
  -13.3997   -0.5794   17.6779 H   0  0  0  0  0
  -12.8851    1.7886   17.0912 H   0  0  0  0  0
  -13.7877    3.1095   13.8887 H   0  0  0  0  0
  -14.6610    1.2191   13.2097 H   0  0  0  0  0
  -15.1832   -1.1375   13.7943 H   0  0  0  0  0
  1  2  4  0  0  0
  1  7  4  0  0  0
  2  3  4  0  0  0
  3  4  1  0  0  0
  3  5  4  0  0  0
  5  6  4  0  0  0
  6  7  4  0  0  0
  7  8  1  0  0  0
  8  9  1  0  0  0
  9 10  1  0  0  0
  9 14  1  0  0  0
 10 11  1  0  0  0
 10 12  1  0  0  0
 10 13  2  0  0  0
 14 15  1  0  0  0
 15 16  2  0  0  0
 15 17  1  0  0  0
 17 18  1  0  0  0
 17 30  1  0  0  0
 18 19  1  0  0  0
 19 20  2  0  0  0
 19 21  1  0  0  0
 21 22  1  0  0  0
 21 26  1  0  0  0
 22 23  1  0  0  0
 22 24  1  0  0  0
 24 25  1  0  0  0
 26 27  1  0  0  0
 27 28  1  0  0  0
 27 29  2  0  0  0
 30 31  1  0  0  0
 31 32  4  0  0  0
 31 37  4  0  0  0
 32 33  4  0  0  0
 33 34  4  0  0  0
 34 35  1  0  0  0
 34 36  4  0  0  0
 36 37  4  0  0  0
  1 38  1  0  0  0
  2 39  1  0  0  0
  4 40  1  0  0  0
  5 41  1  0  0  0
  6 42  1  0  0  0
  8 43  1  0  0  0
  8 44  1  0  0  0
  9 45  1  0  0  0
 11 46  1  0  0  0
 12 47  1  0  0  0
 14 48  1  0  0  0
 17 49  1  0  0  0
 18 50  1  0  0  0
 21 51  1  0  0  0
 22 52  1  0  0  0
 23 53  1  0  0  0
 23 54  1  0  0  0
 23 55  1  0  0  0
 24 56  1  0  0  0
 24 57  1  0  0  0
 25 58  1  0  0  0
 25 59  1  0  0  0
 25 60  1  0  0  0
 26 61  1  0  0  0
 28 62  1  0  0  0
 28 63  1  0  0  0
 28 64  1  0  0  0
 30 65  1  0  0  0
 30 66  1  0  0  0
 32 67  1  0  0  0
 33 68  1  0  0  0
 35 69  1  0  0  0
 36 70  1  0  0  0
 37 71  1  0  0  0
M  END
$$$$
