### 
### Created by X-TOOL on Mon Sep 10 21:13:19 2018
### 

@<TRIPOS>MOLECULE
4bzr_ligand
   69    70     1     0     0
SMALL
GAST_HUCK


@<TRIPOS>ATOM
      1 CAR       -10.5120   -7.5920   15.7370 C.ar      1 K26        -0.0686
      2 CAN        -9.7960   -7.3710   14.5540 C.ar      1 K26        -0.0398
      3 CBD        -9.3100   -6.0930   14.2710 C.ar      1 K26         0.0805
      4 OAI        -8.6110   -5.8630   13.1260 O.3       1 K26        -0.3376
      5 CAO        -9.5410   -5.0350   15.1530 C.ar      1 K26        -0.0398
      6 CAS       -10.2520   -5.2610   16.3360 C.ar      1 K26        -0.0686
      7 CBF       -10.7370   -6.5410   16.6310 C.ar      1 K26        -0.0501
      8 CAV       -11.5300   -6.7850   17.9270 C.3       1 K26         0.0145
      9 CBI       -13.0230   -6.4420   17.7690 C.3       1 K26         0.1207
     10 PBK       -13.9100   -6.5420   19.3610 P.3       1 K26         0.0863
     11 OAJ       -15.4730   -6.3730   18.9790 O.co2     1 K26        -0.5606
     12 OAK       -13.7510   -8.0480   19.9080 O.co2     1 K26        -0.5606
     13 OAG       -13.4940   -5.4590   20.2660 O.co2     1 K26        -0.5606
     14 NAY       -13.0810   -5.0740   17.2480 N.am      1 K26        -0.2653
     15 C         -13.6580   -4.7880   16.0910 C.2       1 K26         0.2049
     16 O         -14.2510   -5.6030   15.3940 O.2       1 K26        -0.3943
     17 CA        -13.5110   -3.3540   15.6160 C.3       1 K26         0.1389
     18 N         -13.4980   -3.4270   14.1420 N.am      1 K26        -0.2621
     19 CBB       -12.5340   -2.8760   13.4160 C.2       1 K26         0.2043
     20 OAF       -11.6200   -2.1960   13.8830 O.2       1 K26        -0.3944
     21 CBJ       -12.6600   -3.0870   11.9000 C.3       1 K26         0.1334
     22 CBG       -11.5600   -4.0480   11.4190 C.3       1 K26        -0.0037
     23 CAC       -11.8710   -5.4840   11.8770 C.3       1 K26        -0.0582
     24 CAT       -11.3470   -4.0210    9.9000 C.3       1 K26        -0.0491
     25 CAA       -10.0920   -4.8140    9.5220 C.3       1 K26        -0.0648
     26 NAX       -12.6150   -1.7610   11.2430 N.am      1 K26        -0.2656
     27 CAZ       -13.4730   -1.4290   10.2810 C.2       1 K26         0.1751
     28 CAB       -13.3460   -0.0030    9.7330 C.3       1 K26         0.0258
     29 OAD       -14.3160   -2.1990    9.8310 O.2       1 K26        -0.3972
     30 CB        -14.6450   -2.4590   16.1110 C.3       1 K26         0.0163
     31 CG        -14.3260   -1.0010   15.7700 C.ar      1 K26        -0.0493
     32 CD1       -13.6780   -0.1840   16.7010 C.ar      1 K26        -0.0685
     33 CE1       -13.3890    1.1440   16.3710 C.ar      1 K26        -0.0398
     34 CZ        -13.7480    1.6430   15.1150 C.ar      1 K26         0.0805
     35 OH        -13.4750    2.9380   14.7800 O.3       1 K26        -0.3376
     36 CE2       -14.3880    0.8260   14.1890 C.ar      1 K26        -0.0398
     37 CD2       -14.6790   -0.4960   14.5170 C.ar      1 K26        -0.0685
     38 H         -10.8933   -8.5818   15.9604 H         1 K26         0.0530
     39 H          -9.6202   -8.1869   13.8623 H         1 K26         0.0525
     40 H          -8.3563   -4.9485   13.0901 H         1 K26         0.2458
     41 H          -9.1708   -4.0428   14.9216 H         1 K26         0.0525
     42 H         -10.4280   -4.4436   17.0259 H         1 K26         0.0530
     43 H         -11.1053   -6.1587   18.7254 H         1 K26         0.0442
     44 H         -11.4377   -7.8454   18.2045 H         1 K26         0.0442
     45 H         -13.4894   -7.1370   17.0553 H         1 K26         0.0771
     46 H         -12.6725   -4.3339   17.7822 H         1 K26         0.1870
     47 H         -12.5577   -2.9415   15.9780 H         1 K26         0.0821
     48 H         -14.2403   -3.9076   13.6751 H         1 K26         0.1885
     49 H         -13.6344   -3.5480   11.6808 H         1 K26         0.0803
     50 H         -10.6176   -3.7337   11.8913 H         1 K26         0.0345
     51 H         -11.0774   -6.1605   11.5268 H         1 K26         0.0235
     52 H         -12.8362   -5.8022   11.4561 H         1 K26         0.0235
     53 H         -11.9216   -5.5157   12.9754 H         1 K26         0.0235
     54 H         -11.2302   -2.9785    9.5689 H         1 K26         0.0267
     55 H         -12.2210   -4.4677    9.4035 H         1 K26         0.0267
     56 H          -9.9544   -4.7844    8.4310 H         1 K26         0.0230
     57 H         -10.2056   -5.8581    9.8490 H         1 K26         0.0230
     58 H          -9.2148   -4.3689   10.0144 H         1 K26         0.0230
     59 H         -11.9228   -1.0983   11.5290 H         1 K26         0.1883
     60 H         -14.1006    0.1570    8.9488 H         1 K26         0.0467
     61 H         -12.3409    0.1388    9.3091 H         1 K26         0.0467
     62 H         -13.5055    0.7185   10.5478 H         1 K26         0.0467
     63 H         -14.7491   -2.5669   17.2007 H         1 K26         0.0453
     64 H         -15.5853   -2.7532   15.6219 H         1 K26         0.0453
     65 H         -13.4013   -0.5773   17.6725 H         1 K26         0.0530
     66 H         -12.8878    1.7850   17.0872 H         1 K26         0.0525
     67 H         -13.7844    3.1077   13.8980 H         1 K26         0.2458
     68 H         -14.6595    1.2169   13.2151 H         1 K26         0.0525
     69 H         -15.1804   -1.1340   13.7982 H         1 K26         0.0530
@<TRIPOS>BOND
     1    1    2 ar 
     2    1    7 ar 
     3    2    3 ar 
     4    3    4 1  
     5    3    5 ar 
     6    5    6 ar 
     7    6    7 ar 
     8    7    8 1  
     9    8    9 1  
    10    9   10 1  
    11    9   14 1  
    12   10   11 ar 
    13   10   12 ar 
    14   10   13 ar 
    15   14   15 am 
    16   15   16 2  
    17   15   17 1  
    18   17   18 1  
    19   17   30 1  
    20   18   19 am 
    21   19   20 2  
    22   19   21 1  
    23   21   22 1  
    24   21   26 1  
    25   22   23 1  
    26   22   24 1  
    27   24   25 1  
    28   26   27 am 
    29   27   28 1  
    30   27   29 2  
    31   30   31 1  
    32   31   32 ar 
    33   31   37 ar 
    34   32   33 ar 
    35   33   34 ar 
    36   34   35 1  
    37   34   36 ar 
    38   36   37 ar 
    39    1   38 1  
    40    2   39 1  
    41    4   40 1  
    42    5   41 1  
    43    6   42 1  
    44    8   43 1  
    45    8   44 1  
    46    9   45 1  
    47   14   46 1  
    48   17   47 1  
    49   18   48 1  
    50   21   49 1  
    51   22   50 1  
    52   23   51 1  
    53   23   52 1  
    54   23   53 1  
    55   24   54 1  
    56   24   55 1  
    57   25   56 1  
    58   25   57 1  
    59   25   58 1  
    60   26   59 1  
    61   28   60 1  
    62   28   61 1  
    63   28   62 1  
    64   30   63 1  
    65   30   64 1  
    66   32   65 1  
    67   33   66 1  
    68   35   67 1  
    69   36   68 1  
    70   37   69 1  
@<TRIPOS>SUBSTRUCTURE
     1 K26         1

