3fcl_ligand
  -I-interpret- 

 49 50  0  0  0  0  0  0  0  0999 V2000
   35.0190    4.6120   19.0000 C   0  0  0  0  0
   40.9530    1.0470   14.9850 C   0  0  0  0  0
   41.5200    2.3120   14.8690 C   0  0  0  0  0
   39.3140    3.2920   14.8070 C   0  0  0  0  0
   39.5670    0.8960   15.0060 C   0  0  0  0  0
   41.8780   -0.8370   16.0430 O   0  0  0  0  0
   41.8590   -0.1460   15.0620 C   0  0  0  0  0
   42.6280   -0.3970   14.0100 O   0  0  0  0  0
   40.7010    3.4350   14.7830 C   0  0  0  0  0
   38.7480    2.0250   14.9180 C   0  0  0  0  0
   37.2440    1.8880   14.9510 C   0  0  0  0  0
   36.8120    1.6570   16.3170 N   0  3  0  0  0
   36.8750    2.7140   17.3040 C   0  0  0  0  0
   36.0250    2.3820   18.5220 C   0  0  0  0  0
   35.9790    3.5420   19.5040 C   0  0  0  0  0
   33.8040    4.6370   19.7300 N   0  3  0  0  0
   33.1230    5.8270   19.3690 C   0  0  0  0  0
   31.8710    5.4740   18.6000 C   0  0  0  0  0
   31.9660    4.8730   17.3990 N   0  0  0  0  0
   30.6260    5.7740   19.1360 C   0  0  0  0  0
   29.5030    5.4370   18.3910 C   0  0  0  0  0
   28.3620    5.6830   18.8290 O   0  0  0  0  0
   29.6490    4.8340   17.1970 N   0  0  0  0  0
   30.8640    4.5560   16.7020 C   0  0  0  0  0
   30.9640    3.9900   15.5920 O   0  0  0  0  0
   34.7823    4.3890   17.9597 H   0  0  0  0  0
   35.5030    5.5814   19.1184 H   0  0  0  0  0
   42.6040    2.4241   14.8455 H   0  0  0  0  0
   38.6737    4.1715   14.7389 H   0  0  0  0  0
   39.1249   -0.0967   15.0906 H   0  0  0  0  0
   42.4680    0.2645   13.3330 H   0  0  0  0  0
   41.1446    4.4269   14.6968 H   0  0  0  0  0
   36.9408    1.0481   14.3260 H   0  0  0  0  0
   36.7864    2.8026   14.5738 H   0  0  0  0  0
   37.4602    0.9514   16.6667 H   0  0  0  0  0
   35.8157    1.4554   16.2319 H   0  0  0  0  0
   36.4956    3.6319   16.8551 H   0  0  0  0  0
   37.9106    2.8298   17.6238 H   0  0  0  0  0
   36.4652    1.5213   19.0255 H   0  0  0  0  0
   35.0090    2.1734   18.1869 H   0  0  0  0  0
   35.6355    3.1790   20.4727 H   0  0  0  0  0
   36.9764    3.9710   19.5999 H   0  0  0  0  0
   33.9871    4.6179   20.7333 H   0  0  0  0  0
   33.2367    3.8179   19.5117 H   0  0  0  0  0
   33.7715    6.4433   18.7463 H   0  0  0  0  0
   32.8541    6.3802   20.2689 H   0  0  0  0  0
   30.6013    6.8601   19.2252 H   0  0  0  0  0
   30.5544    5.1879   20.0522 H   0  0  0  0  0
   28.8199    4.5836   16.6582 H   0  0  0  0  0
 15  1  1  0  0  0
  1 16  1  0  0  0
  2  3  4  0  0  0
  5  2  4  0  0  0
  2  7  1  0  0  0
  9  3  4  0  0  0
  4  9  4  0  0  0
 10  4  4  0  0  0
 10  5  4  0  0  0
  7  6  2  0  0  0
  7  8  1  0  0  0
 11 10  1  0  0  0
 12 11  1  0  0  0
 13 12  1  0  0  0
 14 13  1  0  0  0
 14 15  1  0  0  0
 16 17  1  0  0  0
 17 18  1  0  0  0
 18 19  2  0  0  0
 18 20  1  0  0  0
 19 24  1  0  0  0
 20 21  1  0  0  0
 21 22  2  0  0  0
 21 23  1  0  0  0
 23 24  1  0  0  0
 24 25  2  0  0  0
  1 26  1  0  0  0
  1 27  1  0  0  0
  3 28  1  0  0  0
  4 29  1  0  0  0
  5 30  1  0  0  0
  8 31  1  0  0  0
  9 32  1  0  0  0
 11 33  1  0  0  0
 11 34  1  0  0  0
 12 35  1  0  0  0
 12 36  1  0  0  0
 13 37  1  0  0  0
 13 38  1  0  0  0
 14 39  1  0  0  0
 14 40  1  0  0  0
 15 41  1  0  0  0
 15 42  1  0  0  0
 16 43  1  0  0  0
 16 44  1  0  0  0
 17 45  1  0  0  0
 17 46  1  0  0  0
 20 47  1  0  0  0
 20 48  1  0  0  0
 23 49  1  0  0  0
M  END
$$$$
