4ynd_ligand
  -I-interpret- 

 79 82  0  0  0  0  0  0  0  0999 V2000
  -16.9590   -3.7110   10.2890 C   0  0  0  0  0
  -11.7520  -16.4410    8.0490 C   0  0  0  0  0
   -8.9990  -16.3130    7.7290 C   0  0  0  0  0
   -9.8150  -15.4000    7.0930 C   0  0  0  0  0
  -14.5180   -4.8850    9.5790 C   0  0  0  0  0
  -15.5600   -5.6520   10.0750 C   0  0  0  0  0
  -17.3680   -6.9920   11.6810 C   0  0  0  0  0
  -15.9080   -7.3380   11.5530 C   0  0  0  0  0
   -7.1420  -10.8270   13.5190 C   0  0  0  0  0
   -9.7860   -9.5540   13.4230 C   0  0  0  0  0
   -9.0130   -9.8910   12.1510 C   0  0  0  0  0
   -9.2050  -14.3520    6.2240 C   0  0  0  0  0
   -8.9830  -13.0160    6.9190 C   0  0  0  0  0
  -10.5250   -7.0040   11.1320 C   0  0  0  0  0
  -12.3340   -5.7760   10.3720 C   0  0  0  0  0
  -15.9290   -2.9380    9.7970 C   0  0  0  0  0
  -14.7270   -3.5230    9.4500 C   0  0  0  0  0
  -11.1870  -15.4710    7.2490 C   0  0  0  0  0
  -16.7600   -5.0680   10.4210 C   0  0  0  0  0
  -10.9300  -17.3430    8.6910 C   0  0  0  0  0
   -9.5610  -17.2800    8.5330 C   0  0  0  0  0
   -9.6450   -9.9780    9.7510 C   0  0  0  0  0
   -7.8710  -10.4310   14.7930 C   0  0  0  0  0
   -9.3760  -10.4340   14.5910 C   0  0  0  0  0
   -7.5050   -9.9130   12.3600 C   0  0  0  0  0
   -9.9380  -11.4410    9.9700 C   0  0  0  0  0
  -10.2630  -12.1520    8.6760 C   0  0  0  0  0
   -9.2950   -7.8070   10.7740 C   0  0  0  0  0
  -13.2070   -5.4890    9.1750 C   0  0  0  0  0
  -17.7560   -5.9050   10.9270 N   0  0  0  0  0
   -9.1760  -13.0610    8.3610 N   0  3  0  0  0
  -11.2240   -6.6020    9.9300 N   0  3  0  0  0
   -9.4740   -9.2420   10.9230 N   0  0  0  0  0
  -18.1040   -7.6170   12.4270 O   0  0  0  0  0
   -9.5680   -9.5050    8.6230 O   0  0  0  0  0
  -15.4600   -7.0290   10.2310 O   0  0  0  0  0
  -12.4910   -4.6120    8.3170 O   0  0  0  0  0
  -11.6310  -18.5470    9.7010 Cl  0  0  0  0  0
   -8.5380  -18.4080    9.3330 Cl  0  0  0  0  0
  -17.9106   -3.2583   10.5677 H   0  0  0  0  0
  -12.8337  -16.4943    8.1724 H   0  0  0  0  0
   -7.9180  -16.2694    7.5962 H   0  0  0  0  0
  -15.7682   -8.4018   11.7450 H   0  0  0  0  0
  -15.3326   -6.7602   12.2763 H   0  0  0  0  0
   -7.4315  -11.8451   13.2587 H   0  0  0  0  0
   -6.0695  -10.7483   13.6971 H   0  0  0  0  0
  -10.8462   -9.7176   13.2299 H   0  0  0  0  0
   -9.5721   -8.5181   13.6864 H   0  0  0  0  0
   -9.2821  -10.9262   11.9413 H   0  0  0  0  0
   -9.8966  -14.1748    5.4004 H   0  0  0  0  0
   -8.2267  -14.7201    5.9151 H   0  0  0  0  0
   -9.7148  -12.3158    6.5160 H   0  0  0  0  0
   -7.9477  -12.7258    6.7398 H   0  0  0  0  0
  -10.2230   -6.1143   11.6846 H   0  0  0  0  0
  -11.1874   -7.6175   11.7427 H   0  0  0  0  0
  -12.9071   -6.2949   11.1404 H   0  0  0  0  0
  -11.9634   -4.8445   10.7999 H   0  0  0  0  0
  -16.0636   -1.8625    9.6816 H   0  0  0  0  0
  -13.9227   -2.8962    9.0648 H   0  0  0  0  0
  -11.8272  -14.7540    6.7351 H   0  0  0  0  0
   -7.5603   -9.4241   15.0719 H   0  0  0  0  0
   -7.6240  -11.1518   15.5725 H   0  0  0  0  0
   -9.6928  -11.4554   14.3800 H   0  0  0  0  0
   -9.8453  -10.0463   15.4952 H   0  0  0  0  0
   -7.0270  -10.2837   11.4533 H   0  0  0  0  0
   -7.1637   -8.9026   12.5852 H   0  0  0  0  0
  -10.8020  -11.5210   10.6297 H   0  0  0  0  0
   -9.0515  -11.9058   10.4015 H   0  0  0  0  0
  -10.3829  -11.4247    7.8730 H   0  0  0  0  0
  -11.1936  -12.7094    8.7825 H   0  0  0  0  0
   -8.4978   -7.5045   11.4531 H   0  0  0  0  0
   -9.0712   -7.6124    9.7251 H   0  0  0  0  0
  -13.4404   -6.4209    8.6600 H   0  0  0  0  0
  -18.7419   -5.7179   10.7442 H   0  0  0  0  0
   -8.3231  -12.7836    8.8468 H   0  0  0  0  0
   -9.4004  -14.0086    8.6644 H   0  0  0  0  0
  -11.5519   -7.4121    9.4041 H   0  0  0  0  0
  -10.6092   -6.0886    9.2985 H   0  0  0  0  0
  -13.0264   -4.4133    7.5454 H   0  0  0  0  0
 16  1  4  0  0  0
 19  1  4  0  0  0
 18  2  4  0  0  0
  2 20  4  0  0  0
  4  3  4  0  0  0
  3 21  4  0  0  0
 12  4  1  0  0  0
  4 18  4  0  0  0
  5  6  4  0  0  0
  5 17  4  0  0  0
 29  5  1  0  0  0
  6 19  4  0  0  0
  6 36  1  0  0  0
  8  7  1  0  0  0
 30  7  1  0  0  0
  7 34  2  0  0  0
 36  8  1  0  0  0
  9 23  1  0  0  0
 25  9  1  0  0  0
 11 10  1  0  0  0
 10 24  1  0  0  0
 11 25  1  0  0  0
 33 11  1  0  0  0
 13 12  1  0  0  0
 31 13  1  0  0  0
 28 14  1  0  0  0
 14 32  1  0  0  0
 15 29  1  0  0  0
 32 15  1  0  0  0
 17 16  4  0  0  0
 19 30  1  0  0  0
 21 20  4  0  0  0
 20 38  1  0  0  0
 21 39  1  0  0  0
 22 26  1  0  0  0
 33 22  1  0  0  0
 22 35  2  0  0  0
 24 23  1  0  0  0
 26 27  1  0  0  0
 27 31  1  0  0  0
 28 33  1  0  0  0
 29 37  1  0  0  0
  1 40  1  0  0  0
  2 41  1  0  0  0
  3 42  1  0  0  0
  8 43  1  0  0  0
  8 44  1  0  0  0
  9 45  1  0  0  0
  9 46  1  0  0  0
 10 47  1  0  0  0
 10 48  1  0  0  0
 11 49  1  0  0  0
 12 50  1  0  0  0
 12 51  1  0  0  0
 13 52  1  0  0  0
 13 53  1  0  0  0
 14 54  1  0  0  0
 14 55  1  0  0  0
 15 56  1  0  0  0
 15 57  1  0  0  0
 16 58  1  0  0  0
 17 59  1  0  0  0
 18 60  1  0  0  0
 23 61  1  0  0  0
 23 62  1  0  0  0
 24 63  1  0  0  0
 24 64  1  0  0  0
 25 65  1  0  0  0
 25 66  1  0  0  0
 26 67  1  0  0  0
 26 68  1  0  0  0
 27 69  1  0  0  0
 27 70  1  0  0  0
 28 71  1  0  0  0
 28 72  1  0  0  0
 29 73  1  0  0  0
 30 74  1  0  0  0
 31 75  1  0  0  0
 31 76  1  0  0  0
 32 77  1  0  0  0
 32 78  1  0  0  0
 37 79  1  0  0  0
M  END
$$$$
