5kqy_ligand
  -I-interpret- 

 73 76  0  0  0  0  0  0  0  0999 V2000
  -14.2730    6.6300  -14.8190 N   0  0  0  0  0
  -14.6240    7.5800  -15.8290 C   0  0  0  0  0
  -15.2980    7.1360  -16.9580 C   0  0  0  0  0
  -15.6460    8.0430  -17.9460 C   0  0  0  0  0
  -15.3210    9.3820  -17.7890 C   0  0  0  0  0
  -14.6480    9.8340  -16.6660 C   0  0  0  0  0
  -14.2980    8.9200  -15.6690 C   0  0  0  0  0
  -15.8010   10.5300  -19.1030 S   0  0  0  0  0
  -14.7770   11.5080  -19.2730 O   0  0  0  0  0
  -15.9510    9.8300  -20.3320 O   0  0  0  0  0
  -17.2760   11.2530  -18.6980 N   0  0  0  0  0
  -18.3840   10.3400  -18.4380 C   0  0  0  0  0
  -19.7050   10.6560  -19.1900 C   0  0  0  0  0
  -19.5210   10.6140  -20.7050 C   0  0  0  0  0
  -20.6880    9.5670  -18.8120 C   0  0  0  0  0
  -17.2370   12.5790  -18.0500 C   0  0  0  0  0
  -17.8140   13.6250  -19.0140 C   0  0  0  0  0
  -18.2790   14.7130  -18.2830 O   0  0  0  0  0
  -16.7870   14.0870  -20.0510 C   0  0  0  0  0
  -17.4460   15.0400  -20.8730 N   0  0  0  0  0
  -17.9350   14.7330  -22.1880 C   0  0  0  0  0
  -17.7560   13.6570  -22.7430 O   0  0  0  0  0
  -18.6580   15.8000  -22.7980 O   0  0  0  0  0
  -18.9150   15.7390  -24.1540 C   0  0  0  0  0
  -20.2740   16.2790  -24.3410 C   0  0  0  0  0
  -20.1230   17.5790  -24.2520 O   0  0  0  0  0
  -18.6840   17.8850  -24.8650 C   0  0  0  0  0
  -17.9750   18.8620  -23.9300 O   0  0  0  0  0
  -16.8530   18.0810  -23.3250 C   0  0  0  0  0
  -16.6530   17.1030  -24.1190 C   0  0  0  0  0
  -18.0410   16.8090  -24.8840 C   0  0  0  0  0
  -15.5660   14.7920  -19.4720 C   0  0  0  0  0
  -14.6090   16.5280  -20.9030 C   0  0  0  0  0
  -13.8460   17.0410  -21.9520 C   0  0  0  0  0
  -13.1160   16.1810  -22.7600 C   0  0  0  0  0
  -13.1580   14.8070  -22.5110 C   0  0  0  0  0
  -13.9180   14.2970  -21.4640 C   0  0  0  0  0
  -14.6510   15.1590  -20.6600 C   0  0  0  0  0
  -14.5182    5.6469  -14.9362 H   0  0  0  0  0
  -13.7775    6.9356  -13.9815 H   0  0  0  0  0
  -15.5517    6.0815  -17.0667 H   0  0  0  0  0
  -16.1713    7.7066  -18.8399 H   0  0  0  0  0
  -14.3947   10.8890  -16.5614 H   0  0  0  0  0
  -13.7740    9.2557  -14.7741 H   0  0  0  0  0
  -18.6071   10.4195  -17.3740 H   0  0  0  0  0
  -18.0612    9.3566  -18.7798 H   0  0  0  0  0
  -20.0444   11.6555  -18.9180 H   0  0  0  0  0
  -18.7746   11.3517  -20.9997 H   0  0  0  0  0
  -19.1878    9.6195  -21.0018 H   0  0  0  0  0
  -20.4697   10.8409  -21.1914 H   0  0  0  0  0
  -20.2895    8.5986  -19.1146 H   0  0  0  0  0
  -20.8420    9.5769  -17.7330 H   0  0  0  0  0
  -21.6372    9.7447  -19.3174 H   0  0  0  0  0
  -16.2072   12.8365  -17.8025 H   0  0  0  0  0
  -17.8283   12.5578  -17.1346 H   0  0  0  0  0
  -18.6342   13.1614  -19.5622 H   0  0  0  0  0
  -18.6406   15.3693  -18.8831 H   0  0  0  0  0
  -16.4290   13.1947  -20.5646 H   0  0  0  0  0
  -17.5778   15.9852  -20.5129 H   0  0  0  0  0
  -18.7513   14.7231  -24.5135 H   0  0  0  0  0
  -20.9730   15.8959  -23.5975 H   0  0  0  0  0
  -20.7053   15.9811  -25.2967 H   0  0  0  0  0
  -18.7600   18.3044  -25.8682 H   0  0  0  0  0
  -16.3187   18.3009  -22.4007 H   0  0  0  0  0
  -15.7151   16.5646  -24.2553 H   0  0  0  0  0
  -17.8203   16.4369  -25.8844 H   0  0  0  0  0
  -15.0435   14.1434  -18.7689 H   0  0  0  0  0
  -15.8613   15.6857  -18.9223 H   0  0  0  0  0
  -15.1779   17.2066  -20.2674 H   0  0  0  0  0
  -13.8233   18.1150  -22.1366 H   0  0  0  0  0
  -12.5158   16.5736  -23.5808 H   0  0  0  0  0
  -12.5886   14.1270  -23.1446 H   0  0  0  0  0
  -13.9380   13.2236  -21.2753 H   0  0  0  0  0
  2  1  1  0  0  0
  3  2  4  0  0  0
  7  2  4  0  0  0
  4  3  4  0  0  0
  5  4  4  0  0  0
  5  6  4  0  0  0
  8  5  1  0  0  0
  6  7  4  0  0  0
  8  9  2  0  0  0
  8 10  2  0  0  0
 11  8  1  0  0  0
 11 12  1  0  0  0
 16 11  1  0  0  0
 12 13  1  0  0  0
 13 14  1  0  0  0
 13 15  1  0  0  0
 17 16  1  0  0  0
 17 18  1  0  0  0
 19 17  1  0  0  0
 19 20  1  0  0  0
 32 19  1  0  0  0
 20 21  1  0  0  0
 21 22  2  0  0  0
 21 23  1  0  0  0
 23 24  1  0  0  0
 24 25  1  0  0  0
 24 31  1  0  0  0
 25 26  1  0  0  0
 27 26  1  0  0  0
 27 28  1  0  0  0
 31 27  1  0  0  0
 29 28  1  0  0  0
 30 29  2  0  0  0
 31 30  1  0  0  0
 38 32  1  0  0  0
 33 34  4  0  0  0
 33 38  4  0  0  0
 34 35  4  0  0  0
 35 36  4  0  0  0
 36 37  4  0  0  0
 37 38  4  0  0  0
  1 39  1  0  0  0
  1 40  1  0  0  0
  3 41  1  0  0  0
  4 42  1  0  0  0
  6 43  1  0  0  0
  7 44  1  0  0  0
 12 45  1  0  0  0
 12 46  1  0  0  0
 13 47  1  0  0  0
 14 48  1  0  0  0
 14 49  1  0  0  0
 14 50  1  0  0  0
 15 51  1  0  0  0
 15 52  1  0  0  0
 15 53  1  0  0  0
 16 54  1  0  0  0
 16 55  1  0  0  0
 17 56  1  0  0  0
 18 57  1  0  0  0
 19 58  1  0  0  0
 20 59  1  0  0  0
 24 60  1  0  0  0
 25 61  1  0  0  0
 25 62  1  0  0  0
 27 63  1  0  0  0
 29 64  1  0  0  0
 30 65  1  0  0  0
 31 66  1  0  0  0
 32 67  1  0  0  0
 32 68  1  0  0  0
 33 69  1  0  0  0
 34 70  1  0  0  0
 35 71  1  0  0  0
 36 72  1  0  0  0
 37 73  1  0  0  0
M  END
$$$$
