5ia5_ligand
  -I-interpret- 

 85 90  0  0  0  0  0  0  0  0999 V2000
   10.6740   -1.2160   95.8560 C   0  0  0  0  0
   10.5510    0.2050   96.4630 C   0  0  0  0  0
    9.2120    0.4510   97.0260 N   0  3  0  0  0
    9.1860    1.7720   97.6780 C   0  0  0  0  0
    8.9230   -0.5910   98.0210 C   0  0  0  0  0
    8.9280   -1.9740   97.3640 C   0  0  0  0  0
   10.2400   -2.3000   96.7710 N   0  3  0  0  0
   11.2470   -2.8880   97.7020 C   0  0  0  0  0
   12.1740   -1.9050   98.4150 C   0  0  0  0  0
   13.2770   -2.7140   99.0340 C   0  0  0  0  0
   10.5710   -3.8300   98.7240 C   0  0  0  0  0
   11.2720   -3.8800  100.0970 C   0  0  0  0  0
   12.7200   -3.6300  100.0440 N   0  0  0  0  0
   13.5730   -4.2030  100.9150 C   0  0  0  0  0
   14.7750   -3.9440  100.8210 O   0  0  0  0  0
   13.0400   -5.0040  101.8570 N   0  0  0  0  0
   13.7730   -5.6950  102.7700 C   0  0  0  0  0
   15.1000   -6.0900  102.5660 C   0  0  0  0  0
   13.1560   -6.0680  103.9000 N   0  0  0  0  0
   13.8190   -6.7940  104.8880 C   0  0  0  0  0
   15.1470   -7.1490  104.7080 C   0  0  0  0  0
   15.7990   -6.8090  103.5280 C   0  0  0  0  0
   17.1180   -7.1670  103.2910 O   0  0  0  0  0
   17.9000   -7.4110  104.3970 C   0  0  0  0  0
   18.1990   -6.3630  105.2600 C   0  0  0  0  0
   18.9890   -6.5890  106.3800 C   0  0  0  0  0
   19.2460   -5.5710  107.1900 F   0  0  0  0  0
   18.4450   -8.6720  104.6680 C   0  0  0  0  0
   19.2450   -8.9050  105.7960 C   0  0  0  0  0
   19.5330   -7.8410  106.6650 C   0  0  0  0  0
   20.2640   -7.9000  107.8050 N   0  0  0  0  0
   21.2860   -8.7690  107.9930 C   0  0  0  0  0
   21.6950   -9.5700  107.1470 O   0  0  0  0  0
   21.9980   -8.7140  109.3570 C   0  0  0  0  0
   23.5090   -9.0710  109.3500 C   0  0  0  0  0
   22.5130  -10.0690  109.9320 C   0  0  0  0  0
   21.4760   -7.6740  110.3690 C   0  0  0  0  0
   20.6250   -6.8370  110.0390 O   0  0  0  0  0
   22.0390   -7.7740  111.6060 N   0  0  0  0  0
   21.7040   -6.9270  112.6100 C   0  0  0  0  0
   22.7050   -6.4540  113.4360 C   0  0  0  0  0
   22.3900   -5.5950  114.4880 C   0  0  0  0  0
   21.0710   -5.2360  114.7370 C   0  0  0  0  0
   20.7730   -4.3860  115.7690 F   0  0  0  0  0
   20.0520   -5.7160  113.9320 C   0  0  0  0  0
   20.3760   -6.5800  112.8870 C   0  0  0  0  0
   11.7277   -1.3829   95.6324 H   0  0  0  0  0
   10.0257   -1.2518   94.9805 H   0  0  0  0  0
   10.7253    0.9310   95.6689 H   0  0  0  0  0
   11.2809    0.2962   97.2674 H   0  0  0  0  0
    8.5128    0.4304   96.2836 H   0  0  0  0  0
    8.1998    1.9435   98.1093 H   0  0  0  0  0
    9.9387    1.8018   98.4659 H   0  0  0  0  0
    9.4004    2.5445   96.9395 H   0  0  0  0  0
    7.9389   -0.4067   98.4519 H   0  0  0  0  0
    9.6891   -0.5637   98.7958 H   0  0  0  0  0
    8.1841   -1.9755   96.5673 H   0  0  0  0  0
    8.7067   -2.7164   98.1308 H   0  0  0  0  0
   10.1247   -3.1173   96.1717 H   0  0  0  0  0
   11.9090   -3.4485   97.0419 H   0  0  0  0  0
   11.6312   -1.3455   99.1769 H   0  0  0  0  0
   12.5775   -1.1758   97.7125 H   0  0  0  0  0
   13.9908   -2.0429   99.5117 H   0  0  0  0  0
   13.7762   -3.2946   98.2582 H   0  0  0  0  0
   10.6076   -4.8365   98.3072 H   0  0  0  0  0
    9.5622   -3.4525   98.8913 H   0  0  0  0  0
   11.1337   -4.8864  100.4922 H   0  0  0  0  0
   10.8323   -3.0943  100.7114 H   0  0  0  0  0
   12.0248   -5.0980  101.8874 H   0  0  0  0  0
   15.5963   -5.8278  101.6317 H   0  0  0  0  0
   13.2949   -7.0818  105.7994 H   0  0  0  0  0
   15.6783   -7.6929  105.4890 H   0  0  0  0  0
   17.8135   -5.3637  105.0578 H   0  0  0  0  0
   18.2418   -9.4954  103.9832 H   0  0  0  0  0
   19.6389   -9.9015  105.9957 H   0  0  0  0  0
   20.0323   -7.2560  108.5613 H   0  0  0  0  0
   24.4526   -8.6069  109.6370 H   0  0  0  0  0
   24.3379   -9.0726  108.6422 H   0  0  0  0  0
   22.2802  -11.1304  109.8468 H   0  0  0  0  0
   22.3941  -10.6678  110.8350 H   0  0  0  0  0
   22.7295   -8.5042  111.7807 H   0  0  0  0  0
   23.7396   -6.7519  113.2656 H   0  0  0  0  0
   23.1855   -5.2015  115.1208 H   0  0  0  0  0
   19.0173   -5.4242  114.1117 H   0  0  0  0  0
   19.5776   -6.9948  112.2717 H   0  0  0  0  0
  1  2  1  0  0  0
  1  7  1  0  0  0
  2  3  1  0  0  0
  3  4  1  0  0  0
  3  5  1  0  0  0
  5  6  1  0  0  0
  6  7  1  0  0  0
  7  8  1  0  0  0
  8  9  1  0  0  0
  8 11  1  0  0  0
  9 10  1  0  0  0
 10 13  1  0  0  0
 11 12  1  0  0  0
 12 13  1  0  0  0
 13 14  1  0  0  0
 14 15  2  0  0  0
 14 16  1  0  0  0
 16 17  1  0  0  0
 17 18  4  0  0  0
 17 19  4  0  0  0
 18 22  4  0  0  0
 19 20  4  0  0  0
 20 21  4  0  0  0
 21 22  4  0  0  0
 22 23  1  0  0  0
 23 24  1  0  0  0
 24 25  4  0  0  0
 24 28  4  0  0  0
 25 26  4  0  0  0
 26 27  1  0  0  0
 26 30  4  0  0  0
 28 29  4  0  0  0
 29 30  4  0  0  0
 30 31  1  0  0  0
 31 32  1  0  0  0
 32 33  2  0  0  0
 32 34  1  0  0  0
 34 35  1  0  0  0
 34 36  1  0  0  0
 34 37  1  0  0  0
 35 36  1  0  0  0
 37 38  2  0  0  0
 37 39  1  0  0  0
 39 40  1  0  0  0
 40 41  4  0  0  0
 40 46  4  0  0  0
 41 42  4  0  0  0
 42 43  4  0  0  0
 43 44  1  0  0  0
 43 45  4  0  0  0
 45 46  4  0  0  0
  1 47  1  0  0  0
  1 48  1  0  0  0
  2 49  1  0  0  0
  2 50  1  0  0  0
  3 51  1  0  0  0
  4 52  1  0  0  0
  4 53  1  0  0  0
  4 54  1  0  0  0
  5 55  1  0  0  0
  5 56  1  0  0  0
  6 57  1  0  0  0
  6 58  1  0  0  0
  7 59  1  0  0  0
  8 60  1  0  0  0
  9 61  1  0  0  0
  9 62  1  0  0  0
 10 63  1  0  0  0
 10 64  1  0  0  0
 11 65  1  0  0  0
 11 66  1  0  0  0
 12 67  1  0  0  0
 12 68  1  0  0  0
 16 69  1  0  0  0
 18 70  1  0  0  0
 20 71  1  0  0  0
 21 72  1  0  0  0
 25 73  1  0  0  0
 28 74  1  0  0  0
 29 75  1  0  0  0
 31 76  1  0  0  0
 35 77  1  0  0  0
 35 78  1  0  0  0
 36 79  1  0  0  0
 36 80  1  0  0  0
 39 81  1  0  0  0
 41 82  1  0  0  0
 42 83  1  0  0  0
 45 84  1  0  0  0
 46 85  1  0  0  0
M  END
$$$$
