3dc3_ligand
  -I-interpret- 

 19 19  0  0  0  0  0  0  0  0999 V2000
   -5.1710    2.0530   15.9880 C   0  0  0  0  0
   -4.7260    3.8470   14.5620 C   0  0  0  0  0
   -5.5320    5.7530   13.2640 C   0  0  0  0  0
   -5.2070    6.6980   12.4970 C   0  0  0  0  0
   -5.4920   -0.5860   16.3150 N   0  0  0  0  0
   -3.5950    3.2790   15.0570 N   0  0  0  0  0
   -3.8530    2.1680   15.9320 N   0  0  0  0  0
   -4.6410    5.0950   13.9610 N   0  0  0  0  0
   -5.4940    0.9270   18.2800 O   0  0  0  0  0
   -7.3740    1.0210   16.7110 O   0  0  0  0  0
   -6.9800    5.6060   13.5770 O   0  0  0  0  0
   -5.9630    0.8210   16.9040 S   0  0  0  0  0
   -6.0650    3.3190   15.2400 S   0  0  0  0  0
   -5.7045    6.5713   11.5355 H   0  0  0  0  0
   -5.5096    7.6459   12.9420 H   0  0  0  0  0
   -4.1267    6.6916   12.3522 H   0  0  0  0  0
   -4.9545   -1.2284   16.8971 H   0  0  0  0  0
   -5.7285   -0.8426   15.3566 H   0  0  0  0  0
   -3.7476    5.5723   14.0808 H   0  0  0  0  0
  1  7  4  0  0  0
  1 12  1  0  0  0
 13  1  4  0  0  0
  2  6  4  0  0  0
  8  2  1  0  0  0
  2 13  4  0  0  0
  3  4  1  0  0  0
  3  8  1  0  0  0
  3 11  2  0  0  0
 12  5  1  0  0  0
  6  7  4  0  0  0
 12  9  2  0  0  0
 12 10  2  0  0  0
  4 14  1  0  0  0
  4 15  1  0  0  0
  4 16  1  0  0  0
  5 17  1  0  0  0
  5 18  1  0  0  0
  8 19  1  0  0  0
M  END
$$$$
