3gi5_ligand
  -I-interpret- 

 83 87  0  0  0  0  0  0  0  0999 V2000
   18.4850   27.6690    5.8500 O   0  0  0  0  0
   18.7280   26.4910    5.6280 C   0  0  0  0  0
   18.1280   25.7730    4.4520 C   0  0  0  0  0
   19.6520   25.7600    6.5640 C   0  0  0  0  0
   20.1720   24.5190    6.2050 C   0  0  0  0  0
   21.0190   23.8540    7.0800 C   0  0  0  0  0
   21.3660   24.4280    8.2980 C   0  0  0  0  0
   19.9970   26.3390    7.7890 C   0  0  0  0  0
   20.8550   25.6770    8.6790 C   0  0  0  0  0
   21.1920   26.2600    9.9200 N   0  0  0  0  0
   21.5290   25.5790   11.0170 C   0  0  0  0  0
   21.6120   24.3730   11.1850 O   0  0  0  0  0
   21.8560   26.4840   12.0930 O   0  0  0  0  0
   21.2390   27.7030   10.1250 C   0  0  0  0  0
   21.8680   27.8050   11.5380 C   0  0  0  0  0
   21.0530   28.7920   12.3210 C   0  0  0  0  0
   21.0730   29.9560   11.9420 O   0  0  0  0  0
   20.3450   28.3450   13.3760 N   0  0  0  0  0
   19.4170   29.2040   14.1250 C   0  0  0  0  0
   18.0930   28.4220   14.0190 C   0  0  0  0  0
   17.7860   28.1190   12.5540 C   0  0  0  0  0
   17.3940   29.1240   11.6690 C   0  0  0  0  0
   17.1360   28.8290   10.3190 C   0  0  0  0  0
   17.2780   27.5390    9.8390 C   0  0  0  0  0
   17.6630   26.5350   10.7190 C   0  0  0  0  0
   17.9180   26.8220   12.0610 C   0  0  0  0  0
   19.8620   29.4990   15.5590 C   0  0  0  0  0
   19.7690   28.3340   16.4190 O   0  0  0  0  0
   19.0150   30.6460   16.1390 C   0  0  0  0  0
   19.2680   31.9280   15.4290 N   0  0  0  0  0
   20.0530   32.8920   16.2420 C   0  0  0  0  0
   21.5350   32.4800   16.3020 C   0  0  0  0  0
   22.3090   33.4380   17.1970 C   0  0  0  0  0
   22.1680   32.4430   14.9060 C   0  0  0  0  0
   17.9610   32.5760   14.6970 S   0  0  0  0  0
   18.4770   33.4800   13.7150 O   0  0  0  0  0
   17.2040   31.5040   14.0890 O   0  0  0  0  0
   17.0570   33.4010   15.7650 C   0  0  0  0  0
   16.0660   32.7270   16.4810 C   0  0  0  0  0
   15.2870   33.3920   17.4410 C   0  0  0  0  0
   17.2660   34.7750   16.0210 C   0  0  0  0  0
   16.4870   35.4230   16.9810 C   0  0  0  0  0
   16.4970   36.7300   17.4050 O   0  0  0  0  0
   15.5170   34.7360   17.6750 C   0  0  0  0  0
   14.8970   35.5700   18.5560 O   0  0  0  0  0
   15.5380   36.8610   18.4670 C   0  0  0  0  0
   17.0411   25.7921    4.5322 H   0  0  0  0  0
   18.4344   26.2683    3.5306 H   0  0  0  0  0
   18.4748   24.7397    4.4432 H   0  0  0  0  0
   19.9156   24.0734    5.2439 H   0  0  0  0  0
   21.4151   22.8749    6.8107 H   0  0  0  0  0
   22.0453   23.8992    8.9666 H   0  0  0  0  0
   19.5944   27.3163    8.0553 H   0  0  0  0  0
   20.2630   28.1825   10.0504 H   0  0  0  0  0
   21.8078   28.2304    9.3592 H   0  0  0  0  0
   22.8985   28.1602   11.5406 H   0  0  0  0  0
   20.4571   27.3736   13.6661 H   0  0  0  0  0
   19.3459   30.2142   13.7219 H   0  0  0  0  0
   17.2859   29.0219   14.4394 H   0  0  0  0  0
   18.1830   27.4854   14.5692 H   0  0  0  0  0
   17.2868   30.1476   12.0279 H   0  0  0  0  0
   16.8209   29.6244    9.6436 H   0  0  0  0  0
   17.0911   27.3144    8.7889 H   0  0  0  0  0
   17.7670   25.5120   10.3574 H   0  0  0  0  0
   18.2247   26.0204   12.7330 H   0  0  0  0  0
   20.9119   29.7896   15.5215 H   0  0  0  0  0
   20.0575   28.5674   17.3044 H   0  0  0  0  0
   19.2827   30.7750   17.1877 H   0  0  0  0  0
   17.9621   30.3896   16.0214 H   0  0  0  0  0
   19.6513   32.9051   17.2552 H   0  0  0  0  0
   19.9814   33.8780   15.7829 H   0  0  0  0  0
   21.5828   31.4740   16.7188 H   0  0  0  0  0
   22.2342   34.4487   16.7957 H   0  0  0  0  0
   21.8893   33.4130   18.2026 H   0  0  0  0  0
   23.3557   33.1358   17.2311 H   0  0  0  0  0
   21.6349   31.7224   14.2857 H   0  0  0  0  0
   22.1035   33.4323   14.4529 H   0  0  0  0  0
   23.2139   32.1481   14.9904 H   0  0  0  0  0
   15.8944   31.6674   16.2916 H   0  0  0  0  0
   14.5135   32.8581   17.9931 H   0  0  0  0  0
   18.0305   35.3251   15.4724 H   0  0  0  0  0
   14.8190   37.6550   18.2653 H   0  0  0  0  0
   16.0133   37.1408   19.4072 H   0  0  0  0  0
  1  2  2  0  0  0
  2  3  1  0  0  0
  2  4  1  0  0  0
  4  5  4  0  0  0
  4  8  4  0  0  0
  5  6  4  0  0  0
  6  7  4  0  0  0
  7  9  4  0  0  0
  8  9  4  0  0  0
  9 10  1  0  0  0
 10 11  1  0  0  0
 10 14  1  0  0  0
 11 12  2  0  0  0
 11 13  1  0  0  0
 13 15  1  0  0  0
 14 15  1  0  0  0
 15 16  1  0  0  0
 16 17  2  0  0  0
 16 18  1  0  0  0
 18 19  1  0  0  0
 19 20  1  0  0  0
 19 27  1  0  0  0
 20 21  1  0  0  0
 21 22  4  0  0  0
 21 26  4  0  0  0
 22 23  4  0  0  0
 23 24  4  0  0  0
 24 25  4  0  0  0
 25 26  4  0  0  0
 27 28  1  0  0  0
 27 29  1  0  0  0
 29 30  1  0  0  0
 30 31  1  0  0  0
 30 35  1  0  0  0
 31 32  1  0  0  0
 32 33  1  0  0  0
 32 34  1  0  0  0
 35 36  2  0  0  0
 35 37  2  0  0  0
 35 38  1  0  0  0
 38 39  4  0  0  0
 38 41  4  0  0  0
 39 40  4  0  0  0
 40 44  4  0  0  0
 41 42  4  0  0  0
 42 43  1  0  0  0
 42 44  4  0  0  0
 43 46  1  0  0  0
 44 45  1  0  0  0
 45 46  1  0  0  0
  3 47  1  0  0  0
  3 48  1  0  0  0
  3 49  1  0  0  0
  5 50  1  0  0  0
  6 51  1  0  0  0
  7 52  1  0  0  0
  8 53  1  0  0  0
 14 54  1  0  0  0
 14 55  1  0  0  0
 15 56  1  0  0  0
 18 57  1  0  0  0
 19 58  1  0  0  0
 20 59  1  0  0  0
 20 60  1  0  0  0
 22 61  1  0  0  0
 23 62  1  0  0  0
 24 63  1  0  0  0
 25 64  1  0  0  0
 26 65  1  0  0  0
 27 66  1  0  0  0
 28 67  1  0  0  0
 29 68  1  0  0  0
 29 69  1  0  0  0
 31 70  1  0  0  0
 31 71  1  0  0  0
 32 72  1  0  0  0
 33 73  1  0  0  0
 33 74  1  0  0  0
 33 75  1  0  0  0
 34 76  1  0  0  0
 34 77  1  0  0  0
 34 78  1  0  0  0
 39 79  1  0  0  0
 40 80  1  0  0  0
 41 81  1  0  0  0
 46 82  1  0  0  0
 46 83  1  0  0  0
M  END
$$$$
