4e5j_ligand
  -I-interpret- 

 32 33  0  0  0  0  0  0  0  0999 V2000
  -14.5900  -19.9960  -32.5860 O   0  0  0  0  0
  -13.7530  -19.6930  -31.7370 C   0  0  0  0  0
  -12.5860  -20.6110  -31.4470 C   0  0  0  0  0
  -13.8660  -18.5360  -31.0520 N   0  0  0  0  0
  -12.9850  -18.1060  -30.1130 C   0  0  0  0  0
  -11.7940  -17.4670  -30.4910 C   0  0  0  0  0
  -10.8880  -17.0200  -29.5280 C   0  0  0  0  0
  -13.2700  -18.2980  -28.7600 C   0  0  0  0  0
  -12.3890  -17.8260  -27.7810 C   0  0  0  0  0
  -11.1860  -17.2140  -28.1730 C   0  0  0  0  0
  -12.6510  -18.0740  -26.3320 C   0  0  0  0  0
  -13.6110  -18.9500  -25.9990 N   0  0  0  0  0
  -13.8730  -19.2810  -24.7390 C   0  0  0  0  0
  -14.7860  -20.0810  -24.4670 O   0  0  0  0  0
  -13.0740  -18.6710  -23.6570 C   0  0  0  0  0
  -13.3370  -19.0020  -22.3850 O   0  0  0  0  0
  -12.0110  -17.7280  -24.0640 C   0  0  0  0  0
  -11.8670  -17.4860  -25.3900 N   0  0  0  0  0
  -11.1120  -16.9950  -23.1160 C   0  0  0  0  0
  -11.0890  -17.2220  -21.8790 O   0  0  0  0  0
  -10.4040  -16.1110  -23.6460 O   0  0  0  0  0
  -12.9606  -21.5769  -31.1083 H   0  0  0  0  0
  -11.9974  -20.7461  -32.3544 H   0  0  0  0  0
  -11.9621  -20.1691  -30.6701 H   0  0  0  0  0
  -14.6705  -17.9424  -31.2541 H   0  0  0  0  0
  -11.5742  -17.3182  -31.5482 H   0  0  0  0  0
   -9.9624  -16.5273  -29.8258 H   0  0  0  0  0
  -14.1819  -18.8173  -28.4653 H   0  0  0  0  0
  -10.4762  -16.8863  -27.4134 H   0  0  0  0  0
  -14.0654  -19.6269  -22.3622 H   0  0  0  0  0
  -11.1412  -16.8366  -25.6931 H   0  0  0  0  0
  -11.7000  -17.9335  -21.6739 H   0  0  0  0  0
  1  2  2  0  0  0
  2  3  1  0  0  0
  2  4  1  0  0  0
  4  5  1  0  0  0
  5  6  4  0  0  0
  5  8  4  0  0  0
  6  7  4  0  0  0
  7 10  4  0  0  0
  8  9  4  0  0  0
  9 10  4  0  0  0
  9 11  1  0  0  0
 11 12  2  0  0  0
 11 18  1  0  0  0
 12 13  1  0  0  0
 13 14  2  0  0  0
 13 15  1  0  0  0
 15 16  1  0  0  0
 15 17  2  0  0  0
 17 18  1  0  0  0
 17 19  1  0  0  0
 19 20  1  0  0  0
 19 21  2  0  0  0
  3 22  1  0  0  0
  3 23  1  0  0  0
  3 24  1  0  0  0
  4 25  1  0  0  0
  6 26  1  0  0  0
  7 27  1  0  0  0
  8 28  1  0  0  0
 10 29  1  0  0  0
 16 30  1  0  0  0
 18 31  1  0  0  0
 20 32  1  0  0  0
M  END
$$$$
