4h1m_ligand
  -I-interpret- 

 66 69  0  0  0  0  0  0  0  0999 V2000
   -7.6650    0.4220   18.0770 C   0  0  0  0  0
    1.4650   -5.5380   17.8870 C   0  0  0  0  0
    1.5140   -8.0420   17.6230 C   0  0  0  0  0
   -7.0130    2.6060    9.0150 C   0  0  0  0  0
   -4.9140    1.6070    8.2010 C   0  0  0  0  0
   -4.8720    3.4050    9.9310 C   0  0  0  0  0
   -3.2640   -6.9730   10.4550 C   0  0  0  0  0
   -2.3840   -7.4880   11.3770 C   0  0  0  0  0
   -4.0580   -5.8630   10.7630 C   0  0  0  0  0
   -6.0170   -0.1210   16.2730 C   0  0  0  0  0
   -8.1360    0.8760   15.6480 C   0  0  0  0  0
   -5.6310   -0.1660   14.9410 C   0  0  0  0  0
   -7.7580    0.8180   14.3170 C   0  0  0  0  0
   -1.5180   -7.1850   13.8080 C   0  0  0  0  0
   -5.3900   -0.1930   10.5990 C   0  0  0  0  0
   -7.2640    0.3940   16.6210 C   0  0  0  0  0
   -6.5010    0.3030   13.9580 C   0  0  0  0  0
   -2.2870   -6.9030   12.6550 C   0  0  0  0  0
   -3.9630   -5.2630   12.0160 C   0  0  0  0  0
   -1.8360   -6.2690   14.7570 C   0  0  0  0  0
   -5.7190    1.1650   10.5890 C   0  0  0  0  0
   -5.6200   -0.6860   11.8530 C   0  0  0  0  0
   -3.0850   -5.7880   12.9720 C   0  0  0  0  0
    0.6380   -6.7910   17.5970 C   0  0  0  0  0
   -1.2620   -6.1940   16.0970 C   0  0  0  0  0
   -4.7090   -2.9470   11.7730 C   0  0  0  0  0
   -5.6180    2.1610    9.4430 C   0  0  0  0  0
   -2.7990   -5.4200   14.2620 N   0  0  0  0  0
   -6.1220    1.4620   11.7920 N   0  0  0  0  0
   -4.7250   -4.1530   12.3950 N   0  0  0  0  0
   -5.4800   -1.9940   12.3210 N   0  0  0  0  0
   -0.0410   -6.7470   16.2990 N   0  0  0  0  0
   -6.1050    0.3320   12.6040 N   0  0  0  0  0
   -1.8650   -5.5980   16.9800 O   0  0  0  0  0
   -4.0460   -2.7260   10.7650 O   0  0  0  0  0
   -7.6688   -0.5943   18.4711 H   0  0  0  0  0
   -6.9526    1.0277   18.6372 H   0  0  0  0  0
   -8.6620    0.8527   18.1697 H   0  0  0  0  0
    2.2295   -5.4229   17.1186 H   0  0  0  0  0
    0.8123   -4.6650   17.8856 H   0  0  0  0  0
    1.9407   -5.6360   18.8628 H   0  0  0  0  0
    0.8883   -8.9249   17.4925 H   0  0  0  0  0
    2.2439   -7.9898   16.8151 H   0  0  0  0  0
    2.0328   -8.1009   18.5798 H   0  0  0  0  0
   -7.5853    1.7381    8.6876 H   0  0  0  0  0
   -7.5170    3.0782    9.8583 H   0  0  0  0  0
   -6.9298    3.3186    8.1944 H   0  0  0  0  0
   -3.8982    1.3105    8.4626 H   0  0  0  0  0
   -5.4624    0.7412    7.8299 H   0  0  0  0  0
   -4.8820    2.3764    7.4295 H   0  0  0  0  0
   -5.4183    3.8523   10.7614 H   0  0  0  0  0
   -3.8731    3.1214   10.2624 H   0  0  0  0  0
   -4.7952    4.1242    9.1156 H   0  0  0  0  0
   -3.3442   -7.4354    9.4712 H   0  0  0  0  0
   -1.7632   -8.3463   11.1201 H   0  0  0  0  0
   -4.7518   -5.4674   10.0212 H   0  0  0  0  0
   -5.3442   -0.4888   17.0477 H   0  0  0  0  0
   -9.1027    1.2931   15.9302 H   0  0  0  0  0
   -4.6549   -0.5651   14.6654 H   0  0  0  0  0
   -8.4391    1.1737   13.5439 H   0  0  0  0  0
   -0.7970   -7.9954   13.9153 H   0  0  0  0  0
   -5.0134   -0.7632    9.7498 H   0  0  0  0  0
   -0.1160   -6.8263   18.3834 H   0  0  0  0  0
   -5.3405   -4.2582   13.2015 H   0  0  0  0  0
   -6.0110   -2.2484   13.1539 H   0  0  0  0  0
    0.4355   -7.1587   15.4966 H   0  0  0  0  0
 16  1  1  0  0  0
 24  2  1  0  0  0
 24  3  1  0  0  0
 27  4  1  0  0  0
 27  5  1  0  0  0
 27  6  1  0  0  0
  7  8  4  0  0  0
  9  7  4  0  0  0
 18  8  4  0  0  0
 19  9  4  0  0  0
 12 10  4  0  0  0
 10 16  4  0  0  0
 13 11  4  0  0  0
 11 16  4  0  0  0
 17 12  4  0  0  0
 17 13  4  0  0  0
 18 14  4  0  0  0
 20 14  4  0  0  0
 15 21  4  0  0  0
 22 15  4  0  0  0
 33 17  1  0  0  0
 23 18  4  0  0  0
 19 23  4  0  0  0
 30 19  1  0  0  0
 20 25  1  0  0  0
 28 20  4  0  0  0
 21 27  1  0  0  0
 21 29  4  0  0  0
 31 22  1  0  0  0
 22 33  4  0  0  0
 23 28  4  0  0  0
 32 24  1  0  0  0
 25 32  1  0  0  0
 25 34  2  0  0  0
 26 30  1  0  0  0
 26 31  1  0  0  0
 26 35  2  0  0  0
 29 33  4  0  0  0
  1 36  1  0  0  0
  1 37  1  0  0  0
  1 38  1  0  0  0
  2 39  1  0  0  0
  2 40  1  0  0  0
  2 41  1  0  0  0
  3 42  1  0  0  0
  3 43  1  0  0  0
  3 44  1  0  0  0
  4 45  1  0  0  0
  4 46  1  0  0  0
  4 47  1  0  0  0
  5 48  1  0  0  0
  5 49  1  0  0  0
  5 50  1  0  0  0
  6 51  1  0  0  0
  6 52  1  0  0  0
  6 53  1  0  0  0
  7 54  1  0  0  0
  8 55  1  0  0  0
  9 56  1  0  0  0
 10 57  1  0  0  0
 11 58  1  0  0  0
 12 59  1  0  0  0
 13 60  1  0  0  0
 14 61  1  0  0  0
 15 62  1  0  0  0
 24 63  1  0  0  0
 30 64  1  0  0  0
 31 65  1  0  0  0
 32 66  1  0  0  0
M  END
$$$$
