3hnz_ligand
  -I-interpret- 

 59 63  0  0  0  0  0  0  0  0999 V2000
   62.3860   34.5770    5.6180 O   0  0  0  0  0
   60.1370   31.5270    0.6930 O   0  0  0  0  0
   60.8400   28.3140    3.9820 O   0  0  0  0  0
   63.6440   27.6490    7.0920 O   0  0  0  0  0
   59.0090   28.7640    6.4860 O   0  0  0  0  0
   57.3720   27.4260    7.9980 O   0  0  0  0  0
   58.3810   25.9640    9.5690 O   0  0  0  0  0
   61.4970   29.2530    5.7580 N   0  0  0  0  0
   61.2910   29.3190    4.4860 C   0  0  0  0  0
   61.6100   30.5960    3.7340 C   0  0  0  0  0
   60.4030   31.3960    3.9380 C   0  0  0  0  0
   60.2410   32.6630    3.0110 C   0  0  0  0  0
   60.5690   32.4310    1.4680 C   0  0  0  0  0
   61.4810   33.3830    0.9040 C   0  0  0  0  0
   62.0350   34.4100    1.5030 C   0  0  0  0  0
   61.8060   34.8610    2.8500 C   0  0  0  0  0
   61.3190   33.6250    3.6770 C   0  0  0  0  0
   61.0930   34.0940    5.1120 C   0  0  0  0  0
   60.2820   35.4260    5.0910 C   0  0  0  0  0
   61.2300   36.4410    4.4210 C   0  0  0  0  0
   60.8980   36.1040    2.9440 C   0  0  0  0  0
   63.0910   35.4260    3.4930 C   0  0  0  0  0
   62.6190   35.8450    4.8640 C   0  0  0  0  0
   63.5290   36.6240    5.8230 C   0  0  0  0  0
   58.7530   33.2200    2.8960 C   0  0  0  0  0
   58.3150   26.8100    8.5490 C   0  0  0  0  0
   59.6750   27.0760    8.0950 C   0  0  0  0  0
   59.9520   28.0190    7.1210 C   0  0  0  0  0
   61.3050   28.2390    6.7560 C   0  0  0  0  0
   62.3200   27.4990    7.3780 C   0  0  0  0  0
   61.9610   26.5680    8.3280 C   0  0  0  0  0
   60.6790   26.3570    8.6860 C   0  0  0  0  0
   64.1575   27.0446    7.6330 H   0  0  0  0  0
   59.4357   29.3472    5.8540 H   0  0  0  0  0
   59.2930   25.6954    9.7020 H   0  0  0  0  0
   61.8834   30.1159    6.1408 H   0  0  0  0  0
   61.8356   30.4257    2.6813 H   0  0  0  0  0
   62.5135   31.0882    4.0939 H   0  0  0  0  0
   60.4562   31.7716    4.9599 H   0  0  0  0  0
   59.5620   30.7417    3.7084 H   0  0  0  0  0
   61.7443   33.2363   -0.1435 H   0  0  0  0  0
   62.7488   34.9863    0.9144 H   0  0  0  0  0
   62.1064   32.8713    3.6878 H   0  0  0  0  0
   60.6246   33.2862    5.6743 H   0  0  0  0  0
   59.9856   35.7409    6.0915 H   0  0  0  0  0
   59.3415   35.3245    4.5494 H   0  0  0  0  0
   61.1847   37.5112    4.6229 H   0  0  0  0  0
   59.8451   35.9568    2.7033 H   0  0  0  0  0
   61.0758   36.8929    2.2131 H   0  0  0  0  0
   63.5259   36.2474    2.9235 H   0  0  0  0  0
   63.9042   34.7009    3.5263 H   0  0  0  0  0
   63.7887   37.5837    5.3763 H   0  0  0  0  0
   63.0054   36.7899    6.7645 H   0  0  0  0  0
   64.4370   36.0498    6.0071 H   0  0  0  0  0
   58.1068   32.4443    2.4851 H   0  0  0  0  0
   58.3959   33.5058    3.8854 H   0  0  0  0  0
   58.7417   34.0897    2.2390 H   0  0  0  0  0
   62.7432   25.9800    8.8081 H   0  0  0  0  0
   60.4413   25.6133    9.4466 H   0  0  0  0  0
 18  1  1  0  0  0
  1 23  1  0  0  0
 13  2  2  0  0  0
  9  3  2  0  0  0
 30  4  1  0  0  0
 28  5  1  0  0  0
 26  6  2  0  0  0
 26  7  1  0  0  0
  8  9  1  0  0  0
 29  8  1  0  0  0
  9 10  1  0  0  0
 10 11  1  0  0  0
 11 12  1  0  0  0
 12 13  1  0  0  0
 12 17  1  0  0  0
 12 25  1  0  0  0
 13 14  1  0  0  0
 14 15  2  0  0  0
 16 15  1  0  0  0
 17 16  1  0  0  0
 16 21  1  0  0  0
 16 22  1  0  0  0
 17 18  1  0  0  0
 18 19  1  0  0  0
 19 20  1  0  0  0
 21 20  1  0  0  0
 20 23  1  0  0  0
 22 23  1  0  0  0
 23 24  1  0  0  0
 27 26  1  0  0  0
 28 27  4  0  0  0
 27 32  4  0  0  0
 29 28  4  0  0  0
 29 30  4  0  0  0
 30 31  4  0  0  0
 31 32  4  0  0  0
  4 33  1  0  0  0
  5 34  1  0  0  0
  7 35  1  0  0  0
  8 36  1  0  0  0
 10 37  1  0  0  0
 10 38  1  0  0  0
 11 39  1  0  0  0
 11 40  1  0  0  0
 14 41  1  0  0  0
 15 42  1  0  0  0
 17 43  1  0  0  0
 18 44  1  0  0  0
 19 45  1  0  0  0
 19 46  1  0  0  0
 20 47  1  0  0  0
 21 48  1  0  0  0
 21 49  1  0  0  0
 22 50  1  0  0  0
 22 51  1  0  0  0
 24 52  1  0  0  0
 24 53  1  0  0  0
 24 54  1  0  0  0
 25 55  1  0  0  0
 25 56  1  0  0  0
 25 57  1  0  0  0
 31 58  1  0  0  0
 32 59  1  0  0  0
M  END
$$$$
