4kqr_ligand
  -I-interpret- 

 67 69  0  0  0  0  0  0  0  0999 V2000
   -6.9970    5.8930   24.0930 S   0  0  0  0  0
   -3.8090    4.5970   21.5850 O   0  0  0  0  0
   -7.6600    5.1410   19.5920 O   0  0  0  0  0
   -9.5320    6.1750   20.0620 O   0  0  0  0  0
   -2.1220    7.0410   24.7210 O   0  0  0  0  0
    0.8500    9.7590   22.0480 O   0  0  0  0  0
    1.5300    7.7660   25.4990 O   0  0  0  0  0
    3.8250    7.8540   26.7370 O   0  0  0  0  0
   -6.2990    6.2820   21.6460 N   0  3  0  0  0
   -3.4970    7.1120   22.8320 N   0  0  0  0  0
   -0.1720    8.4930   23.6810 N   0  0  0  0  0
    2.2520    9.0950   23.7530 N   0  0  0  0  0
    4.8720    8.7110   24.8380 N   0  0  0  0  0
   -5.8330    6.6400   22.9680 C   0  0  0  0  0
   -8.3260    5.6350   22.9310 C   0  0  0  0  0
   -7.7860    6.3340   21.6790 C   0  0  0  0  0
   -4.4300    6.1730   23.3250 C   0  0  0  0  0
   -4.1260    4.8070   22.7940 C   0  0  0  0  0
   -8.5370    4.1780   22.7140 C   0  0  0  0  0
   -9.6340    6.3020   23.4110 C   0  0  0  0  0
   -8.3470    5.8530   20.3680 C   0  0  0  0  0
   -2.3590    7.5110   23.6240 C   0  0  0  0  0
   -1.4530    8.5400   23.0300 C   0  0  0  0  0
   -2.1540    9.8580   23.1360 C   0  0  0  0  0
    0.9640    9.1530   23.0970 C   0  0  0  0  0
   -2.7730   10.4130   21.9940 C   0  0  0  0  0
   -2.1870   10.5460   24.3510 C   0  0  0  0  0
    3.3850    9.8160   23.1170 C   0  0  0  0  0
    4.7630    9.1830   23.4450 C   0  0  0  0  0
    2.4480    8.3600   24.9630 C   0  0  0  0  0
   -3.4390   11.6520   22.0800 C   0  0  0  0  0
   -2.8530   11.7800   24.4370 C   0  0  0  0  0
    3.7360    8.2980   25.5880 C   0  0  0  0  0
    6.2280    8.6690   25.4100 C   0  0  0  0  0
   -3.4840   12.3300   23.3020 C   0  0  0  0  0
    7.0450    7.6250   24.6770 C   0  0  0  0  0
   -4.1960    3.8510   23.6260 O   0  0  0  0  0
   -9.9063    6.7154   20.7616 H   0  0  0  0  0
   -5.9764    5.3487   21.3904 H   0  0  0  0  0
   -5.9310    6.9272   20.9469 H   0  0  0  0  0
   -3.6296    7.5133   21.9037 H   0  0  0  0  0
   -0.0686    7.9889   24.5617 H   0  0  0  0  0
   -5.7742    7.7271   23.0217 H   0  0  0  0  0
   -8.1335    7.3626   21.7757 H   0  0  0  0  0
   -4.3621    6.1046   24.4107 H   0  0  0  0  0
   -9.2556    4.0324   21.9075 H   0  0  0  0  0
   -7.5892    3.7108   22.4466 H   0  0  0  0  0
   -8.9202    3.7274   23.6295 H   0  0  0  0  0
   -9.4411    7.3483   23.6478 H   0  0  0  0  0
  -10.3833    6.2389   22.6219 H   0  0  0  0  0
   -9.9973    5.7878   24.3008 H   0  0  0  0  0
   -1.2428    8.3578   21.9761 H   0  0  0  0  0
   -2.7354    9.8813   21.0432 H   0  0  0  0  0
   -1.6974   10.1267   25.2300 H   0  0  0  0  0
    3.3875   10.8365   23.5000 H   0  0  0  0  0
    3.2455    9.7691   22.0370 H   0  0  0  0  0
    4.8917    8.3187   22.7935 H   0  0  0  0  0
    5.5218    9.9515   23.2974 H   0  0  0  0  0
   -3.9166   12.0796   21.1984 H   0  0  0  0  0
   -2.8822   12.3152   25.3861 H   0  0  0  0  0
    6.1712    8.4129   26.4680 H   0  0  0  0  0
    6.7008    9.6453   25.3030 H   0  0  0  0  0
   -4.0067   13.2835   23.3774 H   0  0  0  0  0
    6.5700    6.6502   24.7877 H   0  0  0  0  0
    7.1008    7.8854   23.6200 H   0  0  0  0  0
    8.0500    7.5908   25.0977 H   0  0  0  0  0
   -4.4477    4.1948   24.4863 H   0  0  0  0  0
 14  1  1  0  0  0
  1 15  1  0  0  0
 18  2  2  0  0  0
 21  3  2  0  0  0
 21  4  1  0  0  0
 22  5  2  0  0  0
 25  6  2  0  0  0
 30  7  2  0  0  0
 33  8  2  0  0  0
 14  9  1  0  0  0
  9 16  1  0  0  0
 10 17  1  0  0  0
 22 10  1  0  0  0
 11 23  1  0  0  0
 25 11  1  0  0  0
 12 25  1  0  0  0
 28 12  1  0  0  0
 12 30  1  0  0  0
 29 13  1  0  0  0
 13 33  1  0  0  0
 13 34  1  0  0  0
 17 14  1  0  0  0
 16 15  1  0  0  0
 15 19  1  0  0  0
 15 20  1  0  0  0
 16 21  1  0  0  0
 17 18  1  0  0  0
 18 37  1  0  0  0
 23 22  1  0  0  0
 23 24  1  0  0  0
 24 26  4  0  0  0
 24 27  4  0  0  0
 26 31  4  0  0  0
 27 32  4  0  0  0
 28 29  1  0  0  0
 30 33  1  0  0  0
 31 35  4  0  0  0
 32 35  4  0  0  0
 34 36  1  0  0  0
  4 38  1  0  0  0
  9 39  1  0  0  0
  9 40  1  0  0  0
 10 41  1  0  0  0
 11 42  1  0  0  0
 14 43  1  0  0  0
 16 44  1  0  0  0
 17 45  1  0  0  0
 19 46  1  0  0  0
 19 47  1  0  0  0
 19 48  1  0  0  0
 20 49  1  0  0  0
 20 50  1  0  0  0
 20 51  1  0  0  0
 23 52  1  0  0  0
 26 53  1  0  0  0
 27 54  1  0  0  0
 28 55  1  0  0  0
 28 56  1  0  0  0
 29 57  1  0  0  0
 29 58  1  0  0  0
 31 59  1  0  0  0
 32 60  1  0  0  0
 34 61  1  0  0  0
 34 62  1  0  0  0
 35 63  1  0  0  0
 36 64  1  0  0  0
 36 65  1  0  0  0
 36 66  1  0  0  0
 37 67  1  0  0  0
M  END
$$$$
