1a61_ligand
  -I-interpret- 

 72 75  0  0  0  0  0  0  0  0999 V2000
   19.0370  -15.6150   25.1650 C   0  0  0  0  0
   20.0690  -16.5970   25.1350 C   0  0  0  0  0
   21.3830  -16.2100   25.4730 C   0  0  0  0  0
   21.7440  -14.8830   25.7230 C   0  0  0  0  0
   20.7080  -13.9430   25.7400 C   0  0  0  0  0
   19.3550  -14.2880   25.4280 C   0  0  0  0  0
   15.5860  -16.5550   23.3450 N   0  3  0  0  0
   17.6880  -14.4220   21.7280 N   0  0  0  0  0
   18.7100  -15.2140   21.0630 N   0  3  0  0  0
   16.0220  -14.0220   23.2360 O   0  0  0  0  0
   17.6720  -16.2780   24.8000 C   0  0  0  0  0
   16.9120  -14.7780   22.7140 C   0  0  0  0  0
   17.0120  -16.1670   23.3240 C   0  0  0  0  0
   17.9490  -17.0910   22.5950 C   0  0  0  0  0
   19.0630  -16.4860   21.7100 C   0  0  0  0  0
   19.6960  -14.1920   20.7210 C   0  0  0  0  0
   18.6360  -13.2090   20.0030 C   0  0  0  0  0
   17.7120  -13.0190   21.1530 C   0  0  0  0  0
   16.4450  -12.9930   20.5090 C   0  0  0  0  0
   15.9560  -13.9920   19.7990 O   0  0  0  0  0
   15.3260  -12.0680   20.5520 N   0  0  0  0  0
   14.1450  -11.3480   20.0420 C   0  0  0  0  0
   14.3350  -10.5940   18.7500 C   0  0  0  0  0
   13.4310  -10.0020   18.1220 O   0  0  0  0  0
   13.1790  -10.7500   21.0510 C   0  0  0  0  0
   12.7560  -11.8500   21.9990 C   0  0  0  0  0
   11.8340  -11.2710   23.0490 C   0  0  0  0  0
   11.3950  -12.3040   23.9700 N   0  0  0  0  0
   10.5320  -12.0930   24.9790 C   0  0  0  0  0
   10.2130  -10.7730   25.0850 N   0  0  0  0  0
    9.5290  -12.9890   25.2030 N   0  0  0  0  0
   15.2430  -11.1340   17.6010 C   0  0  0  0  0
   16.6190  -10.9610   17.4630 N   0  0  0  0  0
   17.4270  -11.3970   16.3700 C   0  0  0  0  0
   16.5370  -11.9990   15.5410 C   0  0  0  0  0
   14.8770  -12.0620   16.1050 S   0  0  0  0  0
   19.8476  -17.6273   24.8563 H   0  0  0  0  0
   22.1510  -16.9803   25.5423 H   0  0  0  0  0
   22.7809  -14.5950   25.8961 H   0  0  0  0  0
   20.9400  -12.9103   26.0004 H   0  0  0  0  0
   18.5829  -13.5192   25.3970 H   0  0  0  0  0
   15.1993  -16.4752   22.4045 H   0  0  0  0  0
   15.5019  -17.5189   23.6678 H   0  0  0  0  0
   15.0762  -15.9378   23.9771 H   0  0  0  0  0
   18.4370  -15.7017   20.2097 H   0  0  0  0  0
   16.9594  -15.7499   25.4336 H   0  0  0  0  0
   17.8752  -17.3438   24.9042 H   0  0  0  0  0
   17.3140  -17.6469   21.9052 H   0  0  0  0  0
   18.4775  -17.6311   23.3806 H   0  0  0  0  0
   19.9128  -16.2852   22.3624 H   0  0  0  0  0
   19.2603  -17.2033   20.9134 H   0  0  0  0  0
   20.5578  -14.5088   20.1336 H   0  0  0  0  0
   20.2858  -13.7764   21.5380 H   0  0  0  0  0
   18.1776  -13.5991   19.0942 H   0  0  0  0  0
   19.0557  -12.2944   19.5842 H   0  0  0  0  0
   17.9399  -12.1942   21.8282 H   0  0  0  0  0
   15.4033  -11.6941   21.4979 H   0  0  0  0  0
   13.5366  -12.1940   19.7221 H   0  0  0  0  0
   14.8238   -9.9138   19.4475 H   0  0  0  0  0
   13.8017   -9.5994   17.3333 H   0  0  0  0  0
   12.3090  -10.3362   20.5410 H   0  0  0  0  0
   13.6608   -9.9421   21.6016 H   0  0  0  0  0
   13.6356  -12.2784   22.4794 H   0  0  0  0  0
   12.2359  -12.6316   21.4451 H   0  0  0  0  0
   10.9610  -10.8439   22.5554 H   0  0  0  0  0
   12.3721  -10.5053   23.6078 H   0  0  0  0  0
   11.7636  -13.2467   23.8439 H   0  0  0  0  0
   10.6215  -10.0962   24.4404 H   0  0  0  0  0
    8.5929  -12.6586   25.4373 H   0  0  0  0  0
    9.7148  -13.9897   25.1362 H   0  0  0  0  0
   18.5016  -11.2755   16.2338 H   0  0  0  0  0
   16.8361  -12.4189   14.5806 H   0  0  0  0  0
  1  2  4  0  0  0
  1  6  4  0  0  0
 11  1  1  0  0  0
  2  3  4  0  0  0
  3  4  4  0  0  0
  5  4  4  0  0  0
  6  5  4  0  0  0
 13  7  1  0  0  0
  8  9  1  0  0  0
 12  8  1  0  0  0
  8 18  1  0  0  0
  9 15  1  0  0  0
  9 16  1  0  0  0
 12 10  2  0  0  0
 13 11  1  0  0  0
 12 13  1  0  0  0
 13 14  1  0  0  0
 14 15  1  0  0  0
 16 17  1  0  0  0
 17 18  1  0  0  0
 18 19  1  0  0  0
 19 20  2  0  0  0
 19 21  1  0  0  0
 21 22  1  0  0  0
 22 23  1  0  0  0
 22 25  1  0  0  0
 23 24  1  0  0  0
 23 32  1  0  0  0
 25 26  1  0  0  0
 26 27  1  0  0  0
 27 28  1  0  0  0
 28 29  1  0  0  0
 29 30  2  0  0  0
 29 31  1  0  0  0
 32 33  4  0  0  0
 32 36  4  0  0  0
 33 34  4  0  0  0
 34 35  4  0  0  0
 35 36  4  0  0  0
  2 37  1  0  0  0
  3 38  1  0  0  0
  4 39  1  0  0  0
  5 40  1  0  0  0
  6 41  1  0  0  0
  7 42  1  0  0  0
  7 43  1  0  0  0
  7 44  1  0  0  0
  9 45  1  0  0  0
 11 46  1  0  0  0
 11 47  1  0  0  0
 14 48  1  0  0  0
 14 49  1  0  0  0
 15 50  1  0  0  0
 15 51  1  0  0  0
 16 52  1  0  0  0
 16 53  1  0  0  0
 17 54  1  0  0  0
 17 55  1  0  0  0
 18 56  1  0  0  0
 21 57  1  0  0  0
 22 58  1  0  0  0
 23 59  1  0  0  0
 24 60  1  0  0  0
 25 61  1  0  0  0
 25 62  1  0  0  0
 26 63  1  0  0  0
 26 64  1  0  0  0
 27 65  1  0  0  0
 27 66  1  0  0  0
 28 67  1  0  0  0
 30 68  1  0  0  0
 31 69  1  0  0  0
 31 70  1  0  0  0
 34 71  1  0  0  0
 35 72  1  0  0  0
M  END
$$$$
