### 
### Created by X-TOOL on Mon Sep 10 21:13:17 2018
### 

@<TRIPOS>MOLECULE
4os6_ligand
  194   196     1     0     0
SMALL
GAST_HUCK


@<TRIPOS>ATOM
      1 N          30.4750   21.6630  -12.5490 N.4       1 GLY         0.2357
      2 CA         30.1510   21.2330  -11.1650 C.3       1 GLY         0.0545
      3 C          30.7350   19.8670  -10.8640 C.2       1 GLY         0.2236
      4 O          31.7080   19.7660  -10.1120 O.2       1 GLY        -0.3910
      5 N          30.1370   18.8190  -11.4370 N.am      1 81R        -0.2612
      6 CA         30.6470   17.4370  -11.2630 C.3       1 81R         0.1321
      7 CB         30.3130   16.8040   -9.9590 C.3       1 81R         0.0010
      8 CG         28.8810   16.5500   -9.5840 C.3       1 81R         0.0294
      9 CD1        28.3240   17.7160   -8.7920 C.3       1 81R         0.0168
     10 SE         26.6400   17.7500   -8.8460 S.3       1 81R        -0.0918
     11 SD2        28.6850   15.1200   -8.6940 S.3       1 81R        -0.0885
     12 C          30.0930   16.6820  -12.3000 C.2       1 81R         0.2039
     13 O          28.9590   16.9220  -12.7440 O.2       1 81R        -0.3944
     14 N          30.8570   15.6940  -12.7800 N.am      1 LEU        -0.2637
     15 CA         30.4380   14.7730  -13.8380 C.3       1 LEU         0.1312
     16 C          30.6780   13.3260  -13.4290 C.2       1 LEU         0.2037
     17 O          31.5500   13.0510  -12.6010 O.2       1 LEU        -0.3944
     18 CB         31.2690   15.0060  -15.1080 C.3       1 LEU        -0.0101
     19 CG         30.9690   16.1790  -16.0260 C.3       1 LEU        -0.0425
     20 CD1        31.9250   16.1480  -17.2050 C.3       1 LEU        -0.0625
     21 CD2        29.5470   16.0990  -16.5160 C.3       1 LEU        -0.0625
     22 N          29.9270   12.4070  -14.0320 N.am      1 GLY        -0.2664
     23 CA         30.1900   10.9700  -13.8900 C.3       1 GLY         0.1201
     24 C          29.3000   10.2520  -12.8900 C.2       1 GLY         0.2007
     25 O          28.2840   10.7780  -12.4500 O.2       1 GLY        -0.3947
     26 N          29.6820    9.0220  -12.5620 N.am      1 ARG        -0.2640
     27 CA         28.9850    8.2430  -11.5500 C.3       1 ARG         0.1311
     28 C          29.0370    9.0170  -10.2470 C.2       1 ARG         0.2037
     29 O          30.1050    9.4220   -9.8160 O.2       1 ARG        -0.3944
     30 CB         29.6450    6.8840  -11.3680 C.3       1 ARG        -0.0092
     31 CG         29.4750    5.9860  -12.5760 C.3       1 ARG        -0.0156
     32 CD         30.4490    4.8290  -12.5240 C.3       1 ARG         0.0627
     33 NE         31.8020    5.2270  -12.8690 N.pl3     1 ARG        -0.2723
     34 CZ         32.8150    4.3710  -13.0010 C.cat     1 ARG         0.2882
     35 NH1        32.6220    3.0730  -12.7940 N.pl3     1 ARG        -0.2849
     36 NH2        34.0250    4.8120  -13.3210 N.pl3     1 ARG        -0.2849
     37 N          27.8730    9.2260   -9.6480 N.am      1 GLY        -0.2664
     38 CA         27.7500    9.9910   -8.4220 C.3       1 GLY         0.1201
     39 C          27.0060   11.2890   -8.6360 C.2       1 GLY         0.2008
     40 O          26.5190   11.8950   -7.6730 O.2       1 GLY        -0.3947
     41 N          26.9080   11.7090   -9.8980 N.am      1 CYS        -0.2631
     42 CA         26.3820   13.0200  -10.2640 C.3       1 CYS         0.1406
     43 C          25.0410   13.0040  -11.0210 C.2       1 CYS         0.2047
     44 O          24.4930   14.0640  -11.3370 O.2       1 CYS        -0.3944
     45 CB         27.4360   13.7630  -11.0910 C.3       1 CYS         0.0443
     46 SG         29.0340   13.8600  -10.2440 S.3       1 CYS        -0.0881
     47 N          24.5000   11.8190  -11.2950 N.am      1 GLU        -0.2636
     48 CA         23.2040   11.7050  -11.9700 C.3       1 GLU         0.1325
     49 C          22.1430   12.5010  -11.2320 C.2       1 GLU         0.2041
     50 O          22.1230   12.5100   -9.9880 O.2       1 GLU        -0.3944
     51 CB         22.7330   10.2520  -12.0150 C.3       1 GLU        -0.0008
     52 CG         23.5740    9.3190  -12.8840 C.3       1 GLU         0.0044
     53 CD         24.7500    8.6910  -12.1610 C.2       1 GLU         0.0350
     54 OE1        25.0660    9.0980  -11.0150 O.co2     1 GLU        -0.5690
     55 OE2        25.3620    7.7550  -12.7370 O.co2     1 GLU        -0.5690
     56 N          21.2570   13.1550  -11.9870 N.am      1 ASN        -0.2616
     57 CA         20.0680   13.7850  -11.4080 C.3       1 ASN         0.1476
     58 C          20.4440   14.8290  -10.3430 C.2       1 ASN         0.2063
     59 O          19.8050   14.9150   -9.2970 O.2       1 ASN        -0.3942
     60 CB         19.1590   12.6860  -10.8270 C.3       1 ASN         0.0773
     61 CG         17.7520   13.1540  -10.5340 C.2       1 ASN         0.1780
     62 OD1        17.1700   13.9380  -11.2810 O.2       1 ASN        -0.3970
     63 ND2        17.1810   12.6490   -9.4410 N.am      1 ASN        -0.3007
     64 N          21.5170   15.5790  -10.6150 N.am      1 HIS        -0.2623
     65 CA         21.9710   16.6790   -9.7680 C.3       1 HIS         0.1369
     66 C          21.8620   17.9900  -10.5170 C.2       1 HIS         0.2054
     67 O          22.1220   18.0560  -11.7250 O.2       1 HIS        -0.3942
     68 CB         23.4460   16.5200   -9.3810 C.3       1 HIS         0.0145
     69 CG         23.6790   15.6340   -8.1990 C.2       1 HIS        -0.0027
     70 ND1        23.4370   14.2760   -8.2230 N.2       1 HIS        -0.3252
     71 CD2        24.1660   15.9100   -6.9640 C.2       1 HIS         0.0291
     72 CE1        23.7510   13.7560   -7.0460 C.2       1 HIS         0.0907
     73 NE2        24.1930   14.7260   -6.2630 N.pl3     1 HIS        -0.2752
     74 N          21.5450   19.0440   -9.7760 N.am      1 ARG        -0.2636
     75 CA         21.5880   20.3980  -10.3190 C.3       1 ARG         0.1311
     76 C          22.9960   20.8180  -10.7700 C.2       1 ARG         0.2039
     77 O          23.1320   21.6060  -11.6950 O.2       1 ARG        -0.3944
     78 CB         21.0430   21.3880   -9.2850 C.3       1 ARG        -0.0092
     79 CG         19.5270   21.4300   -9.2530 C.3       1 ARG        -0.0156
     80 CD         19.0150   22.3910   -8.1920 C.3       1 ARG         0.0627
     81 NE         19.2790   21.8400   -6.8750 N.pl3     1 ARG        -0.2723
     82 CZ         18.5540   20.8770   -6.3050 C.cat     1 ARG         0.2882
     83 NH1        17.4870   20.3680   -6.9210 N.pl3     1 ARG        -0.2849
     84 NH2        18.8960   20.4270   -5.1070 N.pl3     1 ARG        -0.2849
     85 N          24.0430   20.2810  -10.1550 N.am      1 CYS        -0.2629
     86 CA         25.4100   20.6710  -10.5220 C.3       1 CYS         0.1406
     87 C          26.0700   19.7370  -11.5440 C.2       1 CYS         0.2047
     88 O          27.2760   19.8180  -11.7570 O.2       1 CYS        -0.3944
     89 CB         26.2880   20.7950   -9.2750 C.3       1 CYS         0.0443
     90 SG         26.0510   19.4960   -8.0530 S.3       1 CYS        -0.0883
     91 N          25.2850   18.8620  -12.1730 N.am      1 LEU        -0.2637
     92 CA         25.8120   17.9110  -13.1470 C.3       1 LEU         0.1309
     93 C          26.3560   18.6450  -14.3790 C.2       1 LEU         0.1992
     94 O          25.7160   19.5720  -14.8730 O.2       1 LEU        -0.3947
     95 CB         24.7070   16.9490  -13.5750 C.3       1 LEU        -0.0101
     96 CG         24.9770   15.9640  -14.7190 C.3       1 LEU        -0.0425
     97 CD1        26.1140   15.0200  -14.3960 C.3       1 LEU        -0.0625
     98 CD2        23.7090   15.1850  -15.0390 C.3       1 LEU        -0.0625
     99 N          27.5420   18.2130  -14.8780 N.am      1 NH2        -0.2990
    100 H          30.0750   22.5722  -12.7207 H         1 GLY         0.2012
    101 H          30.0942   20.9991  -13.2050 H         1 GLY         0.2012
    102 H          31.4757   21.7097  -12.6608 H         1 GLY         0.2012
    103 H          29.0580   21.1891  -11.0496 H         1 GLY         0.1061
    104 H          30.5656   21.9645  -10.4558 H         1 GLY         0.1061
    105 H          29.3234   18.9702  -11.9985 H         1 81R         0.1884
    106 H          31.7425   17.4535  -11.3610 H         1 81R         0.0800
    107 H          30.7345   17.4517   -9.1762 H         1 81R         0.0323
    108 H          30.8219   15.8290   -9.9415 H         1 81R         0.0323
    109 H          28.3020   16.4536  -10.5143 H         1 81R         0.0431
    110 H          28.7142   18.6539   -9.2140 H         1 81R         0.0396
    111 H          28.6463   17.6232   -7.7444 H         1 81R         0.0396
    112 H          31.7712   15.5774  -12.3919 H         1 LEU         0.1883
    113 H          29.3704   14.9303  -14.0513 H         1 LEU         0.0800
    114 H          31.1719   14.0962  -15.7186 H         1 LEU         0.0315
    115 H          32.3138   15.1200  -14.7835 H         1 LEU         0.0315
    116 H          31.1067   17.1188  -15.4712 H         1 LEU         0.0298
    117 H          31.7114   16.9958  -17.8726 H         1 LEU         0.0232
    118 H          31.7961   15.2052  -17.7569 H         1 LEU         0.0232
    119 H          32.9601   16.2206  -16.8398 H         1 LEU         0.0232
    120 H          28.8611   16.1220  -15.6563 H         1 LEU         0.0232
    121 H          29.4037   15.1622  -17.0744 H         1 LEU         0.0232
    122 H          29.3376   16.9544  -17.1751 H         1 LEU         0.0232
    123 H          29.1595   12.7051  -14.5996 H         1 GLY         0.1881
    124 H          31.2347   10.8440  -13.5695 H         1 GLY         0.0763
    125 H          30.0486   10.4980  -14.8735 H         1 GLY         0.0763
    126 H          30.4721    8.6199  -13.0246 H         1 ARG         0.1883
    127 H          27.9379    8.0981  -11.8541 H         1 ARG         0.0800
    128 H          29.1955    6.3884  -10.4949 H         1 ARG         0.0313
    129 H          30.7199    7.0356  -11.1905 H         1 ARG         0.0313
    130 H          29.6578    6.5710  -13.4894 H         1 ARG         0.0301
    131 H          28.4478    5.5927  -12.5919 H         1 ARG         0.0301
    132 H          30.1170    4.0559  -13.2325 H         1 ARG         0.0689
    133 H          30.4518    4.4154  -11.5047 H         1 ARG         0.0689
    134 H          31.9898    6.2284  -13.0204 H         1 ARG         0.2642
    135 H          33.4061    2.4130  -12.8965 H         1 ARG         0.2615
    136 H          31.6883    2.7267  -12.5310 H         1 ARG         0.2615
    137 H          34.1807    5.8173  -13.4827 H         1 ARG         0.2615
    138 H          34.8085    4.1490  -13.4077 H         1 ARG         0.2615
    139 H          27.0464    8.8406  -10.0580 H         1 GLY         0.1881
    140 H          28.7572   10.2176   -8.0424 H         1 GLY         0.0763
    141 H          27.2057    9.3880   -7.6804 H         1 GLY         0.0763
    142 H          27.2094   11.0961  -10.6284 H         1 CYS         0.1884
    143 H          26.2185   13.5778   -9.3301 H         1 CYS         0.0808
    144 H          27.0768   14.7842  -11.2860 H         1 CYS         0.0432
    145 H          27.5736   13.2341  -12.0456 H         1 CYS         0.0432
    146 H          24.9894   10.9869  -11.0341 H         1 GLU         0.1883
    147 H          23.3043   12.0891  -12.9959 H         1 GLU         0.0801
    148 H          21.7034   10.2405  -12.4021 H         1 GLU         0.0330
    149 H          22.7428    9.8597  -10.9874 H         1 GLU         0.0330
    150 H          23.9612    9.8965  -13.7364 H         1 GLU         0.0433
    151 H          22.9244    8.5116  -13.2529 H         1 GLU         0.0433
    152 H          21.4091   13.2163  -12.9735 H         1 ASN         0.1885
    153 H          19.5212   14.3016  -12.2105 H         1 ASN         0.0826
    154 H          19.6069   12.3242   -9.8898 H         1 ASN         0.0551
    155 H          19.1065   11.8598  -11.5513 H         1 ASN         0.0551
    156 H          16.2508   12.9193   -9.1925 H         1 ASN         0.1814
    157 H          17.6827   11.9998   -8.8693 H         1 ASN         0.1814
    158 H          22.0375   15.3756  -11.4443 H         1 HIS         0.1885
    159 H          21.3508   16.7115   -8.8601 H         1 HIS         0.0817
    160 H          23.8511   17.5163   -9.1501 H         1 HIS         0.0420
    161 H          23.9843   16.0956  -10.2413 H         1 HIS         0.0420
    162 H          24.4776   16.8863   -6.5956 H         1 HIS         0.0729
    163 H          23.6605   12.7066   -6.7695 H         1 HIS         0.1199
    164 H          24.5061   14.6136   -5.2882 H         1 HIS         0.2361
    165 H          21.2705   18.9076   -8.8241 H         1 ARG         0.1883
    166 H          20.9328   20.4262  -11.2021 H         1 ARG         0.0800
    167 H          21.4172   22.3931   -9.5295 H         1 ARG         0.0313
    168 H          21.4074   21.0930   -8.2899 H         1 ARG         0.0313
    169 H          19.1467   20.4213   -9.0341 H         1 ARG         0.0301
    170 H          19.1582   21.7555  -10.2369 H         1 ARG         0.0301
    171 H          17.9319   22.5351   -8.3192 H         1 ARG         0.0689
    172 H          19.5282   23.3585   -8.2947 H         1 ARG         0.0689
    173 H          20.0784   22.2176   -6.3465 H         1 ARG         0.2642
    174 H          16.9368   19.6244   -6.4680 H         1 ARG         0.2615
    175 H          17.2128   20.7183   -7.8500 H         1 ARG         0.2615
    176 H          19.7194   20.8166   -4.6263 H         1 ARG         0.2615
    177 H          18.3385   19.6875   -4.6562 H         1 ARG         0.2615
    178 H          23.8989   19.6034   -9.4338 H         1 CYS         0.1884
    179 H          25.3466   21.6657  -10.9873 H         1 CYS         0.0808
    180 H          26.0672   21.7601   -8.7956 H         1 CYS         0.0432
    181 H          27.3405   20.7764   -9.5943 H         1 CYS         0.0432
    182 H          24.3055   18.8570  -11.9714 H         1 LEU         0.1883
    183 H          26.6285   17.3392  -12.6819 H         1 LEU         0.0800
    184 H          23.8448   17.5624  -13.8754 H         1 LEU         0.0315
    185 H          24.4411   16.3506  -12.6912 H         1 LEU         0.0315
    186 H          25.2611   16.5442  -15.6093 H         1 LEU         0.0298
    187 H          26.2722   14.3339  -15.2411 H         1 LEU         0.0232
    188 H          25.8647   14.4404  -13.4949 H         1 LEU         0.0232
    189 H          27.0319   15.5992  -14.2172 H         1 LEU         0.0232
    190 H          22.8954   15.8881  -15.2707 H         1 LEU         0.0232
    191 H          23.4269   14.5711  -14.1710 H         1 LEU         0.0232
    192 H          23.8883   14.5330  -15.9066 H         1 LEU         0.0232
    193 H          27.9390   18.6587  -15.6803 H         1 NH2         0.1815
    194 H          28.0188   17.4490  -14.4433 H         1 NH2         0.1815
@<TRIPOS>BOND
     1    1    2 1  
     2    2    3 1  
     3    3    4 2  
     4    3    5 am 
     5    5    6 1  
     6    6    7 1  
     7    6   12 1  
     8    7    8 1  
     9    8    9 1  
    10    8   11 1  
    11    9   10 1  
    12   10   90 1  
    13   11   46 1  
    14   12   13 2  
    15   12   14 am 
    16   14   15 1  
    17   15   16 1  
    18   15   18 1  
    19   16   17 2  
    20   16   22 am 
    21   18   19 1  
    22   19   20 1  
    23   19   21 1  
    24   22   23 1  
    25   23   24 1  
    26   24   25 2  
    27   24   26 am 
    28   26   27 1  
    29   27   28 1  
    30   27   30 1  
    31   28   29 2  
    32   28   37 am 
    33   30   31 1  
    34   31   32 1  
    35   32   33 1  
    36   33   34 ar 
    37   34   35 ar 
    38   34   36 ar 
    39   37   38 1  
    40   38   39 1  
    41   39   40 2  
    42   39   41 am 
    43   41   42 1  
    44   42   43 1  
    45   42   45 1  
    46   43   44 2  
    47   43   47 am 
    48   45   46 1  
    49   47   48 1  
    50   48   49 1  
    51   48   51 1  
    52   49   50 2  
    53   49   56 am 
    54   51   52 1  
    55   52   53 1  
    56   53   54 ar 
    57   53   55 ar 
    58   56   57 1  
    59   57   58 1  
    60   57   60 1  
    61   58   59 2  
    62   58   64 am 
    63   60   61 1  
    64   61   62 2  
    65   61   63 am 
    66   64   65 1  
    67   65   66 1  
    68   65   68 1  
    69   66   67 2  
    70   66   74 am 
    71   68   69 1  
    72   69   70 1  
    73   69   71 2  
    74   70   72 2  
    75   71   73 1  
    76   72   73 1  
    77   74   75 1  
    78   75   76 1  
    79   75   78 1  
    80   76   77 2  
    81   76   85 am 
    82   78   79 1  
    83   79   80 1  
    84   80   81 1  
    85   81   82 ar 
    86   82   83 ar 
    87   82   84 ar 
    88   85   86 1  
    89   86   87 1  
    90   86   89 1  
    91   87   88 2  
    92   87   91 am 
    93   89   90 1  
    94   91   92 1  
    95   92   93 1  
    96   92   95 1  
    97   93   94 2  
    98   93   99 am 
    99   95   96 1  
   100   96   97 1  
   101   96   98 1  
   102    1  100 1  
   103    1  101 1  
   104    1  102 1  
   105    2  103 1  
   106    2  104 1  
   107    5  105 1  
   108    6  106 1  
   109    7  107 1  
   110    7  108 1  
   111    8  109 1  
   112    9  110 1  
   113    9  111 1  
   114   14  112 1  
   115   15  113 1  
   116   18  114 1  
   117   18  115 1  
   118   19  116 1  
   119   20  117 1  
   120   20  118 1  
   121   20  119 1  
   122   21  120 1  
   123   21  121 1  
   124   21  122 1  
   125   22  123 1  
   126   23  124 1  
   127   23  125 1  
   128   26  126 1  
   129   27  127 1  
   130   30  128 1  
   131   30  129 1  
   132   31  130 1  
   133   31  131 1  
   134   32  132 1  
   135   32  133 1  
   136   33  134 1  
   137   35  135 1  
   138   35  136 1  
   139   36  137 1  
   140   36  138 1  
   141   37  139 1  
   142   38  140 1  
   143   38  141 1  
   144   41  142 1  
   145   42  143 1  
   146   45  144 1  
   147   45  145 1  
   148   47  146 1  
   149   48  147 1  
   150   51  148 1  
   151   51  149 1  
   152   52  150 1  
   153   52  151 1  
   154   56  152 1  
   155   57  153 1  
   156   60  154 1  
   157   60  155 1  
   158   63  156 1  
   159   63  157 1  
   160   64  158 1  
   161   65  159 1  
   162   68  160 1  
   163   68  161 1  
   164   71  162 1  
   165   72  163 1  
   166   73  164 1  
   167   74  165 1  
   168   75  166 1  
   169   78  167 1  
   170   78  168 1  
   171   79  169 1  
   172   79  170 1  
   173   80  171 1  
   174   80  172 1  
   175   81  173 1  
   176   83  174 1  
   177   83  175 1  
   178   84  176 1  
   179   84  177 1  
   180   85  178 1  
   181   86  179 1  
   182   89  180 1  
   183   89  181 1  
   184   91  182 1  
   185   92  183 1  
   186   95  184 1  
   187   95  185 1  
   188   96  186 1  
   189   97  187 1  
   190   97  188 1  
   191   97  189 1  
   192   98  190 1  
   193   98  191 1  
   194   98  192 1  
   195   99  193 1  
   196   99  194 1  
@<TRIPOS>SUBSTRUCTURE
     1 GLY         1

