4os6_ligand
  -I-interpret- 

192194  0  0  0  0  0  0  0  0999 V2000
   30.4750   21.6630  -12.5490 N   0  3  0  0  0
   30.1510   21.2330  -11.1650 C   0  0  0  0  0
   30.7350   19.8670  -10.8640 C   0  0  0  0  0
   31.7080   19.7660  -10.1120 O   0  0  0  0  0
   30.1370   18.8190  -11.4370 N   0  0  0  0  0
   30.6470   17.4370  -11.2630 C   0  0  0  0  0
   30.3130   16.8040   -9.9590 C   0  0  0  0  0
   28.8810   16.5500   -9.5840 C   0  0  0  0  0
   28.3240   17.7160   -8.7920 C   0  0  0  0  0
   26.6400   17.7500   -8.8460 S   0  0  0  0  0
   28.6850   15.1200   -8.6940 S   0  0  0  0  0
   30.0930   16.6820  -12.3000 C   0  0  0  0  0
   28.9590   16.9220  -12.7440 O   0  0  0  0  0
   30.8570   15.6940  -12.7800 N   0  0  0  0  0
   30.4380   14.7730  -13.8380 C   0  0  0  0  0
   30.6780   13.3260  -13.4290 C   0  0  0  0  0
   31.5500   13.0510  -12.6010 O   0  0  0  0  0
   31.2690   15.0060  -15.1080 C   0  0  0  0  0
   30.9690   16.1790  -16.0260 C   0  0  0  0  0
   31.9250   16.1480  -17.2050 C   0  0  0  0  0
   29.5470   16.0990  -16.5160 C   0  0  0  0  0
   29.9270   12.4070  -14.0320 N   0  0  0  0  0
   30.1900   10.9700  -13.8900 C   0  0  0  0  0
   29.3000   10.2520  -12.8900 C   0  0  0  0  0
   28.2840   10.7780  -12.4500 O   0  0  0  0  0
   29.6820    9.0220  -12.5620 N   0  0  0  0  0
   28.9850    8.2430  -11.5500 C   0  0  0  0  0
   29.0370    9.0170  -10.2470 C   0  0  0  0  0
   30.1050    9.4220   -9.8160 O   0  0  0  0  0
   29.6450    6.8840  -11.3680 C   0  0  0  0  0
   29.4750    5.9860  -12.5760 C   0  0  0  0  0
   30.4490    4.8290  -12.5240 C   0  0  0  0  0
   31.8020    5.2270  -12.8690 N   0  0  0  0  0
   32.8150    4.3710  -13.0010 C   0  0  0  0  0
   32.6220    3.0730  -12.7940 N   0  0  0  0  0
   34.0250    4.8120  -13.3210 N   0  0  0  0  0
   27.8730    9.2260   -9.6480 N   0  0  0  0  0
   27.7500    9.9910   -8.4220 C   0  0  0  0  0
   27.0060   11.2890   -8.6360 C   0  0  0  0  0
   26.5190   11.8950   -7.6730 O   0  0  0  0  0
   26.9080   11.7090   -9.8980 N   0  0  0  0  0
   26.3820   13.0200  -10.2640 C   0  0  0  0  0
   25.0410   13.0040  -11.0210 C   0  0  0  0  0
   24.4930   14.0640  -11.3370 O   0  0  0  0  0
   27.4360   13.7630  -11.0910 C   0  0  0  0  0
   29.0340   13.8600  -10.2440 S   0  0  0  0  0
   24.5000   11.8190  -11.2950 N   0  0  0  0  0
   23.2040   11.7050  -11.9700 C   0  0  0  0  0
   22.1430   12.5010  -11.2320 C   0  0  0  0  0
   22.1230   12.5100   -9.9880 O   0  0  0  0  0
   22.7330   10.2520  -12.0150 C   0  0  0  0  0
   23.5740    9.3190  -12.8840 C   0  0  0  0  0
   24.7500    8.6910  -12.1610 C   0  0  0  0  0
   25.0660    9.0980  -11.0150 O   0  0  0  0  0
   25.3620    7.7550  -12.7370 O   0  0  0  0  0
   21.2570   13.1550  -11.9870 N   0  0  0  0  0
   20.0680   13.7850  -11.4080 C   0  0  0  0  0
   20.4440   14.8290  -10.3430 C   0  0  0  0  0
   19.8050   14.9150   -9.2970 O   0  0  0  0  0
   19.1590   12.6860  -10.8270 C   0  0  0  0  0
   17.7520   13.1540  -10.5340 C   0  0  0  0  0
   17.1700   13.9380  -11.2810 O   0  0  0  0  0
   17.1810   12.6490   -9.4410 N   0  0  0  0  0
   21.5170   15.5790  -10.6150 N   0  0  0  0  0
   21.9710   16.6790   -9.7680 C   0  0  0  0  0
   21.8620   17.9900  -10.5170 C   0  0  0  0  0
   22.1220   18.0560  -11.7250 O   0  0  0  0  0
   23.4460   16.5200   -9.3810 C   0  0  0  0  0
   23.6790   15.6340   -8.1990 C   0  0  0  0  0
   23.4370   14.2760   -8.2230 N   0  0  0  0  0
   24.1660   15.9100   -6.9640 C   0  0  0  0  0
   23.7510   13.7560   -7.0460 C   0  0  0  0  0
   24.1930   14.7260   -6.2630 N   0  0  0  0  0
   21.5450   19.0440   -9.7760 N   0  0  0  0  0
   21.5880   20.3980  -10.3190 C   0  0  0  0  0
   22.9960   20.8180  -10.7700 C   0  0  0  0  0
   23.1320   21.6060  -11.6950 O   0  0  0  0  0
   21.0430   21.3880   -9.2850 C   0  0  0  0  0
   19.5270   21.4300   -9.2530 C   0  0  0  0  0
   19.0150   22.3910   -8.1920 C   0  0  0  0  0
   19.2790   21.8400   -6.8750 N   0  0  0  0  0
   18.5540   20.8770   -6.3050 C   0  0  0  0  0
   17.4870   20.3680   -6.9210 N   0  0  0  0  0
   18.8960   20.4270   -5.1070 N   0  0  0  0  0
   24.0430   20.2810  -10.1550 N   0  0  0  0  0
   25.4100   20.6710  -10.5220 C   0  0  0  0  0
   26.0700   19.7370  -11.5440 C   0  0  0  0  0
   27.2760   19.8180  -11.7570 O   0  0  0  0  0
   26.2880   20.7950   -9.2750 C   0  0  0  0  0
   26.0510   19.4960   -8.0530 S   0  0  0  0  0
   25.2850   18.8620  -12.1730 N   0  0  0  0  0
   25.8120   17.9110  -13.1470 C   0  0  0  0  0
   26.3560   18.6450  -14.3790 C   0  0  0  0  0
   25.7160   19.5720  -14.8730 O   0  0  0  0  0
   24.7070   16.9490  -13.5750 C   0  0  0  0  0
   24.9770   15.9640  -14.7190 C   0  0  0  0  0
   26.1140   15.0200  -14.3960 C   0  0  0  0  0
   23.7090   15.1850  -15.0390 C   0  0  0  0  0
   27.5420   18.2130  -14.8780 N   0  0  0  0  0
   30.0698   22.5830  -12.7216 H   0  0  0  0  0
   31.4878   21.7098  -12.6609 H   0  0  0  0  0
   30.0892   20.9905  -13.2118 H   0  0  0  0  0
   29.0672   21.1781  -11.0627 H   0  0  0  0  0
   30.5770   21.9546  -10.4679 H   0  0  0  0  0
   29.3072   18.9732  -12.0097 H   0  0  0  0  0
   31.7361   17.4756  -11.2824 H   0  0  0  0  0
   30.6642   17.5184   -9.2145 H   0  0  0  0  0
   30.7563   15.8101  -10.0202 H   0  0  0  0  0
   28.3303   16.4386  -10.5180 H   0  0  0  0  0
   28.7024   18.6412   -9.2267 H   0  0  0  0  0
   28.6342   17.6074   -7.7527 H   0  0  0  0  0
   31.7895   15.5751  -12.3841 H   0  0  0  0  0
   29.3780   14.9553  -14.0147 H   0  0  0  0  0
   31.0694   14.1281  -15.7225 H   0  0  0  0  0
   32.2737   15.2078  -14.7365 H   0  0  0  0  0
   31.0980   17.1117  -15.4769 H   0  0  0  0  0
   32.9502   16.2200  -16.8418 H   0  0  0  0  0
   31.7964   15.2134  -17.7510 H   0  0  0  0  0
   31.7124   16.9884  -17.8657 H   0  0  0  0  0
   29.4050   15.1679  -17.0647 H   0  0  0  0  0
   28.8682   16.1271  -15.6636 H   0  0  0  0  0
   29.3424   16.9443  -17.1731 H   0  0  0  0  0
   29.1442   12.7110  -14.6109 H   0  0  0  0  0
   31.2137   10.8710  -13.5290 H   0  0  0  0  0
   30.0002   10.5171  -14.8631 H   0  0  0  0  0
   30.4879    8.6119  -13.0339 H   0  0  0  0  0
   27.9530    8.0765  -11.8587 H   0  0  0  0  0
   29.1727    6.3935  -10.5169 H   0  0  0  0  0
   30.7124    7.0472  -11.2195 H   0  0  0  0  0
   29.6671    6.5680  -13.4774 H   0  0  0  0  0
   28.4590    5.5912  -12.5813 H   0  0  0  0  0
   30.1230    4.0816  -13.2473 H   0  0  0  0  0
   30.4608    4.4443  -11.5042 H   0  0  0  0  0
   31.9879    6.2186  -13.0190 H   0  0  0  0  0
   33.4017    2.4212  -12.8813 H   0  0  0  0  0
   31.6941    2.7282  -12.5478 H   0  0  0  0  0
   34.1823    5.8092  -13.4669 H   0  0  0  0  0
   27.0298    8.8329  -10.0662 H   0  0  0  0  0
   28.7527   10.2278   -8.0663 H   0  0  0  0  0
   27.1914    9.3930   -7.7020 H   0  0  0  0  0
   27.2155   11.0839  -10.6431 H   0  0  0  0  0
   26.1682   13.5300   -9.3247 H   0  0  0  0  0
   27.0797   14.7796  -11.2571 H   0  0  0  0  0
   27.5805   13.2166  -12.0230 H   0  0  0  0  0
   24.9992   10.9702  -11.0289 H   0  0  0  0  0
   23.3396   12.0893  -12.9810 H   0  0  0  0  0
   21.7320   10.2619  -12.4463 H   0  0  0  0  0
   22.7979    9.8715  -10.9956 H   0  0  0  0  0
   23.9795    9.9170  -13.7001 H   0  0  0  0  0
   22.9235    8.5065  -13.2077 H   0  0  0  0  0
   24.9674    7.5983  -13.5980 H   0  0  0  0  0
   21.4121   13.2176  -12.9932 H   0  0  0  0  0
   19.5291   14.3227  -12.1881 H   0  0  0  0  0
   19.5989   12.3642   -9.8830 H   0  0  0  0  0
   19.0904   11.8924  -11.5710 H   0  0  0  0  0
   16.2256   12.9104   -9.1976 H   0  0  0  0  0
   17.6993   12.0011   -8.8478 H   0  0  0  0  0
   22.0479   15.3715  -11.4608 H   0  0  0  0  0
   21.3433   16.6690   -8.8769 H   0  0  0  0  0
   23.8175   17.5104   -9.1181 H   0  0  0  0  0
   23.9533   16.0623  -10.2303 H   0  0  0  0  0
   24.4779   16.8872   -6.5953 H   0  0  0  0  0
   23.6604   12.7056   -6.7693 H   0  0  0  0  0
   21.2650   18.9048   -8.8051 H   0  0  0  0  0
   20.9604   20.4076  -11.2101 H   0  0  0  0  0
   21.3987   22.3823   -9.5551 H   0  0  0  0  0
   21.3888   21.0680   -8.3021 H   0  0  0  0  0
   19.1601   20.4309   -9.0181 H   0  0  0  0  0
   19.1717   21.7703  -10.2256 H   0  0  0  0  0
   17.9419   22.5346   -8.3182 H   0  0  0  0  0
   19.5228   23.3501   -8.2939 H   0  0  0  0  0
   20.0707   22.2139   -6.3517 H   0  0  0  0  0
   16.9386   19.6359   -6.4698 H   0  0  0  0  0
   17.2190   20.7107   -7.8436 H   0  0  0  0  0
   19.7080   20.8170   -4.6284 H   0  0  0  0  0
   23.8960   19.5898   -9.4194 H   0  0  0  0  0
   25.3207   21.6417  -11.0096 H   0  0  0  0  0
   26.0216   21.7355   -8.7927 H   0  0  0  0  0
   27.3234   20.7298   -9.6093 H   0  0  0  0  0
   24.2859   18.8569  -11.9674 H   0  0  0  0  0
   26.6259   17.3540  -12.6829 H   0  0  0  0  0
   23.9045   17.5895  -13.9408 H   0  0  0  0  0
   24.5285   16.3216  -12.7018 H   0  0  0  0  0
   25.2776   16.5403  -15.5940 H   0  0  0  0  0
   27.0229   15.5951  -14.2190 H   0  0  0  0  0
   25.8658   14.4464  -13.5030 H   0  0  0  0  0
   26.2698   14.3407  -15.2341 H   0  0  0  0  0
   23.3905   14.6328  -14.1548 H   0  0  0  0  0
   22.9235   15.8790  -15.3381 H   0  0  0  0  0
   23.9083   14.4873  -15.8524 H   0  0  0  0  0
   27.9428   18.6622  -15.7014 H   0  0  0  0  0
   28.0324   17.4392  -14.4296 H   0  0  0  0  0
  1  2  1  0  0  0
  2  3  1  0  0  0
  3  4  2  0  0  0
  3  5  1  0  0  0
  5  6  1  0  0  0
  6  7  1  0  0  0
  6 12  1  0  0  0
  7  8  1  0  0  0
  8  9  1  0  0  0
  8 11  1  0  0  0
  9 10  1  0  0  0
 10 90  1  0  0  0
 11 46  1  0  0  0
 12 13  2  0  0  0
 12 14  1  0  0  0
 14 15  1  0  0  0
 15 16  1  0  0  0
 15 18  1  0  0  0
 16 17  2  0  0  0
 16 22  1  0  0  0
 18 19  1  0  0  0
 19 20  1  0  0  0
 19 21  1  0  0  0
 22 23  1  0  0  0
 23 24  1  0  0  0
 24 25  2  0  0  0
 24 26  1  0  0  0
 26 27  1  0  0  0
 27 28  1  0  0  0
 27 30  1  0  0  0
 28 29  2  0  0  0
 28 37  1  0  0  0
 30 31  1  0  0  0
 31 32  1  0  0  0
 32 33  1  0  0  0
 33 34  1  0  0  0
 34 35  1  0  0  0
 34 36  2  0  0  0
 37 38  1  0  0  0
 38 39  1  0  0  0
 39 40  2  0  0  0
 39 41  1  0  0  0
 41 42  1  0  0  0
 42 43  1  0  0  0
 42 45  1  0  0  0
 43 44  2  0  0  0
 43 47  1  0  0  0
 45 46  1  0  0  0
 47 48  1  0  0  0
 48 49  1  0  0  0
 48 51  1  0  0  0
 49 50  2  0  0  0
 49 56  1  0  0  0
 51 52  1  0  0  0
 52 53  1  0  0  0
 53 54  2  0  0  0
 53 55  1  0  0  0
 56 57  1  0  0  0
 57 58  1  0  0  0
 57 60  1  0  0  0
 58 59  2  0  0  0
 58 64  1  0  0  0
 60 61  1  0  0  0
 61 62  2  0  0  0
 61 63  1  0  0  0
 64 65  1  0  0  0
 65 66  1  0  0  0
 65 68  1  0  0  0
 66 67  2  0  0  0
 66 74  1  0  0  0
 68 69  1  0  0  0
 69 70  4  0  0  0
 69 71  4  0  0  0
 70 72  4  0  0  0
 71 73  4  0  0  0
 72 73  4  0  0  0
 74 75  1  0  0  0
 75 76  1  0  0  0
 75 78  1  0  0  0
 76 77  2  0  0  0
 76 85  1  0  0  0
 78 79  1  0  0  0
 79 80  1  0  0  0
 80 81  1  0  0  0
 81 82  1  0  0  0
 82 83  1  0  0  0
 82 84  2  0  0  0
 85 86  1  0  0  0
 86 87  1  0  0  0
 86 89  1  0  0  0
 87 88  2  0  0  0
 87 91  1  0  0  0
 89 90  1  0  0  0
 91 92  1  0  0  0
 92 93  1  0  0  0
 92 95  1  0  0  0
 93 94  2  0  0  0
 93 99  1  0  0  0
 95 96  1  0  0  0
 96 97  1  0  0  0
 96 98  1  0  0  0
  1100  1  0  0  0
  1101  1  0  0  0
  1102  1  0  0  0
  2103  1  0  0  0
  2104  1  0  0  0
  5105  1  0  0  0
  6106  1  0  0  0
  7107  1  0  0  0
  7108  1  0  0  0
  8109  1  0  0  0
  9110  1  0  0  0
  9111  1  0  0  0
 14112  1  0  0  0
 15113  1  0  0  0
 18114  1  0  0  0
 18115  1  0  0  0
 19116  1  0  0  0
 20117  1  0  0  0
 20118  1  0  0  0
 20119  1  0  0  0
 21120  1  0  0  0
 21121  1  0  0  0
 21122  1  0  0  0
 22123  1  0  0  0
 23124  1  0  0  0
 23125  1  0  0  0
 26126  1  0  0  0
 27127  1  0  0  0
 30128  1  0  0  0
 30129  1  0  0  0
 31130  1  0  0  0
 31131  1  0  0  0
 32132  1  0  0  0
 32133  1  0  0  0
 33134  1  0  0  0
 35135  1  0  0  0
 35136  1  0  0  0
 36137  1  0  0  0
 37138  1  0  0  0
 38139  1  0  0  0
 38140  1  0  0  0
 41141  1  0  0  0
 42142  1  0  0  0
 45143  1  0  0  0
 45144  1  0  0  0
 47145  1  0  0  0
 48146  1  0  0  0
 51147  1  0  0  0
 51148  1  0  0  0
 52149  1  0  0  0
 52150  1  0  0  0
 55151  1  0  0  0
 56152  1  0  0  0
 57153  1  0  0  0
 60154  1  0  0  0
 60155  1  0  0  0
 63156  1  0  0  0
 63157  1  0  0  0
 64158  1  0  0  0
 65159  1  0  0  0
 68160  1  0  0  0
 68161  1  0  0  0
 71162  1  0  0  0
 72163  1  0  0  0
 74164  1  0  0  0
 75165  1  0  0  0
 78166  1  0  0  0
 78167  1  0  0  0
 79168  1  0  0  0
 79169  1  0  0  0
 80170  1  0  0  0
 80171  1  0  0  0
 81172  1  0  0  0
 83173  1  0  0  0
 83174  1  0  0  0
 84175  1  0  0  0
 85176  1  0  0  0
 86177  1  0  0  0
 89178  1  0  0  0
 89179  1  0  0  0
 91180  1  0  0  0
 92181  1  0  0  0
 95182  1  0  0  0
 95183  1  0  0  0
 96184  1  0  0  0
 97185  1  0  0  0
 97186  1  0  0  0
 97187  1  0  0  0
 98188  1  0  0  0
 98189  1  0  0  0
 98190  1  0  0  0
 99191  1  0  0  0
 99192  1  0  0  0
M  END
$$$$
