4q81_ligand
  -I-interpret- 

 19 19  0  0  0  0  0  0  0  0999 V2000
   17.0950    1.3910   12.4500 C   0  0  0  0  0
   16.3690    1.8500   13.6830 C   0  0  0  0  0
   15.9930    3.1580   13.8090 C   0  0  0  0  0
   15.3690    3.5910   14.9640 C   0  0  0  0  0
   14.9470    5.0430   15.1000 C   0  0  0  0  0
   15.0720    2.6980   15.9530 C   0  0  0  0  0
   15.4410    1.3790   15.8200 C   0  0  0  0  0
   15.0650    0.2340   17.0870 S   0  0  0  0  0
   16.1420    0.9710   14.7110 N   0  0  0  0  0
   16.5470   -0.3030   14.6050 O   0  0  0  0  0
   16.4714    1.5715   11.5744 H   0  0  0  0  0
   18.0291    1.9443   12.3528 H   0  0  0  0  0
   17.3093    0.3254   12.5316 H   0  0  0  0  0
   16.1854    3.8604   12.9980 H   0  0  0  0  0
   13.8620    5.0979   15.1882 H   0  0  0  0  0
   15.4074    5.4720   15.9900 H   0  0  0  0  0
   15.2698    5.5979   14.2191 H   0  0  0  0  0
   14.5433    3.0293   16.8468 H   0  0  0  0  0
   17.0189   -0.4198   13.7772 H   0  0  0  0  0
  1  2  1  0  0  0
  2  3  2  0  0  0
  2  9  1  0  0  0
  3  4  1  0  0  0
  4  5  1  0  0  0
  4  6  2  0  0  0
  6  7  1  0  0  0
  7  8  2  0  0  0
  7  9  1  0  0  0
  9 10  1  0  0  0
  1 11  1  0  0  0
  1 12  1  0  0  0
  1 13  1  0  0  0
  3 14  1  0  0  0
  5 15  1  0  0  0
  5 16  1  0  0  0
  5 17  1  0  0  0
  6 18  1  0  0  0
 10 19  1  0  0  0
M  END
$$$$
