6b5a_ligand
  -I-interpret- 

 43 45  0  0  0  0  0  0  0  0999 V2000
    0.2110    9.2390   82.3670 C   0  0  0  0  0
    0.6290   10.3570   81.3190 C   0  0  0  0  0
   -0.3180    9.0360   79.5710 C   0  0  0  0  0
   -1.8880   10.1690   78.7180 C   0  0  0  0  0
   -1.3180   10.9370   79.6860 C   0  0  0  0  0
   -2.9650   10.6680   77.9900 C   0  0  0  0  0
    0.5560    2.8260   85.3440 C   0  0  0  0  0
    0.9740    3.9380   84.7080 C   0  0  0  0  0
    0.1170    4.9230   84.3170 C   0  0  0  0  0
   -1.2260    4.7530   84.5850 C   0  0  0  0  0
   -1.6560    3.6250   85.2480 C   0  0  0  0  0
   -0.7640    2.6870   85.6400 C   0  0  0  0  0
    0.6540    6.1820   83.5750 C   0  0  0  0  0
    0.4720    7.5370   84.2290 C   0  0  0  0  0
   -2.8350   12.5860   79.1800 C   0  0  0  0  0
    1.0570    8.5960   83.4070 N   0  0  0  0  0
   -0.2910   10.2140   80.1780 N   0  0  0  0  0
   -1.3040    8.9920   78.6930 N   0  0  0  0  0
   -3.3930   11.8790   78.2300 N   0  0  0  0  0
   -1.8310   12.1560   79.8810 N   0  0  0  0  0
   -3.5320    9.7890   77.0080 N   0  0  0  0  0
   -0.6550   -0.0940   85.8430 N   0  0  0  0  0
   -0.8670    8.8740   82.3010 O   0  0  0  0  0
   -0.9880    1.2970   87.8150 O   0  0  0  0  0
   -2.6360    1.2450   86.4450 O   0  0  0  0  0
   -1.4020    1.2060   86.5110 S   0  0  0  0  0
    1.6658   10.2345   81.0059 H   0  0  0  0  0
    0.5599   11.3525   81.7575 H   0  0  0  0  0
    0.3757    8.2187   79.7685 H   0  0  0  0  0
    1.2675    2.0471   85.6180 H   0  0  0  0  0
    2.0373    4.0541   84.4984 H   0  0  0  0  0
   -1.9452    5.5101   84.2725 H   0  0  0  0  0
   -2.7169    3.4880   85.4571 H   0  0  0  0  0
    0.0823    6.2330   82.6484 H   0  0  0  0  0
    1.7326    6.0379   83.5118 H   0  0  0  0  0
    0.9717    7.5287   85.1977 H   0  0  0  0  0
   -0.5946    7.7307   84.3433 H   0  0  0  0  0
   -3.2309   13.5793   79.3915 H   0  0  0  0  0
    2.0248    8.8872   83.5443 H   0  0  0  0  0
   -3.1440    8.8551   76.8748 H   0  0  0  0  0
   -4.3231   10.0980   76.4431 H   0  0  0  0  0
   -0.0157   -0.6582   86.4028 H   0  0  0  0  0
   -0.8301   -0.3376   84.8681 H   0  0  0  0  0
  1  2  1  0  0  0
 16  1  1  0  0  0
  1 23  2  0  0  0
  2 17  1  0  0  0
 17  3  4  0  0  0
  3 18  4  0  0  0
  5  4  4  0  0  0
  4  6  4  0  0  0
  4 18  4  0  0  0
 17  5  4  0  0  0
  5 20  4  0  0  0
  6 19  4  0  0  0
  6 21  1  0  0  0
  8  7  4  0  0  0
  7 12  4  0  0  0
  9  8  4  0  0  0
  9 10  4  0  0  0
 13  9  1  0  0  0
 10 11  4  0  0  0
 11 12  4  0  0  0
 12 26  1  0  0  0
 14 13  1  0  0  0
 14 16  1  0  0  0
 19 15  4  0  0  0
 15 20  4  0  0  0
 26 22  1  0  0  0
 26 24  2  0  0  0
 26 25  2  0  0  0
  2 27  1  0  0  0
  2 28  1  0  0  0
  3 29  1  0  0  0
  7 30  1  0  0  0
  8 31  1  0  0  0
 10 32  1  0  0  0
 11 33  1  0  0  0
 13 34  1  0  0  0
 13 35  1  0  0  0
 14 36  1  0  0  0
 14 37  1  0  0  0
 15 38  1  0  0  0
 16 39  1  0  0  0
 21 40  1  0  0  0
 21 41  1  0  0  0
 22 42  1  0  0  0
 22 43  1  0  0  0
M  END
$$$$
