2f6v_ligand
  -I-interpret- 

 50 52  0  0  0  0  0  0  0  0999 V2000
  -10.3300   46.8010   46.3010 O   0  0  0  0  0
   -9.2080   47.5010   46.9620 S   0  0  0  0  0
   -8.1040   46.5490   47.1250 O   0  0  0  0  0
   -8.8170   48.7640   46.3200 O   0  0  0  0  0
   -9.7340   47.8960   48.4470 N   0  0  0  0  0
  -10.2590   46.9640   49.2960 C   0  0  0  0  0
   -9.4100   46.1880   50.0870 C   0  0  0  0  0
  -11.6370   46.7980   49.4300 C   0  0  0  0  0
  -12.1540   45.8530   50.3210 C   0  0  0  0  0
  -13.6560   45.7040   50.4460 C   0  0  0  0  0
  -14.0510   44.9600   51.6520 N   0  0  0  0  0
  -13.1020   44.6650   52.7160 C   0  0  0  0  0
  -12.8240   45.8690   53.5820 C   0  0  0  0  0
  -11.8210   45.9130   54.2870 O   0  0  0  0  0
  -13.6590   46.8990   53.5410 N   0  0  0  0  0
  -13.3930   48.0730   54.3700 C   0  0  0  0  0
  -11.8530   44.0680   52.0590 C   0  0  0  0  0
  -11.2920   45.0860   51.0830 C   0  0  0  0  0
   -9.9090   45.2360   50.9790 C   0  0  0  0  0
  -15.2950   44.5370   51.8310 C   0  0  0  0  0
  -15.7010   43.9060   52.8020 O   0  0  0  0  0
  -16.1740   44.8840   50.7490 O   0  0  0  0  0
  -17.5160   44.3950   50.7670 C   0  0  0  0  0
  -18.2600   45.2870   49.8000 C   0  0  0  0  0
  -18.4100   46.6580   50.0310 C   0  0  0  0  0
  -19.1090   47.4230   49.1010 C   0  0  0  0  0
  -18.7790   44.6840   48.6540 C   0  0  0  0  0
  -19.4870   45.4500   47.7260 C   0  0  0  0  0
  -19.6380   46.8140   47.9600 C   0  0  0  0  0
  -11.0628   47.4105   46.1862 H   0  0  0  0  0
   -9.6705   48.8667   48.7539 H   0  0  0  0  0
   -8.3321   46.3283   50.0066 H   0  0  0  0  0
  -12.3160   47.4095   48.8357 H   0  0  0  0  0
  -14.0119   45.1496   49.5777 H   0  0  0  0  0
  -14.0884   46.7025   50.5107 H   0  0  0  0  0
  -13.5160   43.9371   53.4138 H   0  0  0  0  0
  -14.4798   46.8719   52.9360 H   0  0  0  0  0
  -13.3784   47.7793   55.4196 H   0  0  0  0  0
  -12.4271   48.4978   54.0968 H   0  0  0  0  0
  -14.1758   48.8143   54.2097 H   0  0  0  0  0
  -12.1116   43.1494   51.5323 H   0  0  0  0  0
  -11.1089   43.8308   52.8193 H   0  0  0  0  0
   -9.2344   44.6253   51.5791 H   0  0  0  0  0
  -17.9484   44.4281   51.7670 H   0  0  0  0  0
  -17.5711   43.3454   50.4781 H   0  0  0  0  0
  -17.9872   47.1196   50.9233 H   0  0  0  0  0
  -19.2430   48.4926   49.2624 H   0  0  0  0  0
  -18.6321   43.6175   48.4836 H   0  0  0  0  0
  -19.9134   44.9888   46.8352 H   0  0  0  0  0
  -20.1816   47.4212   47.2362 H   0  0  0  0  0
  1  2  1  0  0  0
  2  3  2  0  0  0
  2  4  2  0  0  0
  2  5  1  0  0  0
  5  6  1  0  0  0
  6  7  4  0  0  0
  6  8  4  0  0  0
  7 19  4  0  0  0
  8  9  4  0  0  0
  9 10  1  0  0  0
  9 18  4  0  0  0
 10 11  1  0  0  0
 11 12  1  0  0  0
 11 20  1  0  0  0
 12 13  1  0  0  0
 12 17  1  0  0  0
 13 14  2  0  0  0
 13 15  1  0  0  0
 15 16  1  0  0  0
 17 18  1  0  0  0
 18 19  4  0  0  0
 20 21  2  0  0  0
 20 22  1  0  0  0
 22 23  1  0  0  0
 23 24  1  0  0  0
 24 25  4  0  0  0
 24 27  4  0  0  0
 25 26  4  0  0  0
 26 29  4  0  0  0
 27 28  4  0  0  0
 28 29  4  0  0  0
  1 30  1  0  0  0
  5 31  1  0  0  0
  7 32  1  0  0  0
  8 33  1  0  0  0
 10 34  1  0  0  0
 10 35  1  0  0  0
 12 36  1  0  0  0
 15 37  1  0  0  0
 16 38  1  0  0  0
 16 39  1  0  0  0
 16 40  1  0  0  0
 17 41  1  0  0  0
 17 42  1  0  0  0
 19 43  1  0  0  0
 23 44  1  0  0  0
 23 45  1  0  0  0
 25 46  1  0  0  0
 26 47  1  0  0  0
 27 48  1  0  0  0
 28 49  1  0  0  0
 29 50  1  0  0  0
M  END
$$$$
