### 
### Created by X-TOOL on Mon Sep 10 21:13:13 2018
### 

@<TRIPOS>MOLECULE
4dv9_ligand
  144   146     1     0     0
SMALL
GAST_HUCK


@<TRIPOS>ATOM
      1 C         -21.8360  -16.9370    1.2160 C.2       1 2OP         0.2069
      2 O         -21.7650  -17.3620    0.0710 O.2       1 2OP        -0.3941
      3 CB        -21.5600  -14.5610    0.7190 C.3       1 2OP        -0.0214
      4 OHN       -22.3540  -15.2810    2.8280 O.3       1 2OP        -0.3717
      5 CA        -22.3930  -15.5680    1.4810 C.3       1 2OP         0.1409
      6 N         -21.3630  -17.7770    2.2940 N.am      1 VAL        -0.2632
      7 CA        -20.8320  -19.0720    1.9280 C.3       1 VAL         0.1334
      8 C         -21.9640  -20.0910    1.8530 C.2       1 VAL         0.2064
      9 O         -22.9370  -19.9970    2.5950 O.2       1 VAL        -0.3942
     10 CB        -19.6990  -19.5530    2.8460 C.3       1 VAL        -0.0062
     11 CG1       -18.4010  -18.8790    2.4220 C.3       1 VAL        -0.0584
     12 CG2       -19.9800  -19.2250    4.2820 C.3       1 VAL        -0.0584
     13 C1        -20.7010  -21.2700   -0.0030 C.3       1 GNC         0.0254
     14 NE2       -26.0340  -20.7310   -2.2600 N.am      1 GNC        -0.3009
     15 OE1       -27.2340  -21.6620   -0.5460 O.2       1 GNC        -0.3973
     16 O         -22.3500  -24.3100   -0.2390 O.2       1 GNC        -0.3945
     17 CG        -25.0260  -21.0340    0.0780 C.3       1 GNC         0.0412
     18 CB        -23.8470  -21.8530   -0.4100 C.3       1 GNC         0.0047
     19 CD        -26.1780  -21.1690   -0.9080 C.2       1 GNC         0.1737
     20 C         -22.3120  -23.6160    0.7620 C.2       1 GNC         0.2025
     21 CA        -22.9330  -22.1920    0.7780 C.3       1 GNC         0.1353
     22 N         -21.8540  -21.1860    0.8760 N.am      1 GNC        -0.2527
     23 N         -21.6500  -24.1040    1.9920 N.am      1 PSA        -0.2774
     24 CA        -21.0420  -25.4380    2.0270 C.3       1 PSA         0.0795
     25 CB        -19.6510  -25.2810    2.5840 C.3       1 PSA         0.0065
     26 CG        -18.7840  -24.2670    1.8020 C.ar      1 PSA        -0.0408
     27 CD1       -17.9700  -23.2500    2.5420 C.ar      1 PSA        -0.0603
     28 CD2       -18.7390  -24.2860    0.3120 C.ar      1 PSA        -0.0603
     29 CE1       -17.1080  -22.2640    1.8080 C.ar      1 PSA        -0.0686
     30 CE2       -17.8860  -23.3090   -0.4470 C.ar      1 PSA        -0.0686
     31 CZ        -17.0740  -22.2910    0.3020 C.ar      1 PSA        -0.0687
     32 CH        -21.8700  -26.3840    2.9120 C.3       1 PSA         0.0965
     33 OH        -21.7470  -26.1810    4.2820 O.3       1 PSA        -0.3870
     34 CM        -23.2040  -26.9140    2.4030 C.3       1 PSA         0.0657
     35 C         -22.9090  -27.9620    1.3220 C.2       1 PSA         0.1808
     36 O         -22.8140  -27.6380    0.1570 O.2       1 PSA        -0.3968
     37 N         -22.7180  -29.3630    1.7340 N.am      1 LEU        -0.2655
     38 CA        -22.4150  -30.4020    0.7200 C.3       1 LEU         0.1311
     39 C         -23.6430  -30.5840   -0.1830 C.2       1 LEU         0.2039
     40 O         -24.7760  -30.6230    0.2770 O.2       1 LEU        -0.3944
     41 CB        -21.9500  -31.6910    1.3950 C.3       1 LEU        -0.0101
     42 CG        -21.8060  -32.8560    0.3930 C.3       1 LEU        -0.0425
     43 CD1       -20.4510  -32.7750   -0.2710 C.3       1 LEU        -0.0625
     44 CD2       -21.8830  -34.1520    1.1880 C.3       1 LEU        -0.0625
     45 N         -23.4060  -30.7130   -1.6130 N.am      1 ALA        -0.2640
     46 CA        -24.5500  -30.9000   -2.5150 C.3       1 ALA         0.1284
     47 C         -24.6730  -32.3670   -2.9180 C.2       1 ALA         0.2060
     48 O         -23.6600  -33.0440   -2.8830 O.2       1 ALA        -0.3942
     49 CB        -24.3230  -30.0400   -3.7280 C.3       1 ALA        -0.0244
     50 N         -25.9710  -32.9560   -3.3740 N.am      1 ZAE        -0.2511
     51 CA        -26.0370  -34.3710   -3.7830 C.3       1 ZAE         0.1431
     52 C         -25.7560  -34.6390   -5.2650 C.2       1 ZAE         0.2087
     53 O         -26.3140  -35.6100   -5.7950 O.2       1 ZAE        -0.3940
     54 CB        -25.0890  -35.2830   -3.0090 C.3       1 ZAE         0.0216
     55 CG        -25.7140  -35.7210   -1.6730 C.ar      1 ZAE        -0.0385
     56 CD1       -27.1880  -35.6700   -1.4890 C.ar      1 ZAE        -0.0601
     57 CD2       -24.8240  -36.2000   -0.5620 C.ar      1 ZAE        -0.0601
     58 CE1       -27.8010  -36.1020   -0.1880 C.ar      1 ZAE        -0.0686
     59 CE2       -25.4210  -36.6360    0.7400 C.ar      1 ZAE        -0.0686
     60 CZ        -26.9130  -36.5840    0.9120 C.ar      1 ZAE        -0.0687
     61 C10       -27.1810  -32.1460   -3.4250 C.3       1 ZAE         0.0256
     62 CM        -21.3560  -33.8280   -8.7990 C.3       1 PLJ         0.0658
     63 O         -23.0630  -35.8050   -6.9940 O.2       1 PLJ        -0.3678
     64 CG        -23.7170  -31.8550   -7.0140 C.3       1 PLJ        -0.0280
     65 CB        -24.3380  -32.6430   -8.1140 C.3       1 PLJ        -0.0090
     66 CD        -24.0560  -32.6220   -5.7320 C.3       1 PLJ         0.0371
     67 OXT       -22.4820  -34.6650   -8.8460 O.3       1 PLJ        -0.2784
     68 C         -23.2790  -34.8500   -7.7330 C.2       1 PLJ         0.2595
     69 CA        -24.5240  -34.0190   -7.5110 C.3       1 PLJ         0.1450
     70 N         -24.8350  -33.8130   -6.1100 N.am      1 PLJ        -0.2483
     71 H1        -21.9520  -13.5492    0.8997 H         1 2OP         0.0279
     72 H2        -21.6067  -14.7855   -0.3568 H         1 2OP         0.0279
     73 H3        -20.5157  -14.6159    1.0601 H         1 2OP         0.0279
     74 H4        -21.4552  -15.3205    3.1332 H         1 2OP         0.2133
     75 H5        -23.4355  -15.5234    1.1329 H         1 2OP         0.0834
     76 H6        -21.4012  -17.4769    3.2472 H         1 VAL         0.1883
     77 H7        -20.4049  -18.9749    0.9190 H         1 VAL         0.0803
     78 H8        -19.5948  -20.6433    2.7437 H         1 VAL         0.0343
     79 H9        -17.5822  -19.2172    3.0741 H         1 VAL         0.0234
     80 H10       -18.5099  -17.7877    2.5064 H         1 VAL         0.0234
     81 H11       -18.1731  -19.1453    1.3793 H         1 VAL         0.0234
     82 H12       -20.9172  -19.7102    4.5923 H         1 VAL         0.0234
     83 H13       -20.0757  -18.1353    4.3973 H         1 VAL         0.0234
     84 H14       -19.1534  -19.5890    4.9098 H         1 VAL         0.0234
     85 H15       -20.0113  -20.4418    0.2168 H         1 GNC         0.0488
     86 H16       -21.0323  -21.2032   -1.0498 H         1 GNC         0.0488
     87 H17       -20.1860  -22.2285    0.1582 H         1 GNC         0.0488
     88 H18       -25.1722  -20.3259   -2.5652 H         1 GNC         0.1814
     89 H19       -26.7950  -20.8295   -2.9012 H         1 GNC         0.1814
     90 H20       -24.7316  -19.9770    0.1558 H         1 GNC         0.0504
     91 H21       -25.3434  -21.3999    1.0656 H         1 GNC         0.0504
     92 H22       -23.2811  -21.2739   -1.1545 H         1 GNC         0.0337
     93 H23       -24.2118  -22.7836   -0.8693 H         1 GNC         0.0337
     94 H24       -23.5498  -22.1218    1.6861 H         1 GNC         0.0803
     95 H25       -21.6170  -23.5210    2.8038 H         1 PSA         0.1857
     96 H26       -20.9907  -25.8500    1.0084 H         1 PSA         0.0606
     97 H27       -19.1518  -26.2608    2.5553 H         1 PSA         0.0449
     98 H28       -19.7300  -24.9401    3.6268 H         1 PSA         0.0449
     99 H29       -18.0040  -23.2257    3.6252 H         1 PSA         0.0557
    100 H30       -19.3297  -25.0146   -0.2314 H         1 PSA         0.0557
    101 H31       -16.5160  -21.5399    2.3561 H         1 PSA         0.0599
    102 H32       -17.8568  -23.3387   -1.5302 H         1 PSA         0.0599
    103 H33       -16.4646  -21.5770   -0.2402 H         1 PSA         0.0559
    104 H34       -21.2696  -27.2994    2.8044 H         1 PSA         0.0643
    105 H35       -20.8398  -26.2983    4.5382 H         1 PSA         0.2101
    106 H36       -23.7952  -26.0910    1.9751 H         1 PSA         0.0529
    107 H37       -23.7634  -27.3761    3.2298 H         1 PSA         0.0529
    108 H38       -22.7927  -29.6141    2.6991 H         1 LEU         0.1883
    109 H39       -21.5869  -30.0426    0.0915 H         1 LEU         0.0800
    110 H40       -22.6850  -31.9735    2.1631 H         1 LEU         0.0315
    111 H41       -20.9745  -31.5100    1.8699 H         1 LEU         0.0315
    112 H42       -22.6043  -32.8164   -0.3628 H         1 LEU         0.0298
    113 H43       -20.3432  -33.6035   -0.9865 H         1 LEU         0.0232
    114 H44       -19.6632  -32.8459    0.4934 H         1 LEU         0.0232
    115 H45       -20.3602  -31.8167   -0.8034 H         1 LEU         0.0232
    116 H46       -22.8655  -34.2241    1.6773 H         1 LEU         0.0232
    117 H47       -21.0915  -34.1612    1.9518 H         1 LEU         0.0232
    118 H48       -21.7477  -35.0071    0.5094 H         1 LEU         0.0232
    119 H49       -22.4754  -30.6748   -1.9772 H         1 ALA         0.1883
    120 H50       -25.4749  -30.5871   -2.0085 H         1 ALA         0.0797
    121 H51       -25.1659  -30.1589   -4.4247 H         1 ALA         0.0277
    122 H52       -23.3906  -30.3459   -4.2251 H         1 ALA         0.0277
    123 H53       -24.2465  -28.9864   -3.4214 H         1 ALA         0.0277
    124 H54       -27.0661  -34.6994   -3.5753 H         1 ZAE         0.0825
    125 H55       -24.1529  -34.7414   -2.8078 H         1 ZAE         0.0474
    126 H56       -24.8734  -36.1753   -3.6150 H         1 ZAE         0.0474
    127 H57       -27.8219  -35.3202   -2.2957 H         1 ZAE         0.0557
    128 H58       -23.7496  -36.2300   -0.7028 H         1 ZAE         0.0557
    129 H59       -28.8754  -36.0645   -0.0488 H         1 ZAE         0.0599
    130 H60       -24.7862  -36.9841    1.5468 H         1 ZAE         0.0599
    131 H61       -27.3523  -36.9018    1.8506 H         1 ZAE         0.0559
    132 H62       -26.9525  -31.1240   -3.0883 H         1 ZAE         0.0488
    133 H63       -27.9451  -32.5864   -2.7676 H         1 ZAE         0.0488
    134 H64       -27.5589  -32.1159   -4.4576 H         1 ZAE         0.0488
    135 H65       -20.8642  -33.8194   -9.7829 H         1 PLJ         0.0577
    136 H66       -20.6524  -34.2021   -8.0407 H         1 PLJ         0.0577
    137 H67       -21.6690  -32.8066   -8.5367 H         1 PLJ         0.0577
    138 H68       -24.1398  -30.8401   -6.9798 H         1 PLJ         0.0287
    139 H69       -22.6272  -31.7939   -7.1505 H         1 PLJ         0.0287
    140 H70       -23.6734  -32.6853   -8.9895 H         1 PLJ         0.0314
    141 H71       -25.3054  -32.2101   -8.4086 H         1 PLJ         0.0314
    142 H72       -24.6501  -31.9843   -5.0609 H         1 PLJ         0.0524
    143 H73       -23.1298  -32.9272   -5.2231 H         1 PLJ         0.0524
    144 H74       -25.3709  -34.5265   -7.9960 H         1 PLJ         0.0818
@<TRIPOS>BOND
     1    1    2 2  
     2    1    5 1  
     3    6    1 am 
     4    5    3 1  
     5    5    4 1  
     6    7    6 1  
     7    8    7 1  
     8    7   10 1  
     9    8    9 2  
    10   22    8 am 
    11   10   11 1  
    12   10   12 1  
    13   22   13 1  
    14   19   14 am 
    15   19   15 2  
    16   20   16 2  
    17   18   17 1  
    18   17   19 1  
    19   21   18 1  
    20   20   21 1  
    21   23   20 am 
    22   21   22 1  
    23   24   23 1  
    24   24   25 1  
    25   32   24 1  
    26   25   26 1  
    27   26   27 ar 
    28   26   28 ar 
    29   27   29 ar 
    30   28   30 ar 
    31   29   31 ar 
    32   30   31 ar 
    33   32   33 1  
    34   34   32 1  
    35   35   34 1  
    36   35   36 2  
    37   37   35 am 
    38   38   37 1  
    39   39   38 1  
    40   38   41 1  
    41   39   40 2  
    42   45   39 am 
    43   41   42 1  
    44   42   43 1  
    45   42   44 1  
    46   46   45 1  
    47   47   46 1  
    48   46   49 1  
    49   47   48 2  
    50   50   47 am 
    51   51   50 1  
    52   50   61 1  
    53   52   51 1  
    54   51   54 1  
    55   52   53 2  
    56   70   52 am 
    57   54   55 1  
    58   55   56 ar 
    59   55   57 ar 
    60   56   58 ar 
    61   57   59 ar 
    62   58   60 ar 
    63   59   60 ar 
    64   67   62 1  
    65   68   63 2  
    66   65   64 1  
    67   64   66 1  
    68   69   65 1  
    69   66   70 1  
    70   68   67 1  
    71   68   69 1  
    72   69   70 1  
    73    3   71 1  
    74    3   72 1  
    75    3   73 1  
    76    4   74 1  
    77    5   75 1  
    78    6   76 1  
    79    7   77 1  
    80   10   78 1  
    81   11   79 1  
    82   11   80 1  
    83   11   81 1  
    84   12   82 1  
    85   12   83 1  
    86   12   84 1  
    87   13   85 1  
    88   13   86 1  
    89   13   87 1  
    90   14   88 1  
    91   14   89 1  
    92   17   90 1  
    93   17   91 1  
    94   18   92 1  
    95   18   93 1  
    96   21   94 1  
    97   23   95 1  
    98   24   96 1  
    99   25   97 1  
   100   25   98 1  
   101   27   99 1  
   102   28  100 1  
   103   29  101 1  
   104   30  102 1  
   105   31  103 1  
   106   32  104 1  
   107   33  105 1  
   108   34  106 1  
   109   34  107 1  
   110   37  108 1  
   111   38  109 1  
   112   41  110 1  
   113   41  111 1  
   114   42  112 1  
   115   43  113 1  
   116   43  114 1  
   117   43  115 1  
   118   44  116 1  
   119   44  117 1  
   120   44  118 1  
   121   45  119 1  
   122   46  120 1  
   123   49  121 1  
   124   49  122 1  
   125   49  123 1  
   126   51  124 1  
   127   54  125 1  
   128   54  126 1  
   129   56  127 1  
   130   57  128 1  
   131   58  129 1  
   132   59  130 1  
   133   60  131 1  
   134   61  132 1  
   135   61  133 1  
   136   61  134 1  
   137   62  135 1  
   138   62  136 1  
   139   62  137 1  
   140   64  138 1  
   141   64  139 1  
   142   65  140 1  
   143   65  141 1  
   144   66  142 1  
   145   66  143 1  
   146   69  144 1  
@<TRIPOS>SUBSTRUCTURE
     1 2OP         1

