4dv9_ligand
  -I-interpret- 

144146  0  0  0  0  0  0  0  0999 V2000
  -21.8360  -16.9370    1.2160 C   0  0  0  0  0
  -21.7650  -17.3620    0.0710 O   0  0  0  0  0
  -21.5600  -14.5610    0.7190 C   0  0  0  0  0
  -22.3540  -15.2810    2.8280 O   0  0  0  0  0
  -22.3930  -15.5680    1.4810 C   0  0  0  0  0
  -21.3630  -17.7770    2.2940 N   0  0  0  0  0
  -20.8320  -19.0720    1.9280 C   0  0  0  0  0
  -21.9640  -20.0910    1.8530 C   0  0  0  0  0
  -22.9370  -19.9970    2.5950 O   0  0  0  0  0
  -19.6990  -19.5530    2.8460 C   0  0  0  0  0
  -18.4010  -18.8790    2.4220 C   0  0  0  0  0
  -19.9800  -19.2250    4.2820 C   0  0  0  0  0
  -20.7010  -21.2700   -0.0030 C   0  0  0  0  0
  -26.0340  -20.7310   -2.2600 N   0  0  0  0  0
  -27.2340  -21.6620   -0.5460 O   0  0  0  0  0
  -22.3500  -24.3100   -0.2390 O   0  0  0  0  0
  -25.0260  -21.0340    0.0780 C   0  0  0  0  0
  -23.8470  -21.8530   -0.4100 C   0  0  0  0  0
  -26.1780  -21.1690   -0.9080 C   0  0  0  0  0
  -22.3120  -23.6160    0.7620 C   0  0  0  0  0
  -22.9330  -22.1920    0.7780 C   0  0  0  0  0
  -21.8540  -21.1860    0.8760 N   0  0  0  0  0
  -21.6500  -24.1040    1.9920 N   0  0  0  0  0
  -21.0420  -25.4380    2.0270 C   0  0  0  0  0
  -19.6510  -25.2810    2.5840 C   0  0  0  0  0
  -18.7840  -24.2670    1.8020 C   0  0  0  0  0
  -17.9700  -23.2500    2.5420 C   0  0  0  0  0
  -18.7390  -24.2860    0.3120 C   0  0  0  0  0
  -17.1080  -22.2640    1.8080 C   0  0  0  0  0
  -17.8860  -23.3090   -0.4470 C   0  0  0  0  0
  -17.0740  -22.2910    0.3020 C   0  0  0  0  0
  -21.8700  -26.3840    2.9120 C   0  0  0  0  0
  -21.7470  -26.1810    4.2820 O   0  0  0  0  0
  -23.2040  -26.9140    2.4030 C   0  0  0  0  0
  -22.9090  -27.9620    1.3220 C   0  0  0  0  0
  -22.8140  -27.6380    0.1570 O   0  0  0  0  0
  -22.7180  -29.3630    1.7340 N   0  0  0  0  0
  -22.4150  -30.4020    0.7200 C   0  0  0  0  0
  -23.6430  -30.5840   -0.1830 C   0  0  0  0  0
  -24.7760  -30.6230    0.2770 O   0  0  0  0  0
  -21.9500  -31.6910    1.3950 C   0  0  0  0  0
  -21.8060  -32.8560    0.3930 C   0  0  0  0  0
  -20.4510  -32.7750   -0.2710 C   0  0  0  0  0
  -21.8830  -34.1520    1.1880 C   0  0  0  0  0
  -23.4060  -30.7130   -1.6130 N   0  0  0  0  0
  -24.5500  -30.9000   -2.5150 C   0  0  0  0  0
  -24.6730  -32.3670   -2.9180 C   0  0  0  0  0
  -23.6600  -33.0440   -2.8830 O   0  0  0  0  0
  -24.3230  -30.0400   -3.7280 C   0  0  0  0  0
  -25.9710  -32.9560   -3.3740 N   0  0  0  0  0
  -26.0370  -34.3710   -3.7830 C   0  0  0  0  0
  -25.7560  -34.6390   -5.2650 C   0  0  0  0  0
  -26.3140  -35.6100   -5.7950 O   0  0  0  0  0
  -25.0890  -35.2830   -3.0090 C   0  0  0  0  0
  -25.7140  -35.7210   -1.6730 C   0  0  0  0  0
  -27.1880  -35.6700   -1.4890 C   0  0  0  0  0
  -24.8240  -36.2000   -0.5620 C   0  0  0  0  0
  -27.8010  -36.1020   -0.1880 C   0  0  0  0  0
  -25.4210  -36.6360    0.7400 C   0  0  0  0  0
  -26.9130  -36.5840    0.9120 C   0  0  0  0  0
  -27.1810  -32.1460   -3.4250 C   0  0  0  0  0
  -21.3560  -33.8280   -8.7990 C   0  0  0  0  0
  -23.0630  -35.8050   -6.9940 O   0  0  0  0  0
  -23.7170  -31.8550   -7.0140 C   0  0  0  0  0
  -24.3380  -32.6430   -8.1140 C   0  0  0  0  0
  -24.0560  -32.6220   -5.7320 C   0  0  0  0  0
  -22.4820  -34.6650   -8.8460 O   0  0  0  0  0
  -23.2790  -34.8500   -7.7330 C   0  0  0  0  0
  -24.5240  -34.0190   -7.5110 C   0  0  0  0  0
  -24.8350  -33.8130   -6.1100 N   0  0  0  0  0
  -21.9584  -13.5604    0.8869 H   0  0  0  0  0
  -20.5285  -14.6061    1.0683 H   0  0  0  0  0
  -21.5950  -14.7935   -0.3453 H   0  0  0  0  0
  -22.8840  -15.9228    3.3063 H   0  0  0  0  0
  -23.4324  -15.5267    1.1555 H   0  0  0  0  0
  -21.4019  -17.4709    3.2662 H   0  0  0  0  0
  -20.3759  -18.9660    0.9437 H   0  0  0  0  0
  -19.6180  -20.6362    2.7556 H   0  0  0  0  0
  -18.1764  -19.1436    1.3887 H   0  0  0  0  0
  -18.5103  -17.7977    2.5060 H   0  0  0  0  0
  -17.5905  -19.2149    3.0688 H   0  0  0  0  0
  -20.0812  -18.1455    4.3937 H   0  0  0  0  0
  -20.9053  -19.7117    4.5902 H   0  0  0  0  0
  -19.1571  -19.5802    4.9022 H   0  0  0  0  0
  -20.6445  -20.3686   -0.6132 H   0  0  0  0  0
  -19.7950  -21.3622    0.5960 H   0  0  0  0  0
  -20.8011  -22.1421   -0.6492 H   0  0  0  0  0
  -26.8102  -20.8315   -2.9141 H   0  0  0  0  0
  -25.1550  -20.3178   -2.5713 H   0  0  0  0  0
  -24.7343  -19.9866    0.1559 H   0  0  0  0  0
  -25.3404  -21.3959    1.0569 H   0  0  0  0  0
  -23.2863  -21.2793   -1.1480 H   0  0  0  0  0
  -24.2084  -22.7750   -0.8654 H   0  0  0  0  0
  -23.5845  -22.1730    1.6516 H   0  0  0  0  0
  -21.6164  -23.5093    2.8200 H   0  0  0  0  0
  -21.0096  -25.8705    1.0270 H   0  0  0  0  0
  -19.1600  -26.2518    2.5173 H   0  0  0  0  0
  -19.7468  -24.9113    3.6049 H   0  0  0  0  0
  -18.0042  -23.2255    3.6312 H   0  0  0  0  0
  -19.3330  -25.0186   -0.2344 H   0  0  0  0  0
  -16.5128  -21.5359    2.3591 H   0  0  0  0  0
  -17.8566  -23.3389   -1.5362 H   0  0  0  0  0
  -16.4612  -21.5731   -0.2432 H   0  0  0  0  0
  -21.3145  -27.3066    2.7435 H   0  0  0  0  0
  -22.2970  -26.8144    4.7489 H   0  0  0  0  0
  -23.8018  -26.1015    1.9899 H   0  0  0  0  0
  -23.7705  -27.3613    3.2198 H   0  0  0  0  0
  -22.7942  -29.6191    2.7184 H   0  0  0  0  0
  -21.5862  -30.0919    0.0836 H   0  0  0  0  0
  -22.6967  -31.9730    2.1373 H   0  0  0  0  0
  -20.9732  -31.5060    1.8420 H   0  0  0  0  0
  -22.5868  -32.8115   -0.3663 H   0  0  0  0  0
  -20.3623  -31.8250   -0.7981 H   0  0  0  0  0
  -19.6713  -32.8453    0.4875 H   0  0  0  0  0
  -20.3454  -33.5964   -0.9797 H   0  0  0  0  0
  -21.0763  -34.1758    1.9206 H   0  0  0  0  0
  -22.8432  -34.2055    1.7011 H   0  0  0  0  0
  -21.7845  -34.9994    0.5095 H   0  0  0  0  0
  -22.4568  -30.6740   -1.9844 H   0  0  0  0  0
  -25.4765  -30.6141   -2.0171 H   0  0  0  0  0
  -24.2474  -28.9963   -3.4229 H   0  0  0  0  0
  -23.3989  -30.3440   -4.2196 H   0  0  0  0  0
  -25.1588  -30.1586   -4.4175 H   0  0  0  0  0
  -27.0787  -34.6007   -3.5588 H   0  0  0  0  0
  -24.1688  -34.7365   -2.8022 H   0  0  0  0  0
  -24.8894  -36.1705   -3.6095 H   0  0  0  0  0
  -27.8254  -35.3182   -2.3002 H   0  0  0  0  0
  -23.7437  -36.2302   -0.7036 H   0  0  0  0  0
  -28.8813  -36.0643   -0.0480 H   0  0  0  0  0
  -24.7827  -36.9860    1.5513 H   0  0  0  0  0
  -27.3548  -36.9036    1.8558 H   0  0  0  0  0
  -27.4070  -31.7696   -2.4273 H   0  0  0  0  0
  -27.0273  -31.3079   -4.1047 H   0  0  0  0  0
  -28.0107  -32.7567   -3.7809 H   0  0  0  0  0
  -21.6675  -32.8163   -8.5390 H   0  0  0  0  0
  -20.6597  -34.1997   -8.0473 H   0  0  0  0  0
  -20.8696  -33.8204   -9.7744 H   0  0  0  0  0
  -24.0979  -30.8341   -6.9852 H   0  0  0  0  0
  -22.6403  -31.7532   -7.1497 H   0  0  0  0  0
  -23.7192  -32.6629   -9.0111 H   0  0  0  0  0
  -25.2775  -32.2092   -8.4564 H   0  0  0  0  0
  -24.6341  -31.9915   -5.0565 H   0  0  0  0  0
  -23.1425  -32.9166   -5.2155 H   0  0  0  0  0
  -25.3357  -34.5762   -7.9787 H   0  0  0  0  0
  1  2  2  0  0  0
  1  5  1  0  0  0
  6  1  1  0  0  0
  5  3  1  0  0  0
  5  4  1  0  0  0
  7  6  1  0  0  0
  8  7  1  0  0  0
  7 10  1  0  0  0
  8  9  2  0  0  0
 22  8  1  0  0  0
 10 11  1  0  0  0
 10 12  1  0  0  0
 22 13  1  0  0  0
 19 14  1  0  0  0
 19 15  2  0  0  0
 20 16  2  0  0  0
 18 17  1  0  0  0
 17 19  1  0  0  0
 21 18  1  0  0  0
 20 21  1  0  0  0
 23 20  1  0  0  0
 21 22  1  0  0  0
 24 23  1  0  0  0
 24 25  1  0  0  0
 32 24  1  0  0  0
 25 26  1  0  0  0
 26 27  4  0  0  0
 26 28  4  0  0  0
 27 29  4  0  0  0
 28 30  4  0  0  0
 29 31  4  0  0  0
 30 31  4  0  0  0
 32 33  1  0  0  0
 34 32  1  0  0  0
 35 34  1  0  0  0
 35 36  2  0  0  0
 37 35  1  0  0  0
 38 37  1  0  0  0
 39 38  1  0  0  0
 38 41  1  0  0  0
 39 40  2  0  0  0
 45 39  1  0  0  0
 41 42  1  0  0  0
 42 43  1  0  0  0
 42 44  1  0  0  0
 46 45  1  0  0  0
 47 46  1  0  0  0
 46 49  1  0  0  0
 47 48  2  0  0  0
 50 47  1  0  0  0
 51 50  1  0  0  0
 50 61  1  0  0  0
 52 51  1  0  0  0
 51 54  1  0  0  0
 52 53  2  0  0  0
 70 52  1  0  0  0
 54 55  1  0  0  0
 55 56  4  0  0  0
 55 57  4  0  0  0
 56 58  4  0  0  0
 57 59  4  0  0  0
 58 60  4  0  0  0
 59 60  4  0  0  0
 67 62  1  0  0  0
 68 63  2  0  0  0
 65 64  1  0  0  0
 64 66  1  0  0  0
 69 65  1  0  0  0
 66 70  1  0  0  0
 68 67  1  0  0  0
 68 69  1  0  0  0
 69 70  1  0  0  0
  3 71  1  0  0  0
  3 72  1  0  0  0
  3 73  1  0  0  0
  4 74  1  0  0  0
  5 75  1  0  0  0
  6 76  1  0  0  0
  7 77  1  0  0  0
 10 78  1  0  0  0
 11 79  1  0  0  0
 11 80  1  0  0  0
 11 81  1  0  0  0
 12 82  1  0  0  0
 12 83  1  0  0  0
 12 84  1  0  0  0
 13 85  1  0  0  0
 13 86  1  0  0  0
 13 87  1  0  0  0
 14 88  1  0  0  0
 14 89  1  0  0  0
 17 90  1  0  0  0
 17 91  1  0  0  0
 18 92  1  0  0  0
 18 93  1  0  0  0
 21 94  1  0  0  0
 23 95  1  0  0  0
 24 96  1  0  0  0
 25 97  1  0  0  0
 25 98  1  0  0  0
 27 99  1  0  0  0
 28100  1  0  0  0
 29101  1  0  0  0
 30102  1  0  0  0
 31103  1  0  0  0
 32104  1  0  0  0
 33105  1  0  0  0
 34106  1  0  0  0
 34107  1  0  0  0
 37108  1  0  0  0
 38109  1  0  0  0
 41110  1  0  0  0
 41111  1  0  0  0
 42112  1  0  0  0
 43113  1  0  0  0
 43114  1  0  0  0
 43115  1  0  0  0
 44116  1  0  0  0
 44117  1  0  0  0
 44118  1  0  0  0
 45119  1  0  0  0
 46120  1  0  0  0
 49121  1  0  0  0
 49122  1  0  0  0
 49123  1  0  0  0
 51124  1  0  0  0
 54125  1  0  0  0
 54126  1  0  0  0
 56127  1  0  0  0
 57128  1  0  0  0
 58129  1  0  0  0
 59130  1  0  0  0
 60131  1  0  0  0
 61132  1  0  0  0
 61133  1  0  0  0
 61134  1  0  0  0
 62135  1  0  0  0
 62136  1  0  0  0
 62137  1  0  0  0
 64138  1  0  0  0
 64139  1  0  0  0
 65140  1  0  0  0
 65141  1  0  0  0
 66142  1  0  0  0
 66143  1  0  0  0
 69144  1  0  0  0
M  END
$$$$
