4q1a_ligand
  -I-interpret- 

 55 57  0  0  0  0  0  0  0  0999 V2000
  -36.0320    6.7700   -0.7080 O   0  0  0  0  0
  -36.5370    7.6350   -1.6700 C   0  0  0  0  0
  -35.5070    8.7150   -1.8180 C   0  0  0  0  0
  -36.3450    9.8130   -2.1030 O   0  0  0  0  0
  -35.9270   10.7950   -2.9270 C   0  0  0  0  0
  -34.5930   11.1060   -3.1800 C   0  0  0  0  0
  -36.9640   11.4970   -3.5020 C   0  0  0  0  0
  -38.2060   11.0740   -3.1370 O   0  0  0  0  0
  -39.2400   11.1230   -4.1390 C   0  0  0  0  0
  -36.6990   12.5460   -4.3730 C   0  0  0  0  0
  -35.3660   12.8620   -4.6380 C   0  0  0  0  0
  -34.3130   12.1310   -4.0730 C   0  0  0  0  0
  -33.0410   12.4640   -4.2910 C   0  0  0  0  0
  -32.0980   12.0850   -3.4590 N   0  0  0  0  0
  -32.4030   13.4040   -5.4590 S   0  0  0  0  0
  -30.8370   13.2770   -4.8250 C   0  0  0  0  0
  -29.5900   13.8910   -5.3880 C   0  0  0  0  0
  -29.8310   15.3740   -5.3710 C   0  0  0  0  0
  -28.7770   16.0420   -4.4590 C   0  0  0  0  0
  -30.8680   12.4900   -3.7580 C   0  0  0  0  0
  -29.6920   12.1480   -2.8530 C   0  0  0  0  0
  -28.7800   10.6260   -3.3120 S   0  0  0  0  0
  -27.1010   11.1370   -3.6900 C   0  0  0  0  0
  -26.2170   10.1540   -3.9090 N   0  0  0  0  0
  -26.7170   12.4150   -3.7680 N   0  0  0  0  0
  -25.4480   12.7470   -4.0660 C   0  0  0  0  0
  -25.0950   14.0370   -4.1130 N   0  0  0  0  0
  -24.5080   11.7310   -4.2730 C   0  0  0  0  0
  -24.9360   10.4070   -4.1820 C   0  0  0  0  0
  -24.1270    9.3740   -4.3810 N   0  0  0  0  0
  -36.6527    6.0511   -0.5683 H   0  0  0  0  0
  -37.5033    8.0426   -1.3728 H   0  0  0  0  0
  -36.7157    7.1214   -2.6146 H   0  0  0  0  0
  -34.7507    8.5159   -2.5772 H   0  0  0  0  0
  -34.8671    8.8504   -0.9461 H   0  0  0  0  0
  -33.7889   10.5580   -2.6888 H   0  0  0  0  0
  -39.3697   12.1516   -4.4755 H   0  0  0  0  0
  -38.9553   10.4961   -4.9840 H   0  0  0  0  0
  -40.1746   10.7582   -3.7129 H   0  0  0  0  0
  -37.5102   13.1071   -4.8369 H   0  0  0  0  0
  -35.1387   13.6974   -5.3003 H   0  0  0  0  0
  -29.3870   13.5305   -6.3964 H   0  0  0  0  0
  -28.7118   13.6220   -4.8011 H   0  0  0  0  0
  -30.8314   15.5804   -4.9906 H   0  0  0  0  0
  -29.7488   15.7723   -6.3823 H   0  0  0  0  0
  -28.8664   15.6419   -3.4490 H   0  0  0  0  0
  -27.7795   15.8346   -4.8463 H   0  0  0  0  0
  -28.9444   17.1189   -4.4407 H   0  0  0  0  0
  -30.0997   11.9823   -1.8558 H   0  0  0  0  0
  -28.9850   12.9741   -2.9295 H   0  0  0  0  0
  -25.7867   14.7623   -3.9234 H   0  0  0  0  0
  -24.1342   14.2950   -4.3384 H   0  0  0  0  0
  -23.4686   11.9684   -4.4994 H   0  0  0  0  0
  -24.4907    8.4228   -4.3231 H   0  0  0  0  0
  -23.1415    9.5312   -4.5919 H   0  0  0  0  0
  1  2  1  0  0  0
  2  3  1  0  0  0
  3  4  1  0  0  0
  4  5  1  0  0  0
  5  6  4  0  0  0
  5  7  4  0  0  0
  6 12  4  0  0  0
  7  8  1  0  0  0
  7 10  4  0  0  0
  8  9  1  0  0  0
 10 11  4  0  0  0
 11 12  4  0  0  0
 12 13  1  0  0  0
 13 14  4  0  0  0
 13 15  4  0  0  0
 14 20  4  0  0  0
 15 16  4  0  0  0
 16 17  1  0  0  0
 16 20  4  0  0  0
 17 18  1  0  0  0
 18 19  1  0  0  0
 20 21  1  0  0  0
 21 22  1  0  0  0
 22 23  1  0  0  0
 23 24  4  0  0  0
 23 25  4  0  0  0
 24 29  4  0  0  0
 25 26  4  0  0  0
 26 27  1  0  0  0
 26 28  4  0  0  0
 28 29  4  0  0  0
 29 30  1  0  0  0
  1 31  1  0  0  0
  2 32  1  0  0  0
  2 33  1  0  0  0
  3 34  1  0  0  0
  3 35  1  0  0  0
  6 36  1  0  0  0
  9 37  1  0  0  0
  9 38  1  0  0  0
  9 39  1  0  0  0
 10 40  1  0  0  0
 11 41  1  0  0  0
 17 42  1  0  0  0
 17 43  1  0  0  0
 18 44  1  0  0  0
 18 45  1  0  0  0
 19 46  1  0  0  0
 19 47  1  0  0  0
 19 48  1  0  0  0
 21 49  1  0  0  0
 21 50  1  0  0  0
 27 51  1  0  0  0
 27 52  1  0  0  0
 28 53  1  0  0  0
 30 54  1  0  0  0
 30 55  1  0  0  0
M  END
$$$$
