5mk3_ligand
  -I-interpret- 

174175  0  0  0  0  0  0  0  0999 V2000
    3.3460   26.5280  -10.9940 N   0  3  0  0  0
    4.7290   26.5770  -10.5310 C   0  0  0  0  0
    5.5090   25.4040  -11.1060 C   0  0  0  0  0
    6.1930   25.5390  -12.1230 O   0  0  0  0  0
    4.7840   26.5630   -9.0040 C   0  0  0  0  0
    6.1940   26.7310   -8.4690 C   0  0  0  0  0
    6.3910   26.5540   -7.2480 O   0  0  0  0  0
    7.1030   27.0430   -9.2660 O   0  0  0  0  0
    5.4120   24.2540  -10.4340 N   0  0  0  0  0
    5.9460   23.0210  -11.0000 C   0  0  0  0  0
    5.3430   22.7510  -12.3720 C   0  0  0  0  0
    6.0430   22.3170  -13.2940 O   0  0  0  0  0
    5.6680   21.8520  -10.0560 C   0  0  0  0  0
    6.8320   21.5530   -9.1360 C   0  0  0  0  0
    7.8750   22.2310   -9.2520 O   0  0  0  0  0
    6.7040   20.6370   -8.2960 O   0  0  0  0  0
    4.0450   23.0190  -12.5240 N   0  0  0  0  0
    3.3650   22.7750  -13.7920 C   0  0  0  0  0
    3.9060   23.6970  -14.8760 C   0  0  0  0  0
    4.1900   23.2630  -15.9980 O   0  0  0  0  0
    1.8450   22.9400  -13.6210 C   0  0  0  0  0
    1.2910   21.8420  -12.7120 C   0  0  0  0  0
    1.1500   22.9400  -14.9740 C   0  0  0  0  0
   -0.2140   21.7080  -12.7550 C   0  0  0  0  0
    4.0560   24.9860  -14.5570 N   0  0  0  0  0
    4.5000   25.9460  -15.5640 C   0  0  0  0  0
    5.8850   25.6060  -16.0910 C   0  0  0  0  0
    6.1560   25.7620  -17.2870 O   0  0  0  0  0
    4.4970   27.3600  -14.9910 C   0  0  0  0  0
    3.1250   27.9210  -14.6950 C   0  0  0  0  0
    3.2670   29.3730  -14.2780 C   0  0  0  0  0
    2.7500   29.6230  -12.8870 C   0  0  0  0  0
    3.7850   29.4180  -11.8420 N   0  3  0  0  0
    6.7810   25.1550  -15.2120 N   0  0  0  0  0
    8.0970   24.7230  -15.6660 C   0  0  0  0  0
    7.9930   23.4840  -16.5460 C   0  0  0  0  0
    8.6530   23.3980  -17.5880 O   0  0  0  0  0
    9.0070   24.4560  -14.4680 C   0  0  0  0  0
    9.1920   25.6480  -13.5450 C   0  0  0  0  0
   10.1380   25.3540  -12.3970 C   0  0  0  0  0
    9.7710   25.4720  -11.2280 O   0  0  0  0  0
   11.3650   24.9670  -12.7270 N   0  0  0  0  0
    7.1650   22.5160  -16.1450 N   0  0  0  0  0
    7.0090   21.2990  -16.9350 C   0  0  0  0  0
    6.2580   21.5720  -18.2330 C   0  0  0  0  0
    6.5550   20.9630  -19.2680 O   0  0  0  0  0
    6.2880   20.2300  -16.1150 C   0  0  0  0  0
    7.0770   19.5810  -14.9770 C   0  0  0  0  0
    6.1710   18.6880  -14.1460 C   0  0  0  0  0
    8.2600   18.7930  -15.5180 C   0  0  0  0  0
    5.2770   22.4780  -18.1960 N   0  0  0  0  0
    4.5400   22.8120  -19.4110 C   0  0  0  0  0
    5.4450   23.4840  -20.4350 C   0  0  0  0  0
    5.3760   23.1770  -21.6310 O   0  0  0  0  0
    3.3470   23.7090  -19.0760 C   0  0  0  0  0
    6.3030   24.4020  -19.9850 N   0  0  0  0  0
    7.2410   25.0470  -20.8970 C   0  0  0  0  0
    8.2840   24.0600  -21.4050 C   0  0  0  0  0
    8.7300   24.1540  -22.5540 O   0  0  0  0  0
    7.9130   26.2330  -20.2070 C   0  0  0  0  0
    8.6840   23.1060  -20.5600 N   0  0  0  0  0
    9.6510   22.0970  -20.9780 C   0  0  0  0  0
    9.0960   21.2330  -22.1030 C   0  0  0  0  0
    9.8370   20.8180  -23.0010 O   0  0  0  0  0
   10.0430   21.2360  -19.7760 C   0  0  0  0  0
   11.0560   20.1640  -20.0600 C   0  0  0  0  0
   12.4140   20.2770  -19.9780 C   0  0  0  0  0
   10.7880   18.8090  -20.4450 C   0  0  0  0  0
   13.0080   19.0790  -20.2990 N   0  0  0  0  0
   12.0320   18.1630  -20.5890 C   0  0  0  0  0
    9.6190   18.0830  -20.6890 C   0  0  0  0  0
   12.1380   16.8240  -20.9620 C   0  0  0  0  0
    9.7270   16.7550  -21.0600 C   0  0  0  0  0
   10.9770   16.1400  -21.1940 C   0  0  0  0  0
    7.7880   20.9670  -22.0820 N   0  0  0  0  0
    7.1800   20.0780  -23.0620 C   0  0  0  0  0
    6.8930   20.7570  -24.3950 C   0  0  0  0  0
    6.6480   20.0600  -25.3860 O   0  0  0  0  0
    5.8860   19.4860  -22.4990 C   0  0  0  0  0
    6.9120   22.0860  -24.4490 N   0  0  0  0  0
    6.5860   22.7970  -25.6830 C   0  0  0  0  0
    7.6840   22.6430  -26.7290 C   0  0  0  0  0
    8.2540   23.6320  -27.1920 O   0  0  0  0  0
    6.3480   24.2980  -25.4300 C   0  0  0  0  0
    7.4920   24.8680  -24.7820 O   0  0  0  0  0
    5.1160   24.5040  -24.5640 C   0  0  0  0  0
    8.0190   21.5270  -27.1280 O   0  0  0  0  0
    3.3296   26.5381  -12.0138 H   0  0  0  0  0
    2.9050   25.6734  -10.6541 H   0  0  0  0  0
    2.8401   27.3384  -10.6365 H   0  0  0  0  0
    5.1841   27.5048  -10.8778 H   0  0  0  0  0
    4.4091   25.5977   -8.6638 H   0  0  0  0  0
    4.1853   27.3976   -8.6392 H   0  0  0  0  0
    5.5627   26.3223   -6.8216 H   0  0  0  0  0
    4.9615   24.2381   -9.5190 H   0  0  0  0  0
    7.0238   23.1313  -11.1199 H   0  0  0  0  0
    5.4873   20.9663  -10.6650 H   0  0  0  0  0
    4.8121   22.1192   -9.4362 H   0  0  0  0  0
    5.8296   20.2492   -8.3778 H   0  0  0  0  0
    3.5179   23.4017  -11.7391 H   0  0  0  0  0
    3.5593   21.7490  -14.1045 H   0  0  0  0  0
    1.6482   23.9018  -13.1475 H   0  0  0  0  0
    1.5630   22.1019  -11.6890 H   0  0  0  0  0
    1.7094   20.8962  -13.0561 H   0  0  0  0  0
    1.5296   23.7656  -15.5760 H   0  0  0  0  0
    1.3480   21.9966  -15.4828 H   0  0  0  0  0
    0.0761   23.0578  -14.8294 H   0  0  0  0  0
   -0.6702   22.6467  -12.4408 H   0  0  0  0  0
   -0.5276   21.4727  -13.7720 H   0  0  0  0  0
   -0.5256   20.9083  -12.0831 H   0  0  0  0  0
    3.8597   25.3005  -13.6068 H   0  0  0  0  0
    3.7988   25.8929  -16.3968 H   0  0  0  0  0
    4.9480   28.0072  -15.7432 H   0  0  0  0  0
    5.0332   27.3184  -14.0429 H   0  0  0  0  0
    2.6594   27.3507  -13.8912 H   0  0  0  0  0
    2.4993   27.8528  -15.5849 H   0  0  0  0  0
    2.6836   29.9812  -14.9692 H   0  0  0  0  0
    4.3269   29.6268  -14.2947 H   0  0  0  0  0
    1.9420   28.9158  -12.6994 H   0  0  0  0  0
    2.4238   30.6617  -12.8341 H   0  0  0  0  0
    3.3802   29.6006  -10.9238 H   0  0  0  0  0
    4.1206   28.4556  -11.8817 H   0  0  0  0  0
    4.5627   30.0575  -12.0053 H   0  0  0  0  0
    6.5450   25.1123  -14.2206 H   0  0  0  0  0
    8.5315   25.5233  -16.2651 H   0  0  0  0  0
    9.9903   24.2008  -14.8630 H   0  0  0  0  0
    8.5401   23.6653  -13.8807 H   0  0  0  0  0
    8.2193   25.8997  -13.1225 H   0  0  0  0  0
    9.6175   26.4631  -14.1304 H   0  0  0  0  0
   12.0460   24.7541  -11.9981 H   0  0  0  0  0
   11.6263   24.8827  -13.7094 H   0  0  0  0  0
    6.6373   22.6282  -15.2794 H   0  0  0  0  0
    8.0027   20.9358  -17.1973 H   0  0  0  0  0
    6.0548   19.4257  -16.8128 H   0  0  0  0  0
    5.4446   20.7343  -15.6434 H   0  0  0  0  0
    7.4651   20.3719  -14.3352 H   0  0  0  0  0
    5.3631   19.2851  -13.7231 H   0  0  0  0  0
    5.7531   17.9060  -14.7800 H   0  0  0  0  0
    6.7492   18.2345  -13.3409 H   0  0  0  0  0
    7.8990   18.0108  -16.1858 H   0  0  0  0  0
    8.9216   19.4638  -16.0661 H   0  0  0  0  0
    8.8042   18.3417  -14.6884 H   0  0  0  0  0
    5.0423   22.9377  -17.3163 H   0  0  0  0  0
    4.1698   21.8857  -19.8504 H   0  0  0  0  0
    2.6829   23.1862  -18.3877 H   0  0  0  0  0
    3.7042   24.6278  -18.6109 H   0  0  0  0  0
    2.8068   23.9499  -19.9916 H   0  0  0  0  0
    6.3028   24.6542  -18.9967 H   0  0  0  0  0
    6.6824   25.4111  -21.7593 H   0  0  0  0  0
    7.1535   26.9542  -19.9051 H   0  0  0  0  0
    8.4525   25.8819  -19.3274 H   0  0  0  0  0
    8.6108   26.7060  -20.8980 H   0  0  0  0  0
    8.3090   23.0828  -19.6117 H   0  0  0  0  0
   10.5378   22.6013  -21.3619 H   0  0  0  0  0
    9.1363   20.7298  -19.4448 H   0  0  0  0  0
   10.4939   21.9066  -19.0446 H   0  0  0  0  0
   12.9494   21.1845  -19.6988 H   0  0  0  0  0
    8.6412   18.5542  -20.5889 H   0  0  0  0  0
   13.1095   16.3406  -21.0648 H   0  0  0  0  0
    8.8227   16.1773  -21.2514 H   0  0  0  0  0
   11.0261   15.0921  -21.4900 H   0  0  0  0  0
    7.2025   21.3952  -21.3649 H   0  0  0  0  0
    7.9064   19.2892  -23.2574 H   0  0  0  0  0
    6.1097   18.9229  -21.5929 H   0  0  0  0  0
    5.1908   20.2922  -22.2650 H   0  0  0  0  0
    5.4391   18.8227  -23.2395 H   0  0  0  0  0
    7.1585   22.6180  -23.6143 H   0  0  0  0  0
    5.6672   22.3468  -26.0587 H   0  0  0  0  0
    7.8916   24.4256  -26.7913 H   0  0  0  0  0
    6.1890   24.7910  -26.3890 H   0  0  0  0  0
    7.3379   25.8028  -24.6271 H   0  0  0  0  0
    4.2446   24.0872  -25.0691 H   0  0  0  0  0
    5.2579   24.0015  -23.6072 H   0  0  0  0  0
    4.9651   25.5705  -24.3969 H   0  0  0  0  0
  1  2  1  0  0  0
  2  3  1  0  0  0
  2  5  1  0  0  0
  3  4  2  0  0  0
  3  9  1  0  0  0
  5  6  1  0  0  0
  6  7  1  0  0  0
  6  8  2  0  0  0
  9 10  1  0  0  0
 10 11  1  0  0  0
 10 13  1  0  0  0
 11 12  2  0  0  0
 11 17  1  0  0  0
 13 14  1  0  0  0
 14 15  2  0  0  0
 14 16  1  0  0  0
 17 18  1  0  0  0
 18 19  1  0  0  0
 18 21  1  0  0  0
 19 20  2  0  0  0
 19 25  1  0  0  0
 21 22  1  0  0  0
 21 23  1  0  0  0
 22 24  1  0  0  0
 25 26  1  0  0  0
 26 27  1  0  0  0
 26 29  1  0  0  0
 27 28  2  0  0  0
 27 34  1  0  0  0
 29 30  1  0  0  0
 30 31  1  0  0  0
 31 32  1  0  0  0
 32 33  1  0  0  0
 34 35  1  0  0  0
 35 36  1  0  0  0
 35 38  1  0  0  0
 36 37  2  0  0  0
 36 43  1  0  0  0
 38 39  1  0  0  0
 39 40  1  0  0  0
 40 41  2  0  0  0
 40 42  1  0  0  0
 43 44  1  0  0  0
 44 45  1  0  0  0
 44 47  1  0  0  0
 45 46  2  0  0  0
 45 51  1  0  0  0
 47 48  1  0  0  0
 48 49  1  0  0  0
 48 50  1  0  0  0
 51 52  1  0  0  0
 52 53  1  0  0  0
 52 55  1  0  0  0
 53 54  2  0  0  0
 53 56  1  0  0  0
 56 57  1  0  0  0
 57 58  1  0  0  0
 57 60  1  0  0  0
 58 59  2  0  0  0
 58 61  1  0  0  0
 61 62  1  0  0  0
 62 63  1  0  0  0
 62 65  1  0  0  0
 63 64  2  0  0  0
 63 75  1  0  0  0
 65 66  1  0  0  0
 66 67  4  0  0  0
 66 68  4  0  0  0
 67 69  4  0  0  0
 68 70  4  0  0  0
 68 71  4  0  0  0
 69 70  4  0  0  0
 70 72  4  0  0  0
 71 73  4  0  0  0
 72 74  4  0  0  0
 73 74  4  0  0  0
 75 76  1  0  0  0
 76 77  1  0  0  0
 76 79  1  0  0  0
 77 78  2  0  0  0
 77 80  1  0  0  0
 80 81  1  0  0  0
 81 82  1  0  0  0
 81 84  1  0  0  0
 82 83  1  0  0  0
 82 87  2  0  0  0
 84 85  1  0  0  0
 84 86  1  0  0  0
  1 88  1  0  0  0
  1 89  1  0  0  0
  1 90  1  0  0  0
  2 91  1  0  0  0
  5 92  1  0  0  0
  5 93  1  0  0  0
  7 94  1  0  0  0
  9 95  1  0  0  0
 10 96  1  0  0  0
 13 97  1  0  0  0
 13 98  1  0  0  0
 16 99  1  0  0  0
 17100  1  0  0  0
 18101  1  0  0  0
 21102  1  0  0  0
 22103  1  0  0  0
 22104  1  0  0  0
 23105  1  0  0  0
 23106  1  0  0  0
 23107  1  0  0  0
 24108  1  0  0  0
 24109  1  0  0  0
 24110  1  0  0  0
 25111  1  0  0  0
 26112  1  0  0  0
 29113  1  0  0  0
 29114  1  0  0  0
 30115  1  0  0  0
 30116  1  0  0  0
 31117  1  0  0  0
 31118  1  0  0  0
 32119  1  0  0  0
 32120  1  0  0  0
 33121  1  0  0  0
 33122  1  0  0  0
 33123  1  0  0  0
 34124  1  0  0  0
 35125  1  0  0  0
 38126  1  0  0  0
 38127  1  0  0  0
 39128  1  0  0  0
 39129  1  0  0  0
 42130  1  0  0  0
 42131  1  0  0  0
 43132  1  0  0  0
 44133  1  0  0  0
 47134  1  0  0  0
 47135  1  0  0  0
 48136  1  0  0  0
 49137  1  0  0  0
 49138  1  0  0  0
 49139  1  0  0  0
 50140  1  0  0  0
 50141  1  0  0  0
 50142  1  0  0  0
 51143  1  0  0  0
 52144  1  0  0  0
 55145  1  0  0  0
 55146  1  0  0  0
 55147  1  0  0  0
 56148  1  0  0  0
 57149  1  0  0  0
 60150  1  0  0  0
 60151  1  0  0  0
 60152  1  0  0  0
 61153  1  0  0  0
 62154  1  0  0  0
 65155  1  0  0  0
 65156  1  0  0  0
 67157  1  0  0  0
 71158  1  0  0  0
 72159  1  0  0  0
 73160  1  0  0  0
 74161  1  0  0  0
 75162  1  0  0  0
 76163  1  0  0  0
 79164  1  0  0  0
 79165  1  0  0  0
 79166  1  0  0  0
 80167  1  0  0  0
 81168  1  0  0  0
 83169  1  0  0  0
 84170  1  0  0  0
 85171  1  0  0  0
 86172  1  0  0  0
 86173  1  0  0  0
 86174  1  0  0  0
M  END
$$$$
