### 
### Created by X-TOOL on Mon Sep 10 21:13:33 2018
### 

@<TRIPOS>MOLECULE
5mk3_ligand
  172   173     1     0     0
SMALL
GAST_HUCK


@<TRIPOS>ATOM
      1 N           3.3460   26.5280  -10.9940 N.4       1 ASP         0.2391
      2 CA          4.7290   26.5770  -10.5310 C.3       1 ASP         0.0764
      3 C           5.5090   25.4040  -11.1060 C.2       1 ASP         0.2285
      4 O           6.1930   25.5390  -12.1230 O.2       1 ASP        -0.3906
      5 CB          4.7840   26.5630   -9.0040 C.3       1 ASP         0.0607
      6 CG          6.1940   26.7310   -8.4690 C.2       1 ASP         0.0425
      7 OD1         6.3910   26.5540   -7.2480 O.co2     1 ASP        -0.5686
      8 OD2         7.1030   27.0430   -9.2660 O.co2     1 ASP        -0.5686
      9 N           5.4120   24.2540  -10.4340 N.am      1 ASP        -0.2594
     10 CA          5.9460   23.0210  -11.0000 C.3       1 ASP         0.1424
     11 C           5.3430   22.7510  -12.3720 C.2       1 ASP         0.2056
     12 O           6.0430   22.3170  -13.2940 O.2       1 ASP        -0.3943
     13 CB          5.6680   21.8520  -10.0560 C.3       1 ASP         0.0406
     14 CG          6.8320   21.5530   -9.1360 C.2       1 ASP         0.0393
     15 OD1         7.8750   22.2310   -9.2520 O.co2     1 ASP        -0.5688
     16 OD2         6.7040   20.6370   -8.2960 O.co2     1 ASP        -0.5688
     17 N           4.0450   23.0190  -12.5240 N.am      1 ILE        -0.2634
     18 CA          3.3650   22.7750  -13.7920 C.3       1 ILE         0.1335
     19 C           3.9060   23.6970  -14.8760 C.2       1 ILE         0.2042
     20 O           4.1900   23.2630  -15.9980 O.2       1 ILE        -0.3944
     21 CB          1.8450   22.9400  -13.6210 C.3       1 ILE        -0.0037
     22 CG1         1.2910   21.8420  -12.7120 C.3       1 ILE        -0.0491
     23 CG2         1.1500   22.9400  -14.9740 C.3       1 ILE        -0.0582
     24 CD1        -0.2140   21.7080  -12.7550 C.3       1 ILE        -0.0648
     25 N           4.0560   24.9860  -14.5570 N.am      1 LYS        -0.2637
     26 CA          4.5000   25.9460  -15.5640 C.3       1 LYS         0.1310
     27 C           5.8850   25.6060  -16.0910 C.2       1 LYS         0.2039
     28 O           6.1560   25.7620  -17.2870 O.2       1 LYS        -0.3944
     29 CB          4.4970   27.3600  -14.9910 C.3       1 LYS        -0.0122
     30 CG          3.1250   27.9210  -14.6950 C.3       1 LYS        -0.0440
     31 CD          3.2670   29.3730  -14.2780 C.3       1 LYS        -0.0124
     32 CE          2.7500   29.6230  -12.8870 C.3       1 LYS        -0.0354
     33 NZ          3.7850   29.4180  -11.8420 N.4       1 LYS         0.2185
     34 N           6.7810   25.1550  -15.2120 N.am      1 GLN        -0.2636
     35 CA          8.0970   24.7230  -15.6660 C.3       1 GLN         0.1330
     36 C           7.9930   23.4840  -16.5460 C.2       1 GLN         0.2040
     37 O           8.6530   23.3980  -17.5880 O.2       1 GLN        -0.3944
     38 CB          9.0070   24.4560  -14.4680 C.3       1 GLN         0.0045
     39 CG          9.1920   25.6480  -13.5450 C.3       1 GLN         0.0412
     40 CD         10.1380   25.3540  -12.3970 C.2       1 GLN         0.1737
     41 OE1         9.7710   25.4720  -11.2280 O.2       1 GLN        -0.3973
     42 NE2        11.3650   24.9670  -12.7270 N.am      1 GLN        -0.3009
     43 N           7.1650   22.5160  -16.1450 N.am      1 LEU        -0.2637
     44 CA          7.0090   21.2990  -16.9350 C.3       1 LEU         0.1312
     45 C           6.2580   21.5720  -18.2330 C.2       1 LEU         0.2039
     46 O           6.5550   20.9630  -19.2680 O.2       1 LEU        -0.3944
     47 CB          6.2880   20.2300  -16.1150 C.3       1 LEU        -0.0101
     48 CG          7.0770   19.5810  -14.9770 C.3       1 LEU        -0.0425
     49 CD1         6.1710   18.6880  -14.1460 C.3       1 LEU        -0.0625
     50 CD2         8.2600   18.7930  -15.5180 C.3       1 LEU        -0.0625
     51 N           5.2770   22.4780  -18.1960 N.am      1 ALA        -0.2640
     52 CA          4.5400   22.8120  -19.4110 C.3       1 ALA         0.1282
     53 C           5.4450   23.4840  -20.4350 C.2       1 ALA         0.2036
     54 O           5.3760   23.1770  -21.6310 O.2       1 ALA        -0.3944
     55 CB          3.3470   23.7090  -19.0760 C.3       1 ALA        -0.0244
     56 N           6.3030   24.4020  -19.9850 N.am      1 ALA        -0.2640
     57 CA          7.2410   25.0470  -20.8970 C.3       1 ALA         0.1282
     58 C           8.2840   24.0600  -21.4050 C.2       1 ALA         0.2037
     59 O           8.7300   24.1540  -22.5540 O.2       1 ALA        -0.3944
     60 CB          7.9130   26.2330  -20.2070 C.3       1 ALA        -0.0244
     61 N           8.6840   23.1060  -20.5600 N.am      1 TRP        -0.2627
     62 CA          9.6510   22.0970  -20.9780 C.3       1 TRP         0.1352
     63 C           9.0960   21.2330  -22.1030 C.2       1 TRP         0.2052
     64 O           9.8370   20.8180  -23.0010 O.2       1 TRP        -0.3942
     65 CB         10.0430   21.2360  -19.7760 C.3       1 TRP         0.0042
     66 CG         11.0560   20.1640  -20.0600 C.2       1 TRP        -0.0418
     67 CD1        12.4140   20.2770  -19.9780 C.2       1 TRP         0.0167
     68 CD2        10.7880   18.8090  -20.4450 C.ar      1 TRP        -0.0214
     69 NE1        13.0080   19.0790  -20.2990 N.pl3     1 TRP        -0.2890
     70 CE2        12.0320   18.1630  -20.5890 C.ar      1 TRP         0.0603
     71 CE3         9.6190   18.0830  -20.6890 C.ar      1 TRP        -0.0747
     72 CZ2        12.1380   16.8240  -20.9620 C.ar      1 TRP        -0.0443
     73 CZ3         9.7270   16.7550  -21.0600 C.ar      1 TRP        -0.0792
     74 CH2        10.9770   16.1400  -21.1940 C.ar      1 TRP        -0.0768
     75 N           7.7880   20.9670  -22.0820 N.am      1 ALA        -0.2639
     76 CA          7.1800   20.0780  -23.0620 C.3       1 ALA         0.1282
     77 C           6.8930   20.7570  -24.3950 C.2       1 ALA         0.2031
     78 O           6.6480   20.0600  -25.3860 O.2       1 ALA        -0.3944
     79 CB          5.8860   19.4860  -22.4990 C.3       1 ALA        -0.0244
     80 N           6.9120   22.0860  -24.4490 N.am      1 THR        -0.2670
     81 CA          6.5860   22.7970  -25.6830 C.3       1 THR         0.1198
     82 C           7.6840   22.6430  -26.7290 C.2       1 THR         0.0626
     83 O           8.2540   23.6320  -27.1920 O.co2     1 THR        -0.5665
     84 CB          6.3480   24.2980  -25.4300 C.3       1 THR         0.0869
     85 OG1         7.4920   24.8680  -24.7820 O.3       1 THR        -0.3880
     86 CG2         5.1160   24.5040  -24.5640 C.3       1 THR        -0.0352
     87 OXT         8.0190   21.5270  -27.1280 O.co2     1 THR        -0.5665
     88 H1          2.8352   27.3074  -10.6096 H         1 ASP         0.2016
     89 H2          2.9207   25.6656  -10.6915 H         1 ASP         0.2016
     90 H3          3.3267   26.5773  -12.0006 H         1 ASP         0.2016
     91 H4          5.1863   27.5116  -10.8879 H         1 ASP         0.1117
     92 H5          4.3835   25.6032   -8.6459 H         1 ASP         0.0512
     93 H6          4.1619   27.3856   -8.6215 H         1 ASP         0.0512
     94 H7          4.9703   24.2385   -9.5370 H         1 ASP         0.1886
     95 H8          7.0347   23.1302  -11.1132 H         1 ASP         0.0819
     96 H9          5.4567   20.9561  -10.6583 H         1 ASP         0.0478
     97 H10         4.7886   22.0970   -9.4423 H         1 ASP         0.0478
     98 H11         3.5282   23.3942  -11.7545 H         1 ILE         0.1883
     99 H12         3.5644   21.7370  -14.0965 H         1 ILE         0.0803
    100 H13         1.6554   23.9109  -13.1400 H         1 ILE         0.0345
    101 H14         1.5885   22.0670  -11.6772 H         1 ILE         0.0267
    102 H15         1.7324   20.8827  -13.0201 H         1 ILE         0.0267
    103 H16         1.5704   23.7392  -15.6021 H         1 ILE         0.0235
    104 H17         0.0729   23.1129  -14.8330 H         1 ILE         0.0235
    105 H18         1.3041   21.9680  -15.4654 H         1 ILE         0.0235
    106 H19        -0.5298   20.9012  -12.0773 H         1 ILE         0.0230
    107 H20        -0.5318   21.4705  -13.7809 H         1 ILE         0.0230
    108 H21        -0.6757   22.6548  -12.4380 H         1 ILE         0.0230
    109 H22         3.8635   25.2943  -13.6254 H         1 LYS         0.1883
    110 H23         3.7930   25.9098  -16.4059 H         1 LYS         0.0800
    111 H24         4.9891   28.0243  -15.7166 H         1 LYS         0.0312
    112 H25         5.0724   27.3506  -14.0535 H         1 LYS         0.0312
    113 H26         2.6592   27.3469  -13.8805 H         1 LYS         0.0269
    114 H27         2.4970   27.8553  -15.5957 H         1 LYS         0.0269
    115 H28         2.7016   30.0001  -14.9831 H         1 LYS         0.0317
    116 H29         4.3313   29.6486  -14.3142 H         1 LYS         0.0317
    117 H30         1.9144   28.9342  -12.6937 H         1 LYS         0.0813
    118 H31         2.3910   30.6610  -12.8269 H         1 LYS         0.0813
    119 H32         3.3860   29.5982  -10.9340 H         1 LYS         0.1994
    120 H33         4.5541   30.0495  -12.0023 H         1 LYS         0.1994
    121 H34         4.1174   28.4672  -11.8802 H         1 LYS         0.1994
    122 H35         6.5496   25.1132  -14.2400 H         1 GLN         0.1883
    123 H36         8.5393   25.5335  -16.2639 H         1 GLN         0.0801
    124 H37         9.9956   24.1568  -14.8463 H         1 GLN         0.0337
    125 H38         8.5733   23.6316  -13.8830 H         1 GLN         0.0337
    126 H39         8.2123   25.9289  -13.1312 H         1 GLN         0.0504
    127 H40         9.5973   26.4870  -14.1296 H         1 GLN         0.0504
    128 H41        12.0329   24.7591  -12.0124 H         1 GLN         0.1814
    129 H42        11.6209   24.8835  -13.6901 H         1 GLN         0.1814
    130 H43         6.6476   22.6260  -15.2964 H         1 LEU         0.1883
    131 H44         8.0108   20.9238  -17.1909 H         1 LEU         0.0800
    132 H45         5.9834   19.4304  -16.8062 H         1 LEU         0.0315
    133 H46         5.3934   20.6955  -15.6757 H         1 LEU         0.0315
    134 H47         7.4646   20.3795  -14.3273 H         1 LEU         0.0298
    135 H48         6.7534   18.2297  -13.3331 H         1 LEU         0.0232
    136 H49         5.7486   17.8983  -14.7847 H         1 LEU         0.0232
    137 H50         5.3552   19.2895  -13.7186 H         1 LEU         0.0232
    138 H51         8.9012   19.4580  -16.1153 H         1 LEU         0.0232
    139 H52         7.8944   17.9708  -16.1507 H         1 LEU         0.0232
    140 H53         8.8401   18.3804  -14.6794 H         1 LEU         0.0232
    141 H54         5.0469   22.9287  -17.3335 H         1 ALA         0.1883
    142 H55         4.1588   21.8784  -19.8503 H         1 ALA         0.0797
    143 H56         2.8010   23.9529  -19.9993 H         1 ALA         0.0277
    144 H57         3.7061   24.6367  -18.6065 H         1 ALA         0.0277
    145 H58         2.6760   23.1825  -18.3814 H         1 ALA         0.0277
    146 H59         6.3028   24.6493  -19.0161 H         1 ALA         0.1883
    147 H60         6.6761   25.4240  -21.7623 H         1 ALA         0.0797
    148 H61         8.6175   26.7113  -20.9034 H         1 ALA         0.0277
    149 H62         8.4579   25.8800  -19.3190 H         1 ALA         0.0277
    150 H63         7.1475   26.9616  -19.9019 H         1 ALA         0.0277
    151 H64         8.3164   23.0832  -19.6303 H         1 TRP         0.1884
    152 H65        10.5505   22.6095  -21.3498 H         1 TRP         0.0815
    153 H66         9.1328   20.7511  -19.3935 H         1 TRP         0.0397
    154 H67        10.4576   21.8996  -19.0029 H         1 TRP         0.0397
    155 H68        12.9489   21.1836  -19.6991 H         1 TRP         0.0795
    156 H69        14.0221   18.8997  -20.3182 H         1 TRP         0.2216
    157 H70         8.6466   18.5516  -20.5894 H         1 TRP         0.0540
    158 H71        13.1042   16.3433  -21.0642 H         1 TRP         0.0541
    159 H72         8.8277   16.1804  -21.2503 H         1 TRP         0.0510
    160 H73        11.0259   15.0979  -21.4884 H         1 TRP         0.0530
    161 H74         7.2140   21.3868  -21.3789 H         1 ALA         0.1883
    162 H75         7.8856   19.2553  -23.2497 H         1 ALA         0.0797
    163 H76         5.4340   18.8163  -23.2455 H         1 ALA         0.0277
    164 H77         5.1835   20.2987  -22.2624 H         1 ALA         0.0277
    165 H78         6.1104   18.9174  -21.5845 H         1 ALA         0.0277
    166 H79         7.1536   22.6075  -23.6307 H         1 THR         0.1876
    167 H80         5.6595   22.3625  -26.0866 H         1 THR         0.0752
    168 H81         6.1936   24.8018  -26.3956 H         1 THR         0.0632
    169 H82         7.6367   24.4280  -23.9525 H         1 THR         0.2100
    170 H83         4.9627   25.5800  -24.3946 H         1 THR         0.0256
    171 H84         5.2579   23.9974  -23.5980 H         1 THR         0.0256
    172 H85         4.2358   24.0838  -25.0726 H         1 THR         0.0256
@<TRIPOS>BOND
     1    1    2 1  
     2    2    3 1  
     3    2    5 1  
     4    3    4 2  
     5    3    9 am 
     6    5    6 1  
     7    6    7 ar 
     8    6    8 ar 
     9    9   10 1  
    10   10   11 1  
    11   10   13 1  
    12   11   12 2  
    13   11   17 am 
    14   13   14 1  
    15   14   15 ar 
    16   14   16 ar 
    17   17   18 1  
    18   18   19 1  
    19   18   21 1  
    20   19   20 2  
    21   19   25 am 
    22   21   22 1  
    23   21   23 1  
    24   22   24 1  
    25   25   26 1  
    26   26   27 1  
    27   26   29 1  
    28   27   28 2  
    29   27   34 am 
    30   29   30 1  
    31   30   31 1  
    32   31   32 1  
    33   32   33 1  
    34   34   35 1  
    35   35   36 1  
    36   35   38 1  
    37   36   37 2  
    38   36   43 am 
    39   38   39 1  
    40   39   40 1  
    41   40   41 2  
    42   40   42 am 
    43   43   44 1  
    44   44   45 1  
    45   44   47 1  
    46   45   46 2  
    47   45   51 am 
    48   47   48 1  
    49   48   49 1  
    50   48   50 1  
    51   51   52 1  
    52   52   53 1  
    53   52   55 1  
    54   53   54 2  
    55   53   56 am 
    56   56   57 1  
    57   57   58 1  
    58   57   60 1  
    59   58   59 2  
    60   58   61 am 
    61   61   62 1  
    62   62   63 1  
    63   62   65 1  
    64   63   64 2  
    65   63   75 am 
    66   65   66 1  
    67   66   67 2  
    68   66   68 1  
    69   67   69 1  
    70   68   70 ar 
    71   68   71 ar 
    72   69   70 1  
    73   70   72 ar 
    74   71   73 ar 
    75   72   74 ar 
    76   73   74 ar 
    77   75   76 1  
    78   76   77 1  
    79   76   79 1  
    80   77   78 2  
    81   77   80 am 
    82   80   81 1  
    83   81   82 1  
    84   81   84 1  
    85   82   83 ar 
    86   82   87 ar 
    87   84   85 1  
    88   84   86 1  
    89    1   88 1  
    90    1   89 1  
    91    1   90 1  
    92    2   91 1  
    93    5   92 1  
    94    5   93 1  
    95    9   94 1  
    96   10   95 1  
    97   13   96 1  
    98   13   97 1  
    99   17   98 1  
   100   18   99 1  
   101   21  100 1  
   102   22  101 1  
   103   22  102 1  
   104   23  103 1  
   105   23  104 1  
   106   23  105 1  
   107   24  106 1  
   108   24  107 1  
   109   24  108 1  
   110   25  109 1  
   111   26  110 1  
   112   29  111 1  
   113   29  112 1  
   114   30  113 1  
   115   30  114 1  
   116   31  115 1  
   117   31  116 1  
   118   32  117 1  
   119   32  118 1  
   120   33  119 1  
   121   33  120 1  
   122   33  121 1  
   123   34  122 1  
   124   35  123 1  
   125   38  124 1  
   126   38  125 1  
   127   39  126 1  
   128   39  127 1  
   129   42  128 1  
   130   42  129 1  
   131   43  130 1  
   132   44  131 1  
   133   47  132 1  
   134   47  133 1  
   135   48  134 1  
   136   49  135 1  
   137   49  136 1  
   138   49  137 1  
   139   50  138 1  
   140   50  139 1  
   141   50  140 1  
   142   51  141 1  
   143   52  142 1  
   144   55  143 1  
   145   55  144 1  
   146   55  145 1  
   147   56  146 1  
   148   57  147 1  
   149   60  148 1  
   150   60  149 1  
   151   60  150 1  
   152   61  151 1  
   153   62  152 1  
   154   65  153 1  
   155   65  154 1  
   156   67  155 1  
   157   69  156 1  
   158   71  157 1  
   159   72  158 1  
   160   73  159 1  
   161   74  160 1  
   162   75  161 1  
   163   76  162 1  
   164   79  163 1  
   165   79  164 1  
   166   79  165 1  
   167   80  166 1  
   168   81  167 1  
   169   84  168 1  
   170   85  169 1  
   171   86  170 1  
   172   86  171 1  
   173   86  172 1  
@<TRIPOS>SUBSTRUCTURE
     1 ASP         1

