6csf_ligand
  -I-interpret- 

 14 13  0  0  0  0  0  0  0  0999 V2000
  252.3950  -14.9320  -32.4210 N   0  3  0  0  0
  250.9770  -14.7320  -32.1920 C   0  0  0  0  0
  250.4410  -13.7100  -33.1880 C   0  0  0  0  0
  250.7610  -14.2300  -30.7950 C   0  0  0  0  0
  250.4450  -13.0310  -30.6350 O   0  0  0  0  0
  250.9060  -15.0290  -29.8450 O   0  0  0  0  0
  252.5399  -15.2733  -33.3712 H   0  0  0  0  0
  252.8863  -14.0466  -32.2978 H   0  0  0  0  0
  252.7526  -15.6163  -31.7545 H   0  0  0  0  0
  250.4511  -15.6777  -32.3229 H   0  0  0  0  0
  249.3751  -13.5610  -33.0156 H   0  0  0  0  0
  250.9674  -12.7648  -33.0555 H   0  0  0  0  0
  250.5986  -14.0760  -34.2025 H   0  0  0  0  0
  250.3879  -12.5994  -31.4906 H   0  0  0  0  0
  1  2  1  0  0  0
  2  3  1  0  0  0
  2  4  1  0  0  0
  4  5  1  0  0  0
  4  6  2  0  0  0
  1  7  1  0  0  0
  1  8  1  0  0  0
  1  9  1  0  0  0
  2 10  1  0  0  0
  3 11  1  0  0  0
  3 12  1  0  0  0
  3 13  1  0  0  0
  5 14  1  0  0  0
M  END
$$$$
