### 
### Created by X-TOOL on Mon Aug  2 16:11:28 2021
### 

@<TRIPOS>MOLECULE
6q4q_ligand
  228   237     1     0     0
SMALL
GAST_HUCK


@<TRIPOS>ATOM
      1 N         -16.8710    4.6690  -42.6340 N.am      1 ARG        -0.2636
      2 CA        -16.3340    3.7810  -41.6130 C.3       1 ARG         0.1311
      3 C         -17.1830    2.5290  -41.6410 C.2       1 ARG         0.2039
      4 O         -18.3030    2.5760  -42.1460 O.2       1 ARG        -0.3944
      5 CB        -16.3960    4.4850  -40.2400 C.3       1 ARG        -0.0092
      6 CG        -15.3990    5.6340  -40.0990 C.3       1 ARG        -0.0156
      7 CD        -15.5460    6.4020  -38.8040 C.3       1 ARG         0.0627
      8 NE        -14.5910    7.5090  -38.6750 N.pl3     1 ARG        -0.2723
      9 CZ        -13.5380    7.5150  -37.8600 C.cat     1 ARG         0.2882
     10 NH1       -13.2620    6.4540  -37.1140 N.pl3     1 ARG        -0.2849
     11 NH2       -12.7450    8.5810  -37.7930 N.pl3     1 ARG        -0.2849
     12 N         -16.6290    1.3880  -41.1760 N.am      1 ARG        -0.2637
     13 CA        -17.3730    0.1550  -41.0170 C.3       1 ARG         0.1312
     14 C         -17.2540   -0.1500  -39.5320 C.2       1 ARG         0.2040
     15 O         -16.1290   -0.2750  -39.0120 O.2       1 ARG        -0.3944
     16 CB        -16.8400   -1.0070  -41.8720 C.3       1 ARG        -0.0101
     17 CG        -17.6630   -2.3060  -41.8270 C.3       1 ARG        -0.0425
     18 CD1       -19.1350   -2.0830  -42.2020 C.3       1 ARG        -0.0625
     19 CD2       -17.0510   -3.3660  -42.7320 C.3       1 ARG        -0.0625
     20 N         -18.4090   -0.1640  -38.8370 N.am      1 ARG        -0.2621
     21 CA        -18.4790   -0.3730  -37.3870 C.3       1 ARG         0.1390
     22 C         -17.5320    0.5740  -36.6480 C.2       1 ARG         0.2055
     23 O         -16.9030    0.2030  -35.6510 O.2       1 ARG        -0.3942
     24 CB        -18.2670   -1.8560  -37.0090 C.3       1 ARG         0.0163
     25 CG        -19.2820   -2.7780  -37.6390 C.ar      1 ARG        -0.0493
     26 CD1       -20.6220   -2.7290  -37.2680 C.ar      1 ARG        -0.0685
     27 CD2       -18.8980   -3.7250  -38.5760 C.ar      1 ARG        -0.0685
     28 CE1       -21.5570   -3.5990  -37.8220 C.ar      1 ARG        -0.0398
     29 CE2       -19.8200   -4.6160  -39.1220 C.ar      1 ARG        -0.0398
     30 CZ        -21.1480   -4.5430  -38.7480 C.ar      1 ARG         0.0805
     31 OH        -22.0650   -5.4100  -39.2970 O.3       1 ARG        -0.3376
     32 N         -17.3870    1.7740  -37.2190 N.am      1 ARG        -0.2663
     33 CA        -16.5470    2.8430  -36.7000 C.3       1 ARG         0.1201
     34 C         -15.0980    2.8740  -37.1340 C.2       1 ARG         0.2009
     35 O         -14.3980    3.8400  -36.8320 O.2       1 ARG        -0.3947
     36 N         -14.6240    1.8190  -37.8340 N.am      1 ARG        -0.2622
     37 CA        -13.2390    1.7950  -38.2690 C.3       1 ARG         0.1404
     38 C         -13.0750    2.4700  -39.6270 C.2       1 ARG         0.2060
     39 O         -13.8570    2.2020  -40.5270 O.2       1 ARG        -0.3942
     40 CB        -12.7610    0.3390  -38.4710 C.3       1 ARG         0.0214
     41 CG        -12.6610   -0.4750  -37.2010 C.ar      1 ARG        -0.0386
     42 CD1       -11.5290   -0.3940  -36.3990 C.ar      1 ARG        -0.0601
     43 CD2       -13.6590   -1.3800  -36.8600 C.ar      1 ARG        -0.0601
     44 CE1       -11.4220   -1.1740  -35.2280 C.ar      1 ARG        -0.0686
     45 CE2       -13.5610   -2.1420  -35.6800 C.ar      1 ARG        -0.0686
     46 CZ        -12.4400   -2.0310  -34.8890 C.ar      1 ARG        -0.0687
     47 N         -11.9960    3.2110  -39.7810 N.am      1 ARG        -0.2636
     48 CA        -11.5720    3.7630  -41.0670 C.3       1 ARG         0.1310
     49 C         -10.8470    2.6160  -41.7900 C.2       1 ARG         0.2040
     50 O         -10.5470    1.5620  -41.1770 O.2       1 ARG        -0.3944
     51 CB        -10.6080    4.9310  -40.8630 C.3       1 ARG        -0.0122
     52 CG        -11.3090    6.2390  -40.5200 C.3       1 ARG        -0.0440
     53 CD        -10.3630    7.2450  -39.8790 C.3       1 ARG        -0.0124
     54 CE         -9.5930    8.1080  -40.8620 C.3       1 ARG        -0.0354
     55 NZ         -8.7350    9.1120  -40.1700 N.4       1 ARG         0.2185
     56 N         -10.5450    2.8180  -43.0840 N.am      1 ARG        -0.2627
     57 CA         -9.8780    1.8010  -43.8980 C.3       1 ARG         0.1350
     58 C          -8.4730    2.2000  -44.3370 C.2       1 ARG         0.2036
     59 O          -8.2030    3.3900  -44.5080 O.2       1 ARG        -0.3944
     60 CB        -10.7230    1.5140  -45.1180 C.3       1 ARG         0.0042
     61 CG        -12.0260    0.8380  -44.8310 C.2       1 ARG        -0.0418
     62 CD1       -13.1800    1.4350  -44.4150 C.2       1 ARG         0.0167
     63 CD2       -12.3470   -0.5370  -45.0720 C.ar      1 ARG        -0.0214
     64 NE1       -14.1920    0.5080  -44.3480 N.pl3     1 ARG        -0.2890
     65 CE2       -13.7050   -0.7160  -44.7250 C.ar      1 ARG         0.0603
     66 CE3       -11.6010   -1.6580  -45.4900 C.ar      1 ARG        -0.0747
     67 CZ2       -14.3490   -1.9580  -44.8310 C.ar      1 ARG        -0.0443
     68 CZ3       -12.2410   -2.8790  -45.6180 C.ar      1 ARG        -0.0792
     69 CH2       -13.5930   -3.0280  -45.2680 C.ar      1 ARG        -0.0768
     70 N          -7.5970    1.2020  -44.5050 N.am      1 ARG        -0.2696
     71 CA         -6.1970    1.4480  -44.9450 C.3       1 ARG         0.1536
     72 C          -5.8910    0.6250  -46.2020 C.3       1 ARG         0.3028
     73 O          -5.9160   -0.6170  -46.0880 O.3       1 ARG        -0.3201
     74 CB         -5.1920    1.1490  -43.8260 C.3       1 ARG         0.0081
     75 CG         -3.7740    1.2660  -44.2750 C.2       1 ARG        -0.0045
     76 ND1        -2.9990    2.3760  -43.9990 N.2       1 ARG        -0.3254
     77 CD2        -2.9970    0.4320  -44.9990 C.2       1 ARG         0.0290
     78 CE1        -1.8010    2.2130  -44.5200 C.2       1 ARG         0.0907
     79 NE2        -1.7740    1.0280  -45.1400 N.pl3     1 ARG        -0.2752
     80 OXT        -5.6390    1.2570  -47.2480 O.3       1 ARG        -0.2275
     81 C2        -17.5390    9.6260  -43.2270 C.3       1 ARG         0.1200
     82 N2        -15.4770    4.8820  -46.2840 N.pl3     1 ARG        -0.1625
     83 C3        -17.5740    8.2730  -43.9110 C.2       1 ARG         0.2008
     84 C5        -15.5620    6.2460  -45.7800 C.3       1 ARG         0.1197
     85 O6        -15.8190   -1.8700  -48.5420 O.co2     1 ARG        -0.5607
     86 C4        -16.3630    6.2310  -44.4810 C.3       1 ARG         0.1617
     87 C10       -13.9620   -0.4190  -48.3810 C.ar      1 ARG         0.0019
     88 C11       -12.5990   -0.2640  -48.6180 C.ar      1 ARG        -0.0501
     89 C12       -11.9840    0.9580  -48.3630 C.ar      1 ARG        -0.0205
     90 C13       -12.7310    2.0090  -47.8590 C.ar      1 ARG        -0.0562
     91 N3        -16.2060    3.0340  -47.0520 N.2       1 ARG        -0.2165
     92 C9        -14.7060    0.6430  -47.8740 C.ar      1 ARG        -0.0501
     93 C8        -14.0870    1.8610  -47.6150 C.ar      1 ARG        -0.0205
     94 C7        -14.8460    2.9950  -47.0810 C.2       1 ARG         0.0696
     95 O7        -14.5590    4.9990  -43.4920 O.2       1 ARG        -0.3943
     96 N1        -16.4320    7.5840  -43.9290 N.am      1 ARG        -0.2612
     97 C1        -15.8940   10.1000  -41.5170 C.2       1 ARG         0.1749
     98 O5        -13.8510   -2.5730  -49.1810 O.co2     1 ARG        -0.5607
     99 C6        -14.3840    4.1780  -46.5820 C.2       1 ARG         0.0879
    100 O4         -0.7790   -2.5990  -51.6540 O.2       1 ARG        -0.3951
    101 O3         -2.4920   -0.8370  -49.9840 O.2       1 ARG        -0.3947
    102 O2         -3.9660    0.9380  -48.9110 O.2       1 ARG        -0.3906
    103 N         -16.2250   10.0590  -42.8060 N.am      1 ARG        -0.2685
    104 C24       -14.6840   10.9120  -41.1700 C.3       1 ARG         0.0258
    105 O         -16.5390    9.5050  -40.6660 O.2       1 ARG        -0.3972
    106 O1        -18.6090    7.8530  -44.4080 O.2       1 ARG        -0.3947
    107 N4        -16.5880    4.1850  -46.5640 N.2       1 ARG        -0.0903
    108 N5         -8.5250    1.0700  -49.3100 N.pl3     1 ARG        -0.1592
    109 N6         -6.2930    1.0840  -47.5860 N.4       1 ARG         0.4642
    110 N7         -4.8790   -0.0250  -50.7470 N.am      1 ARG        -0.2636
    111 N8         -1.3780    0.1330  -51.6770 N.am      1 ARG        -0.2667
    112 N9          1.4270   -2.1780  -51.7470 N.am      1 ARG        -0.2992
    113 N10        -8.7630    2.3470  -48.9750 N.2       1 ARG        -0.0902
    114 N11       -10.0070    2.4150  -48.5960 N.2       1 ARG        -0.2165
    115 C14       -10.5690    1.1740  -48.6790 C.2       1 ARG         0.0696
    116 C15        -9.6120    0.3140  -49.1250 C.2       1 ARG         0.0881
    117 C16        -7.2390    0.6810  -49.8590 C.3       1 ARG         0.1409
    118 C17        -6.2340    0.2510  -48.7920 C.3       1 ARG         0.1391
    119 C18        -4.9140    0.4160  -49.4870 C.2       1 ARG         0.2311
    120 C19        -3.7890    0.3040  -51.6320 C.3       1 ARG         0.1202
    121 C20        -2.4890   -0.1810  -51.0200 C.2       1 ARG         0.2005
    122 C21        -0.0940   -0.3620  -51.2330 C.3       1 ARG         0.1198
    123 C22         0.1680   -1.8150  -51.5630 C.2       1 ARG         0.1960
    124 C23       -14.6310   -1.6990  -48.7010 C.2       1 ARG         0.0610
    125 C         -15.7290    5.1840  -43.4730 C.2       1 ARG         0.2070
    126 H1        -17.8362    4.8990  -42.7582 H         1 ARG         0.1883
    127 H2        -15.2887    3.5261  -41.8418 H         1 ARG         0.0800
    128 H3        -16.1835    3.7416  -39.4576 H         1 ARG         0.0313
    129 H4        -17.4108    4.8854  -40.0995 H         1 ARG         0.0313
    130 H5        -15.5495    6.3310  -40.9366 H         1 ARG         0.0301
    131 H6        -14.3810    5.2199  -40.1450 H         1 ARG         0.0301
    132 H7        -15.3901    5.7068  -37.9659 H         1 ARG         0.0689
    133 H8        -16.5653    6.8126  -38.7551 H         1 ARG         0.0689
    134 H9        -14.7469    8.3434  -39.2584 H         1 ARG         0.2642
    135 H10       -12.4461    6.4645  -36.4854 H         1 ARG         0.2615
    136 H11       -13.8635    5.6193  -37.1631 H         1 ARG         0.2615
    137 H12       -12.9487    9.4113  -38.3674 H         1 ARG         0.2615
    138 H13       -11.9273    8.5760  -37.1667 H         1 ARG         0.2615
    139 H14       -15.6598    1.3947  -40.9300 H         1 ARG         0.1883
    140 H15       -18.4265    0.3224  -41.2856 H         1 ARG         0.0800
    141 H16       -15.8222   -1.2406  -41.5265 H         1 ARG         0.0315
    142 H17       -16.8034   -0.6672  -42.9175 H         1 ARG         0.0315
    143 H18       -17.6339   -2.6817  -40.7936 H         1 ARG         0.0298
    144 H19       -19.6747   -3.0403  -42.1536 H         1 ARG         0.0232
    145 H20       -19.1961   -1.6789  -43.2232 H         1 ARG         0.0232
    146 H21       -19.5889   -1.3702  -41.4978 H         1 ARG         0.0232
    147 H22       -15.9971   -3.5193  -42.4565 H         1 ARG         0.0232
    148 H23       -17.1117   -3.0338  -43.7789 H         1 ARG         0.0232
    149 H24       -17.6018   -4.3109  -42.6145 H         1 ARG         0.0232
    150 H25       -19.2638   -0.0244  -39.3368 H         1 ARG         0.1885
    151 H26       -19.5000   -0.1106  -37.0727 H         1 ARG         0.0821
    152 H27       -18.3378   -1.9522  -35.9155 H         1 ARG         0.0453
    153 H28       -17.2635   -2.1617  -37.3398 H         1 ARG         0.0453
    154 H29       -20.9441   -1.9996  -36.5337 H         1 ARG         0.0530
    155 H30       -17.8615   -3.7732  -38.8897 H         1 ARG         0.0530
    156 H31       -22.5991   -3.5375  -37.5299 H         1 ARG         0.0525
    157 H32       -19.4965   -5.3634  -39.8374 H         1 ARG         0.0525
    158 H33       -21.8164   -6.3036  -39.0920 H         1 ARG         0.2458
    159 H34       -17.8923    1.9498  -38.0639 H         1 ARG         0.1881
    160 H35       -16.5594    2.7670  -35.6027 H         1 ARG         0.0763
    161 H36       -17.0020    3.7964  -37.0067 H         1 ARG         0.0763
    162 H37       -15.2288    1.0533  -38.0527 H         1 ARG         0.1885
    163 H38       -12.6154    2.3005  -37.5169 H         1 ARG         0.0823
    164 H39       -11.7661    0.3668  -38.9393 H         1 ARG         0.0474
    165 H40       -13.4698   -0.1639  -39.1453 H         1 ARG         0.0474
    166 H41       -10.7213    0.2741  -36.6753 H         1 ARG         0.0557
    167 H42       -14.5199   -1.5003  -37.5077 H         1 ARG         0.0557
    168 H43       -10.5418   -1.0972  -34.6000 H         1 ARG         0.0599
    169 H44       -14.3641   -2.8125  -35.3960 H         1 ARG         0.0599
    170 H45       -12.3598   -2.6274  -33.9874 H         1 ARG         0.0559
    171 H46       -11.4372    3.4062  -38.9750 H         1 ARG         0.1883
    172 H47       -12.4437    4.0993  -41.6475 H         1 ARG         0.0800
    173 H48       -10.0337    5.0755  -41.7900 H         1 ARG         0.0312
    174 H49        -9.9213    4.6774  -40.0420 H         1 ARG         0.0312
    175 H50       -12.1303    6.0281  -39.8192 H         1 ARG         0.0269
    176 H51       -11.7177    6.6751  -41.4434 H         1 ARG         0.0269
    177 H52        -9.6360    6.6902  -39.2677 H         1 ARG         0.0317
    178 H53       -10.9556    7.9084  -39.2320 H         1 ARG         0.0317
    179 H54       -10.3096    8.6375  -41.5070 H         1 ARG         0.0813
    180 H55        -8.9537    7.4596  -41.4791 H         1 ARG         0.0813
    181 H56        -8.2425    9.6627  -40.8557 H         1 ARG         0.1994
    182 H57        -8.0700    8.6364  -39.5805 H         1 ARG         0.1994
    183 H58        -9.3124    9.7158  -39.6060 H         1 ARG         0.1994
    184 H59       -10.7842    3.6930  -43.5049 H         1 ARG         0.1884
    185 H60        -9.7978    0.8829  -43.2974 H         1 ARG         0.0815
    186 H61       -10.1427    0.8671  -45.7923 H         1 ARG         0.0397
    187 H62       -10.9360    2.4694  -45.6198 H         1 ARG         0.0397
    188 H63       -13.2839    2.4914  -44.1717 H         1 ARG         0.0795
    189 H64       -15.1618    0.7022  -44.0603 H         1 ARG         0.2216
    190 H65       -10.5431   -1.5653  -45.7077 H         1 ARG         0.0540
    191 H66       -15.3973   -2.0731  -44.5801 H         1 ARG         0.0541
    192 H67       -11.6900   -3.7333  -45.9942 H         1 ARG         0.0510
    193 H68       -14.0541   -4.0062  -45.3426 H         1 ARG         0.0530
    194 H69        -7.8923    0.2628  -44.3295 H         1 ARG         0.1860
    195 H70        -6.1040    2.5132  -45.2034 H         1 ARG         0.0690
    196 H71        -6.5714   -0.9746  -46.6753 H         1 ARG         0.2185
    197 H72        -5.3627    0.1240  -43.4651 H         1 ARG         0.0399
    198 H73        -5.3599    1.8601  -43.0037 H         1 ARG         0.0399
    199 H74        -3.2905   -0.5379  -45.3978 H         1 ARG         0.0729
    200 H75        -0.9753    2.9202  -44.4571 H         1 ARG         0.1199
    201 H76        -0.9663    0.6304  -45.6405 H         1 ARG         0.2361
    202 H77       -18.1842    9.5766  -42.3375 H         1 ARG         0.0763
    203 H78       -17.9375   10.3742  -43.9280 H         1 ARG         0.0763
    204 H79       -16.0665    6.8847  -46.5200 H         1 ARG         0.0705
    205 H80       -14.5510    6.6349  -45.5884 H         1 ARG         0.0705
    206 H81       -17.3891    5.9048  -44.7063 H         1 ARG         0.0831
    207 H82       -12.0171   -1.0946  -49.0009 H         1 ARG         0.0580
    208 H83       -12.2498    2.9582  -47.6530 H         1 ARG         0.0563
    209 H84       -15.7657    0.5206  -47.6815 H         1 ARG         0.0580
    210 H85       -15.6036    8.0022  -43.5564 H         1 ARG         0.1884
    211 H86       -13.3461    4.4820  -46.4545 H         1 ARG         0.1077
    212 H87       -15.5535   10.3323  -43.4948 H         1 ARG         0.1880
    213 H88       -14.5130   10.8695  -40.0842 H         1 ARG         0.0467
    214 H89       -14.8435   11.9566  -41.4754 H         1 ARG         0.0467
    215 H90       -13.8070   10.5061  -41.6954 H         1 ARG         0.0467
    216 H91        -7.0333    1.7606  -47.6867 H         1 ARG         0.2496
    217 H92        -5.6264   -0.5970  -51.0849 H         1 ARG         0.1882
    218 H93        -1.4301    0.7175  -52.4867 H         1 ARG         0.1881
    219 H94         2.1596   -1.5027  -51.6617 H         1 ARG         0.1815
    220 H95         1.6459   -3.1276  -51.9714 H         1 ARG         0.1815
    221 H96        -9.7107   -0.7572  -49.2943 H         1 ARG         0.1077
    222 H97        -6.8203    1.5368  -50.4088 H         1 ARG         0.0740
    223 H98        -7.3944   -0.1593  -50.5516 H         1 ARG         0.0740
    224 H99        -6.3997   -0.7990  -48.5090 H         1 ARG         0.1145
    225 H100       -3.7454    1.3940  -51.7733 H         1 ARG         0.0763
    226 H101       -3.9435   -0.1860  -52.6046 H         1 ARG         0.0763
    227 H102       -0.0390   -0.2427  -50.1409 H         1 ARG         0.0763
    228 H103        0.6909    0.2448  -51.7081 H         1 ARG         0.0763
@<TRIPOS>BOND
     1    1    2 1  
     2  125    1 am 
     3    2    3 1  
     4    2    5 1  
     5    3    4 2  
     6    3   12 am 
     7    5    6 1  
     8    6    7 1  
     9    7    8 1  
    10    8    9 ar 
    11    9   10 ar 
    12    9   11 ar 
    13   12   13 1  
    14   13   14 1  
    15   13   16 1  
    16   14   15 2  
    17   14   20 am 
    18   16   17 1  
    19   17   18 1  
    20   17   19 1  
    21   21   20 1  
    22   22   21 1  
    23   21   24 1  
    24   22   23 2  
    25   32   22 am 
    26   24   25 1  
    27   25   26 ar 
    28   25   27 ar 
    29   26   28 ar 
    30   27   29 ar 
    31   28   30 ar 
    32   29   30 ar 
    33   30   31 1  
    34   33   32 1  
    35   34   33 1  
    36   34   35 2  
    37   36   34 am 
    38   37   36 1  
    39   38   37 1  
    40   37   40 1  
    41   38   39 2  
    42   47   38 am 
    43   40   41 1  
    44   41   42 ar 
    45   41   43 ar 
    46   42   44 ar 
    47   43   45 ar 
    48   44   46 ar 
    49   45   46 ar 
    50   48   47 1  
    51   49   48 1  
    52   48   51 1  
    53   49   50 2  
    54   56   49 am 
    55   51   52 1  
    56   52   53 1  
    57   53   54 1  
    58   54   55 1  
    59   57   56 1  
    60   58   57 1  
    61   57   60 1  
    62   58   59 2  
    63   70   58 am 
    64   60   61 1  
    65   61   62 2  
    66   61   63 1  
    67   62   64 1  
    68   63   65 ar 
    69   63   66 ar 
    70   65   64 1  
    71   65   67 ar 
    72   66   68 ar 
    73   67   69 ar 
    74   68   69 ar 
    75   71   70 1  
    76   72   71 1  
    77   71   74 1  
    78   72   73 1  
    79   80   72 1  
    80  109   72 1  
    81   74   75 1  
    82   75   76 1  
    83   75   77 2  
    84   76   78 2  
    85   77   79 1  
    86   79   78 1  
    87  109   80 1  
    88   83   81 1  
    89   81  103 1  
    90   82   84 1  
    91   99   82 1  
    92   82  107 1  
    93   96   83 am 
    94   83  106 2  
    95   84   86 1  
    96  124   85 ar 
    97   86   96 1  
    98   86  125 1  
    99   88   87 ar 
   100   87   92 ar 
   101   87  124 1  
   102   89   88 ar 
   103   89   90 ar 
   104  115   89 1  
   105   90   93 ar 
   106   94   91 1  
   107   91  107 2  
   108   93   92 ar 
   109   93   94 1  
   110   94   99 2  
   111  125   95 2  
   112  103   97 am 
   113   97  104 1  
   114   97  105 2  
   115  124   98 ar 
   116  123  100 2  
   117  121  101 2  
   118  119  102 2  
   119  108  113 1  
   120  108  116 1  
   121  117  108 1  
   122  118  109 1  
   123  110  119 am 
   124  120  110 1  
   125  111  121 am 
   126  122  111 1  
   127  123  112 am 
   128  113  114 2  
   129  115  114 1  
   130  116  115 2  
   131  118  117 1  
   132  119  118 1  
   133  121  120 1  
   134  122  123 1  
   135    1  126 1  
   136    2  127 1  
   137    5  128 1  
   138    5  129 1  
   139    6  130 1  
   140    6  131 1  
   141    7  132 1  
   142    7  133 1  
   143    8  134 1  
   144   10  135 1  
   145   10  136 1  
   146   11  137 1  
   147   11  138 1  
   148   12  139 1  
   149   13  140 1  
   150   16  141 1  
   151   16  142 1  
   152   17  143 1  
   153   18  144 1  
   154   18  145 1  
   155   18  146 1  
   156   19  147 1  
   157   19  148 1  
   158   19  149 1  
   159   20  150 1  
   160   21  151 1  
   161   24  152 1  
   162   24  153 1  
   163   26  154 1  
   164   27  155 1  
   165   28  156 1  
   166   29  157 1  
   167   31  158 1  
   168   32  159 1  
   169   33  160 1  
   170   33  161 1  
   171   36  162 1  
   172   37  163 1  
   173   40  164 1  
   174   40  165 1  
   175   42  166 1  
   176   43  167 1  
   177   44  168 1  
   178   45  169 1  
   179   46  170 1  
   180   47  171 1  
   181   48  172 1  
   182   51  173 1  
   183   51  174 1  
   184   52  175 1  
   185   52  176 1  
   186   53  177 1  
   187   53  178 1  
   188   54  179 1  
   189   54  180 1  
   190   55  181 1  
   191   55  182 1  
   192   55  183 1  
   193   56  184 1  
   194   57  185 1  
   195   60  186 1  
   196   60  187 1  
   197   62  188 1  
   198   64  189 1  
   199   66  190 1  
   200   67  191 1  
   201   68  192 1  
   202   69  193 1  
   203   70  194 1  
   204   71  195 1  
   205   73  196 1  
   206   74  197 1  
   207   74  198 1  
   208   77  199 1  
   209   78  200 1  
   210   79  201 1  
   211   81  202 1  
   212   81  203 1  
   213   84  204 1  
   214   84  205 1  
   215   86  206 1  
   216   88  207 1  
   217   90  208 1  
   218   92  209 1  
   219   96  210 1  
   220   99  211 1  
   221  103  212 1  
   222  104  213 1  
   223  104  214 1  
   224  104  215 1  
   225  109  216 1  
   226  110  217 1  
   227  111  218 1  
   228  112  219 1  
   229  112  220 1  
   230  116  221 1  
   231  117  222 1  
   232  117  223 1  
   233  118  224 1  
   234  120  225 1  
   235  120  226 1  
   236  122  227 1  
   237  122  228 1  
@<TRIPOS>SUBSTRUCTURE
     1 ARG         1

