6q4q_ligand
  -I-interpret- 

226235  0  0  0  0  0  0  0  0999 V2000
  -16.8710    4.6690  -42.6340 N   0  0  0  0  0
  -16.3340    3.7810  -41.6130 C   0  0  0  0  0
  -17.1830    2.5290  -41.6410 C   0  0  0  0  0
  -18.3030    2.5760  -42.1460 O   0  0  0  0  0
  -16.3960    4.4850  -40.2400 C   0  0  0  0  0
  -15.3990    5.6340  -40.0990 C   0  0  0  0  0
  -15.5460    6.4020  -38.8040 C   0  0  0  0  0
  -14.5910    7.5090  -38.6750 N   0  0  0  0  0
  -13.5380    7.5150  -37.8600 C   0  0  0  0  0
  -13.2620    6.4540  -37.1140 N   0  0  0  0  0
  -12.7450    8.5810  -37.7930 N   0  0  0  0  0
  -16.6290    1.3880  -41.1760 N   0  0  0  0  0
  -17.3730    0.1550  -41.0170 C   0  0  0  0  0
  -17.2540   -0.1500  -39.5320 C   0  0  0  0  0
  -16.1290   -0.2750  -39.0120 O   0  0  0  0  0
  -16.8400   -1.0070  -41.8720 C   0  0  0  0  0
  -17.6630   -2.3060  -41.8270 C   0  0  0  0  0
  -19.1350   -2.0830  -42.2020 C   0  0  0  0  0
  -17.0510   -3.3660  -42.7320 C   0  0  0  0  0
  -18.4090   -0.1640  -38.8370 N   0  0  0  0  0
  -18.4790   -0.3730  -37.3870 C   0  0  0  0  0
  -17.5320    0.5740  -36.6480 C   0  0  0  0  0
  -16.9030    0.2030  -35.6510 O   0  0  0  0  0
  -18.2670   -1.8560  -37.0090 C   0  0  0  0  0
  -19.2820   -2.7780  -37.6390 C   0  0  0  0  0
  -20.6220   -2.7290  -37.2680 C   0  0  0  0  0
  -18.8980   -3.7250  -38.5760 C   0  0  0  0  0
  -21.5570   -3.5990  -37.8220 C   0  0  0  0  0
  -19.8200   -4.6160  -39.1220 C   0  0  0  0  0
  -21.1480   -4.5430  -38.7480 C   0  0  0  0  0
  -22.0650   -5.4100  -39.2970 O   0  0  0  0  0
  -17.3870    1.7740  -37.2190 N   0  0  0  0  0
  -16.5470    2.8430  -36.7000 C   0  0  0  0  0
  -15.0980    2.8740  -37.1340 C   0  0  0  0  0
  -14.3980    3.8400  -36.8320 O   0  0  0  0  0
  -14.6240    1.8190  -37.8340 N   0  0  0  0  0
  -13.2390    1.7950  -38.2690 C   0  0  0  0  0
  -13.0750    2.4700  -39.6270 C   0  0  0  0  0
  -13.8570    2.2020  -40.5270 O   0  0  0  0  0
  -12.7610    0.3390  -38.4710 C   0  0  0  0  0
  -12.6610   -0.4750  -37.2010 C   0  0  0  0  0
  -11.5290   -0.3940  -36.3990 C   0  0  0  0  0
  -13.6590   -1.3800  -36.8600 C   0  0  0  0  0
  -11.4220   -1.1740  -35.2280 C   0  0  0  0  0
  -13.5610   -2.1420  -35.6800 C   0  0  0  0  0
  -12.4400   -2.0310  -34.8890 C   0  0  0  0  0
  -11.9960    3.2110  -39.7810 N   0  0  0  0  0
  -11.5720    3.7630  -41.0670 C   0  0  0  0  0
  -10.8470    2.6160  -41.7900 C   0  0  0  0  0
  -10.5470    1.5620  -41.1770 O   0  0  0  0  0
  -10.6080    4.9310  -40.8630 C   0  0  0  0  0
  -11.3090    6.2390  -40.5200 C   0  0  0  0  0
  -10.3630    7.2450  -39.8790 C   0  0  0  0  0
   -9.5930    8.1080  -40.8620 C   0  0  0  0  0
   -8.7350    9.1120  -40.1700 N   0  3  0  0  0
  -10.5450    2.8180  -43.0840 N   0  0  0  0  0
   -9.8780    1.8010  -43.8980 C   0  0  0  0  0
   -8.4730    2.2000  -44.3370 C   0  0  0  0  0
   -8.2030    3.3900  -44.5080 O   0  0  0  0  0
  -10.7230    1.5140  -45.1180 C   0  0  0  0  0
  -12.0260    0.8380  -44.8310 C   0  0  0  0  0
  -13.1800    1.4350  -44.4150 C   0  0  0  0  0
  -12.3470   -0.5370  -45.0720 C   0  0  0  0  0
  -14.1920    0.5080  -44.3480 N   0  0  0  0  0
  -13.7050   -0.7160  -44.7250 C   0  0  0  0  0
  -11.6010   -1.6580  -45.4900 C   0  0  0  0  0
  -14.3490   -1.9580  -44.8310 C   0  0  0  0  0
  -12.2410   -2.8790  -45.6180 C   0  0  0  0  0
  -13.5930   -3.0280  -45.2680 C   0  0  0  0  0
   -7.5970    1.2020  -44.5050 N   0  0  0  0  0
   -6.1970    1.4480  -44.9450 C   0  0  0  0  0
   -5.8910    0.6250  -46.2020 C   0  0  0  0  0
   -5.9160   -0.6170  -46.0880 O   0  0  0  0  0
   -5.1920    1.1490  -43.8260 C   0  0  0  0  0
   -3.7740    1.2660  -44.2750 C   0  0  0  0  0
   -2.9990    2.3760  -43.9990 N   0  0  0  0  0
   -2.9970    0.4320  -44.9990 C   0  0  0  0  0
   -1.8010    2.2130  -44.5200 C   0  0  0  0  0
   -1.7740    1.0280  -45.1400 N   0  0  0  0  0
   -5.6390    1.2570  -47.2480 O   0  0  0  0  0
  -17.5390    9.6260  -43.2270 C   0  0  0  0  0
  -15.4770    4.8820  -46.2840 N   0  0  0  0  0
  -17.5740    8.2730  -43.9110 C   0  0  0  0  0
  -15.5620    6.2460  -45.7800 C   0  0  0  0  0
  -15.8190   -1.8700  -48.5420 O   0  0  0  0  0
  -16.3630    6.2310  -44.4810 C   0  0  0  0  0
  -13.9620   -0.4190  -48.3810 C   0  0  0  0  0
  -12.5990   -0.2640  -48.6180 C   0  0  0  0  0
  -11.9840    0.9580  -48.3630 C   0  0  0  0  0
  -12.7310    2.0090  -47.8590 C   0  0  0  0  0
  -16.2060    3.0340  -47.0520 N   0  0  0  0  0
  -14.7060    0.6430  -47.8740 C   0  0  0  0  0
  -14.0870    1.8610  -47.6150 C   0  0  0  0  0
  -14.8460    2.9950  -47.0810 C   0  0  0  0  0
  -14.5590    4.9990  -43.4920 O   0  0  0  0  0
  -16.4320    7.5840  -43.9290 N   0  0  0  0  0
  -15.8940   10.1000  -41.5170 C   0  0  0  0  0
  -13.8510   -2.5730  -49.1810 O   0  0  0  0  0
  -14.3840    4.1780  -46.5820 C   0  0  0  0  0
   -0.7790   -2.5990  -51.6540 O   0  0  0  0  0
   -2.4920   -0.8370  -49.9840 O   0  0  0  0  0
   -3.9660    0.9380  -48.9110 O   0  0  0  0  0
  -16.2250   10.0590  -42.8060 N   0  0  0  0  0
  -14.6840   10.9120  -41.1700 C   0  0  0  0  0
  -16.5390    9.5050  -40.6660 O   0  0  0  0  0
  -18.6090    7.8530  -44.4080 O   0  0  0  0  0
  -16.5880    4.1850  -46.5640 N   0  0  0  0  0
   -8.5250    1.0700  -49.3100 N   0  0  0  0  0
   -6.2930    1.0840  -47.5860 N   0  3  0  0  0
   -4.8790   -0.0250  -50.7470 N   0  0  0  0  0
   -1.3780    0.1330  -51.6770 N   0  0  0  0  0
    1.4270   -2.1780  -51.7470 N   0  0  0  0  0
   -8.7630    2.3470  -48.9750 N   0  0  0  0  0
  -10.0070    2.4150  -48.5960 N   0  0  0  0  0
  -10.5690    1.1740  -48.6790 C   0  0  0  0  0
   -9.6120    0.3140  -49.1250 C   0  0  0  0  0
   -7.2390    0.6810  -49.8590 C   0  0  0  0  0
   -6.2340    0.2510  -48.7920 C   0  0  0  0  0
   -4.9140    0.4160  -49.4870 C   0  0  0  0  0
   -3.7890    0.3040  -51.6320 C   0  0  0  0  0
   -2.4890   -0.1810  -51.0200 C   0  0  0  0  0
   -0.0940   -0.3620  -51.2330 C   0  0  0  0  0
    0.1680   -1.8150  -51.5630 C   0  0  0  0  0
  -14.6310   -1.6990  -48.7010 C   0  0  0  0  0
  -15.7290    5.1840  -43.4730 C   0  0  0  0  0
  -17.8555    4.9036  -42.7606 H   0  0  0  0  0
  -15.2904    3.5246  -41.7951 H   0  0  0  0  0
  -16.1507    3.7432  -39.4800 H   0  0  0  0  0
  -17.3964    4.9040  -40.1315 H   0  0  0  0  0
  -15.5831    6.3308  -40.9168 H   0  0  0  0  0
  -14.3977    5.2036  -40.1137 H   0  0  0  0  0
  -15.3580    5.7072  -37.9854 H   0  0  0  0  0
  -16.5491    6.8280  -38.7853 H   0  0  0  0  0
  -14.7454    8.3353  -39.2527 H   0  0  0  0  0
  -13.8577    5.6274  -37.1626 H   0  0  0  0  0
  -11.9352    8.5761  -37.1728 H   0  0  0  0  0
  -12.9467    9.4033  -38.3619 H   0  0  0  0  0
  -15.6404    1.3949  -40.9250 H   0  0  0  0  0
  -18.4019    0.2702  -41.3579 H   0  0  0  0  0
  -15.8550   -1.2535  -41.4756 H   0  0  0  0  0
  -16.8641   -0.6637  -42.9062 H   0  0  0  0  0
  -17.6371   -2.6548  -40.7946 H   0  0  0  0  0
  -19.5835   -1.3766  -41.5035 H   0  0  0  0  0
  -19.1941   -1.6825  -43.2140 H   0  0  0  0  0
  -19.6687   -3.0322  -42.1537 H   0  0  0  0  0
  -17.0302   -2.9981  -43.7578 H   0  0  0  0  0
  -16.0350   -3.5817  -42.4013 H   0  0  0  0  0
  -17.6511   -4.2746  -42.6826 H   0  0  0  0  0
  -19.2809   -0.0216  -39.3468 H   0  0  0  0  0
  -19.4884   -0.1241  -37.0595 H   0  0  0  0  0
  -18.3695   -1.9401  -35.9271 H   0  0  0  0  0
  -17.2818   -2.1522  -37.3692 H   0  0  0  0  0
  -20.9459   -1.9955  -36.5296 H   0  0  0  0  0
  -17.8558   -3.7735  -38.8914 H   0  0  0  0  0
  -22.6049   -3.5372  -37.5283 H   0  0  0  0  0
  -19.4947   -5.3676  -39.8413 H   0  0  0  0  0
  -21.6206   -5.9948  -39.9152 H   0  0  0  0  0
  -17.9024    1.9533  -38.0808 H   0  0  0  0  0
  -16.5245    2.6975  -35.6200 H   0  0  0  0  0
  -16.9843    3.7669  -37.0786 H   0  0  0  0  0
  -15.2409    1.0379  -38.0571 H   0  0  0  0  0
  -12.6654    2.3106  -37.4988 H   0  0  0  0  0
  -11.7581    0.3902  -38.8948 H   0  0  0  0  0
  -13.4990   -0.1521  -39.1053 H   0  0  0  0  0
  -10.7168    0.2778  -36.6769 H   0  0  0  0  0
  -14.5246   -1.5009  -37.5113 H   0  0  0  0  0
  -10.5369   -1.0968  -34.5965 H   0  0  0  0  0
  -14.3685   -2.8162  -35.3945 H   0  0  0  0  0
  -12.3594   -2.6307  -33.9824 H   0  0  0  0  0
  -11.4260    3.4102  -38.9589 H   0  0  0  0  0
  -12.4227    4.1391  -41.6353 H   0  0  0  0  0
  -10.0704    5.0814  -41.7992 H   0  0  0  0  0
   -9.9563    4.6777  -40.0268 H   0  0  0  0  0
  -12.1061    6.0212  -39.8092 H   0  0  0  0  0
  -11.6908    6.6726  -41.4443 H   0  0  0  0  0
   -9.6265    6.6728  -39.3149 H   0  0  0  0  0
  -10.9751    7.9177  -39.2783 H   0  0  0  0  0
  -10.3121    8.6434  -41.4819 H   0  0  0  0  0
   -8.9482    7.4584  -41.4539 H   0  0  0  0  0
   -8.2371    9.6686  -40.8648 H   0  0  0  0  0
   -9.3204    9.7223  -39.5997 H   0  0  0  0  0
   -8.0626    8.6296  -39.5738 H   0  0  0  0  0
  -10.7890    3.7105  -43.5133 H   0  0  0  0  0
   -9.7697    0.9136  -43.2744 H   0  0  0  0  0
  -10.1476    0.8381  -45.7506 H   0  0  0  0  0
  -10.9582    2.4755  -45.5743 H   0  0  0  0  0
  -13.2840    2.4923  -44.1715 H   0  0  0  0  0
  -10.5373   -1.5648  -45.7089 H   0  0  0  0  0
  -15.4031   -2.0737  -44.5787 H   0  0  0  0  0
  -11.6869   -3.7381  -45.9963 H   0  0  0  0  0
  -14.0567   -4.0116  -45.3431 H   0  0  0  0  0
   -7.8982    0.2441  -44.3260 H   0  0  0  0  0
   -6.0957    2.5058  -45.1875 H   0  0  0  0  0
   -5.7101   -1.0192  -46.9350 H   0  0  0  0  0
   -5.3542    0.1224  -43.4975 H   0  0  0  0  0
   -5.3514    1.8776  -43.0311 H   0  0  0  0  0
   -3.2908   -0.5388  -45.3981 H   0  0  0  0  0
   -0.9745    2.9208  -44.4571 H   0  0  0  0  0
  -18.1477    9.5413  -42.3268 H   0  0  0  0  0
  -17.8955   10.3568  -43.9529 H   0  0  0  0  0
  -16.0537    6.8846  -46.5138 H   0  0  0  0  0
  -14.5619    6.6388  -45.5968 H   0  0  0  0  0
  -17.3876    5.9106  -44.6700 H   0  0  0  0  0
  -12.0139   -1.0992  -49.0030 H   0  0  0  0  0
  -12.2471    2.9635  -47.6518 H   0  0  0  0  0
  -15.7716    0.5200  -47.6805 H   0  0  0  0  0
  -15.5870    8.0105  -43.5490 H   0  0  0  0  0
  -12.9589   -2.2201  -49.2149 H   0  0  0  0  0
  -13.3451    4.4823  -46.4544 H   0  0  0  0  0
  -15.5401   10.3378  -43.5085 H   0  0  0  0  0
  -14.9666   11.7052  -40.4779 H   0  0  0  0  0
  -13.9382   10.2689  -40.7027 H   0  0  0  0  0
  -14.2698   11.3506  -42.0778 H   0  0  0  0  0
   -7.1220    1.5390  -47.9682 H   0  0  0  0  0
   -5.6414   -0.6084  -51.0916 H   0  0  0  0  0
   -1.4312    0.7292  -52.5029 H   0  0  0  0  0
    1.6503   -3.1466  -51.9759 H   0  0  0  0  0
    2.1743   -1.4892  -51.6600 H   0  0  0  0  0
   -9.7108   -0.7582  -49.2944 H   0  0  0  0  0
   -6.8238    1.5476  -50.3735 H   0  0  0  0  0
   -7.4055   -0.1710  -50.5182 H   0  0  0  0  0
   -6.4252   -0.7606  -48.4341 H   0  0  0  0  0
   -3.7463    1.3837  -51.7755 H   0  0  0  0  0
   -3.9422   -0.1784  -52.5974 H   0  0  0  0  0
   -0.0771   -0.2740  -50.1467 H   0  0  0  0  0
    0.6682    0.2238  -51.7469 H   0  0  0  0  0
  1  2  1  0  0  0
125  1  1  0  0  0
  2  3  1  0  0  0
  2  5  1  0  0  0
  3  4  2  0  0  0
  3 12  1  0  0  0
  5  6  1  0  0  0
  6  7  1  0  0  0
  7  8  1  0  0  0
  8  9  1  0  0  0
  9 10  2  0  0  0
  9 11  1  0  0  0
 12 13  1  0  0  0
 13 14  1  0  0  0
 13 16  1  0  0  0
 14 15  2  0  0  0
 14 20  1  0  0  0
 16 17  1  0  0  0
 17 18  1  0  0  0
 17 19  1  0  0  0
 21 20  1  0  0  0
 22 21  1  0  0  0
 21 24  1  0  0  0
 22 23  2  0  0  0
 32 22  1  0  0  0
 24 25  1  0  0  0
 25 26  4  0  0  0
 25 27  4  0  0  0
 26 28  4  0  0  0
 27 29  4  0  0  0
 28 30  4  0  0  0
 29 30  4  0  0  0
 30 31  1  0  0  0
 33 32  1  0  0  0
 34 33  1  0  0  0
 34 35  2  0  0  0
 36 34  1  0  0  0
 37 36  1  0  0  0
 38 37  1  0  0  0
 37 40  1  0  0  0
 38 39  2  0  0  0
 47 38  1  0  0  0
 40 41  1  0  0  0
 41 42  4  0  0  0
 41 43  4  0  0  0
 42 44  4  0  0  0
 43 45  4  0  0  0
 44 46  4  0  0  0
 45 46  4  0  0  0
 48 47  1  0  0  0
 49 48  1  0  0  0
 48 51  1  0  0  0
 49 50  2  0  0  0
 56 49  1  0  0  0
 51 52  1  0  0  0
 52 53  1  0  0  0
 53 54  1  0  0  0
 54 55  1  0  0  0
 57 56  1  0  0  0
 58 57  1  0  0  0
 57 60  1  0  0  0
 58 59  2  0  0  0
 70 58  1  0  0  0
 60 61  1  0  0  0
 61 62  4  0  0  0
 61 63  4  0  0  0
 62 64  4  0  0  0
 63 65  4  0  0  0
 63 66  4  0  0  0
 65 64  4  0  0  0
 65 67  4  0  0  0
 66 68  4  0  0  0
 67 69  4  0  0  0
 68 69  4  0  0  0
 71 70  1  0  0  0
 72 71  1  0  0  0
 71 74  1  0  0  0
 72 73  1  0  0  0
 80 72  1  0  0  0
109 72  1  0  0  0
 74 75  1  0  0  0
 75 76  4  0  0  0
 75 77  4  0  0  0
 76 78  4  0  0  0
 77 79  4  0  0  0
 79 78  4  0  0  0
109 80  1  0  0  0
 83 81  1  0  0  0
 81103  1  0  0  0
 82 84  1  0  0  0
 99 82  4  0  0  0
 82107  4  0  0  0
 96 83  1  0  0  0
 83106  2  0  0  0
 84 86  1  0  0  0
124 85  2  0  0  0
 86 96  1  0  0  0
 86125  1  0  0  0
 88 87  4  0  0  0
 87 92  4  0  0  0
 87124  1  0  0  0
 89 88  4  0  0  0
 89 90  4  0  0  0
115 89  1  0  0  0
 90 93  4  0  0  0
 94 91  4  0  0  0
 91107  4  0  0  0
 93 92  4  0  0  0
 93 94  1  0  0  0
 94 99  4  0  0  0
125 95  2  0  0  0
103 97  1  0  0  0
 97104  1  0  0  0
 97105  2  0  0  0
124 98  1  0  0  0
123100  2  0  0  0
121101  2  0  0  0
119102  2  0  0  0
108113  4  0  0  0
108116  4  0  0  0
117108  1  0  0  0
118109  1  0  0  0
110119  1  0  0  0
120110  1  0  0  0
111121  1  0  0  0
122111  1  0  0  0
123112  1  0  0  0
113114  4  0  0  0
115114  4  0  0  0
116115  4  0  0  0
118117  1  0  0  0
119118  1  0  0  0
121120  1  0  0  0
122123  1  0  0  0
  1126  1  0  0  0
  2127  1  0  0  0
  5128  1  0  0  0
  5129  1  0  0  0
  6130  1  0  0  0
  6131  1  0  0  0
  7132  1  0  0  0
  7133  1  0  0  0
  8134  1  0  0  0
 10135  1  0  0  0
 11136  1  0  0  0
 11137  1  0  0  0
 12138  1  0  0  0
 13139  1  0  0  0
 16140  1  0  0  0
 16141  1  0  0  0
 17142  1  0  0  0
 18143  1  0  0  0
 18144  1  0  0  0
 18145  1  0  0  0
 19146  1  0  0  0
 19147  1  0  0  0
 19148  1  0  0  0
 20149  1  0  0  0
 21150  1  0  0  0
 24151  1  0  0  0
 24152  1  0  0  0
 26153  1  0  0  0
 27154  1  0  0  0
 28155  1  0  0  0
 29156  1  0  0  0
 31157  1  0  0  0
 32158  1  0  0  0
 33159  1  0  0  0
 33160  1  0  0  0
 36161  1  0  0  0
 37162  1  0  0  0
 40163  1  0  0  0
 40164  1  0  0  0
 42165  1  0  0  0
 43166  1  0  0  0
 44167  1  0  0  0
 45168  1  0  0  0
 46169  1  0  0  0
 47170  1  0  0  0
 48171  1  0  0  0
 51172  1  0  0  0
 51173  1  0  0  0
 52174  1  0  0  0
 52175  1  0  0  0
 53176  1  0  0  0
 53177  1  0  0  0
 54178  1  0  0  0
 54179  1  0  0  0
 55180  1  0  0  0
 55181  1  0  0  0
 55182  1  0  0  0
 56183  1  0  0  0
 57184  1  0  0  0
 60185  1  0  0  0
 60186  1  0  0  0
 62187  1  0  0  0
 66188  1  0  0  0
 67189  1  0  0  0
 68190  1  0  0  0
 69191  1  0  0  0
 70192  1  0  0  0
 71193  1  0  0  0
 73194  1  0  0  0
 74195  1  0  0  0
 74196  1  0  0  0
 77197  1  0  0  0
 78198  1  0  0  0
 81199  1  0  0  0
 81200  1  0  0  0
 84201  1  0  0  0
 84202  1  0  0  0
 86203  1  0  0  0
 88204  1  0  0  0
 90205  1  0  0  0
 92206  1  0  0  0
 96207  1  0  0  0
 98208  1  0  0  0
 99209  1  0  0  0
103210  1  0  0  0
104211  1  0  0  0
104212  1  0  0  0
104213  1  0  0  0
109214  1  0  0  0
110215  1  0  0  0
111216  1  0  0  0
112217  1  0  0  0
112218  1  0  0  0
116219  1  0  0  0
117220  1  0  0  0
117221  1  0  0  0
118222  1  0  0  0
120223  1  0  0  0
120224  1  0  0  0
122225  1  0  0  0
122226  1  0  0  0
M  END
$$$$
