4ael_ligand
  -I-interpret- 

 45 48  0  0  0  0  0  0  0  0999 V2000
   22.7220   15.3450   40.6380 C   0  0  0  0  0
   21.9600   14.6330   32.4610 C   0  0  0  0  0
   21.2150   13.4900   32.2500 C   0  0  0  0  0
   21.9070   15.2760   33.6850 C   0  0  0  0  0
   20.0180   15.9820   36.6550 C   0  0  0  0  0
   22.3560   15.6490   36.6550 C   0  0  0  0  0
   20.0930   16.5930   37.8900 C   0  0  0  0  0
   22.4300   16.2610   37.8800 C   0  0  0  0  0
   20.4220   13.0050   33.2720 C   0  0  0  0  0
   20.3500   20.2640   41.6060 C   0  0  0  0  0
   20.4770   20.8010   42.8720 C   0  0  0  0  0
   21.7090   19.0520   43.6010 C   0  0  0  0  0
   22.1170   16.6280   40.8820 C   0  0  0  0  0
   21.6090   18.4360   42.3650 C   0  0  0  0  0
   21.1440   15.4870   36.0220 C   0  0  0  0  0
   21.3100   16.7350   38.5370 C   0  0  0  0  0
   21.1210   14.8010   34.7290 C   0  0  0  0  0
   20.9250   19.0410   41.3220 C   0  0  0  0  0
   20.3910   13.6420   34.5050 C   0  0  0  0  0
   22.1880   17.2100   42.1330 C   0  0  0  0  0
   21.4340   17.2990   39.8830 C   0  0  0  0  0
   20.1110   12.0570   37.5630 C   0  0  0  0  0
   20.1120   11.9400   36.0520 C   0  0  0  0  0
   23.2020   14.3090   40.4230 N   0  0  0  0  0
   21.1500   20.2340   43.8830 N   0  0  0  0  0
   20.8330   18.4780   40.1020 N   0  0  0  0  0
   22.8500   16.5950   43.1800 O   0  0  0  0  0
   19.5650   13.1340   35.5040 O   0  0  0  0  0
   22.5895   15.0286   31.6639 H   0  0  0  0  0
   21.2520   12.9767   31.2891 H   0  0  0  0  0
   22.4976   16.1797   33.8350 H   0  0  0  0  0
   19.0482   15.8871   36.1665 H   0  0  0  0  0
   23.2664   15.2869   36.1773 H   0  0  0  0  0
   19.1848   16.9681   38.3618 H   0  0  0  0  0
   23.4056   16.3777   38.3519 H   0  0  0  0  0
   19.8153   12.1143   33.1087 H   0  0  0  0  0
   19.7989   20.8026   40.8351 H   0  0  0  0  0
   19.9932   21.7587   43.0636 H   0  0  0  0  0
   22.2729   18.5472   44.3854 H   0  0  0  0  0
   20.7159   12.9136   37.8602 H   0  0  0  0  0
   19.0884   12.1931   37.9149 H   0  0  0  0  0
   20.5279   11.1481   37.9968 H   0  0  0  0  0
   19.5128   11.0825   35.7457 H   0  0  0  0  0
   21.1309   11.7988   35.6913 H   0  0  0  0  0
   22.7914   17.1476   43.9628 H   0  0  0  0  0
 13  1  1  0  0  0
  1 24  3  0  0  0
  3  2  4  0  0  0
  4  2  4  0  0  0
  9  3  4  0  0  0
 17  4  4  0  0  0
  5  7  4  0  0  0
 15  5  4  0  0  0
  6  8  4  0  0  0
 15  6  4  0  0  0
  7 16  4  0  0  0
  8 16  4  0  0  0
 19  9  4  0  0  0
 10 11  4  0  0  0
 18 10  4  0  0  0
 11 25  4  0  0  0
 14 12  4  0  0  0
 12 25  4  0  0  0
 13 20  4  0  0  0
 21 13  4  0  0  0
 18 14  4  0  0  0
 20 14  4  0  0  0
 17 15  1  0  0  0
 16 21  1  0  0  0
 19 17  4  0  0  0
 26 18  4  0  0  0
 28 19  1  0  0  0
 20 27  1  0  0  0
 21 26  4  0  0  0
 23 22  1  0  0  0
 23 28  1  0  0  0
  2 29  1  0  0  0
  3 30  1  0  0  0
  4 31  1  0  0  0
  5 32  1  0  0  0
  6 33  1  0  0  0
  7 34  1  0  0  0
  8 35  1  0  0  0
  9 36  1  0  0  0
 10 37  1  0  0  0
 11 38  1  0  0  0
 12 39  1  0  0  0
 22 40  1  0  0  0
 22 41  1  0  0  0
 22 42  1  0  0  0
 23 43  1  0  0  0
 23 44  1  0  0  0
 27 45  1  0  0  0
M  END
$$$$
