5l6o_ligand
  -I-interpret- 

 33 35  0  0  0  0  0  0  0  0999 V2000
   10.5720   -0.1760   -5.1300 C   0  0  0  0  0
   11.5660    0.5610   -5.7540 C   0  0  0  0  0
   12.2930    1.4990   -5.0290 C   0  0  0  0  0
   15.4730    3.2010   -6.1670 C   0  0  0  0  0
   15.0140    4.3340   -6.8840 C   0  0  0  0  0
   15.8870    5.2350   -7.4150 C   0  0  0  0  0
   17.2680    5.0840   -7.2480 C   0  0  0  0  0
   17.7500    3.9910   -6.5580 C   0  0  0  0  0
   16.8700    3.0360   -6.0000 C   0  0  0  0  0
   16.5190    1.1230   -4.8080 C   0  0  0  0  0
   18.1170    6.1450   -7.8720 C   0  0  0  0  0
   19.6170    5.9520   -7.8900 C   0  0  0  0  0
   10.2880    0.0240   -3.7930 C   0  0  0  0  0
   17.6200    7.1410   -8.3680 O   0  0  0  0  0
   17.4080    1.9800   -5.3120 N   0  0  0  0  0
   15.1810    1.1580   -4.8850 N   0  0  0  0  0
   14.6440    2.1840   -5.5590 C   0  0  0  0  0
   13.2900    2.2600   -5.6680 N   0  0  0  0  0
   12.0040    1.7010   -3.6830 C   0  0  0  0  0
   11.0070    0.9590   -3.0710 C   0  0  0  0  0
   10.0108   -0.9181   -5.6978 H   0  0  0  0  0
   11.7778    0.4056   -6.8119 H   0  0  0  0  0
   13.9426    4.4874   -7.0130 H   0  0  0  0  0
   15.5041    6.0860   -7.9782 H   0  0  0  0  0
   18.8260    3.8619   -6.4413 H   0  0  0  0  0
   16.9371    0.2794   -4.2588 H   0  0  0  0  0
   19.9672    5.9328   -8.9220 H   0  0  0  0  0
   20.0943    6.7751   -7.3582 H   0  0  0  0  0
   19.8666    5.0095   -7.4027 H   0  0  0  0  0
    9.5001   -0.5530   -3.3089 H   0  0  0  0  0
   12.9459    2.9754   -6.3085 H   0  0  0  0  0
   12.5616    2.4424   -3.1106 H   0  0  0  0  0
   10.7880    1.1130   -2.0144 H   0  0  0  0  0
  2  1  4  0  0  0
  1 13  4  0  0  0
  3  2  4  0  0  0
 18  3  1  0  0  0
  3 19  4  0  0  0
  4  5  4  0  0  0
  4  9  4  0  0  0
 17  4  4  0  0  0
  5  6  4  0  0  0
  6  7  4  0  0  0
  8  7  4  0  0  0
  7 11  1  0  0  0
  9  8  4  0  0  0
  9 15  4  0  0  0
 10 15  4  0  0  0
 16 10  4  0  0  0
 11 12  1  0  0  0
 11 14  2  0  0  0
 13 20  4  0  0  0
 17 16  4  0  0  0
 17 18  1  0  0  0
 19 20  4  0  0  0
  1 21  1  0  0  0
  2 22  1  0  0  0
  5 23  1  0  0  0
  6 24  1  0  0  0
  8 25  1  0  0  0
 10 26  1  0  0  0
 12 27  1  0  0  0
 12 28  1  0  0  0
 12 29  1  0  0  0
 13 30  1  0  0  0
 18 31  1  0  0  0
 19 32  1  0  0  0
 20 33  1  0  0  0
M  END
$$$$
