2yjw_ligand
  -I-interpret- 

 33 35  0  0  0  0  0  0  0  0999 V2000
    2.4800   34.4780   27.0150 N   0  0  0  0  0
    1.6850   34.7600   25.9700 C   0  0  0  0  0
    0.9950   35.9710   26.1200 C   0  0  0  0  0
    1.3410   36.4930   27.3210 C   0  0  0  0  0
    1.6100   33.9110   24.8230 C   0  0  0  0  0
    0.0730   36.6500   25.2550 C   0  0  0  0  0
    0.8550   37.7570   27.8960 C   0  0  0  0  0
    0.6070   37.1520   24.0620 C   0  0  0  0  0
   -0.2350   37.8600   23.1200 C   0  0  0  0  0
   -1.6020   38.0390   23.3830 C   0  0  0  0  0
   -2.1870   37.5500   24.6040 C   0  0  0  0  0
   -1.3330   36.8560   25.5630 C   0  0  0  0  0
    2.8770   33.4960   24.1770 C   0  0  0  0  0
    2.7760   32.7210   22.9910 C   0  0  0  0  0
    1.4540   32.3860   22.4810 C   0  0  0  0  0
    0.2170   32.7550   23.1130 C   0  0  0  0  0
    0.3310   33.5830   24.2690 C   0  0  0  0  0
    1.4220   31.6850   21.3160 O   0  0  0  0  0
    2.2360   35.6750   27.9430 O   0  0  0  0  0
    4.0900   33.8750   24.7420 O   0  0  0  0  0
    1.1231   38.5818   27.2358 H   0  0  0  0  0
   -0.2289   37.7131   28.0029 H   0  0  0  0  0
    1.3119   37.9093   28.8738 H   0  0  0  0  0
    1.6646   37.0088   23.8405 H   0  0  0  0  0
    0.1958   38.2565   22.2006 H   0  0  0  0  0
   -2.2279   38.5542   22.6543 H   0  0  0  0  0
   -3.2477   37.6952   24.8086 H   0  0  0  0  0
   -1.7468   36.4944   26.5043 H   0  0  0  0  0
    3.6727   32.3829   22.4716 H   0  0  0  0  0
   -0.7488   32.4226   22.7324 H   0  0  0  0  0
   -0.5718   33.9730   24.7391 H   0  0  0  0  0
    0.5094   31.5173   21.0697 H   0  0  0  0  0
    4.8110   33.5309   24.2098 H   0  0  0  0  0
  1  2  4  0  0  0
  1 19  4  0  0  0
  2  3  4  0  0  0
  2  5  1  0  0  0
  3  4  4  0  0  0
  3  6  1  0  0  0
  4  7  1  0  0  0
  4 19  4  0  0  0
  5 13  4  0  0  0
  5 17  4  0  0  0
  6  8  4  0  0  0
  6 12  4  0  0  0
  8  9  4  0  0  0
  9 10  4  0  0  0
 10 11  4  0  0  0
 11 12  4  0  0  0
 13 14  4  0  0  0
 13 20  1  0  0  0
 14 15  4  0  0  0
 15 16  4  0  0  0
 15 18  1  0  0  0
 16 17  4  0  0  0
  7 21  1  0  0  0
  7 22  1  0  0  0
  7 23  1  0  0  0
  8 24  1  0  0  0
  9 25  1  0  0  0
 10 26  1  0  0  0
 11 27  1  0  0  0
 12 28  1  0  0  0
 14 29  1  0  0  0
 16 30  1  0  0  0
 17 31  1  0  0  0
 18 32  1  0  0  0
 20 33  1  0  0  0
M  END
$$$$
