1rwx_ligand
  -I-interpret- 

 68 71  0  0  0  0  0  0  0  0999 V2000
   33.1450   58.1130    3.4910 O   0  0  0  0  0
   33.3880   58.8620    4.4260 C   0  0  0  0  0
   33.2710   60.3580    4.2450 C   0  0  0  0  0
   34.4370   60.8530    3.3890 C   0  0  0  0  0
   34.0240   61.9940    2.4840 C   0  0  0  0  0
   32.8100   62.2510    2.3240 O   0  0  0  0  0
   34.9290   62.6430    1.9180 O   0  0  0  0  0
   33.2220   61.0760    5.5120 N   0  0  0  0  0
   32.0780   61.3780    6.1360 C   0  0  0  0  0
   30.9860   60.9800    5.7580 O   0  0  0  0  0
   32.1900   62.2490    7.3620 C   0  0  0  0  0
   31.9320   61.4690    8.6260 C   0  0  0  0  0
   33.1760   60.8570    9.6230 S   0  0  0  0  0
   30.6610   61.1730    9.1300 C   0  0  0  0  0
   30.7840   60.5850   10.4190 C   0  0  0  0  0
   32.0550   60.3840   10.7990 C   0  0  0  0  0
   31.2390   63.4460    7.2670 C   0  0  0  0  0
   31.6280   64.5610    8.2350 C   0  0  0  0  0
   30.5160   65.5960    8.3780 C   0  0  0  0  0
   30.6150   66.3310    9.7110 C   0  0  0  0  0
   31.4670   67.5050    9.6370 N   0  0  0  0  0
   31.9450   68.1230   10.7210 C   0  0  0  0  0
   31.3700   68.0730   11.7990 O   0  0  0  0  0
   33.2230   68.9100   10.6140 C   0  0  0  0  0
   33.5070   69.9120   11.5460 C   0  0  0  0  0
   34.6890   70.6460   11.4520 C   0  0  0  0  0
   35.5980   70.3780   10.4270 C   0  0  0  0  0
   35.3110   69.3840    9.4890 C   0  0  0  0  0
   34.1300   68.6480    9.5850 C   0  0  0  0  0
   36.7540   71.1150   10.3380 O   0  0  0  0  0
   38.0160   70.6220   10.5750 C   0  0  0  0  0
   39.0170   71.5060   10.9760 C   0  0  0  0  0
   40.2590   71.0560   11.2110 N   0  0  0  0  0
   38.3090   69.3200   10.4170 N   0  0  0  0  0
   39.5550   68.8710   10.6410 C   0  0  0  0  0
   40.5490   69.7570   11.0500 C   0  0  0  0  0
   41.8470   69.2990   11.2800 C   0  0  0  0  0
   42.1470   67.9480   11.1050 C   0  0  0  0  0
   41.1510   67.0620   10.6970 C   0  0  0  0  0
   39.8540   67.5220   10.4660 C   0  0  0  0  0
   33.6889   58.4512    5.3898 H   0  0  0  0  0
   32.3257   60.5611    3.7417 H   0  0  0  0  0
   34.7794   60.0272    2.7653 H   0  0  0  0  0
   35.2233   61.2101    4.0540 H   0  0  0  0  0
   32.2834   61.6395    2.8440 H   0  0  0  0  0
   34.1011   61.3617    5.9432 H   0  0  0  0  0
   33.2141   62.6196    7.4052 H   0  0  0  0  0
   29.7202   61.3639    8.6136 H   0  0  0  0  0
   29.9271   60.3225   11.0394 H   0  0  0  0  0
   32.3358   59.9607   11.7634 H   0  0  0  0  0
   30.2354   63.1062    7.5228 H   0  0  0  0  0
   31.2881   63.8417    6.2526 H   0  0  0  0  0
   32.5149   65.0607    7.8454 H   0  0  0  0  0
   31.8132   64.1178    9.2135 H   0  0  0  0  0
   29.5553   65.0830    8.3340 H   0  0  0  0  0
   30.6116   66.3232    7.5717 H   0  0  0  0  0
   31.0478   65.6469   10.4409 H   0  0  0  0  0
   29.6135   66.6593    9.9892 H   0  0  0  0  0
   31.7110   67.8736    8.7178 H   0  0  0  0  0
   32.8013   70.1207   12.3501 H   0  0  0  0  0
   34.9032   71.4293   12.1791 H   0  0  0  0  0
   36.0122   69.1826    8.6792 H   0  0  0  0  0
   33.9147   67.8671    8.8557 H   0  0  0  0  0
   38.7900   72.5650   11.0988 H   0  0  0  0  0
   42.6243   69.9950   11.5955 H   0  0  0  0  0
   43.1587   67.5856   11.2870 H   0  0  0  0  0
   41.3861   66.0068   10.5580 H   0  0  0  0  0
   39.0764   66.8269   10.1492 H   0  0  0  0  0
  1  2  2  0  0  0
  2  3  1  0  0  0
  3  4  1  0  0  0
  3  8  1  0  0  0
  4  5  1  0  0  0
  5  6  1  0  0  0
  5  7  2  0  0  0
  8  9  1  0  0  0
  9 10  2  0  0  0
  9 11  1  0  0  0
 11 12  1  0  0  0
 11 17  1  0  0  0
 12 13  4  0  0  0
 12 14  4  0  0  0
 13 16  4  0  0  0
 14 15  4  0  0  0
 15 16  4  0  0  0
 17 18  1  0  0  0
 18 19  1  0  0  0
 19 20  1  0  0  0
 20 21  1  0  0  0
 21 22  1  0  0  0
 22 23  2  0  0  0
 22 24  1  0  0  0
 24 25  4  0  0  0
 24 29  4  0  0  0
 25 26  4  0  0  0
 26 27  4  0  0  0
 27 28  4  0  0  0
 27 30  1  0  0  0
 28 29  4  0  0  0
 30 31  1  0  0  0
 31 32  4  0  0  0
 31 34  4  0  0  0
 32 33  4  0  0  0
 33 36  4  0  0  0
 34 35  4  0  0  0
 35 36  4  0  0  0
 35 40  4  0  0  0
 36 37  4  0  0  0
 37 38  4  0  0  0
 38 39  4  0  0  0
 39 40  4  0  0  0
  2 41  1  0  0  0
  3 42  1  0  0  0
  4 43  1  0  0  0
  4 44  1  0  0  0
  6 45  1  0  0  0
  8 46  1  0  0  0
 11 47  1  0  0  0
 14 48  1  0  0  0
 15 49  1  0  0  0
 16 50  1  0  0  0
 17 51  1  0  0  0
 17 52  1  0  0  0
 18 53  1  0  0  0
 18 54  1  0  0  0
 19 55  1  0  0  0
 19 56  1  0  0  0
 20 57  1  0  0  0
 20 58  1  0  0  0
 21 59  1  0  0  0
 25 60  1  0  0  0
 26 61  1  0  0  0
 28 62  1  0  0  0
 29 63  1  0  0  0
 32 64  1  0  0  0
 37 65  1  0  0  0
 38 66  1  0  0  0
 39 67  1  0  0  0
 40 68  1  0  0  0
M  END
$$$$
