6gg4_ligand
  -I-interpret- 

 24 24  0  0  0  0  0  0  0  0999 V2000
  371.3180  -78.6350  195.6590 N   0  3  0  0  0
  371.1120  -80.0730  196.0520 C   0  0  0  0  0
  371.2820  -81.0130  194.8570 C   0  0  0  0  0
  371.4780  -80.5100  193.7460 O   0  0  0  0  0
  369.7310  -80.2760  196.6690 C   0  0  0  0  0
  368.5880  -80.1380  195.6930 C   0  0  0  0  0
  368.0410  -78.8820  195.4030 C   0  0  0  0  0
  368.0280  -81.2730  195.0860 C   0  0  0  0  0
  366.9680  -78.7600  194.5210 C   0  0  0  0  0
  366.9590  -81.1570  194.2000 C   0  0  0  0  0
  366.4320  -79.8950  193.9120 C   0  0  0  0  0
  371.2000  -82.2550  194.9790 O   0  0  0  0  0
  372.2460  -78.5251  195.2501 H   0  0  0  0  0
  370.6100  -78.3657  194.9759 H   0  0  0  0  0
  371.2371  -78.0429  196.4856 H   0  0  0  0  0
  371.8745  -80.3146  196.7925 H   0  0  0  0  0
  369.6013  -79.5027  197.4261 H   0  0  0  0  0
  369.6998  -81.2940  197.0574 H   0  0  0  0  0
  368.4583  -77.9907  195.8715 H   0  0  0  0  0
  368.4351  -82.2588  195.3109 H   0  0  0  0  0
  366.5477  -77.7773  194.3072 H   0  0  0  0  0
  366.5356  -82.0465  193.7335 H   0  0  0  0  0
  365.6024  -79.7975  193.2117 H   0  0  0  0  0
  371.0474  -82.4755  195.9008 H   0  0  0  0  0
  1  2  1  0  0  0
  2  3  1  0  0  0
  2  5  1  0  0  0
  3  4  2  0  0  0
  3 12  1  0  0  0
  5  6  1  0  0  0
  6  7  4  0  0  0
  6  8  4  0  0  0
  7  9  4  0  0  0
  8 10  4  0  0  0
  9 11  4  0  0  0
 10 11  4  0  0  0
  1 13  1  0  0  0
  1 14  1  0  0  0
  1 15  1  0  0  0
  2 16  1  0  0  0
  5 17  1  0  0  0
  5 18  1  0  0  0
  7 19  1  0  0  0
  8 20  1  0  0  0
  9 21  1  0  0  0
 10 22  1  0  0  0
 11 23  1  0  0  0
 12 24  1  0  0  0
M  END
$$$$
