6cks_ligand
  -I-interpret- 

 54 57  0  0  0  0  0  0  0  0999 V2000
   15.5150    6.9840   10.0090 C   0  0  0  0  0
   16.4760    5.9330    9.3830 C   0  0  0  0  0
   17.7020    6.9060    8.4390 S   0  0  0  0  0
   18.8740    6.2300    7.7500 O   0  0  0  0  0
   18.1910    7.9080    9.4080 O   0  0  0  0  0
   16.8030    7.6340    7.1680 C   0  0  0  0  0
   16.2620    8.8690    7.3700 C   0  0  0  0  0
   16.7010    7.0010    5.9340 C   0  0  0  0  0
   15.9600    7.6760    4.9400 C   0  0  0  0  0
   15.3760    8.9550    5.1490 C   0  0  0  0  0
   14.6500    9.6680    4.1940 O   0  0  0  0  0
   14.5760    9.0910    2.8530 C   0  0  0  0  0
   15.5700    9.5840    6.3780 C   0  0  0  0  0
   15.0090   10.8590    6.6770 C   0  0  0  0  0
   15.4300   12.0600    6.0740 C   0  0  0  0  0
   16.4510   12.0680    5.1120 C   0  0  0  0  0
   13.9820   10.9540    7.5980 C   0  0  0  0  0
   13.3760   12.2000    7.8910 N   0  0  0  0  0
   12.2740   12.1510    8.9060 C   0  0  0  0  0
   13.7690   13.3760    7.3490 C   0  0  0  0  0
   13.1700   14.4340    7.6650 O   0  0  0  0  0
   14.8110   13.3140    6.4360 C   0  0  0  0  0
   15.2690   14.4900    5.7820 C   0  0  0  0  0
   16.2880   14.4610    4.8390 C   0  0  0  0  0
   16.9170   13.2590    4.4500 C   0  0  0  0  0
   17.9550   13.2360    3.5630 C   0  0  0  0  0
   18.5590   14.3290    2.9790 C   0  0  0  0  0
   18.6680   12.1460    3.1630 C   0  0  0  0  0
   19.6960   12.5630    2.3710 N   0  0  0  0  0
   19.6070   13.9030    2.2520 N   0  0  0  0  0
   20.5460   14.7620    1.4330 C   0  0  0  0  0
   16.0819    7.6520   10.6574 H   0  0  0  0  0
   15.0426    7.5614    9.2142 H   0  0  0  0  0
   14.7495    6.4724   10.5924 H   0  0  0  0  0
   15.9417    5.2306    8.7433 H   0  0  0  0  0
   16.9525    5.3188   10.1470 H   0  0  0  0  0
   16.3722    9.3260    8.3534 H   0  0  0  0  0
   17.1685    6.0348    5.7443 H   0  0  0  0  0
   15.8300    7.1956    3.9702 H   0  0  0  0  0
   15.5820    8.9925    2.4452 H   0  0  0  0  0
   14.1067    8.1087    2.9069 H   0  0  0  0  0
   13.9843    9.7430    2.2104 H   0  0  0  0  0
   16.9183   11.1185    4.8507 H   0  0  0  0  0
   13.6332   10.0553    8.1067 H   0  0  0  0  0
   11.4801   11.4959    8.5472 H   0  0  0  0  0
   12.6660   11.7668    9.8477 H   0  0  0  0  0
   11.8774   13.1548    9.0585 H   0  0  0  0  0
   14.8055   15.4452    6.0286 H   0  0  0  0  0
   16.6126   15.3970    4.3845 H   0  0  0  0  0
   18.2402   15.3656    3.0883 H   0  0  0  0  0
   18.4521   11.1120    3.4318 H   0  0  0  0  0
   19.9780   15.2914    0.6680 H   0  0  0  0  0
   21.0390   15.4828    2.0853 H   0  0  0  0  0
   21.2949   14.1283    0.9580 H   0  0  0  0  0
  1  2  1  0  0  0
  2  3  1  0  0  0
  3  4  2  0  0  0
  3  5  2  0  0  0
  3  6  1  0  0  0
  6  7  4  0  0  0
  6  8  4  0  0  0
  7 13  4  0  0  0
  8  9  4  0  0  0
  9 10  4  0  0  0
 10 11  1  0  0  0
 10 13  4  0  0  0
 11 12  1  0  0  0
 13 14  1  0  0  0
 14 15  1  0  0  0
 14 17  2  0  0  0
 15 16  4  0  0  0
 15 22  4  0  0  0
 16 25  4  0  0  0
 17 18  1  0  0  0
 18 19  1  0  0  0
 18 20  1  0  0  0
 20 21  2  0  0  0
 20 22  1  0  0  0
 22 23  4  0  0  0
 23 24  4  0  0  0
 24 25  4  0  0  0
 25 26  1  0  0  0
 26 27  4  0  0  0
 26 28  4  0  0  0
 27 30  4  0  0  0
 28 29  4  0  0  0
 29 30  4  0  0  0
 30 31  1  0  0  0
  1 32  1  0  0  0
  1 33  1  0  0  0
  1 34  1  0  0  0
  2 35  1  0  0  0
  2 36  1  0  0  0
  7 37  1  0  0  0
  8 38  1  0  0  0
  9 39  1  0  0  0
 12 40  1  0  0  0
 12 41  1  0  0  0
 12 42  1  0  0  0
 16 43  1  0  0  0
 17 44  1  0  0  0
 19 45  1  0  0  0
 19 46  1  0  0  0
 19 47  1  0  0  0
 23 48  1  0  0  0
 24 49  1  0  0  0
 27 50  1  0  0  0
 28 51  1  0  0  0
 31 52  1  0  0  0
 31 53  1  0  0  0
 31 54  1  0  0  0
M  END
$$$$
