5mnb_ligand
  -I-interpret- 

 13 13  0  0  0  0  0  0  0  0999 V2000
   -2.4050  -14.1910  -17.8150 N   0  0  0  0  0
   -1.8420  -15.3630  -17.4800 C   0  0  0  0  0
   -1.3080  -15.5870  -16.1920 C   0  0  0  0  0
   -1.3520  -14.5480  -15.2770 C   0  0  0  0  0
   -1.9060  -13.3440  -15.6330 C   0  0  0  0  0
   -2.4200  -13.2180  -16.8900 C   0  0  0  0  0
   -1.8100  -16.3190  -18.4340 N   0  0  0  0  0
   -0.8734  -16.5504  -15.9254 H   0  0  0  0  0
   -0.9468  -14.6866  -14.2747 H   0  0  0  0  0
   -1.9345  -12.5112  -14.9304 H   0  0  0  0  0
   -2.8729  -12.2644  -17.1615 H   0  0  0  0  0
   -2.2024  -16.1320  -19.3567 H   0  0  0  0  0
   -1.3934  -17.2278  -18.2316 H   0  0  0  0  0
  1  2  4  0  0  0
  1  6  4  0  0  0
  2  3  4  0  0  0
  2  7  1  0  0  0
  3  4  4  0  0  0
  4  5  4  0  0  0
  5  6  4  0  0  0
  3  8  1  0  0  0
  4  9  1  0  0  0
  5 10  1  0  0  0
  6 11  1  0  0  0
  7 12  1  0  0  0
  7 13  1  0  0  0
M  END
$$$$
