1enu_ligand
  -I-interpret- 

 20 21  0  0  0  0  0  0  0  0999 V2000
   15.8570   17.0170   23.9000 N   0  0  0  0  0
   15.4180   16.8080   22.6540 C   0  0  0  0  0
   14.2550   16.4500   22.4630 O   0  0  0  0  0
   16.3270   16.9930   21.5170 C   0  0  0  0  0
   15.9130   16.7940   20.1850 C   0  0  0  0  0
   16.8180   16.9950   19.1330 C   0  0  0  0  0
   18.1390   17.4020   19.4080 C   0  0  0  0  0
   18.5520   17.6070   20.7330 C   0  0  0  0  0
   17.6490   17.4110   21.7900 C   0  0  0  0  0
   18.0560   17.6170   23.1860 C   0  0  0  0  0
   19.2020   17.9730   23.4500 O   0  0  0  0  0
   17.1670   17.4200   24.1640 N   0  0  0  0  0
   19.0140   17.5980   18.3900 N   0  0  0  0  0
   15.2153   16.8777   24.6806 H   0  0  0  0  0
   14.8899   16.4840   19.9725 H   0  0  0  0  0
   16.4999   16.8365   18.1026 H   0  0  0  0  0
   19.5753   17.9189   20.9421 H   0  0  0  0  0
   17.4540   17.5684   25.1315 H   0  0  0  0  0
   18.7158   17.4508   17.4257 H   0  0  0  0  0
   19.9701   17.8926   18.5889 H   0  0  0  0  0
  1  2  1  0  0  0
  1 12  1  0  0  0
  2  3  2  0  0  0
  2  4  1  0  0  0
  4  5  4  0  0  0
  4  9  4  0  0  0
  5  6  4  0  0  0
  6  7  4  0  0  0
  7  8  4  0  0  0
  7 13  1  0  0  0
  8  9  4  0  0  0
  9 10  1  0  0  0
 10 11  2  0  0  0
 10 12  1  0  0  0
  1 14  1  0  0  0
  5 15  1  0  0  0
  6 16  1  0  0  0
  8 17  1  0  0  0
 12 18  1  0  0  0
 13 19  1  0  0  0
 13 20  1  0  0  0
M  END
$$$$
