5etx_ligand
  -I-interpret- 

104108  0  0  0  0  0  0  0  0999 V2000
  -20.3500  -20.9870    2.3220 C   0  0  0  0  0
  -19.0490  -20.4840   -1.0630 C   0  0  0  0  0
  -20.5240  -20.1470   -1.2400 C   0  0  0  0  0
  -19.0460  -21.3380    0.1840 C   0  0  0  0  0
  -25.2610  -23.2910    3.1300 C   0  0  0  0  0
  -25.7490  -22.0610    2.4060 C   0  0  0  0  0
  -24.7790  -20.8810    2.3660 C   0  0  0  0  0
  -25.3880  -19.5060    2.2690 C   0  0  0  0  0
  -24.6960  -20.0880    1.0560 C   0  0  0  0  0
  -23.3000  -19.7370    0.7650 N   0  0  0  0  0
  -22.3710  -20.6130    0.3420 C   0  0  0  0  0
  -22.5920  -21.8020    0.1330 O   0  0  0  0  0
  -21.0870  -20.0660    0.1790 C   0  0  0  0  0
  -20.1440  -20.8260    1.0170 N   0  0  0  0  0
  -21.3010  -20.5080    2.9040 O   0  0  0  0  0
  -19.3130  -21.7870    3.0800 C   0  0  0  0  0
  -19.0930  -21.0990    4.3490 N   0  0  0  0  0
  -18.1080  -20.2510    4.5420 C   0  0  0  0  0
  -17.3420  -20.0240    3.6330 O   0  0  0  0  0
  -17.9780  -19.6530    5.7360 O   0  0  0  0  0
  -16.8300  -18.8530    6.0210 C   0  0  0  0  0
  -15.5370  -19.6470    5.9140 C   0  0  0  0  0
  -16.9620  -18.3580    7.4460 C   0  0  0  0  0
  -16.7750  -17.6450    5.1030 C   0  0  0  0  0
  -19.7320  -23.2680    3.3210 C   0  0  0  0  0
  -21.1290  -23.3510    3.9300 C   0  0  0  0  0
  -19.7100  -24.0580    2.0060 C   0  0  0  0  0
  -18.7400  -23.9110    4.2760 C   0  0  0  0  0
  -18.2140  -19.3480   -0.7890 O   0  0  0  0  0
  -17.8410  -18.5010   -1.7700 C   0  0  0  0  0
  -17.4790  -17.2270   -1.3590 C   0  0  0  0  0
  -17.5230  -16.8550   -0.0170 C   0  0  0  0  0
  -16.1290  -16.6500    0.5490 C   0  0  0  0  0
  -17.1150  -16.3330   -2.2640 N   0  0  0  0  0
  -17.0820  -16.6500   -3.5520 C   0  0  0  0  0
  -16.6860  -15.7050   -4.4870 C   0  0  0  0  0
  -16.6550  -16.0490   -5.8230 C   0  0  0  0  0
  -17.0160  -17.3230   -6.2350 C   0  0  0  0  0
  -17.3950  -18.2680   -5.2860 C   0  0  0  0  0
  -17.4310  -17.9340   -3.9520 C   0  0  0  0  0
  -17.8030  -18.8340   -3.0510 N   0  0  0  0  0
  -16.9610  -17.6180   -7.5630 O   0  0  0  0  0
  -17.9110  -18.5450   -8.0740 C   0  0  0  0  0
  -25.5770  -20.5460   -0.1200 C   0  0  0  0  0
  -26.6810  -21.0190    0.0930 O   0  0  0  0  0
  -25.0580  -20.3900   -1.3370 N   0  0  0  0  0
  -25.8420  -20.8520   -2.5610 S   0  0  0  0  0
  -25.9040  -22.3530   -2.5240 O   0  0  0  0  0
  -27.2480  -20.3560   -2.6120 O   0  0  0  0  0
  -24.8920  -20.3830   -4.1940 C   0  0  0  0  0
  -25.7290  -20.4850   -5.4390 C   0  0  0  0  0
  -25.3190  -19.1290   -4.8970 C   0  0  0  0  0
  -18.6590  -20.9370   -1.9745 H   0  0  0  0  0
  -21.0406  -20.8992   -1.8362 H   0  0  0  0  0
  -20.6614  -19.2114   -1.7822 H   0  0  0  0  0
  -18.0902  -21.2792    0.7047 H   0  0  0  0  0
  -19.1856  -22.3923   -0.0550 H   0  0  0  0  0
  -24.3545  -23.6585    2.6490 H   0  0  0  0  0
  -25.0461  -23.0385    4.1683 H   0  0  0  0  0
  -26.0310  -24.0617    3.0940 H   0  0  0  0  0
  -26.6301  -21.7158    2.9470 H   0  0  0  0  0
  -25.9125  -22.3591    1.3704 H   0  0  0  0  0
  -24.0550  -21.3642    3.0221 H   0  0  0  0  0
  -25.3790  -18.5755    2.8366 H   0  0  0  0  0
  -26.3360  -19.0227    2.5052 H   0  0  0  0  0
  -23.0163  -18.7655    0.8919 H   0  0  0  0  0
  -21.1910  -19.0143    0.4459 H   0  0  0  0  0
  -18.4006  -21.8429    2.4863 H   0  0  0  0  0
  -19.7332  -21.2852    5.1209 H   0  0  0  0  0
  -15.5599  -20.4735    6.6242 H   0  0  0  0  0
  -15.4353  -20.0387    4.9019 H   0  0  0  0  0
  -14.6925  -18.9958    6.1395 H   0  0  0  0  0
  -17.8723  -17.7661    7.5408 H   0  0  0  0  0
  -17.0097  -19.2112    8.1227 H   0  0  0  0  0
  -16.0986  -17.7417    7.6966 H   0  0  0  0  0
  -16.7230  -17.9797    4.0669 H   0  0  0  0  0
  -17.6705  -17.0403    5.2463 H   0  0  0  0  0
  -15.8922  -17.0508    5.3390 H   0  0  0  0  0
  -21.1396  -22.8250    4.8846 H   0  0  0  0  0
  -21.8475  -22.8905    3.2519 H   0  0  0  0  0
  -21.3941  -24.3966    4.0868 H   0  0  0  0  0
  -20.4055  -23.6047    1.2996 H   0  0  0  0  0
  -18.7030  -24.0393    1.5892 H   0  0  0  0  0
  -20.0059  -25.0893    2.1982 H   0  0  0  0  0
  -17.7421  -23.8762    3.8390 H   0  0  0  0  0
  -18.7433  -23.3680    5.2211 H   0  0  0  0  0
  -19.0257  -24.9483    4.4505 H   0  0  0  0  0
  -18.0110  -17.6505    0.5462 H   0  0  0  0  0
  -18.0701  -15.9157    0.0634 H   0  0  0  0  0
  -15.5643  -17.5786    0.4659 H   0  0  0  0  0
  -15.6227  -15.8640   -0.0113 H   0  0  0  0  0
  -16.2028  -16.3607    1.5973 H   0  0  0  0  0
  -16.4024  -14.7015   -4.1698 H   0  0  0  0  0
  -16.3434  -15.3114   -6.5625 H   0  0  0  0  0
  -17.6642  -19.2762   -5.6009 H   0  0  0  0  0
  -17.7955  -19.5007   -7.5627 H   0  0  0  0  0
  -18.9174  -18.1613   -7.9067 H   0  0  0  0  0
  -17.7456  -18.6809   -9.1428 H   0  0  0  0  0
  -24.1387  -19.9627   -1.4499 H   0  0  0  0  0
  -23.9271  -20.7658   -3.8617 H   0  0  0  0  0
  -26.6292  -20.9936   -5.7841 H   0  0  0  0  0
  -25.7302  -21.0248   -6.3859 H   0  0  0  0  0
  -24.8756  -18.2017   -5.2598 H   0  0  0  0  0
  -25.7782  -18.1704   -4.6556 H   0  0  0  0  0
 14  1  1  0  0  0
  1 15  2  0  0  0
  1 16  1  0  0  0
  3  2  1  0  0  0
  2  4  1  0  0  0
  2 29  1  0  0  0
 13  3  1  0  0  0
  4 14  1  0  0  0
  6  5  1  0  0  0
  7  6  1  0  0  0
  8  7  1  0  0  0
  9  7  1  0  0  0
  9  8  1  0  0  0
 10  9  1  0  0  0
  9 44  1  0  0  0
 11 10  1  0  0  0
 11 12  2  0  0  0
 11 13  1  0  0  0
 13 14  1  0  0  0
 16 17  1  0  0  0
 16 25  1  0  0  0
 17 18  1  0  0  0
 18 19  2  0  0  0
 18 20  1  0  0  0
 20 21  1  0  0  0
 21 22  1  0  0  0
 21 23  1  0  0  0
 21 24  1  0  0  0
 25 26  1  0  0  0
 25 27  1  0  0  0
 25 28  1  0  0  0
 29 30  1  0  0  0
 30 31  4  0  0  0
 30 41  4  0  0  0
 31 32  1  0  0  0
 31 34  4  0  0  0
 32 33  1  0  0  0
 34 35  4  0  0  0
 35 36  4  0  0  0
 35 40  4  0  0  0
 36 37  4  0  0  0
 37 38  4  0  0  0
 38 39  4  0  0  0
 38 42  1  0  0  0
 39 40  4  0  0  0
 40 41  4  0  0  0
 42 43  1  0  0  0
 44 45  2  0  0  0
 44 46  1  0  0  0
 46 47  1  0  0  0
 47 48  2  0  0  0
 47 49  2  0  0  0
 47 50  1  0  0  0
 50 51  1  0  0  0
 50 52  1  0  0  0
 51 52  1  0  0  0
  2 53  1  0  0  0
  3 54  1  0  0  0
  3 55  1  0  0  0
  4 56  1  0  0  0
  4 57  1  0  0  0
  5 58  1  0  0  0
  5 59  1  0  0  0
  5 60  1  0  0  0
  6 61  1  0  0  0
  6 62  1  0  0  0
  7 63  1  0  0  0
  8 64  1  0  0  0
  8 65  1  0  0  0
 10 66  1  0  0  0
 13 67  1  0  0  0
 16 68  1  0  0  0
 17 69  1  0  0  0
 22 70  1  0  0  0
 22 71  1  0  0  0
 22 72  1  0  0  0
 23 73  1  0  0  0
 23 74  1  0  0  0
 23 75  1  0  0  0
 24 76  1  0  0  0
 24 77  1  0  0  0
 24 78  1  0  0  0
 26 79  1  0  0  0
 26 80  1  0  0  0
 26 81  1  0  0  0
 27 82  1  0  0  0
 27 83  1  0  0  0
 27 84  1  0  0  0
 28 85  1  0  0  0
 28 86  1  0  0  0
 28 87  1  0  0  0
 32 88  1  0  0  0
 32 89  1  0  0  0
 33 90  1  0  0  0
 33 91  1  0  0  0
 33 92  1  0  0  0
 36 93  1  0  0  0
 37 94  1  0  0  0
 39 95  1  0  0  0
 43 96  1  0  0  0
 43 97  1  0  0  0
 43 98  1  0  0  0
 46 99  1  0  0  0
 50100  1  0  0  0
 51101  1  0  0  0
 51102  1  0  0  0
 52103  1  0  0  0
 52104  1  0  0  0
M  END
$$$$
