### 
### Created by X-TOOL on Mon Sep 10 21:13:29 2018
### 

@<TRIPOS>MOLECULE
5etx_ligand
  104   108     1     0     0
SMALL
GAST_HUCK


@<TRIPOS>ATOM
      1 C14       -20.3500  -20.9870    2.3220 C.2       1 5RS         0.2070
      2 C11       -19.0490  -20.4840   -1.0630 C.3       1 5RS         0.1116
      3 C10       -20.5240  -20.1470   -1.2400 C.3       1 5RS         0.0213
      4 C12       -19.0460  -21.3380    0.1840 C.3       1 5RS         0.0683
      5 C01       -25.2610  -23.2910    3.1300 C.3       1 5RS        -0.0651
      6 C02       -25.7490  -22.0610    2.4060 C.3       1 5RS        -0.0516
      7 C03       -24.7790  -20.8810    2.3660 C.3       1 5RS        -0.0066
      8 C04       -25.3880  -19.5060    2.2690 C.3       1 5RS        -0.0152
      9 C05       -24.6960  -20.0880    1.0560 C.3       1 5RS         0.1374
     10 N06       -23.3000  -19.7370    0.7650 N.am      1 5RS        -0.2737
     11 C07       -22.3710  -20.6130    0.3420 C.2       1 5RS         0.2013
     12 O08       -22.5920  -21.8020    0.1330 O.2       1 5RS        -0.3947
     13 C09       -21.0870  -20.0660    0.1790 C.3       1 5RS         0.1364
     14 N13       -20.1440  -20.8260    1.0170 N.am      1 5RS        -0.2468
     15 O15       -21.3010  -20.5080    2.9040 O.2       1 5RS        -0.3942
     16 C16       -19.3130  -21.7870    3.0800 C.3       1 5RS         0.1378
     17 N17       -19.0930  -21.0990    4.3490 N.am      1 5RS        -0.2407
     18 C18       -18.1080  -20.2510    4.5420 C.2       1 5RS         0.3223
     19 O19       -17.3420  -20.0240    3.6330 O.2       1 5RS        -0.3774
     20 O20       -17.9780  -19.6530    5.7360 O.3       1 5RS        -0.2580
     21 C21       -16.8300  -18.8530    6.0210 C.3       1 5RS         0.0905
     22 C22       -15.5370  -19.6470    5.9140 C.3       1 5RS        -0.0320
     23 C23       -16.9620  -18.3580    7.4460 C.3       1 5RS        -0.0320
     24 C24       -16.7750  -17.6450    5.1030 C.3       1 5RS        -0.0320
     25 C25       -19.7320  -23.2680    3.3210 C.3       1 5RS         0.0025
     26 C26       -21.1290  -23.3510    3.9300 C.3       1 5RS        -0.0558
     27 C27       -19.7100  -24.0580    2.0060 C.3       1 5RS        -0.0558
     28 C28       -18.7400  -23.9110    4.2760 C.3       1 5RS        -0.0558
     29 O29       -18.2140  -19.3480   -0.7890 O.3       1 5RS        -0.2852
     30 C30       -17.8410  -18.5010   -1.7700 C.ar      1 5RS         0.1985
     31 C31       -17.4790  -17.2270   -1.3590 C.ar      1 5RS         0.0904
     32 C32       -17.5230  -16.8550   -0.0170 C.3       1 5RS         0.0013
     33 C33       -16.1290  -16.6500    0.5490 C.3       1 5RS        -0.0527
     34 N34       -17.1150  -16.3330   -2.2640 N.ar      1 5RS        -0.2830
     35 C35       -17.0820  -16.6500   -3.5520 C.ar      1 5RS         0.0479
     36 C36       -16.6860  -15.7050   -4.4870 C.ar      1 5RS        -0.0425
     37 C37       -16.6550  -16.0490   -5.8230 C.ar      1 5RS        -0.0236
     38 C38       -17.0160  -17.3230   -6.2350 C.ar      1 5RS         0.0960
     39 C39       -17.3950  -18.2680   -5.2860 C.ar      1 5RS        -0.0161
     40 C40       -17.4310  -17.9340   -3.9520 C.ar      1 5RS         0.0423
     41 N41       -17.8030  -18.8340   -3.0510 N.ar      1 5RS        -0.2649
     42 O42       -16.9610  -17.6180   -7.5630 O.3       1 5RS        -0.3183
     43 C43       -17.9110  -18.5450   -8.0740 C.3       1 5RS         0.0605
     44 C44       -25.5770  -20.5460   -0.1200 C.2       1 5RS         0.2444
     45 O45       -26.6810  -21.0190    0.0930 O.2       1 5RS        -0.3404
     46 N46       -25.0580  -20.3900   -1.3370 N.am      1 5RS        -0.1552
     47 S47       -25.8420  -20.8520   -2.5610 S.o2      1 5RS         0.0645
     48 O48       -25.9040  -22.3530   -2.5240 O.2       1 5RS        -0.1503
     49 O49       -27.2480  -20.3560   -2.6120 O.2       1 5RS        -0.1503
     50 C50       -24.8920  -20.3830   -4.1940 C.3       1 5RS         0.1004
     51 C51       -25.7290  -20.4850   -5.4390 C.3       1 5RS        -0.0268
     52 C52       -25.3190  -19.1290   -4.8970 C.3       1 5RS        -0.0268
     53 H1        -18.6669  -21.0269   -1.9401 H         1 5RS         0.0683
     54 H2        -21.0341  -20.9350   -1.8134 H         1 5RS         0.0343
     55 H3        -20.6406  -19.1833   -1.7573 H         1 5RS         0.0343
     56 H4        -18.0862  -21.2421    0.7127 H         1 5RS         0.0554
     57 H5        -19.2192  -22.3934   -0.0731 H         1 5RS         0.0554
     58 H6        -26.0373  -24.0696    3.0944 H         1 5RS         0.0230
     59 H7        -25.0438  -23.0376    4.1781 H         1 5RS         0.0230
     60 H8        -24.3462  -23.6629    2.6455 H         1 5RS         0.0230
     61 H9        -26.6713  -21.7224    2.9007 H         1 5RS         0.0265
     62 H10       -25.9737  -22.3478    1.3681 H         1 5RS         0.0265
     63 H11       -23.8861  -21.0752    2.9784 H         1 5RS         0.0312
     64 H12       -24.9292  -18.6650    2.8096 H         1 5RS         0.0279
     65 H13       -26.4819  -19.3907    2.2719 H         1 5RS         0.0279
     66 H14       -23.0219  -18.7845    0.8894 H         1 5RS         0.1839
     67 H15       -21.1156  -19.0124    0.4939 H         1 5RS         0.0803
     68 H16       -18.3772  -21.7892    2.5019 H         1 5RS         0.0805
     69 H17       -19.7207  -21.2815    5.1058 H         1 5RS         0.1899
     70 H18       -14.6839  -18.9908    6.1414 H         1 5RS         0.0260
     71 H19       -15.4332  -20.0428    4.8930 H         1 5RS         0.0260
     72 H20       -15.5588  -20.4815    6.6303 H         1 5RS         0.0260
     73 H21       -16.0912  -17.7359    7.7002 H         1 5RS         0.0260
     74 H22       -17.0102  -19.2181    8.1300 H         1 5RS         0.0260
     75 H23       -17.8804  -17.7604    7.5430 H         1 5RS         0.0260
     76 H24       -15.8844  -17.0445    5.3402 H         1 5RS         0.0260
     77 H25       -17.6782  -17.0338    5.2467 H         1 5RS         0.0260
     78 H26       -16.7225  -17.9814    4.0570 H         1 5RS         0.0260
     79 H27       -21.3977  -24.4058    4.0887 H         1 5RS         0.0237
     80 H28       -21.8551  -22.8866    3.2466 H         1 5RS         0.0237
     81 H29       -21.1411  -22.8206    4.8936 H         1 5RS         0.0237
     82 H30       -18.7053  -24.0022    1.5616 H         1 5RS         0.0237
     83 H31       -20.4440  -23.6289    1.3081 H         1 5RS         0.0237
     84 H32       -19.9648  -25.1093    2.2055 H         1 5RS         0.0237
     85 H33       -18.7382  -23.3604    5.2283 H         1 5RS         0.0237
     86 H34       -17.7333  -23.8817    3.8336 H         1 5RS         0.0237
     87 H35       -19.0305  -24.9563    4.4575 H         1 5RS         0.0237
     88 H36       -18.0291  -17.6453    0.5567 H         1 5RS         0.0460
     89 H37       -18.0880  -15.9158    0.0754 H         1 5RS         0.0460
     90 H38       -16.2022  -16.3580    1.6070 H         1 5RS         0.0255
     91 H39       -15.6170  -15.8569   -0.0156 H         1 5RS         0.0255
     92 H40       -15.5580  -17.5865    0.4657 H         1 5RS         0.0255
     93 H41       -16.4039  -14.7070   -4.1716 H         1 5RS         0.0637
     94 H42       -16.3451  -15.3154   -6.5584 H         1 5RS         0.0606
     95 H43       -17.6627  -19.2707   -5.5992 H         1 5RS         0.0508
     96 H44       -17.7451  -18.6830   -9.1526 H         1 5RS         0.0580
     97 H45       -18.9272  -18.1589   -7.9059 H         1 5RS         0.0580
     98 H46       -17.7955  -19.5100   -7.5589 H         1 5RS         0.0580
     99 H47       -24.1567  -19.9711   -1.4477 H         1 5RS         0.2148
    100 H48       -23.8374  -20.6943   -4.1631 H         1 5RS         0.0559
    101 H49       -26.7776  -20.8109   -5.3732 H         1 5RS         0.0285
    102 H50       -25.2855  -20.8628   -6.3720 H         1 5RS         0.0285
    103 H51       -24.5783  -18.5212   -5.4373 H         1 5RS         0.0285
    104 H52       -26.0703  -18.4693   -4.4384 H         1 5RS         0.0285
@<TRIPOS>BOND
     1   14    1 am 
     2    1   15 2  
     3    1   16 1  
     4    3    2 1  
     5    2    4 1  
     6    2   29 1  
     7   13    3 1  
     8    4   14 1  
     9    6    5 1  
    10    7    6 1  
    11    8    7 1  
    12    9    7 1  
    13    9    8 1  
    14   10    9 1  
    15    9   44 1  
    16   11   10 am 
    17   11   12 2  
    18   11   13 1  
    19   13   14 1  
    20   16   17 1  
    21   16   25 1  
    22   17   18 am 
    23   18   19 2  
    24   18   20 1  
    25   20   21 1  
    26   21   22 1  
    27   21   23 1  
    28   21   24 1  
    29   25   26 1  
    30   25   27 1  
    31   25   28 1  
    32   29   30 1  
    33   30   31 ar 
    34   30   41 ar 
    35   31   32 1  
    36   31   34 ar 
    37   32   33 1  
    38   34   35 ar 
    39   35   36 ar 
    40   35   40 ar 
    41   36   37 ar 
    42   37   38 ar 
    43   38   39 ar 
    44   38   42 1  
    45   39   40 ar 
    46   40   41 ar 
    47   42   43 1  
    48   44   45 2  
    49   44   46 am 
    50   46   47 am 
    51   47   48 2  
    52   47   49 2  
    53   47   50 1  
    54   50   51 1  
    55   50   52 1  
    56   51   52 1  
    57    2   53 1  
    58    3   54 1  
    59    3   55 1  
    60    4   56 1  
    61    4   57 1  
    62    5   58 1  
    63    5   59 1  
    64    5   60 1  
    65    6   61 1  
    66    6   62 1  
    67    7   63 1  
    68    8   64 1  
    69    8   65 1  
    70   10   66 1  
    71   13   67 1  
    72   16   68 1  
    73   17   69 1  
    74   22   70 1  
    75   22   71 1  
    76   22   72 1  
    77   23   73 1  
    78   23   74 1  
    79   23   75 1  
    80   24   76 1  
    81   24   77 1  
    82   24   78 1  
    83   26   79 1  
    84   26   80 1  
    85   26   81 1  
    86   27   82 1  
    87   27   83 1  
    88   27   84 1  
    89   28   85 1  
    90   28   86 1  
    91   28   87 1  
    92   32   88 1  
    93   32   89 1  
    94   33   90 1  
    95   33   91 1  
    96   33   92 1  
    97   36   93 1  
    98   37   94 1  
    99   39   95 1  
   100   43   96 1  
   101   43   97 1  
   102   43   98 1  
   103   46   99 1  
   104   50  100 1  
   105   51  101 1  
   106   51  102 1  
   107   52  103 1  
   108   52  104 1  
@<TRIPOS>SUBSTRUCTURE
     1 5RS         1

