6o0h_ligand
  -I-interpret- 

 44 46  0  0  0  0  0  0  0  0999 V2000
  128.5110  152.2790  183.2030 C   0  0  0  0  0
  128.6060  160.1350  182.7650 C   0  0  0  0  0
  128.1280  160.9950  181.8110 C   0  0  0  0  0
  128.1070  160.6030  180.4980 C   0  0  0  0  0
  128.5510  159.3560  180.1380 C   0  0  0  0  0
  129.0330  158.5060  181.0980 C   0  0  0  0  0
  128.7160  157.3410  184.2630 C   0  0  0  0  0
  127.0360  154.6210  182.8900 C   0  0  0  0  0
  127.4430  153.8560  181.8260 C   0  0  0  0  0
  127.0910  154.2710  180.4810 C   0  0  0  0  0
  125.5690  155.4900  179.3600 C   0  0  0  0  0
  128.1240  153.0220  184.2770 C   0  0  0  0  0
  128.1700  152.6990  181.9460 C   0  0  0  0  0
  127.4130  154.1720  184.1250 C   0  0  0  0  0
  129.2320  156.4600  185.1740 C   0  0  0  0  0
  130.5820  156.2600  185.2310 C   0  0  0  0  0
  131.4450  156.8930  184.3870 C   0  0  0  0  0
  130.9100  157.7430  183.4670 C   0  0  0  0  0
  129.5650  157.9870  183.3970 C   0  0  0  0  0
  129.0660  158.8940  182.4110 C   0  0  0  0  0
  131.0900  155.4140  186.1310 F   0  0  0  0  0
  131.7490  158.3710  182.6390 F   0  0  0  0  0
  128.4270  155.7530  186.1140 N   0  0  0  0  0
  128.4660  152.6030  185.5320 O   0  0  0  0  0
  126.0070  156.0570  185.1960 O   0  0  0  0  0
  126.6000  154.0000  186.5230 O   0  0  0  0  0
  127.4340  153.6740  179.4740 O   0  0  0  0  0
  126.3120  155.3730  180.5630 O   0  0  0  0  0
  126.9620  155.0420  185.5860 S   0  0  0  0  0
  129.4180  150.8460  183.4580 Cl  0  0  0  0  0
  128.6203  160.4401  183.8113 H   0  0  0  0  0
  127.7671  161.9837  182.0945 H   0  0  0  0  0
  127.7351  161.2865  179.7348 H   0  0  0  0  0
  128.5204  159.0434  179.0942 H   0  0  0  0  0
  129.3919  157.5163  180.8156 H   0  0  0  0  0
  127.6429  157.5284  184.2247 H   0  0  0  0  0
  126.4488  155.5299  182.7587 H   0  0  0  0  0
  126.2552  155.5807  178.5180 H   0  0  0  0  0
  124.9480  154.6036  179.2304 H   0  0  0  0  0
  124.9350  156.3752  179.4107 H   0  0  0  0  0
  128.4677  152.1302  181.0651 H   0  0  0  0  0
  132.5205  156.7256  184.4460 H   0  0  0  0  0
  128.7197  155.6718  187.0877 H   0  0  0  0  0
  128.1255  153.2246  186.1795 H   0  0  0  0  0
 12  1  4  0  0  0
  1 13  4  0  0  0
  1 30  1  0  0  0
  2  3  4  0  0  0
 20  2  4  0  0  0
  3  4  4  0  0  0
  5  4  4  0  0  0
  6  5  4  0  0  0
 20  6  4  0  0  0
 15  7  4  0  0  0
  7 19  4  0  0  0
  8  9  4  0  0  0
 14  8  4  0  0  0
  9 10  1  0  0  0
  9 13  4  0  0  0
 10 27  2  0  0  0
 10 28  1  0  0  0
 28 11  1  0  0  0
 14 12  4  0  0  0
 12 24  1  0  0  0
 29 14  1  0  0  0
 15 16  4  0  0  0
 23 15  1  0  0  0
 16 17  4  0  0  0
 16 21  1  0  0  0
 17 18  4  0  0  0
 19 18  4  0  0  0
 18 22  1  0  0  0
 19 20  1  0  0  0
 23 29  1  0  0  0
 29 25  2  0  0  0
 29 26  2  0  0  0
  2 31  1  0  0  0
  3 32  1  0  0  0
  4 33  1  0  0  0
  5 34  1  0  0  0
  6 35  1  0  0  0
  7 36  1  0  0  0
  8 37  1  0  0  0
 11 38  1  0  0  0
 11 39  1  0  0  0
 11 40  1  0  0  0
 13 41  1  0  0  0
 17 42  1  0  0  0
 23 43  1  0  0  0
 24 44  1  0  0  0
M  END
$$$$
