6qab_ligand
  -I-interpret- 

 71 73  0  0  0  0  0  0  0  0999 V2000
   49.8810   16.2960   85.7230 C   0  0  0  0  0
   49.1660   16.9300   86.9180 C   0  0  0  0  0
   48.0840   16.0330   87.5400 C   0  0  0  0  0
   46.8170   16.8150   87.9280 C   0  0  0  0  0
   45.9730   14.4880   88.5600 C   0  0  0  0  0
   45.8810   16.3780   90.2280 C   0  0  0  0  0
   44.3250   16.3150   88.2160 C   0  0  0  0  0
   44.2280   17.8230   87.7680 C   0  0  0  0  0
   43.7430   19.5980   86.0210 C   0  0  0  0  0
   42.3610   19.8270   85.3400 C   0  0  0  0  0
   41.3970   20.8010   86.0480 C   0  0  0  0  0
   42.1760   22.0960   86.4110 C   0  0  0  0  0
   42.3290   23.1420   85.3030 C   0  0  0  0  0
   41.2010   24.1990   85.3050 C   0  0  0  0  0
   39.8810   23.6690   84.7570 C   0  0  0  0  0
   39.3860   22.4150   85.4790 C   0  0  0  0  0
   40.1530   21.1100   85.1440 C   0  0  0  0  0
   43.1770   15.8660   89.1850 C   0  0  0  0  0
   41.8600   16.1020   88.5410 C   0  0  0  0  0
   41.1470   17.3310   88.6320 C   0  0  0  0  0
   39.9080   15.9530   87.2740 C   0  0  0  0  0
   41.0670   15.2500   87.6610 C   0  0  0  0  0
   41.2510   13.9220   87.1890 C   0  0  0  0  0
   40.2830   13.3400   86.3510 C   0  0  0  0  0
   39.1200   14.0510   85.9740 C   0  0  0  0  0
   38.9020   15.3640   86.4220 C   0  0  0  0  0
   45.7500   15.9950   88.7480 N   0  3  0  0  0
   43.8870   18.2130   86.4980 N   0  0  0  0  0
   39.9730   17.2080   87.8680 N   0  0  0  0  0
   44.4220   18.6830   88.6680 O   0  0  0  0  0
   50.3672   15.3733   86.0398 H   0  0  0  0  0
   49.1539   16.0752   84.9415 H   0  0  0  0  0
   50.6294   16.9894   85.3394 H   0  0  0  0  0
   48.6729   17.8338   86.5600 H   0  0  0  0  0
   49.9171   17.1140   87.6862 H   0  0  0  0  0
   48.4960   15.5910   88.4472 H   0  0  0  0  0
   47.8023   15.2849   86.7990 H   0  0  0  0  0
   46.3353   17.1138   86.9970 H   0  0  0  0  0
   47.1392   17.6374   88.5667 H   0  0  0  0  0
   45.2191   13.9375   89.1227 H   0  0  0  0  0
   45.8920   14.2392   87.5019 H   0  0  0  0  0
   46.9657   14.2209   88.9224 H   0  0  0  0  0
   45.6949   17.4458   90.3435 H   0  0  0  0  0
   45.1534   15.8157   90.8133 H   0  0  0  0  0
   46.8874   16.1437   90.5749 H   0  0  0  0  0
   44.1633   15.7045   87.3276 H   0  0  0  0  0
   43.8209   20.2678   86.8774 H   0  0  0  0  0
   44.5256   19.7936   85.2879 H   0  0  0  0  0
   41.8621   18.8579   85.3369 H   0  0  0  0  0
   42.5740   20.2681   84.3663 H   0  0  0  0  0
   41.0170   20.3461   86.9627 H   0  0  0  0  0
   43.1872   21.7766   86.6633 H   0  0  0  0  0
   41.6023   22.5790   87.2019 H   0  0  0  0  0
   42.2908   22.6194   84.3472 H   0  0  0  0  0
   43.2715   23.6638   85.4687 H   0  0  0  0  0
   41.5181   25.0219   84.6644 H   0  0  0  0  0
   41.0324   24.5004   86.3388 H   0  0  0  0  0
   40.0405   23.4057   83.7114 H   0  0  0  0  0
   39.1305   24.4471   84.8962 H   0  0  0  0  0
   38.3544   22.2601   85.1630 H   0  0  0  0  0
   39.5256   22.5936   86.5452 H   0  0  0  0  0
   39.4499   20.2911   85.2961 H   0  0  0  0  0
   40.5308   21.2262   84.1282 H   0  0  0  0  0
   43.2368   16.4420   90.1084 H   0  0  0  0  0
   43.2859   14.8046   89.4079 H   0  0  0  0  0
   41.4566   18.2118   89.1946 H   0  0  0  0  0
   42.1383   13.3572   87.4752 H   0  0  0  0  0
   40.4316   12.3238   85.9859 H   0  0  0  0  0
   38.3835   13.5738   85.3275 H   0  0  0  0  0
   38.0072   15.9175   86.1373 H   0  0  0  0  0
   43.7168   17.4716   85.8185 H   0  0  0  0  0
  2  1  1  0  0  0
  3  2  1  0  0  0
  4  3  1  0  0  0
 27  4  1  0  0  0
 27  5  1  0  0  0
 27  6  1  0  0  0
  8  7  1  0  0  0
  7 18  1  0  0  0
  7 27  1  0  0  0
 28  8  1  0  0  0
  8 30  2  0  0  0
  9 10  1  0  0  0
  9 28  1  0  0  0
 10 11  1  0  0  0
 11 12  1  0  0  0
 11 17  1  0  0  0
 12 13  1  0  0  0
 13 14  1  0  0  0
 14 15  1  0  0  0
 15 16  1  0  0  0
 16 17  1  0  0  0
 18 19  1  0  0  0
 19 20  4  0  0  0
 19 22  4  0  0  0
 20 29  4  0  0  0
 22 21  4  0  0  0
 21 26  4  0  0  0
 21 29  4  0  0  0
 22 23  4  0  0  0
 23 24  4  0  0  0
 24 25  4  0  0  0
 25 26  4  0  0  0
  1 31  1  0  0  0
  1 32  1  0  0  0
  1 33  1  0  0  0
  2 34  1  0  0  0
  2 35  1  0  0  0
  3 36  1  0  0  0
  3 37  1  0  0  0
  4 38  1  0  0  0
  4 39  1  0  0  0
  5 40  1  0  0  0
  5 41  1  0  0  0
  5 42  1  0  0  0
  6 43  1  0  0  0
  6 44  1  0  0  0
  6 45  1  0  0  0
  7 46  1  0  0  0
  9 47  1  0  0  0
  9 48  1  0  0  0
 10 49  1  0  0  0
 10 50  1  0  0  0
 11 51  1  0  0  0
 12 52  1  0  0  0
 12 53  1  0  0  0
 13 54  1  0  0  0
 13 55  1  0  0  0
 14 56  1  0  0  0
 14 57  1  0  0  0
 15 58  1  0  0  0
 15 59  1  0  0  0
 16 60  1  0  0  0
 16 61  1  0  0  0
 17 62  1  0  0  0
 17 63  1  0  0  0
 18 64  1  0  0  0
 18 65  1  0  0  0
 20 66  1  0  0  0
 23 67  1  0  0  0
 24 68  1  0  0  0
 25 69  1  0  0  0
 26 70  1  0  0  0
 28 71  1  0  0  0
M  END
$$$$
