3sov_ligand
  -I-interpret- 

110110  0  0  0  0  0  0  0  0999 V2000
  -14.9760   16.2170   -3.3870 N   0  3  0  0  0
  -15.8630   15.0720   -3.3220 C   0  0  0  0  0
  -16.7100   14.9130   -4.5960 C   0  0  0  0  0
  -17.0240   13.7930   -4.9510 O   0  0  0  0  0
  -16.7690   15.1070   -2.0770 C   0  0  0  0  0
  -17.2440   13.7120   -1.6190 C   0  0  0  0  0
  -16.0440   12.8530   -1.1940 C   0  0  0  0  0
  -18.2830   13.7800   -0.4840 C   0  0  0  0  0
  -17.1130   16.0160   -5.2690 N   0  0  0  0  0
  -17.8010   15.7150   -6.5260 C   0  0  0  0  0
  -16.8790   14.8250   -7.4050 C   0  0  0  0  0
  -15.6370   15.0600   -7.5730 O   0  0  0  0  0
  -17.9850   17.0980   -7.1770 C   0  0  0  0  0
  -18.1190   18.0070   -6.0030 C   0  0  0  0  0
  -17.1150   17.4680   -4.9980 C   0  0  0  0  0
  -17.5160   13.7890   -7.9490 N   0  0  0  0  0
  -16.9150   12.7370   -8.8270 C   0  0  0  0  0
  -16.0290   11.7470   -8.0850 C   0  0  0  0  0
  -15.5420   10.7930   -8.6860 O   0  0  0  0  0
  -16.0920   13.3010  -10.0030 C   0  0  0  0  0
  -15.9960   12.3090  -11.1360 C   0  0  0  0  0
  -16.9710   11.6350  -11.4730 O   0  0  0  0  0
  -14.8340   12.2170  -11.7650 N   0  0  0  0  0
  -15.7070   12.0000   -6.8170 N   0  0  0  0  0
  -14.8830   11.0300   -6.0820 C   0  0  0  0  0
  -15.6920    9.7480   -5.8380 C   0  0  0  0  0
  -16.9170    9.7920   -5.6660 O   0  0  0  0  0
  -14.3820   11.6240   -4.7490 C   0  0  0  0  0
  -14.9940    8.6220   -5.7690 N   0  0  0  0  0
  -15.6650    7.3660   -5.4220 C   0  0  0  0  0
  -15.9060    7.4160   -3.9060 C   0  0  0  0  0
  -14.9450    7.5490   -3.1430 O   0  0  0  0  0
  -14.8760    6.1580   -5.8330 C   0  0  0  0  0
  -14.9440    6.0310   -7.3690 C   0  0  0  0  0
  -15.4550    4.8720   -5.2140 C   0  0  0  0  0
  -14.0090    5.0050   -7.9160 C   0  0  0  0  0
  -17.1810    7.3720   -3.5050 N   0  0  0  0  0
  -17.5360    7.5550   -2.1130 C   0  0  0  0  0
  -17.2370    6.3480   -1.2670 C   0  0  0  0  0
  -17.0620    5.2290   -1.7750 O   0  0  0  0  0
  -17.1430    6.6230    0.0340 N   0  0  0  0  0
  -17.0470    5.6250    1.0830 C   0  0  0  0  0
  -16.4210    4.3080    0.6050 C   0  0  0  0  0
  -15.2028    4.0605    0.8111 O   0  0  0  0  0
  -18.4430    5.4280    1.6880 C   0  0  0  0  0
  -18.8670    4.0000    1.8470 C   0  0  0  0  0
  -18.2340    3.3550    3.0740 C   0  0  0  0  0
  -18.4740    1.9120    3.0710 N   0  0  0  0  0
  -19.6790    1.3450    3.1060 C   0  0  0  0  0
  -20.7810    2.0870    3.1790 N   0  0  0  0  0
  -19.7820    0.0270    3.0770 N   0  0  0  0  0
  -17.1338    3.4639   -0.0008 O   0  0  0  0  0
  -14.3978   16.1506   -4.2247 H   0  0  0  0  0
  -15.5297   17.0730   -3.4216 H   0  0  0  0  0
  -14.3787   16.2302   -2.5603 H   0  0  0  0  0
  -15.2144   14.1996   -3.2423 H   0  0  0  0  0
  -17.6559   15.6859   -2.3345 H   0  0  0  0  0
  -16.1878   15.5382   -1.2619 H   0  0  0  0  0
  -17.7380   13.2488   -2.4731 H   0  0  0  0  0
  -15.5789   13.2921   -0.3114 H   0  0  0  0  0
  -16.3850   11.8439   -0.9625 H   0  0  0  0  0
  -15.3194   12.8154   -2.0074 H   0  0  0  0  0
  -18.6305   12.7736   -0.2505 H   0  0  0  0  0
  -17.8244   14.2218    0.4006 H   0  0  0  0  0
  -19.1268   14.3925   -0.8018 H   0  0  0  0  0
  -18.7441   15.1842   -6.3961 H   0  0  0  0  0
  -18.8465   17.1396   -7.8435 H   0  0  0  0  0
  -17.1558   17.3710   -7.8297 H   0  0  0  0  0
  -19.1337   18.0183   -5.6052 H   0  0  0  0  0
  -17.9225   19.0470   -6.2635 H   0  0  0  0  0
  -16.1280   17.9176   -5.1070 H   0  0  0  0  0
  -17.3832   17.7033   -3.9680 H   0  0  0  0  0
  -18.5122   13.7046   -7.7469 H   0  0  0  0  0
  -17.7952   12.2216   -9.2113 H   0  0  0  0  0
  -15.0847   13.5177   -9.6472 H   0  0  0  0  0
  -16.5869   14.1995  -10.3715 H   0  0  0  0  0
  -14.7289   11.5754  -12.5509 H   0  0  0  0  0
  -14.0443   12.7878  -11.4635 H   0  0  0  0  0
  -16.0279   12.8550   -6.3627 H   0  0  0  0  0
  -14.0062   10.7886   -6.6829 H   0  0  0  0  0
  -13.7811   12.5107   -4.9509 H   0  0  0  0  0
  -15.2368   11.8961   -4.1299 H   0  0  0  0  0
  -13.7754   10.8833   -4.2279 H   0  0  0  0  0
  -13.9915    8.6303   -5.9572 H   0  0  0  0  0
  -16.6058    7.2701   -5.9640 H   0  0  0  0  0
  -13.8499    6.2796   -5.4861 H   0  0  0  0  0
  -14.6616    6.9947   -7.7929 H   0  0  0  0  0
  -15.9575    5.7272   -7.6307 H   0  0  0  0  0
  -15.4289    4.9498   -4.1271 H   0  0  0  0  0
  -16.4852    4.7426   -5.5457 H   0  0  0  0  0
  -14.8592    4.0167   -5.5327 H   0  0  0  0  0
  -12.9853    5.2706   -7.6520 H   0  0  0  0  0
  -14.2534    4.0305   -7.4933 H   0  0  0  0  0
  -14.1076    4.9670   -9.0009 H   0  0  0  0  0
  -17.9166    7.2066   -4.1919 H   0  0  0  0  0
  -18.6097    7.7365   -2.0651 H   0  0  0  0  0
  -16.9462    8.3861   -1.7263 H   0  0  0  0  0
  -17.1382    7.6044    0.3118 H   0  0  0  0  0
  -16.3638    5.9844    1.8526 H   0  0  0  0  0
  -14.8027    4.7966    1.2798 H   0  0  0  0  0
  -19.1519    5.8928    1.0027 H   0  0  0  0  0
  -18.4175    5.8623    2.6874 H   0  0  0  0  0
  -18.5452    3.4468    0.9647 H   0  0  0  0  0
  -19.9501    3.9756    1.9674 H   0  0  0  0  0
  -18.6770    3.7872    3.9712 H   0  0  0  0  0
  -17.1594    3.5367    3.0566 H   0  0  0  0  0
  -17.6613    1.2964    3.0399 H   0  0  0  0  0
  -21.6965    1.6385    3.2122 H   0  0  0  0  0
  -20.7103    3.1043    3.2018 H   0  0  0  0  0
  -18.9418   -0.5493    3.0281 H   0  0  0  0  0
  1  2  1  0  0  0
  2  3  1  0  0  0
  2  5  1  0  0  0
  3  4  2  0  0  0
  3  9  1  0  0  0
  5  6  1  0  0  0
  6  7  1  0  0  0
  6  8  1  0  0  0
  9 10  1  0  0  0
  9 15  1  0  0  0
 10 11  1  0  0  0
 10 13  1  0  0  0
 11 12  2  0  0  0
 11 16  1  0  0  0
 13 14  1  0  0  0
 14 15  1  0  0  0
 16 17  1  0  0  0
 17 18  1  0  0  0
 17 20  1  0  0  0
 18 19  2  0  0  0
 18 24  1  0  0  0
 20 21  1  0  0  0
 21 22  2  0  0  0
 21 23  1  0  0  0
 24 25  1  0  0  0
 25 26  1  0  0  0
 25 28  1  0  0  0
 26 27  2  0  0  0
 26 29  1  0  0  0
 29 30  1  0  0  0
 30 31  1  0  0  0
 30 33  1  0  0  0
 31 32  2  0  0  0
 31 37  1  0  0  0
 33 34  1  0  0  0
 33 35  1  0  0  0
 34 36  1  0  0  0
 37 38  1  0  0  0
 38 39  1  0  0  0
 39 40  2  0  0  0
 39 41  1  0  0  0
 41 42  1  0  0  0
 42 43  1  0  0  0
 42 45  1  0  0  0
 43 44  1  0  0  0
 45 46  1  0  0  0
 46 47  1  0  0  0
 47 48  1  0  0  0
 48 49  1  0  0  0
 49 50  1  0  0  0
 49 51  2  0  0  0
 43 52  2  0  0  0
  1 53  1  0  0  0
  1 54  1  0  0  0
  1 55  1  0  0  0
  2 56  1  0  0  0
  5 57  1  0  0  0
  5 58  1  0  0  0
  6 59  1  0  0  0
  7 60  1  0  0  0
  7 61  1  0  0  0
  7 62  1  0  0  0
  8 63  1  0  0  0
  8 64  1  0  0  0
  8 65  1  0  0  0
 10 66  1  0  0  0
 13 67  1  0  0  0
 13 68  1  0  0  0
 14 69  1  0  0  0
 14 70  1  0  0  0
 15 71  1  0  0  0
 15 72  1  0  0  0
 16 73  1  0  0  0
 17 74  1  0  0  0
 20 75  1  0  0  0
 20 76  1  0  0  0
 23 77  1  0  0  0
 23 78  1  0  0  0
 24 79  1  0  0  0
 25 80  1  0  0  0
 28 81  1  0  0  0
 28 82  1  0  0  0
 28 83  1  0  0  0
 29 84  1  0  0  0
 30 85  1  0  0  0
 33 86  1  0  0  0
 34 87  1  0  0  0
 34 88  1  0  0  0
 35 89  1  0  0  0
 35 90  1  0  0  0
 35 91  1  0  0  0
 36 92  1  0  0  0
 36 93  1  0  0  0
 36 94  1  0  0  0
 37 95  1  0  0  0
 38 96  1  0  0  0
 38 97  1  0  0  0
 41 98  1  0  0  0
 42 99  1  0  0  0
 44100  1  0  0  0
 45101  1  0  0  0
 45102  1  0  0  0
 46103  1  0  0  0
 46104  1  0  0  0
 47105  1  0  0  0
 47106  1  0  0  0
 48107  1  0  0  0
 50108  1  0  0  0
 50109  1  0  0  0
 51110  1  0  0  0
M  END
$$$$
