### 
### Created by X-TOOL on Mon Sep 10 21:13:05 2018
### 

@<TRIPOS>MOLECULE
3sov_ligand
  110   110     1     0     0
SMALL
GAST_HUCK


@<TRIPOS>ATOM
      1 N         -14.9760   16.2170   -3.3870 N.4       1 LEU         0.2379
      2 CA        -15.8630   15.0720   -3.3220 C.3       1 LEU         0.0654
      3 C         -16.7100   14.9130   -4.5960 C.2       1 LEU         0.2292
      4 O         -17.0240   13.7930   -4.9510 O.2       1 LEU        -0.3905
      5 CB        -16.7690   15.1070   -2.0770 C.3       1 LEU         0.0102
      6 CG        -17.2440   13.7120   -1.6190 C.3       1 LEU        -0.0394
      7 CD1       -16.0440   12.8530   -1.1940 C.3       1 LEU        -0.0623
      8 CD2       -18.2830   13.7800   -0.4840 C.3       1 LEU        -0.0623
      9 N         -17.1130   16.0160   -5.2690 N.am      1 PRO        -0.2471
     10 CA        -17.8010   15.7150   -6.5260 C.3       1 PRO         0.1339
     11 C         -16.8790   14.8250   -7.4050 C.2       1 PRO         0.2042
     12 O         -15.6370   15.0600   -7.5730 O.2       1 PRO        -0.3944
     13 CB        -17.9850   17.0980   -7.1770 C.3       1 PRO        -0.0104
     14 CG        -18.1190   18.0070   -6.0030 C.3       1 PRO        -0.0281
     15 CD        -17.1150   17.4680   -4.9980 C.3       1 PRO         0.0371
     16 N         -17.5160   13.7890   -7.9490 N.am      1 ASN        -0.2616
     17 CA        -16.9150   12.7370   -8.8270 C.3       1 ASN         0.1476
     18 C         -16.0290   11.7470   -8.0850 C.2       1 ASN         0.2062
     19 O         -15.5420   10.7930   -8.6860 O.2       1 ASN        -0.3942
     20 CB        -16.0920   13.3010  -10.0030 C.3       1 ASN         0.0773
     21 CG        -15.9960   12.3090  -11.1360 C.2       1 ASN         0.1780
     22 OD1       -16.9710   11.6350  -11.4730 O.2       1 ASN        -0.3970
     23 ND2       -14.8340   12.2170  -11.7650 N.am      1 ASN        -0.3007
     24 N         -15.7070   12.0000   -6.8170 N.am      1 ALA        -0.2639
     25 CA        -14.8830   11.0300   -6.0820 C.3       1 ALA         0.1282
     26 C         -15.6920    9.7480   -5.8380 C.2       1 ALA         0.2036
     27 O         -16.9170    9.7920   -5.6660 O.2       1 ALA        -0.3944
     28 CB        -14.3820   11.6240   -4.7490 C.3       1 ALA        -0.0244
     29 N         -14.9940    8.6220   -5.7690 N.am      1 ILE        -0.2635
     30 CA        -15.6650    7.3660   -5.4220 C.3       1 ILE         0.1335
     31 C         -15.9060    7.4160   -3.9060 C.2       1 ILE         0.2040
     32 O         -14.9450    7.5490   -3.1430 O.2       1 ILE        -0.3944
     33 CB        -14.8760    6.1580   -5.8330 C.3       1 ILE        -0.0037
     34 CG1       -14.9440    6.0310   -7.3690 C.3       1 ILE        -0.0491
     35 CG2       -15.4550    4.8720   -5.2140 C.3       1 ILE        -0.0582
     36 CD1       -14.0090    5.0050   -7.9160 C.3       1 ILE        -0.0648
     37 N         -17.1810    7.3720   -3.5050 N.am      1 GLY        -0.2664
     38 CA        -17.5360    7.5550   -2.1130 C.3       1 GLY         0.1201
     39 C         -17.2370    6.3480   -1.2670 C.2       1 GLY         0.2002
     40 O         -17.0620    5.2290   -1.7750 O.2       1 GLY        -0.3947
     41 N         -17.1430    6.6230    0.0340 N.am      1 ARG        -0.2697
     42 CA        -17.0470    5.6250    1.0830 C.3       1 ARG         0.0945
     43 C         -16.4210    4.3080    0.6050 C.2       1 ARG         0.0601
     44 O         -15.2028    4.0605    0.8111 O.co2     1 ARG        -0.5666
     45 CB        -18.4430    5.4280    1.6880 C.3       1 ARG        -0.0148
     46 CG        -18.8670    4.0000    1.8470 C.3       1 ARG        -0.0162
     47 CD        -18.2340    3.3550    3.0740 C.3       1 ARG         0.0627
     48 NE        -18.4740    1.9120    3.0710 N.pl3     1 ARG        -0.2723
     49 CZ        -19.6790    1.3450    3.1060 C.cat     1 ARG         0.2882
     50 NH1       -20.7810    2.0870    3.1790 N.pl3     1 ARG        -0.2849
     51 NH2       -19.7820    0.0270    3.0770 N.pl3     1 ARG        -0.2849
     52 O         -17.1338    3.4639   -0.0008 O.co2     1 ARG        -0.5666
     53 H1        -14.4442   16.2789   -2.5329 H         1 LEU         0.2015
     54 H2        -15.5201   17.0572   -3.5057 H         1 LEU         0.2015
     55 H3        -14.3470   16.1109   -4.1675 H         1 LEU         0.2015
     56 H4        -15.2268   14.1785   -3.2390 H         1 LEU         0.1098
     57 H5        -17.6545   15.7172   -2.3084 H         1 LEU         0.0348
     58 H6        -16.2088   15.5716   -1.2522 H         1 LEU         0.0348
     59 H7        -17.7242   13.2248   -2.4804 H         1 LEU         0.0299
     60 H8        -16.3980   11.8630   -0.8706 H         1 LEU         0.0232
     61 H9        -15.5179   13.3440   -0.3621 H         1 LEU         0.0232
     62 H10       -15.3567   12.7366   -2.0449 H         1 LEU         0.0232
     63 H11       -19.1351   14.3979   -0.8035 H         1 LEU         0.0232
     64 H12       -17.8214   14.2258    0.4094 H         1 LEU         0.0232
     65 H13       -18.6346   12.7649   -0.2474 H         1 LEU         0.0232
     66 H14       -18.7669   15.2173   -6.3547 H         1 PRO         0.0802
     67 H15       -18.8899   17.1235   -7.8018 H         1 PRO         0.0313
     68 H16       -17.1103   17.3671   -7.7873 H         1 PRO         0.0313
     69 H17       -19.1394   17.9684   -5.5941 H         1 PRO         0.0287
     70 H18       -17.8745   19.0427   -6.2815 H         1 PRO         0.0287
     71 H19       -16.1181   17.9019   -5.1649 H         1 PRO         0.0524
     72 H20       -17.4378   17.6765   -3.9673 H         1 PRO         0.0524
     73 H21       -18.4927   13.7063   -7.7509 H         1 ASN         0.1885
     74 H22       -17.7577   12.1727   -9.2529 H         1 ASN         0.0826
     75 H23       -15.0780   13.5381   -9.6486 H         1 ASN         0.0551
     76 H24       -16.5757   14.2179  -10.3707 H         1 ASN         0.0551
     77 H25       -14.7249   11.5728  -12.5220 H         1 ASN         0.1814
     78 H26       -14.0658   12.7917  -11.4829 H         1 ASN         0.1814
     79 H27       -16.0216   12.8383   -6.3717 H         1 ALA         0.1883
     80 H28       -14.0069   10.7790   -6.6980 H         1 ALA         0.0797
     81 H29       -13.7697   10.8774   -4.2221 H         1 ALA         0.0277
     82 H30       -15.2438   11.8990   -4.1232 H         1 ALA         0.0277
     83 H31       -13.7753   12.5190   -4.9514 H         1 ALA         0.0277
     84 H32       -14.0112    8.6301   -5.9535 H         1 ILE         0.1883
     85 H33       -16.6354    7.3245   -5.9383 H         1 ILE         0.0803
     86 H34       -13.8308    6.2787   -5.5120 H         1 ILE         0.0345
     87 H35       -14.6914    7.0057   -7.8119 H         1 ILE         0.0267
     88 H36       -15.9705    5.7547   -7.6519 H         1 ILE         0.0267
     89 H37       -15.4153    4.9431   -4.1170 H         1 ILE         0.0235
     90 H38       -14.8636    4.0063   -5.5469 H         1 ILE         0.0235
     91 H39       -16.4995    4.7482   -5.5358 H         1 ILE         0.0235
     92 H40       -14.1076    4.9657   -9.0109 H         1 ILE         0.0230
     93 H41       -14.2546    4.0209   -7.4902 H         1 ILE         0.0230
     94 H42       -12.9755    5.2719   -7.6503 H         1 ILE         0.0230
     95 H43       -17.9022    7.2098   -4.1785 H         1 GLY         0.1881
     96 H44       -18.6133    7.7683   -2.0510 H         1 GLY         0.0763
     97 H45       -16.9694    8.4103   -1.7162 H         1 GLY         0.0763
     98 H46       -17.1383    7.5852    0.3063 H         1 ARG         0.1875
     99 H47       -16.3907    6.0256    1.8697 H         1 ARG         0.0726
    100 H48       -19.1721    5.9300    1.0350 H         1 ARG         0.0307
    101 H49       -18.4544    5.9002    2.6814 H         1 ARG         0.0307
    102 H50       -18.5636    3.4367    0.9522 H         1 ARG         0.0301
    103 H51       -19.9615    3.9629    1.9500 H         1 ARG         0.0301
    104 H52       -18.6735    3.7938    3.9819 H         1 ARG         0.0689
    105 H53       -17.1501    3.5424    3.0638 H         1 ARG         0.0689
    106 H54       -17.6533    1.2904    3.0396 H         1 ARG         0.2642
    107 H55       -21.7058    1.6343    3.2053 H         1 ARG         0.2615
    108 H56       -20.7093    3.1141    3.2092 H         1 ARG         0.2615
    109 H57       -18.9339   -0.5547    3.0205 H         1 ARG         0.2615
    110 H58       -20.7103   -0.4179    3.1109 H         1 ARG         0.2615
@<TRIPOS>BOND
     1    1    2 1  
     2    2    3 1  
     3    2    5 1  
     4    3    4 2  
     5    3    9 am 
     6    5    6 1  
     7    6    7 1  
     8    6    8 1  
     9    9   10 1  
    10    9   15 1  
    11   10   11 1  
    12   10   13 1  
    13   11   12 2  
    14   11   16 am 
    15   13   14 1  
    16   14   15 1  
    17   16   17 1  
    18   17   18 1  
    19   17   20 1  
    20   18   19 2  
    21   18   24 am 
    22   20   21 1  
    23   21   22 2  
    24   21   23 am 
    25   24   25 1  
    26   25   26 1  
    27   25   28 1  
    28   26   27 2  
    29   26   29 am 
    30   29   30 1  
    31   30   31 1  
    32   30   33 1  
    33   31   32 2  
    34   31   37 am 
    35   33   34 1  
    36   33   35 1  
    37   34   36 1  
    38   37   38 1  
    39   38   39 1  
    40   39   40 2  
    41   39   41 am 
    42   41   42 1  
    43   42   43 1  
    44   42   45 1  
    45   43   44 ar 
    46   45   46 1  
    47   46   47 1  
    48   47   48 1  
    49   48   49 ar 
    50   49   50 ar 
    51   49   51 ar 
    52   43   52 ar 
    53    1   53 1  
    54    1   54 1  
    55    1   55 1  
    56    2   56 1  
    57    5   57 1  
    58    5   58 1  
    59    6   59 1  
    60    7   60 1  
    61    7   61 1  
    62    7   62 1  
    63    8   63 1  
    64    8   64 1  
    65    8   65 1  
    66   10   66 1  
    67   13   67 1  
    68   13   68 1  
    69   14   69 1  
    70   14   70 1  
    71   15   71 1  
    72   15   72 1  
    73   16   73 1  
    74   17   74 1  
    75   20   75 1  
    76   20   76 1  
    77   23   77 1  
    78   23   78 1  
    79   24   79 1  
    80   25   80 1  
    81   28   81 1  
    82   28   82 1  
    83   28   83 1  
    84   29   84 1  
    85   30   85 1  
    86   33   86 1  
    87   34   87 1  
    88   34   88 1  
    89   35   89 1  
    90   35   90 1  
    91   35   91 1  
    92   36   92 1  
    93   36   93 1  
    94   36   94 1  
    95   37   95 1  
    96   38   96 1  
    97   38   97 1  
    98   41   98 1  
    99   42   99 1  
   100   45  100 1  
   101   45  101 1  
   102   46  102 1  
   103   46  103 1  
   104   47  104 1  
   105   47  105 1  
   106   48  106 1  
   107   50  107 1  
   108   50  108 1  
   109   51  109 1  
   110   51  110 1  
@<TRIPOS>SUBSTRUCTURE
     1 LEU         1

