3ekr_ligand
  -I-interpret- 

 41 43  0  0  0  0  0  0  0  0999 V2000
   17.1140   -3.7120   51.0650 N   0  0  0  0  0
   15.2170    0.8970   49.6930 C   0  0  0  0  0
   16.5820    0.6770   49.3700 C   0  0  0  0  0
   17.1030   -0.6460   49.4040 C   0  0  0  0  0
   16.8290   -3.1190   49.8050 C   0  0  0  0  0
   16.9380   -3.1630   52.4490 C   0  0  0  0  0
   17.8680   -5.4040   52.5880 C   0  0  0  0  0
   14.4900   -4.0780   52.5680 C   0  0  0  0  0
   12.7880   -3.0890   54.0340 C   0  0  0  0  0
   15.0820   -2.1400   54.0060 C   0  0  0  0  0
   13.1620   -4.0530   53.0730 C   0  0  0  0  0
   14.8930   -1.5000   50.0740 C   0  0  0  0  0
   13.7350   -2.1430   54.4960 C   0  0  0  0  0
   14.3690   -0.1820   50.0430 C   0  0  0  0  0
   16.2670   -1.7390   49.7580 C   0  0  0  0  0
   15.4870   -3.1320   53.0130 C   0  0  0  0  0
   17.8840   -4.0440   53.2820 C   0  0  0  0  0
   17.6810   -5.0660   51.1140 C   0  0  0  0  0
   16.0250   -1.0880   54.5570 C   0  0  0  0  0
   17.0280   -3.6660   48.7170 O   0  0  0  0  0
   14.6890    2.1500   49.6810 O   0  0  0  0  0
   18.4180   -0.8030   49.0880 O   0  0  0  0  0
   17.2248    1.5144   49.0985 H   0  0  0  0  0
   17.1690   -2.0980   52.4713 H   0  0  0  0  0
   17.0764   -6.0508   52.9664 H   0  0  0  0  0
   18.7819   -5.9699   52.7686 H   0  0  0  0  0
   14.7630   -4.8292   51.8269 H   0  0  0  0  0
   11.7691   -3.0728   54.4209 H   0  0  0  0  0
   12.4310   -4.7793   52.7178 H   0  0  0  0  0
   14.2448   -2.3349   50.3401 H   0  0  0  0  0
   13.4341   -1.4034   55.2380 H   0  0  0  0  0
   13.3221   -0.0012   50.2866 H   0  0  0  0  0
   17.5605   -4.1158   54.3204 H   0  0  0  0  0
   18.8895   -3.6258   53.3294 H   0  0  0  0  0
   18.6301   -5.1111   50.5799 H   0  0  0  0  0
   17.0189   -5.7840   50.6300 H   0  0  0  0  0
   15.6331   -0.0964   54.3308 H   0  0  0  0  0
   16.1107   -1.2086   55.6369 H   0  0  0  0  0
   17.0066   -1.2056   54.0979 H   0  0  0  0  0
   13.7610    2.1073   49.9231 H   0  0  0  0  0
   18.6511   -1.7325   49.1458 H   0  0  0  0  0
  1  5  1  0  0  0
  6  1  1  0  0  0
  1 18  1  0  0  0
  3  2  4  0  0  0
  2 14  4  0  0  0
  2 21  1  0  0  0
  4  3  4  0  0  0
 15  4  4  0  0  0
  4 22  1  0  0  0
  5 15  1  0  0  0
  5 20  2  0  0  0
 16  6  1  0  0  0
  6 17  1  0  0  0
 17  7  1  0  0  0
  7 18  1  0  0  0
  8 11  4  0  0  0
  8 16  4  0  0  0
 11  9  4  0  0  0
  9 13  4  0  0  0
 13 10  4  0  0  0
 10 16  4  0  0  0
 10 19  1  0  0  0
 14 12  4  0  0  0
 12 15  4  0  0  0
  3 23  1  0  0  0
  6 24  1  0  0  0
  7 25  1  0  0  0
  7 26  1  0  0  0
  8 27  1  0  0  0
  9 28  1  0  0  0
 11 29  1  0  0  0
 12 30  1  0  0  0
 13 31  1  0  0  0
 14 32  1  0  0  0
 17 33  1  0  0  0
 17 34  1  0  0  0
 18 35  1  0  0  0
 18 36  1  0  0  0
 19 37  1  0  0  0
 19 38  1  0  0  0
 19 39  1  0  0  0
 21 40  1  0  0  0
 22 41  1  0  0  0
M  END
$$$$
