4lkt_ligand
  -I-interpret- 

 54 53  0  0  0  0  0  0  0  0999 V2000
   31.7330   -7.3400   -6.5580 C   0  0  0  0  0
   33.1060   -7.0000   -6.0850 C   0  0  0  0  0
   33.0960   -5.6860   -5.3790 C   0  0  0  0  0
   33.7850   -5.8370   -4.0650 C   0  0  0  0  0
   34.8050   -4.7600   -3.9010 C   0  0  0  0  0
   35.2450   -4.7090   -2.4770 C   0  0  0  0  0
   36.6130   -5.2880   -2.3450 C   0  0  0  0  0
   36.6180   -6.3020   -1.2500 C   0  0  0  0  0
   38.0100   -6.7850   -1.0210 C   0  0  0  0  0
   38.2590   -8.1050   -0.7690 C   0  0  0  0  0
   37.4910   -8.8520    0.2710 C   0  0  0  0  0
   38.4490   -9.5310    1.1920 C   0  0  0  0  0
   38.0340  -10.4670    2.0990 C   0  0  0  0  0
   36.7360  -11.1880    1.9440 C   0  0  0  0  0
   36.9850  -12.6200    1.6000 C   0  0  0  0  0
   37.2180  -13.4370    2.8270 C   0  0  0  0  0
   36.9660  -14.8690    2.4980 C   0  0  0  0  0
   37.5650  -15.7350    3.5510 C   0  0  0  0  0
   30.7350   -6.7250   -6.1000 O   0  0  0  0  0
   31.5750   -8.2480   -7.4160 O   0  0  0  0  0
   33.7746   -6.9390   -6.9437 H   0  0  0  0  0
   33.4481   -7.7727   -5.3965 H   0  0  0  0  0
   32.0677   -5.3614   -5.2202 H   0  0  0  0  0
   33.6135   -4.9401   -5.9823 H   0  0  0  0  0
   34.2779   -6.8084   -4.0265 H   0  0  0  0  0
   33.0507   -5.7625   -3.2629 H   0  0  0  0  0
   34.3708   -3.8008   -4.1829 H   0  0  0  0  0
   35.6626   -4.9699   -4.5402 H   0  0  0  0  0
   34.5508   -5.2861   -1.8662 H   0  0  0  0  0
   35.2610   -3.6714   -2.1435 H   0  0  0  0  0
   37.3230   -4.4950   -2.1102 H   0  0  0  0  0
   36.8992   -5.7636   -3.2831 H   0  0  0  0  0
   35.9850   -7.1431   -1.5327 H   0  0  0  0  0
   36.2371   -5.8484   -0.3349 H   0  0  0  0  0
   38.3218   -6.2762   -0.1088 H   0  0  0  0  0
   38.5172   -6.5941   -1.9667 H   0  0  0  0  0
   39.2830   -8.1126   -0.3955 H   0  0  0  0  0
   37.9943   -8.6049   -1.7007 H   0  0  0  0  0
   36.8531   -9.5952   -0.2075 H   0  0  0  0  0
   36.8685   -8.1582    0.8360 H   0  0  0  0  0
   39.5071   -9.2744    1.1406 H   0  0  0  0  0
   38.6673  -10.6923    2.9571 H   0  0  0  0  0
   36.1602  -10.7220    1.1444 H   0  0  0  0  0
   36.1824  -11.1354    2.8815 H   0  0  0  0  0
   37.8727  -12.6773    0.9701 H   0  0  0  0  0
   36.1088  -13.0110    1.0828 H   0  0  0  0  0
   36.5454  -13.1143    3.6217 H   0  0  0  0  0
   38.2451  -13.3094    3.1690 H   0  0  0  0  0
   37.4177  -15.1046    1.5344 H   0  0  0  0  0
   35.8916  -15.0465    2.4503 H   0  0  0  0  0
   38.6393  -15.5568    3.5985 H   0  0  0  0  0
   37.1132  -15.4986    4.5144 H   0  0  0  0  0
   37.3794  -16.7813    3.3081 H   0  0  0  0  0
   32.4303   -8.6113   -7.6570 H   0  0  0  0  0
  1  2  1  0  0  0
  1 19  2  0  0  0
  1 20  1  0  0  0
  2  3  1  0  0  0
  3  4  1  0  0  0
  4  5  1  0  0  0
  5  6  1  0  0  0
  6  7  1  0  0  0
  7  8  1  0  0  0
  8  9  1  0  0  0
  9 10  1  0  0  0
 10 11  1  0  0  0
 11 12  1  0  0  0
 12 13  2  0  0  0
 13 14  1  0  0  0
 14 15  1  0  0  0
 15 16  1  0  0  0
 16 17  1  0  0  0
 17 18  1  0  0  0
  2 21  1  0  0  0
  2 22  1  0  0  0
  3 23  1  0  0  0
  3 24  1  0  0  0
  4 25  1  0  0  0
  4 26  1  0  0  0
  5 27  1  0  0  0
  5 28  1  0  0  0
  6 29  1  0  0  0
  6 30  1  0  0  0
  7 31  1  0  0  0
  7 32  1  0  0  0
  8 33  1  0  0  0
  8 34  1  0  0  0
  9 35  1  0  0  0
  9 36  1  0  0  0
 10 37  1  0  0  0
 10 38  1  0  0  0
 11 39  1  0  0  0
 11 40  1  0  0  0
 12 41  1  0  0  0
 13 42  1  0  0  0
 14 43  1  0  0  0
 14 44  1  0  0  0
 15 45  1  0  0  0
 15 46  1  0  0  0
 16 47  1  0  0  0
 16 48  1  0  0  0
 17 49  1  0  0  0
 17 50  1  0  0  0
 18 51  1  0  0  0
 18 52  1  0  0  0
 18 53  1  0  0  0
 20 54  1  0  0  0
M  END
$$$$
