1lcj_ligand
  -I-interpret- 

196199  0  0  0  0  0  0  0  0999 V2000
   31.9300   50.7070   -8.7010 N   0  3  0  0  0
   31.9180   50.2280  -10.1210 C   0  0  0  0  0
   32.9400   49.0790  -10.3710 C   0  0  0  0  0
   32.5500   48.0180  -10.8660 O   0  0  0  0  0
   32.1260   51.4130  -11.1100 C   0  0  0  0  0
   31.6930   51.1260  -12.5890 C   0  0  0  0  0
   31.8130   52.3430  -13.5580 C   0  0  0  0  0
   32.9240   52.9420  -13.6640 O   0  0  0  0  0
   30.8130   52.6340  -14.2870 O   0  0  0  0  0
   34.1890   49.2050   -9.8540 N   0  0  0  0  0
   35.1550   48.0970   -9.9120 C   0  0  0  0  0
   34.8340   46.9940   -8.9090 C   0  0  0  0  0
   34.4360   47.2970   -7.7880 O   0  0  0  0  0
   36.4740   48.7640   -9.5640 C   0  0  0  0  0
   36.0780   49.8250   -8.5980 C   0  0  0  0  0
   34.7910   50.3920   -9.2080 C   0  0  0  0  0
   34.9700   45.7350   -9.3350 N   0  0  0  0  0
   34.6710   44.5590   -8.5070 C   0  0  0  0  0
   35.4760   44.3520   -7.2210 C   0  0  0  0  0
   36.7060   44.1940   -7.2500 O   0  0  0  0  0
   34.7640   43.2800   -9.3610 C   0  0  0  0  0
   34.4670   41.9560   -8.6160 C   0  0  0  0  0
   33.1080   41.3120   -8.9650 C   0  0  0  0  0
   32.6990   41.2720  -10.1330 O   0  0  0  0  0
   32.4530   40.7180   -7.9530 N   0  0  0  0  0
   34.7490   44.2760   -6.1050 N   0  0  0  0  0
   35.3120   43.8430   -4.8180 C   0  0  0  0  0
   34.7510   42.5050   -4.2970 C   0  0  0  0  0
   33.5550   42.2100   -4.4260 O   0  0  0  0  0
   35.1070   44.9140   -3.7520 C   0  0  0  0  0
   35.9560   46.1560   -3.9540 C   0  0  0  0  0
   37.2150   46.2630   -3.3770 C   0  0  0  0  0
   35.4530   47.2580   -4.6350 C   0  0  0  0  0
   37.9420   47.4180   -3.4690 C   0  0  0  0  0
   36.1690   48.4350   -4.7130 C   0  0  0  0  0
   37.4160   48.5130   -4.1300 C   0  0  0  0  0
   38.1040   49.7160   -4.1510 O   0  0  0  0  0
   35.6040   41.7190   -3.6510 N   0  0  0  0  0
   35.1270   40.5280   -2.9340 C   0  0  0  0  0
   34.5090   40.8270   -1.5540 C   0  0  0  0  0
   34.8970   41.7590   -0.8530 O   0  0  0  0  0
   36.2580   39.5010   -2.7320 C   0  0  0  0  0
   37.1700   39.3480   -3.9050 C   0  0  0  0  0
   36.4160   38.9220   -5.1370 C   0  0  0  0  0
   35.6350   37.9490   -5.0370 O   0  0  0  0  0
   36.5510   39.5700   -6.2000 O   0  0  0  0  0
   33.6290   39.9310   -1.1200 N   0  0  0  0  0
   33.1300   39.9210    0.2540 C   0  0  0  0  0
   33.4370   38.6010    0.9230 C   0  0  0  0  0
   33.5050   37.5600    0.2710 O   0  0  0  0  0
   31.6190   40.1160    0.2790 C   0  0  0  0  0
   31.1370   41.1440   -0.6880 C   0  0  0  0  0
   29.7030   41.5170   -0.4450 C   0  0  0  0  0
   29.3730   41.8700    0.7090 O   0  0  0  0  0
   28.9160   41.4640   -1.4170 O   0  0  0  0  0
   33.4860   38.6340    2.2410 N   0  0  0  0  0
   33.5470   37.4290    3.0320 C   0  0  0  0  0
   32.1330   36.8840    3.1990 C   0  0  0  0  0
   31.2090   37.6260    3.5220 O   0  0  0  0  0
   34.1870   37.7140    4.3890 C   0  0  0  0  0
   35.6440   38.1520    4.1700 C   0  0  0  0  0
   34.1620   36.4690    5.2520 C   0  0  0  0  0
   36.3840   38.4850    5.4030 C   0  0  0  0  0
   31.9080   35.6520    2.7530 N   0  0  0  0  0
   30.5510   35.1070    2.7650 C   0  0  0  0  0
   30.0400   34.8430    4.1680 C   0  0  0  0  0
   30.7820   34.9200    5.1390 O   0  0  0  0  0
   30.6600   33.8180    1.9510 C   0  0  0  0  0
   32.0670   33.3750    2.1420 C   0  0  0  0  0
   32.9050   34.6490    2.3130 C   0  0  0  0  0
   28.7440   34.6250    4.2990 N   0  0  0  0  0
   28.2380   34.0820    5.5610 C   0  0  0  0  0
   28.0440   32.5830    5.3390 C   0  0  0  0  0
   27.8710   32.1490    4.1950 O   0  0  0  0  0
   26.8740   34.7200    5.9800 C   0  0  0  0  0
   26.1090   35.2330    4.7600 C   0  0  0  0  0
   27.0980   35.8150    7.0240 C   0  0  0  0  0
   24.5900   35.2010    4.9480 C   0  0  0  0  0
   28.1170   31.7810    6.3960 N   0  0  0  0  0
   27.7130   30.3800    6.2550 C   0  0  0  0  0
   26.1880   30.1540    6.4590 C   0  0  0  0  0
   25.6230   30.5520    7.4880 O   0  0  0  0  0
   28.4970   29.5020    7.2220 C   0  0  0  0  0
   28.3170   28.0250    6.9670 C   0  0  0  0  0
   28.8030   27.4400    5.8020 C   0  0  0  0  0
   27.6060   27.2250    7.8570 C   0  0  0  0  0
   28.5880   26.1090    5.5310 C   0  0  0  0  0
   27.3860   25.8800    7.5910 C   0  0  0  0  0
   27.8910   25.3330    6.4320 C   0  0  0  0  0
   27.8040   23.9870    6.2040 O   0  0  0  0  0
   25.5360   29.5590    5.4570 N   0  0  0  0  0
   24.0790   29.3550    5.4600 C   0  0  0  0  0
   23.6800   27.8830    5.5130 C   0  0  0  0  0
   23.5400   27.2270    4.4490 O   0  0  0  0  0
   23.4430   30.0280    4.2430 C   0  0  0  0  0
   22.7930   31.3690    4.5700 C   0  0  0  0  0
   22.3090   32.0670    3.2840 C   0  0  0  0  0
   21.6440   31.0930    5.5290 C   0  0  0  0  0
   23.5940   27.3670    6.6450 O   0  0  0  0  0
   31.7922   49.9138   -8.0747 H   0  0  0  0  0
   32.8272   51.1486   -8.5000 H   0  0  0  0  0
   31.1787   51.3835   -8.5653 H   0  0  0  0  0
   30.9317   49.8038  -10.3090 H   0  0  0  0  0
   33.1957   51.6216  -11.1303 H   0  0  0  0  0
   31.5030   52.2333  -10.7534 H   0  0  0  0  0
   30.6393   50.8486  -12.5606 H   0  0  0  0  0
   32.3618   50.3537  -12.9689 H   0  0  0  0  0
   30.0725   52.0698  -14.0525 H   0  0  0  0  0
   35.1534   47.6045  -10.8844 H   0  0  0  0  0
   36.9854   49.1639  -10.4396 H   0  0  0  0  0
   37.1994   48.0660   -9.1460 H   0  0  0  0  0
   36.8502   50.5830   -8.4663 H   0  0  0  0  0
   35.9310   49.4408   -7.5886 H   0  0  0  0  0
   34.1360   50.8524   -8.4683 H   0  0  0  0  0
   34.9744   51.2093   -9.9055 H   0  0  0  0  0
   35.2997   45.5819  -10.2880 H   0  0  0  0  0
   33.6622   44.7695   -8.1517 H   0  0  0  0  0
   35.7946   43.2147   -9.7098 H   0  0  0  0  0
   34.0083   43.3728  -10.1410 H   0  0  0  0  0
   34.4444   42.1886   -7.5513 H   0  0  0  0  0
   35.2400   41.2458   -8.9097 H   0  0  0  0  0
   31.5863   40.2115   -8.1340 H   0  0  0  0  0
   32.8225   40.7737   -7.0039 H   0  0  0  0  0
   33.7617   44.5288   -6.1465 H   0  0  0  0  0
   36.3732   43.6877   -5.0124 H   0  0  0  0  0
   35.3946   44.4776   -2.7955 H   0  0  0  0  0
   34.0632   45.2241   -3.8015 H   0  0  0  0  0
   37.6315   45.4104   -2.8407 H   0  0  0  0  0
   34.4768   47.1915   -5.1154 H   0  0  0  0  0
   38.9345   47.4753   -3.0220 H   0  0  0  0  0
   35.7514   49.2976   -5.2322 H   0  0  0  0  0
   37.5996   50.3631   -4.6494 H   0  0  0  0  0
   36.5990   41.9436   -3.6523 H   0  0  0  0  0
   34.3434   40.1253   -3.5758 H   0  0  0  0  0
   35.7850   38.5330   -2.5664 H   0  0  0  0  0
   36.8654   39.8542   -1.8987 H   0  0  0  0  0
   37.9095   38.5824   -3.6703 H   0  0  0  0  0
   37.6417   40.3103   -4.1039 H   0  0  0  0  0
   37.1931   40.2711   -6.0667 H   0  0  0  0  0
   33.2886   39.2230   -1.7705 H   0  0  0  0  0
   33.6232   40.7356    0.7844 H   0  0  0  0  0
   31.3484   40.4541    1.2793 H   0  0  0  0  0
   31.1610   39.1661    0.0034 H   0  0  0  0  0
   31.2156   40.7296   -1.6931 H   0  0  0  0  0
   31.7471   42.0390   -0.5661 H   0  0  0  0  0
   29.3915   41.1676   -2.1965 H   0  0  0  0  0
   33.4806   39.5375    2.7144 H   0  0  0  0  0
   34.1638   36.6848    2.5281 H   0  0  0  0  0
   33.6282   38.5030    4.8923 H   0  0  0  0  0
   35.6138   39.0583    3.5652 H   0  0  0  0  0
   36.1609   37.3104    3.7090 H   0  0  0  0  0
   33.1295   36.1540    5.4032 H   0  0  0  0  0
   34.7171   35.6731    4.7555 H   0  0  0  0  0
   34.6215   36.6874    6.2160 H   0  0  0  0  0
   35.8828   39.3061    5.9155 H   0  0  0  0  0
   36.4130   37.6119    6.0548 H   0  0  0  0  0
   37.4008   38.7821    5.1460 H   0  0  0  0  0
   29.8299   35.8091    2.3464 H   0  0  0  0  0
   30.4209   33.9773    0.8995 H   0  0  0  0  0
   29.9457   33.0641    2.2820 H   0  0  0  0  0
   32.4122   32.7923    1.2879 H   0  0  0  0  0
   32.1576   32.7281    3.0146 H   0  0  0  0  0
   33.7196   34.5243    3.0264 H   0  0  0  0  0
   33.4194   34.9405    1.3973 H   0  0  0  0  0
   28.1046   34.8320    3.5317 H   0  0  0  0  0
   28.9456   34.3007    6.3607 H   0  0  0  0  0
   26.2535   33.9503    6.4389 H   0  0  0  0  0
   26.3528   34.5841    3.9188 H   0  0  0  0  0
   26.4013   36.2704    4.5975 H   0  0  0  0  0
   27.5750   35.3839    7.9042 H   0  0  0  0  0
   27.7396   36.5897    6.6042 H   0  0  0  0  0
   26.1385   36.2490    7.3050 H   0  0  0  0  0
   24.2696   34.1757    5.1329 H   0  0  0  0  0
   24.3171   35.8271    5.7975 H   0  0  0  0  0
   24.1057   35.5775    4.0470 H   0  0  0  0  0
   28.4496   32.1358    7.2926 H   0  0  0  0  0
   27.9399   30.1000    5.2263 H   0  0  0  0  0
   28.1304   29.7100    8.2272 H   0  0  0  0  0
   29.5545   29.7323    7.0928 H   0  0  0  0  0
   29.3640   28.0473    5.0916 H   0  0  0  0  0
   27.2160   27.6610    8.7767 H   0  0  0  0  0
   28.9670   25.6698    4.6082 H   0  0  0  0  0
   26.8206   25.2646    8.2908 H   0  0  0  0  0
   27.2939   23.5769    6.9063 H   0  0  0  0  0
   26.0721   29.2313    4.6535 H   0  0  0  0  0
   23.7044   29.8168    6.3735 H   0  0  0  0  0
   23.6444   27.8139    3.6965 H   0  0  0  0  0
   22.6629   29.3651    3.8687 H   0  0  0  0  0
   24.2341   30.2126    3.5163 H   0  0  0  0  0
   23.5092   32.0456    5.0363 H   0  0  0  0  0
   23.1588   32.2383    2.6232 H   0  0  0  0  0
   21.5781   31.4335    2.7813 H   0  0  0  0  0
   21.8490   33.0211    3.5411 H   0  0  0  0  0
   20.9264   30.4256    5.0517 H   0  0  0  0  0
   22.0319   30.6245    6.4335 H   0  0  0  0  0
   21.1536   32.0319    5.7862 H   0  0  0  0  0
  1  2  1  0  0  0
  2  3  1  0  0  0
  2  5  1  0  0  0
  3  4  2  0  0  0
  3 10  1  0  0  0
  5  6  1  0  0  0
  6  7  1  0  0  0
  7  8  2  0  0  0
  7  9  1  0  0  0
 10 11  1  0  0  0
 10 16  1  0  0  0
 11 12  1  0  0  0
 11 14  1  0  0  0
 12 13  2  0  0  0
 12 17  1  0  0  0
 14 15  1  0  0  0
 15 16  1  0  0  0
 17 18  1  0  0  0
 18 19  1  0  0  0
 18 21  1  0  0  0
 19 20  2  0  0  0
 19 26  1  0  0  0
 21 22  1  0  0  0
 22 23  1  0  0  0
 23 24  2  0  0  0
 23 25  1  0  0  0
 26 27  1  0  0  0
 27 28  1  0  0  0
 27 30  1  0  0  0
 28 29  2  0  0  0
 28 38  1  0  0  0
 30 31  1  0  0  0
 31 32  4  0  0  0
 31 33  4  0  0  0
 32 34  4  0  0  0
 33 35  4  0  0  0
 34 36  4  0  0  0
 35 36  4  0  0  0
 36 37  1  0  0  0
 38 39  1  0  0  0
 39 40  1  0  0  0
 39 42  1  0  0  0
 40 41  2  0  0  0
 40 47  1  0  0  0
 42 43  1  0  0  0
 43 44  1  0  0  0
 44 45  2  0  0  0
 44 46  1  0  0  0
 47 48  1  0  0  0
 48 49  1  0  0  0
 48 51  1  0  0  0
 49 50  2  0  0  0
 49 56  1  0  0  0
 51 52  1  0  0  0
 52 53  1  0  0  0
 53 54  2  0  0  0
 53 55  1  0  0  0
 56 57  1  0  0  0
 57 58  1  0  0  0
 57 60  1  0  0  0
 58 59  2  0  0  0
 58 64  1  0  0  0
 60 61  1  0  0  0
 60 62  1  0  0  0
 61 63  1  0  0  0
 64 65  1  0  0  0
 64 70  1  0  0  0
 65 66  1  0  0  0
 65 68  1  0  0  0
 66 67  2  0  0  0
 66 71  1  0  0  0
 68 69  1  0  0  0
 69 70  1  0  0  0
 71 72  1  0  0  0
 72 73  1  0  0  0
 72 75  1  0  0  0
 73 74  2  0  0  0
 73 79  1  0  0  0
 75 76  1  0  0  0
 75 77  1  0  0  0
 76 78  1  0  0  0
 79 80  1  0  0  0
 80 81  1  0  0  0
 80 83  1  0  0  0
 81 82  2  0  0  0
 81 91  1  0  0  0
 83 84  1  0  0  0
 84 85  4  0  0  0
 84 86  4  0  0  0
 85 87  4  0  0  0
 86 88  4  0  0  0
 87 89  4  0  0  0
 88 89  4  0  0  0
 89 90  1  0  0  0
 91 92  1  0  0  0
 92 93  1  0  0  0
 92 95  1  0  0  0
 93 94  1  0  0  0
 93 99  2  0  0  0
 95 96  1  0  0  0
 96 97  1  0  0  0
 96 98  1  0  0  0
  1100  1  0  0  0
  1101  1  0  0  0
  1102  1  0  0  0
  2103  1  0  0  0
  5104  1  0  0  0
  5105  1  0  0  0
  6106  1  0  0  0
  6107  1  0  0  0
  9108  1  0  0  0
 11109  1  0  0  0
 14110  1  0  0  0
 14111  1  0  0  0
 15112  1  0  0  0
 15113  1  0  0  0
 16114  1  0  0  0
 16115  1  0  0  0
 17116  1  0  0  0
 18117  1  0  0  0
 21118  1  0  0  0
 21119  1  0  0  0
 22120  1  0  0  0
 22121  1  0  0  0
 25122  1  0  0  0
 25123  1  0  0  0
 26124  1  0  0  0
 27125  1  0  0  0
 30126  1  0  0  0
 30127  1  0  0  0
 32128  1  0  0  0
 33129  1  0  0  0
 34130  1  0  0  0
 35131  1  0  0  0
 37132  1  0  0  0
 38133  1  0  0  0
 39134  1  0  0  0
 42135  1  0  0  0
 42136  1  0  0  0
 43137  1  0  0  0
 43138  1  0  0  0
 46139  1  0  0  0
 47140  1  0  0  0
 48141  1  0  0  0
 51142  1  0  0  0
 51143  1  0  0  0
 52144  1  0  0  0
 52145  1  0  0  0
 55146  1  0  0  0
 56147  1  0  0  0
 57148  1  0  0  0
 60149  1  0  0  0
 61150  1  0  0  0
 61151  1  0  0  0
 62152  1  0  0  0
 62153  1  0  0  0
 62154  1  0  0  0
 63155  1  0  0  0
 63156  1  0  0  0
 63157  1  0  0  0
 65158  1  0  0  0
 68159  1  0  0  0
 68160  1  0  0  0
 69161  1  0  0  0
 69162  1  0  0  0
 70163  1  0  0  0
 70164  1  0  0  0
 71165  1  0  0  0
 72166  1  0  0  0
 75167  1  0  0  0
 76168  1  0  0  0
 76169  1  0  0  0
 77170  1  0  0  0
 77171  1  0  0  0
 77172  1  0  0  0
 78173  1  0  0  0
 78174  1  0  0  0
 78175  1  0  0  0
 79176  1  0  0  0
 80177  1  0  0  0
 83178  1  0  0  0
 83179  1  0  0  0
 85180  1  0  0  0
 86181  1  0  0  0
 87182  1  0  0  0
 88183  1  0  0  0
 90184  1  0  0  0
 91185  1  0  0  0
 92186  1  0  0  0
 94187  1  0  0  0
 95188  1  0  0  0
 95189  1  0  0  0
 96190  1  0  0  0
 97191  1  0  0  0
 97192  1  0  0  0
 97193  1  0  0  0
 98194  1  0  0  0
 98195  1  0  0  0
 98196  1  0  0  0
M  END
$$$$
