### 
### Created by X-TOOL on Mon Sep 10 21:12:45 2018
### 

@<TRIPOS>MOLECULE
1lcj_ligand
  192   195     1     0     0
SMALL
GAST_HUCK


@<TRIPOS>ATOM
      1 N          31.9300   50.7070   -8.7010 N.4       1 GLU         0.2380
      2 CA         31.9180   50.2280  -10.1210 C.3       1 GLU         0.0667
      3 C          32.9400   49.0790  -10.3710 C.2       1 GLU         0.2293
      4 O          32.5500   48.0180  -10.8660 O.2       1 GLU        -0.3905
      5 CB         32.1260   51.4130  -11.1100 C.3       1 GLU         0.0194
      6 CG         31.6930   51.1260  -12.5890 C.3       1 GLU         0.0075
      7 CD         31.8130   52.3430  -13.5580 C.2       1 GLU         0.0351
      8 OE1        32.9240   52.9420  -13.6640 O.co2     1 GLU        -0.5690
      9 OE2        30.8130   52.6340  -14.2870 O.co2     1 GLU        -0.5690
     10 N          34.1890   49.2050   -9.8540 N.am      1 PRO        -0.2471
     11 CA         35.1550   48.0970   -9.9120 C.3       1 PRO         0.1339
     12 C          34.8340   46.9940   -8.9090 C.2       1 PRO         0.2041
     13 O          34.4360   47.2970   -7.7880 O.2       1 PRO        -0.3944
     14 CB         36.4740   48.7640   -9.5640 C.3       1 PRO        -0.0104
     15 CG         36.0780   49.8250   -8.5980 C.3       1 PRO        -0.0281
     16 CD         34.7910   50.3920   -9.2080 C.3       1 PRO         0.0371
     17 N          34.9700   45.7350   -9.3350 N.am      1 GLN        -0.2636
     18 CA         34.6710   44.5590   -8.5070 C.3       1 GLN         0.1330
     19 C          35.4760   44.3520   -7.2210 C.2       1 GLN         0.2042
     20 O          36.7060   44.1940   -7.2500 O.2       1 GLN        -0.3944
     21 CB         34.7640   43.2800   -9.3610 C.3       1 GLN         0.0045
     22 CG         34.4670   41.9560   -8.6160 C.3       1 GLN         0.0412
     23 CD         33.1080   41.3120   -8.9650 C.2       1 GLN         0.1737
     24 OE1        32.6990   41.2720  -10.1330 O.2       1 GLN        -0.3973
     25 NE2        32.4530   40.7180   -7.9530 N.am      1 GLN        -0.3009
     26 N          34.7490   44.2760   -6.1050 N.am      1 PTR        -0.2621
     27 CA         35.3120   43.8430   -4.8180 C.3       1 PTR         0.1390
     28 C          34.7510   42.5050   -4.2970 C.2       1 PTR         0.2057
     29 O          33.5550   42.2100   -4.4260 O.2       1 PTR        -0.3942
     30 CB         35.1070   44.9140   -3.7520 C.3       1 PTR         0.0163
     31 CG         35.9560   46.1560   -3.9540 C.ar      1 PTR        -0.0493
     32 CD1        37.2150   46.2630   -3.3770 C.ar      1 PTR        -0.0685
     33 CD2        35.4530   47.2580   -4.6350 C.ar      1 PTR        -0.0685
     34 CE1        37.9420   47.4180   -3.4690 C.ar      1 PTR        -0.0398
     35 CE2        36.1690   48.4350   -4.7130 C.ar      1 PTR        -0.0398
     36 CZ         37.4160   48.5130   -4.1300 C.ar      1 PTR         0.0805
     37 OH         38.1040   49.7160   -4.1510 O.3       1 PTR        -0.3376
     38 N          35.6040   41.7190   -3.6510 N.am      1 GLU        -0.2635
     39 CA         35.1270   40.5280   -2.9340 C.3       1 GLU         0.1325
     40 C          34.5090   40.8270   -1.5540 C.2       1 GLU         0.2040
     41 O          34.8970   41.7590   -0.8530 O.2       1 GLU        -0.3944
     42 CB         36.2580   39.5010   -2.7320 C.3       1 GLU        -0.0008
     43 CG         37.1700   39.3480   -3.9050 C.3       1 GLU         0.0044
     44 CD         36.4160   38.9220   -5.1370 C.2       1 GLU         0.0350
     45 OE1        35.6350   37.9490   -5.0370 O.co2     1 GLU        -0.5690
     46 OE2        36.5510   39.5700   -6.2000 O.co2     1 GLU        -0.5690
     47 N          33.6290   39.9310   -1.1200 N.am      1 GLU        -0.2636
     48 CA         33.1300   39.9210    0.2540 C.3       1 GLU         0.1325
     49 C          33.4370   38.6010    0.9230 C.2       1 GLU         0.2040
     50 O          33.5050   37.5600    0.2710 O.2       1 GLU        -0.3944
     51 CB         31.6190   40.1160    0.2790 C.3       1 GLU        -0.0008
     52 CG         31.1370   41.1440   -0.6880 C.3       1 GLU         0.0044
     53 CD         29.7030   41.5170   -0.4450 C.2       1 GLU         0.0350
     54 OE1        29.3730   41.8700    0.7090 O.co2     1 GLU        -0.5690
     55 OE2        28.9160   41.4640   -1.4170 O.co2     1 GLU        -0.5690
     56 N          33.4860   38.6340    2.2410 N.am      1 ILE        -0.2635
     57 CA         33.5470   37.4290    3.0320 C.3       1 ILE         0.1337
     58 C          32.1330   36.8840    3.1990 C.2       1 ILE         0.2067
     59 O          31.2090   37.6260    3.5220 O.2       1 ILE        -0.3942
     60 CB         34.1870   37.7140    4.3890 C.3       1 ILE        -0.0037
     61 CG1        35.6440   38.1520    4.1700 C.3       1 ILE        -0.0491
     62 CG2        34.1620   36.4690    5.2520 C.3       1 ILE        -0.0582
     63 CD1        36.3840   38.4850    5.4030 C.3       1 ILE        -0.0648
     64 N          31.9080   35.6520    2.7530 N.am      1 PRO        -0.2498
     65 CA         30.5510   35.1070    2.7650 C.3       1 PRO         0.1338
     66 C          30.0400   34.8430    4.1680 C.2       1 PRO         0.2041
     67 O          30.7820   34.9200    5.1390 O.2       1 PRO        -0.3944
     68 CB         30.6600   33.8180    1.9510 C.3       1 PRO        -0.0104
     69 CG         32.0670   33.3750    2.1420 C.3       1 PRO        -0.0281
     70 CD         32.9050   34.6490    2.3130 C.3       1 PRO         0.0369
     71 N          28.7440   34.6250    4.2990 N.am      1 ILE        -0.2635
     72 CA         28.2380   34.0820    5.5610 C.3       1 ILE         0.1335
     73 C          28.0440   32.5830    5.3390 C.2       1 ILE         0.2043
     74 O          27.8710   32.1490    4.1950 O.2       1 ILE        -0.3944
     75 CB         26.8740   34.7200    5.9800 C.3       1 ILE        -0.0037
     76 CG1        26.1090   35.2330    4.7600 C.3       1 ILE        -0.0491
     77 CG2        27.0980   35.8150    7.0240 C.3       1 ILE        -0.0582
     78 CD1        24.5900   35.2010    4.9480 C.3       1 ILE        -0.0648
     79 N          28.1170   31.7810    6.3960 N.am      1 TYR        -0.2621
     80 CA         27.7130   30.3800    6.2550 C.3       1 TYR         0.1390
     81 C          26.1880   30.1540    6.4590 C.2       1 TYR         0.2052
     82 O          25.6230   30.5520    7.4880 O.2       1 TYR        -0.3943
     83 CB         28.4970   29.5020    7.2220 C.3       1 TYR         0.0163
     84 CG         28.3170   28.0250    6.9670 C.ar      1 TYR        -0.0493
     85 CD1        28.8030   27.4400    5.8020 C.ar      1 TYR        -0.0685
     86 CD2        27.6060   27.2250    7.8570 C.ar      1 TYR        -0.0685
     87 CE1        28.5880   26.1090    5.5310 C.ar      1 TYR        -0.0398
     88 CE2        27.3860   25.8800    7.5910 C.ar      1 TYR        -0.0398
     89 CZ         27.8910   25.3330    6.4320 C.ar      1 TYR         0.0805
     90 OH         27.8040   23.9870    6.2040 O.3       1 TYR        -0.3376
     91 N          25.5360   29.5590    5.4570 N.am      1 LEU        -0.2693
     92 CA         24.0790   29.3550    5.4600 C.3       1 LEU         0.0946
     93 C          23.6800   27.8830    5.5130 C.2       1 LEU         0.0601
     94 O          23.5400   27.2270    4.4490 O.co2     1 LEU        -0.5666
     95 CB         23.4430   30.0280    4.2430 C.3       1 LEU        -0.0156
     96 CG         22.7930   31.3690    4.5700 C.3       1 LEU        -0.0431
     97 CD1        22.3090   32.0670    3.2840 C.3       1 LEU        -0.0625
     98 CD2        21.6440   31.0930    5.5290 C.3       1 LEU        -0.0625
     99 OXT        23.5940   27.3670    6.6450 O.co2     1 LEU        -0.5666
    100 H1         31.2548   51.4472   -8.5904 H         1 GLU         0.2015
    101 H2         32.8484   51.0528   -8.4708 H         1 GLU         0.2015
    102 H3         31.6948   49.9432   -8.0867 H         1 GLU         0.2015
    103 H4         30.9173   49.8142  -10.3143 H         1 GLU         0.1099
    104 H5         33.1950   51.6723  -11.1118 H         1 GLU         0.0363
    105 H6         31.5415   52.2698  -10.7436 H         1 GLU         0.0363
    106 H7         30.6428   50.7990  -12.5800 H         1 GLU         0.0434
    107 H8         32.3261   50.3154  -12.9790 H         1 GLU         0.0434
    108 H9         35.1875   47.6661  -10.9236 H         1 PRO         0.0802
    109 H10        36.9426   49.2006  -10.4583 H         1 PRO         0.0313
    110 H11        37.1673   48.0474   -9.0995 H         1 PRO         0.0313
    111 H12        36.8544   50.6007   -8.5240 H         1 PRO         0.0287
    112 H13        35.8881   49.4000   -7.6014 H         1 PRO         0.0287
    113 H14        34.1287   50.7991   -8.4298 H         1 PRO         0.0524
    114 H15        35.0138   51.1759   -9.9468 H         1 PRO         0.0524
    115 H16        35.2933   45.5849  -10.2693 H         1 GLN         0.1883
    116 H17        33.6233   44.6743   -8.1924 H         1 GLN         0.0801
    117 H18        35.7841   43.2180   -9.7679 H         1 GLN         0.0337
    118 H19        34.0444   43.3719  -10.1878 H         1 GLN         0.0337
    119 H20        34.4824   42.1598   -7.5352 H         1 GLN         0.0504
    120 H21        35.2612   41.2368   -8.8649 H         1 GLN         0.0504
    121 H22        31.5676   40.2832   -8.1173 H         1 GLN         0.1814
    122 H23        32.8510   40.7107   -7.0357 H         1 GLN         0.1814
    123 H24        33.7810   44.5238   -6.1457 H         1 PTR         0.1885
    124 H25        36.3938   43.7107   -4.9669 H         1 PTR         0.0821
    125 H26        35.3568   44.4797   -2.7727 H         1 PTR         0.0453
    126 H27        34.0485   45.2132   -3.7612 H         1 PTR         0.0453
    127 H28        37.6293   45.4151   -2.8437 H         1 PTR         0.0530
    128 H29        34.4822   47.1919   -5.1128 H         1 PTR         0.0530
    129 H30        38.9290   47.4750   -3.0244 H         1 PTR         0.0525
    130 H31        35.7537   49.2929   -5.2294 H         1 PTR         0.0525
    131 H32        38.9402   49.6090   -3.7130 H         1 PTR         0.2458
    132 H33        36.5794   41.9392   -3.6523 H         1 GLU         0.1883
    133 H34        34.3477   40.0660   -3.5579 H         1 GLU         0.0801
    134 H35        35.8009   38.5228   -2.5219 H         1 GLU         0.0330
    135 H36        36.8599   39.8178   -1.8675 H         1 GLU         0.0330
    136 H37        37.9301   38.5883   -3.6704 H         1 GLU         0.0433
    137 H38        37.6631   40.3112   -4.1027 H         1 GLU         0.0433
    138 H39        33.2953   39.2369   -1.7578 H         1 GLU         0.1883
    139 H40        33.6130   40.7356    0.8135 H         1 GLU         0.0801
    140 H41        31.3244   40.4258    1.2925 H         1 GLU         0.0330
    141 H42        31.1398   39.1564    0.0350 H         1 GLU         0.0330
    142 H43        31.2317   40.7438   -1.7082 H         1 GLU         0.0433
    143 H44        31.7600   42.0451   -0.5882 H         1 GLU         0.0433
    144 H45        33.4807   39.5198    2.7051 H         1 ILE         0.1883
    145 H46        34.1587   36.6823    2.5045 H         1 ILE         0.0803
    146 H47        33.6317   38.5182    4.8937 H         1 ILE         0.0345
    147 H48        35.6400   39.0415    3.5230 H         1 ILE         0.0267
    148 H49        36.1749   37.3325    3.6635 H         1 ILE         0.0267
    149 H50        33.1202   36.1534    5.4102 H         1 ILE         0.0235
    150 H51        34.6307   36.6865    6.2231 H         1 ILE         0.0235
    151 H52        34.7168   35.6631    4.7493 H         1 ILE         0.0235
    152 H53        37.4103   38.7850    5.1449 H         1 ILE         0.0230
    153 H54        36.4141   37.6046    6.0617 H         1 ILE         0.0230
    154 H55        35.8792   39.3136    5.9212 H         1 ILE         0.0230
    155 H56        29.8621   35.8081    2.2711 H         1 PRO         0.0802
    156 H57        30.4541   34.0109    0.8878 H         1 PRO         0.0313
    157 H58        29.9588   33.0592    2.3286 H         1 PRO         0.0313
    158 H59        32.4101   32.8095    1.2631 H         1 PRO         0.0287
    159 H60        32.1482   32.7434    3.0389 H         1 PRO         0.0287
    160 H61        33.6859   34.5083    3.0748 H         1 PRO         0.0524
    161 H62        33.3701   34.9460    1.3615 H         1 PRO         0.0524
    162 H63        28.1171   34.8280    3.5468 H         1 ILE         0.1883
    163 H64        28.9751   34.2560    6.3587 H         1 ILE         0.0803
    164 H65        26.2628   33.9338    6.4472 H         1 ILE         0.0345
    165 H66        26.3681   34.6053    3.8946 H         1 ILE         0.0267
    166 H67        26.4160   36.2711    4.5651 H         1 ILE         0.0267
    167 H68        27.6503   35.3986    7.8793 H         1 ILE         0.0235
    168 H69        26.1260   36.1990    7.3670 H         1 ILE         0.0235
    169 H70        27.6789   36.6349    6.5766 H         1 ILE         0.0235
    170 H71        24.1000   35.5808    4.0393 H         1 ILE         0.0230
    171 H72        24.3132   35.8325    5.8050 H         1 ILE         0.0230
    172 H73        24.2653   34.1667    5.1346 H         1 ILE         0.0230
    173 H74        28.4430   32.1288    7.2750 H         1 TYR         0.1885
    174 H75        27.9607   30.0670    5.2300 H         1 TYR         0.0821
    175 H76        28.1606   29.7231    8.2457 H         1 TYR         0.0453
    176 H77        29.5655   29.7451    7.1266 H         1 TYR         0.0453
    177 H78        29.3609   28.0439    5.0955 H         1 TYR         0.0530
    178 H79        27.2181   27.6586    8.7717 H         1 TYR         0.0530
    179 H80        28.9649   25.6723    4.6132 H         1 TYR         0.0525
    180 H81        26.8237   25.2679    8.2869 H         1 TYR         0.0525
    181 H82        28.1988   23.7830    5.3644 H         1 TYR         0.2458
    182 H83        26.0616   29.2377    4.6693 H         1 LEU         0.1875
    183 H84        23.6803   29.8387    6.3639 H         1 LEU         0.0726
    184 H85        22.6733   29.3567    3.8345 H         1 LEU         0.0308
    185 H86        24.2243   30.1933    3.4866 H         1 LEU         0.0308
    186 H87        23.5283   32.0202    5.0652 H         1 LEU         0.0297
    187 H88        21.8445   33.0301    3.5422 H         1 LEU         0.0232
    188 H89        21.5713   31.4287    2.7757 H         1 LEU         0.0232
    189 H90        23.1657   32.2405    2.6162 H         1 LEU         0.0232
    190 H91        22.0306   30.5958    6.4309 H         1 LEU         0.0232
    191 H92        20.9058   30.4412    5.0389 H         1 LEU         0.0232
    192 H93        21.1652   32.0425    5.8105 H         1 LEU         0.0232
@<TRIPOS>BOND
     1    1    2 1  
     2    2    3 1  
     3    2    5 1  
     4    3    4 2  
     5    3   10 am 
     6    5    6 1  
     7    6    7 1  
     8    7    8 ar 
     9    7    9 ar 
    10   10   11 1  
    11   10   16 1  
    12   11   12 1  
    13   11   14 1  
    14   12   13 2  
    15   12   17 am 
    16   14   15 1  
    17   15   16 1  
    18   17   18 1  
    19   18   19 1  
    20   18   21 1  
    21   19   20 2  
    22   19   26 am 
    23   21   22 1  
    24   22   23 1  
    25   23   24 2  
    26   23   25 am 
    27   26   27 1  
    28   27   28 1  
    29   27   30 1  
    30   28   29 2  
    31   28   38 am 
    32   30   31 1  
    33   31   32 ar 
    34   31   33 ar 
    35   32   34 ar 
    36   33   35 ar 
    37   34   36 ar 
    38   35   36 ar 
    39   36   37 1  
    40   38   39 1  
    41   39   40 1  
    42   39   42 1  
    43   40   41 2  
    44   40   47 am 
    45   42   43 1  
    46   43   44 1  
    47   44   45 ar 
    48   44   46 ar 
    49   47   48 1  
    50   48   49 1  
    51   48   51 1  
    52   49   50 2  
    53   49   56 am 
    54   51   52 1  
    55   52   53 1  
    56   53   54 ar 
    57   53   55 ar 
    58   56   57 1  
    59   57   58 1  
    60   57   60 1  
    61   58   59 2  
    62   58   64 am 
    63   60   61 1  
    64   60   62 1  
    65   61   63 1  
    66   64   65 1  
    67   64   70 1  
    68   65   66 1  
    69   65   68 1  
    70   66   67 2  
    71   66   71 am 
    72   68   69 1  
    73   69   70 1  
    74   71   72 1  
    75   72   73 1  
    76   72   75 1  
    77   73   74 2  
    78   73   79 am 
    79   75   76 1  
    80   75   77 1  
    81   76   78 1  
    82   79   80 1  
    83   80   81 1  
    84   80   83 1  
    85   81   82 2  
    86   81   91 am 
    87   83   84 1  
    88   84   85 ar 
    89   84   86 ar 
    90   85   87 ar 
    91   86   88 ar 
    92   87   89 ar 
    93   88   89 ar 
    94   89   90 1  
    95   91   92 1  
    96   92   93 1  
    97   92   95 1  
    98   93   94 ar 
    99   93   99 ar 
   100   95   96 1  
   101   96   97 1  
   102   96   98 1  
   103    1  100 1  
   104    1  101 1  
   105    1  102 1  
   106    2  103 1  
   107    5  104 1  
   108    5  105 1  
   109    6  106 1  
   110    6  107 1  
   111   11  108 1  
   112   14  109 1  
   113   14  110 1  
   114   15  111 1  
   115   15  112 1  
   116   16  113 1  
   117   16  114 1  
   118   17  115 1  
   119   18  116 1  
   120   21  117 1  
   121   21  118 1  
   122   22  119 1  
   123   22  120 1  
   124   25  121 1  
   125   25  122 1  
   126   26  123 1  
   127   27  124 1  
   128   30  125 1  
   129   30  126 1  
   130   32  127 1  
   131   33  128 1  
   132   34  129 1  
   133   35  130 1  
   134   37  131 1  
   135   38  132 1  
   136   39  133 1  
   137   42  134 1  
   138   42  135 1  
   139   43  136 1  
   140   43  137 1  
   141   47  138 1  
   142   48  139 1  
   143   51  140 1  
   144   51  141 1  
   145   52  142 1  
   146   52  143 1  
   147   56  144 1  
   148   57  145 1  
   149   60  146 1  
   150   61  147 1  
   151   61  148 1  
   152   62  149 1  
   153   62  150 1  
   154   62  151 1  
   155   63  152 1  
   156   63  153 1  
   157   63  154 1  
   158   65  155 1  
   159   68  156 1  
   160   68  157 1  
   161   69  158 1  
   162   69  159 1  
   163   70  160 1  
   164   70  161 1  
   165   71  162 1  
   166   72  163 1  
   167   75  164 1  
   168   76  165 1  
   169   76  166 1  
   170   77  167 1  
   171   77  168 1  
   172   77  169 1  
   173   78  170 1  
   174   78  171 1  
   175   78  172 1  
   176   79  173 1  
   177   80  174 1  
   178   83  175 1  
   179   83  176 1  
   180   85  177 1  
   181   86  178 1  
   182   87  179 1  
   183   88  180 1  
   184   90  181 1  
   185   91  182 1  
   186   92  183 1  
   187   95  184 1  
   188   95  185 1  
   189   96  186 1  
   190   97  187 1  
   191   97  188 1  
   192   97  189 1  
   193   98  190 1  
   194   98  191 1  
   195   98  192 1  
@<TRIPOS>SUBSTRUCTURE
     1 GLU         1

