### 
### Created by X-TOOL on Mon Sep 10 21:13:20 2018
### 

@<TRIPOS>MOLECULE
4wj7_ligand
  180   182     1     0     0
SMALL
GAST_HUCK


@<TRIPOS>ATOM
      1 N          22.7960   63.0300  193.8170 N.4       1 VAL         0.2381
      2 CA         23.0000   63.2830  192.3920 C.3       1 VAL         0.0673
      3 C          21.7750   62.8440  191.5840 C.2       1 VAL         0.2270
      4 O          21.1210   61.8520  191.9170 O.2       1 VAL        -0.3907
      5 CB         24.3050   62.6190  191.8640 C.3       1 VAL         0.0139
      6 CG1        24.0220   61.2800  191.1990 C.3       1 VAL        -0.0553
      7 CG2        25.0170   63.5500  190.8950 C.3       1 VAL        -0.0553
      8 N          21.4440   63.6080  190.5460 N.am      1 ASP        -0.2595
      9 CA         20.2520   63.3300  189.7500 C.3       1 ASP         0.1424
     10 C          20.3960   62.0530  188.9330 C.2       1 ASP         0.2056
     11 O          19.4750   61.2370  188.8710 O.2       1 ASP        -0.3943
     12 CB         19.9260   64.4990  188.8180 C.3       1 ASP         0.0406
     13 CG         19.5110   65.7490  189.5650 C.2       1 ASP         0.0393
     14 OD1        20.3940   66.5740  189.8810 O.co2     1 ASP        -0.5688
     15 OD2        18.3020   65.9060  189.8360 O.co2     1 ASP        -0.5688
     16 N          21.5580   61.8790  188.3120 N.am      1 LYS        -0.2636
     17 CA         21.8070   60.6880  187.5140 C.3       1 LYS         0.1310
     18 C          23.2980   60.3830  187.4300 C.2       1 LYS         0.2039
     19 O          24.1100   61.2890  187.2310 O.2       1 LYS        -0.3944
     20 CB         21.2190   60.8670  186.1080 C.3       1 LYS        -0.0122
     21 CG         21.2450   59.6130  185.2490 C.3       1 LYS        -0.0440
     22 CD         20.4310   59.7950  183.9700 C.3       1 LYS        -0.0124
     23 CE         20.4530   58.5250  183.1310 C.3       1 LYS        -0.0354
     24 NZ         19.8260   57.3870  183.8580 N.4       1 LYS         0.2185
     25 N          23.6560   59.1120  187.5820 N.am      1 VAL        -0.2635
     26 CA         25.0510   58.6980  187.4640 C.3       1 VAL         0.1332
     27 C          25.1520   57.3830  186.6930 C.2       1 VAL         0.2042
     28 O          24.4010   56.4390  186.9460 O.2       1 VAL        -0.3944
     29 CB         25.7440   58.5700  188.8510 C.3       1 VAL        -0.0063
     30 CG1        24.9600   57.6360  189.7670 C.3       1 VAL        -0.0584
     31 CG2        27.1860   58.0850  188.6960 C.3       1 VAL        -0.0584
     32 N          26.0790   57.3350  185.7420 N.am      1 VAL        -0.2635
     33 CA         26.3580   56.1100  185.0080 C.3       1 VAL         0.1332
     34 C          27.8290   55.7670  185.1530 C.2       1 VAL         0.2042
     35 O          28.7000   56.5630  184.8030 O.2       1 VAL        -0.3944
     36 CB         26.0090   56.2350  183.5140 C.3       1 VAL        -0.0063
     37 CG1        26.3110   54.9320  182.7880 C.3       1 VAL        -0.0584
     38 CG2        24.5490   56.6250  183.3380 C.3       1 VAL        -0.0584
     39 N          28.0960   54.5750  185.6710 N.am      1 ILE        -0.2635
     40 CA         29.4580   54.1350  185.9170 C.3       1 ILE         0.1335
     41 C          29.9820   53.3110  184.7520 C.2       1 ILE         0.2043
     42 O          29.2600   52.4870  184.1920 O.2       1 ILE        -0.3944
     43 CB         29.5470   53.2850  187.2030 C.3       1 ILE        -0.0037
     44 CG1        28.9080   54.0200  188.3820 C.3       1 ILE        -0.0491
     45 CG2        30.9920   52.9260  187.5190 C.3       1 ILE        -0.0582
     46 CD1        29.6270   55.2900  188.7660 C.3       1 ILE        -0.0648
     47 N          31.2320   53.5540  184.3760 N.am      1 ASN        -0.2616
     48 CA         31.9080   52.7010  183.4160 C.3       1 ASN         0.1478
     49 C          32.4750   51.5220  184.1890 C.2       1 ASN         0.2088
     50 O          33.4000   51.6850  184.9830 O.2       1 ASN        -0.3940
     51 CB         33.0230   53.4630  182.7000 C.3       1 ASN         0.0773
     52 CG         33.6320   52.6760  181.5530 C.2       1 ASN         0.1780
     53 OD1        33.3840   51.4800  181.3990 O.2       1 ASN        -0.3970
     54 ND2        34.4420   53.3470  180.7430 N.am      1 ASN        -0.3007
     55 N          31.9160   50.3260  183.9640 N.am      1 PRO        -0.2497
     56 CA         32.3550   49.1390  184.6990 C.3       1 PRO         0.1338
     57 C          33.6720   48.5960  184.1620 C.2       1 PRO         0.2042
     58 O          34.2400   47.6750  184.7480 O.2       1 PRO        -0.3944
     59 CB         31.2250   48.1400  184.4450 C.3       1 PRO        -0.0104
     60 CG         30.6930   48.5260  183.1120 C.3       1 PRO        -0.0281
     61 CD         30.8150   50.0240  183.0310 C.3       1 PRO         0.0369
     62 N          34.1500   49.1620  183.0590 N.am      1 TYR        -0.2621
     63 CA         35.3770   48.6830  182.4390 C.3       1 TYR         0.1390
     64 C          36.4970   49.7150  182.5160 C.2       1 TYR         0.2059
     65 O          37.4870   49.6170  181.7920 O.2       1 TYR        -0.3942
     66 CB         35.1150   48.3030  180.9830 C.3       1 TYR         0.0163
     67 CG         34.0030   47.2960  180.8220 C.ar      1 TYR        -0.0493
     68 CD1        34.1070   46.0180  181.3520 C.ar      1 TYR        -0.0685
     69 CD2        32.8390   47.6320  180.1440 C.ar      1 TYR        -0.0685
     70 CE1        33.0820   45.1000  181.2060 C.ar      1 TYR        -0.0398
     71 CE2        31.8120   46.7250  179.9920 C.ar      1 TYR        -0.0398
     72 CZ         31.9380   45.4610  180.5240 C.ar      1 TYR         0.0805
     73 OH         30.9110   44.5570  180.3730 O.3       1 TYR        -0.3376
     74 N          36.3320   50.7040  183.3890 N.am      1 PHE        -0.2618
     75 CA         37.3460   51.7360  183.5800 C.3       1 PHE         0.1404
     76 C          38.6640   51.1330  184.0550 C.2       1 PHE         0.2053
     77 O          38.6960   50.3740  185.0230 O.2       1 PHE        -0.3942
     78 CB         36.8540   52.7900  184.5760 C.3       1 PHE         0.0214
     79 CG         37.8710   53.8500  184.8940 C.ar      1 PHE        -0.0386
     80 CD1        38.2350   54.7880  183.9420 C.ar      1 PHE        -0.0601
     81 CD2        38.4590   53.9110  186.1470 C.ar      1 PHE        -0.0601
     82 CE1        39.1680   55.7670  184.2340 C.ar      1 PHE        -0.0686
     83 CE2        39.3930   54.8870  186.4440 C.ar      1 PHE        -0.0686
     84 CZ         39.7480   55.8150  185.4850 C.ar      1 PHE        -0.0687
     85 N          39.7480   51.4810  183.3710 N.am      1 GLY        -0.2696
     86 CA         41.0580   50.9520  183.7000 C.3       1 GLY         0.1116
     87 C          41.2780   49.5610  183.1350 C.2       1 GLY         0.2118
     88 O          40.8710   49.2640  182.0110 O.co2     1 GLY        -0.4123
     89 H          21.9435   63.4753  194.1186 H         1 VAL         0.2015
     90 H          23.5731   63.4035  194.3392 H         1 VAL         0.2015
     91 H          22.7307   62.0368  193.9760 H         1 VAL         0.2015
     92 H          23.1107   64.3697  192.2620 H         1 VAL         0.1101
     93 H          24.9687   62.4402  192.7228 H         1 VAL         0.0376
     94 H          24.9651   60.8425  190.8397 H         1 VAL         0.0236
     95 H          23.3400   61.4296  190.3490 H         1 VAL         0.0236
     96 H          23.5564   60.5999  191.9275 H         1 VAL         0.0236
     97 H          25.2145   64.5125  191.3895 H         1 VAL         0.0236
     98 H          24.3824   63.7150  190.0118 H         1 VAL         0.0236
     99 H          25.9691   63.0960  190.5829 H         1 VAL         0.0236
    100 H          22.0228   64.3875  190.3065 H         1 ASP         0.1886
    101 H          19.4089   63.1976  190.4440 H         1 ASP         0.0819
    102 H          19.1035   64.1985  188.1522 H         1 ASP         0.0478
    103 H          20.8185   64.7289  188.2176 H         1 ASP         0.0478
    104 H          22.2706   62.5757  188.3942 H         1 LYS         0.1883
    105 H          21.3065   59.8358  187.9969 H         1 LYS         0.0800
    106 H          21.7952   61.6490  185.5917 H         1 LYS         0.0312
    107 H          20.1728   61.1905  186.2118 H         1 LYS         0.0312
    108 H          20.8235   58.7761  185.8251 H         1 LYS         0.0269
    109 H          22.2870   59.3851  184.9803 H         1 LYS         0.0269
    110 H          20.8593   60.6217  183.3843 H         1 LYS         0.0317
    111 H          19.3906   60.0341  184.2354 H         1 LYS         0.0317
    112 H          21.4965   58.2687  182.8956 H         1 LYS         0.0813
    113 H          19.8994   58.7025  182.1972 H         1 LYS         0.0813
    114 H          19.8549   56.5620  183.2796 H         1 LYS         0.1994
    115 H          18.8675   57.6130  184.0733 H         1 LYS         0.1994
    116 H          20.3311   57.2155  184.7133 H         1 LYS         0.1994
    117 H          22.9562   58.4260  187.7811 H         1 VAL         0.1883
    118 H          25.5842   59.4718  186.8923 H         1 VAL         0.0802
    119 H          25.7656   59.5669  189.3155 H         1 VAL         0.0343
    120 H          25.4697   57.5628  190.7390 H         1 VAL         0.0234
    121 H          24.8999   56.6380  189.3084 H         1 VAL         0.0234
    122 H          23.9450   58.0336  189.9143 H         1 VAL         0.0234
    123 H          27.7341   58.7705  188.0330 H         1 VAL         0.0234
    124 H          27.1883   57.0745  188.2614 H         1 VAL         0.0234
    125 H          27.6729   58.0611  189.6821 H         1 VAL         0.0234
    126 H          26.5980   58.1618  185.5253 H         1 VAL         0.1883
    127 H          25.7547   55.2982  185.4405 H         1 VAL         0.0802
    128 H          26.6337   57.0278  183.0767 H         1 VAL         0.0343
    129 H          26.0564   55.0381  181.7231 H         1 VAL         0.0234
    130 H          25.7141   54.1199  183.2286 H         1 VAL         0.0234
    131 H          27.3808   54.6963  182.8874 H         1 VAL         0.0234
    132 H          24.3546   57.5678  183.8703 H         1 VAL         0.0234
    133 H          23.9058   55.8328  183.7487 H         1 VAL         0.0234
    134 H          24.3310   56.7564  182.2679 H         1 VAL         0.0234
    135 H          27.3386   53.9628  185.8982 H         1 ILE         0.1883
    136 H          30.0930   55.0253  186.0363 H         1 ILE         0.0803
    137 H          28.9897   52.3514  187.0362 H         1 ILE         0.0345
    138 H          28.9052   53.3460  189.2513 H         1 ILE         0.0267
    139 H          27.8725   54.2750  188.1124 H         1 ILE         0.0267
    140 H          31.4348   52.3988  186.6611 H         1 ILE         0.0235
    141 H          31.0227   52.2749  188.4051 H         1 ILE         0.0235
    142 H          31.5628   53.8448  187.7191 H         1 ILE         0.0235
    143 H          29.1118   55.7601  189.6166 H         1 ILE         0.0230
    144 H          29.6302   55.9823  187.9112 H         1 ILE         0.0230
    145 H          30.6630   55.0533  189.0501 H         1 ILE         0.0230
    146 H          31.7166   54.3393  184.7614 H         1 ASN         0.1885
    147 H          31.1856   52.3409  182.6687 H         1 ASN         0.0826
    148 H          33.8150   53.6928  183.4279 H         1 ASN         0.0551
    149 H          32.6080   54.4005  182.3014 H         1 ASN         0.0551
    150 H          34.8731   52.8822  179.9696 H         1 ASN         0.1814
    151 H          34.6211   54.3172  180.9063 H         1 ASN         0.1814
    152 H          32.4591   49.3579  185.7720 H         1 PRO         0.0802
    153 H          30.4459   48.2272  185.2166 H         1 PRO         0.0313
    154 H          31.6108   47.1100  184.4281 H         1 PRO         0.0313
    155 H          29.6395   48.2234  183.0193 H         1 PRO         0.0287
    156 H          31.2825   48.0514  182.3137 H         1 PRO         0.0287
    157 H          31.0657   50.3441  182.0089 H         1 PRO         0.0524
    158 H          29.8828   50.5130  183.3502 H         1 PRO         0.0524
    159 H          33.6587   49.9299  182.6479 H         1 TYR         0.1885
    160 H          35.7042   47.7831  182.9804 H         1 TYR         0.0821
    161 H          36.0370   47.8758  180.5619 H         1 TYR         0.0453
    162 H          34.8454   49.2132  180.4273 H         1 TYR         0.0453
    163 H          35.0051   45.7343  181.8887 H         1 TYR         0.0530
    164 H          32.7357   48.6268  179.7260 H         1 TYR         0.0530
    165 H          33.1770   44.1045  181.6243 H         1 TYR         0.0525
    166 H          30.9115   47.0048  179.4574 H         1 TYR         0.0525
    167 H          31.1477   43.7376  180.7916 H         1 TYR         0.2458
    168 H          35.4911   50.7417  183.9289 H         1 PHE         0.1885
    169 H          37.5219   52.2285  182.6123 H         1 PHE         0.0823
    170 H          36.5804   52.2809  185.5119 H         1 PHE         0.0474
    171 H          35.9651   53.2794  184.1513 H         1 PHE         0.0474
    172 H          37.7837   54.7546  182.9570 H         1 PHE         0.0557
    173 H          38.1838   53.1852  186.9036 H         1 PHE         0.0557
    174 H          39.4432   56.4959  183.4803 H         1 PHE         0.0599
    175 H          39.8457   54.9234  187.4283 H         1 PHE         0.0599
    176 H          40.4811   56.5798  185.7146 H         1 PHE         0.0559
    177 H          39.6588   52.1238  182.6102 H         1 GLY         0.1874
    178 H          41.1568   50.9084  184.7947 H         1 GLY         0.0714
    179 H          41.8245   51.6255  183.2891 H         1 GLY         0.0714
    180 O1         41.8849   48.6986  183.8246 O.co2     1 GLY        -0.4123
@<TRIPOS>BOND
     1    1    2 1  
     2    2    3 1  
     3    2    5 1  
     4    3    4 2  
     5    3    8 am 
     6    5    6 1  
     7    5    7 1  
     8    8    9 1  
     9    9   10 1  
    10    9   12 1  
    11   10   11 2  
    12   10   16 am 
    13   12   13 1  
    14   13   14 ar 
    15   13   15 ar 
    16   16   17 1  
    17   17   18 1  
    18   17   20 1  
    19   18   19 2  
    20   18   25 am 
    21   20   21 1  
    22   21   22 1  
    23   22   23 1  
    24   23   24 1  
    25   25   26 1  
    26   26   27 1  
    27   26   29 1  
    28   27   28 2  
    29   27   32 am 
    30   29   30 1  
    31   29   31 1  
    32   32   33 1  
    33   33   34 1  
    34   33   36 1  
    35   34   35 2  
    36   34   39 am 
    37   36   37 1  
    38   36   38 1  
    39   39   40 1  
    40   40   41 1  
    41   40   43 1  
    42   41   42 2  
    43   41   47 am 
    44   43   44 1  
    45   43   45 1  
    46   44   46 1  
    47   47   48 1  
    48   48   49 1  
    49   48   51 1  
    50   49   50 2  
    51   49   55 am 
    52   51   52 1  
    53   52   53 2  
    54   52   54 am 
    55   55   56 1  
    56   55   61 1  
    57   56   57 1  
    58   56   59 1  
    59   57   58 2  
    60   57   62 am 
    61   59   60 1  
    62   60   61 1  
    63   62   63 1  
    64   63   64 1  
    65   63   66 1  
    66   64   65 2  
    67   64   74 am 
    68   66   67 1  
    69   67   68 ar 
    70   67   69 ar 
    71   68   70 ar 
    72   69   71 ar 
    73   70   72 ar 
    74   71   72 ar 
    75   72   73 1  
    76   74   75 1  
    77   75   76 1  
    78   75   78 1  
    79   76   77 2  
    80   76   85 am 
    81   78   79 1  
    82   79   80 ar 
    83   79   81 ar 
    84   80   82 ar 
    85   81   83 ar 
    86   82   84 ar 
    87   83   84 ar 
    88   85   86 1  
    89   86   87 1  
    90   87   88 ar 
    91    1   89 1  
    92    1   90 1  
    93    1   91 1  
    94    2   92 1  
    95    5   93 1  
    96    6   94 1  
    97    6   95 1  
    98    6   96 1  
    99    7   97 1  
   100    7   98 1  
   101    7   99 1  
   102    8  100 1  
   103    9  101 1  
   104   12  102 1  
   105   12  103 1  
   106   16  104 1  
   107   17  105 1  
   108   20  106 1  
   109   20  107 1  
   110   21  108 1  
   111   21  109 1  
   112   22  110 1  
   113   22  111 1  
   114   23  112 1  
   115   23  113 1  
   116   24  114 1  
   117   24  115 1  
   118   24  116 1  
   119   25  117 1  
   120   26  118 1  
   121   29  119 1  
   122   30  120 1  
   123   30  121 1  
   124   30  122 1  
   125   31  123 1  
   126   31  124 1  
   127   31  125 1  
   128   32  126 1  
   129   33  127 1  
   130   36  128 1  
   131   37  129 1  
   132   37  130 1  
   133   37  131 1  
   134   38  132 1  
   135   38  133 1  
   136   38  134 1  
   137   39  135 1  
   138   40  136 1  
   139   43  137 1  
   140   44  138 1  
   141   44  139 1  
   142   45  140 1  
   143   45  141 1  
   144   45  142 1  
   145   46  143 1  
   146   46  144 1  
   147   46  145 1  
   148   47  146 1  
   149   48  147 1  
   150   51  148 1  
   151   51  149 1  
   152   54  150 1  
   153   54  151 1  
   154   56  152 1  
   155   59  153 1  
   156   59  154 1  
   157   60  155 1  
   158   60  156 1  
   159   61  157 1  
   160   61  158 1  
   161   62  159 1  
   162   63  160 1  
   163   66  161 1  
   164   66  162 1  
   165   68  163 1  
   166   69  164 1  
   167   70  165 1  
   168   71  166 1  
   169   73  167 1  
   170   74  168 1  
   171   75  169 1  
   172   78  170 1  
   173   78  171 1  
   174   80  172 1  
   175   81  173 1  
   176   82  174 1  
   177   83  175 1  
   178   84  176 1  
   179   85  177 1  
   180   86  178 1  
   181   86  179 1  
   182   87  180 ar 
@<TRIPOS>SUBSTRUCTURE
     1 VAL         1

