4wj7_ligand
  -I-interpret- 

182184  0  0  0  0  0  0  0  0999 V2000
   22.7960   63.0300  193.8170 N   0  3  0  0  0
   23.0000   63.2830  192.3920 C   0  0  0  0  0
   21.7750   62.8440  191.5840 C   0  0  0  0  0
   21.1210   61.8520  191.9170 O   0  0  0  0  0
   24.3050   62.6190  191.8640 C   0  0  0  0  0
   24.0220   61.2800  191.1990 C   0  0  0  0  0
   25.0170   63.5500  190.8950 C   0  0  0  0  0
   21.4440   63.6080  190.5460 N   0  0  0  0  0
   20.2520   63.3300  189.7500 C   0  0  0  0  0
   20.3960   62.0530  188.9330 C   0  0  0  0  0
   19.4750   61.2370  188.8710 O   0  0  0  0  0
   19.9260   64.4990  188.8180 C   0  0  0  0  0
   19.5110   65.7490  189.5650 C   0  0  0  0  0
   20.3940   66.5740  189.8810 O   0  0  0  0  0
   18.3020   65.9060  189.8360 O   0  0  0  0  0
   21.5580   61.8790  188.3120 N   0  0  0  0  0
   21.8070   60.6880  187.5140 C   0  0  0  0  0
   23.2980   60.3830  187.4300 C   0  0  0  0  0
   24.1100   61.2890  187.2310 O   0  0  0  0  0
   21.2190   60.8670  186.1080 C   0  0  0  0  0
   21.2450   59.6130  185.2490 C   0  0  0  0  0
   20.4310   59.7950  183.9700 C   0  0  0  0  0
   20.4530   58.5250  183.1310 C   0  0  0  0  0
   19.8260   57.3870  183.8580 N   0  3  0  0  0
   23.6560   59.1120  187.5820 N   0  0  0  0  0
   25.0510   58.6980  187.4640 C   0  0  0  0  0
   25.1520   57.3830  186.6930 C   0  0  0  0  0
   24.4010   56.4390  186.9460 O   0  0  0  0  0
   25.7440   58.5700  188.8510 C   0  0  0  0  0
   24.9600   57.6360  189.7670 C   0  0  0  0  0
   27.1860   58.0850  188.6960 C   0  0  0  0  0
   26.0790   57.3350  185.7420 N   0  0  0  0  0
   26.3580   56.1100  185.0080 C   0  0  0  0  0
   27.8290   55.7670  185.1530 C   0  0  0  0  0
   28.7000   56.5630  184.8030 O   0  0  0  0  0
   26.0090   56.2350  183.5140 C   0  0  0  0  0
   26.3110   54.9320  182.7880 C   0  0  0  0  0
   24.5490   56.6250  183.3380 C   0  0  0  0  0
   28.0960   54.5750  185.6710 N   0  0  0  0  0
   29.4580   54.1350  185.9170 C   0  0  0  0  0
   29.9820   53.3110  184.7520 C   0  0  0  0  0
   29.2600   52.4870  184.1920 O   0  0  0  0  0
   29.5470   53.2850  187.2030 C   0  0  0  0  0
   28.9080   54.0200  188.3820 C   0  0  0  0  0
   30.9920   52.9260  187.5190 C   0  0  0  0  0
   29.6270   55.2900  188.7660 C   0  0  0  0  0
   31.2320   53.5540  184.3760 N   0  0  0  0  0
   31.9080   52.7010  183.4160 C   0  0  0  0  0
   32.4750   51.5220  184.1890 C   0  0  0  0  0
   33.4000   51.6850  184.9830 O   0  0  0  0  0
   33.0230   53.4630  182.7000 C   0  0  0  0  0
   33.6320   52.6760  181.5530 C   0  0  0  0  0
   33.3840   51.4800  181.3990 O   0  0  0  0  0
   34.4420   53.3470  180.7430 N   0  0  0  0  0
   31.9160   50.3260  183.9640 N   0  0  0  0  0
   32.3550   49.1390  184.6990 C   0  0  0  0  0
   33.6720   48.5960  184.1620 C   0  0  0  0  0
   34.2400   47.6750  184.7480 O   0  0  0  0  0
   31.2250   48.1400  184.4450 C   0  0  0  0  0
   30.6930   48.5260  183.1120 C   0  0  0  0  0
   30.8150   50.0240  183.0310 C   0  0  0  0  0
   34.1500   49.1620  183.0590 N   0  0  0  0  0
   35.3770   48.6830  182.4390 C   0  0  0  0  0
   36.4970   49.7150  182.5160 C   0  0  0  0  0
   37.4870   49.6170  181.7920 O   0  0  0  0  0
   35.1150   48.3030  180.9830 C   0  0  0  0  0
   34.0030   47.2960  180.8220 C   0  0  0  0  0
   34.1070   46.0180  181.3520 C   0  0  0  0  0
   32.8390   47.6320  180.1440 C   0  0  0  0  0
   33.0820   45.1000  181.2060 C   0  0  0  0  0
   31.8120   46.7250  179.9920 C   0  0  0  0  0
   31.9380   45.4610  180.5240 C   0  0  0  0  0
   30.9110   44.5570  180.3730 O   0  0  0  0  0
   36.3320   50.7040  183.3890 N   0  0  0  0  0
   37.3460   51.7360  183.5800 C   0  0  0  0  0
   38.6640   51.1330  184.0550 C   0  0  0  0  0
   38.6960   50.3740  185.0230 O   0  0  0  0  0
   36.8540   52.7900  184.5760 C   0  0  0  0  0
   37.8710   53.8500  184.8940 C   0  0  0  0  0
   38.2350   54.7880  183.9420 C   0  0  0  0  0
   38.4590   53.9110  186.1470 C   0  0  0  0  0
   39.1680   55.7670  184.2340 C   0  0  0  0  0
   39.3930   54.8870  186.4440 C   0  0  0  0  0
   39.7480   55.8150  185.4850 C   0  0  0  0  0
   39.7480   51.4810  183.3710 N   0  0  0  0  0
   41.0580   50.9520  183.7000 C   0  0  0  0  0
   41.2780   49.5610  183.1350 C   0  0  0  0  0
   40.8710   49.2640  182.0110 O   0  0  0  0  0
   41.8849   48.6986  183.8246 O   0  0  0  0  0
   21.9331   63.4810  194.1211 H   0  0  0  0  0
   22.7301   62.0247  193.9766 H   0  0  0  0  0
   23.5829   63.4083  194.3443 H   0  0  0  0  0
   23.1224   64.3581  192.2607 H   0  0  0  0  0
   24.9532   62.4339  192.7206 H   0  0  0  0  0
   23.3895   61.4362  190.3252 H   0  0  0  0  0
   24.9623   60.8226  190.8913 H   0  0  0  0  0
   23.5122   60.6253  191.9058 H   0  0  0  0  0
   25.9601   63.0990  190.5865 H   0  0  0  0  0
   24.3873   63.7126  190.0203 H   0  0  0  0  0
   25.2121   64.5033  191.3861 H   0  0  0  0  0
   22.0344   64.4031  190.3017 H   0  0  0  0  0
   19.4321   63.1940  190.4553 H   0  0  0  0  0
   19.0921   64.1973  188.1842 H   0  0  0  0  0
   20.8264   64.7336  188.2502 H   0  0  0  0  0
   21.2484   66.2585  189.5776 H   0  0  0  0  0
   22.2849   62.5897  188.3959 H   0  0  0  0  0
   21.3196   59.8429  188.0003 H   0  0  0  0  0
   21.8289   61.6141  185.6001 H   0  0  0  0  0
   20.1728   61.1462  186.2331 H   0  0  0  0  0
   20.8109   58.7931  185.8212 H   0  0  0  0  0
   22.2788   59.4039  184.9739 H   0  0  0  0  0
   20.8660   60.6081  183.3889 H   0  0  0  0  0
   19.3992   60.0212  184.2389 H   0  0  0  0  0
   21.4903   58.2696  182.9143 H   0  0  0  0  0
   19.8905   58.7041  182.2147 H   0  0  0  0  0
   19.8558   56.5528  183.2718 H   0  0  0  0  0
   20.3379   57.2145  184.7232 H   0  0  0  0  0
   18.8563   57.6168  184.0753 H   0  0  0  0  0
   22.9422   58.4123  187.7850 H   0  0  0  0  0
   25.5757   59.4773  186.9113 H   0  0  0  0  0
   25.7633   59.5590  189.3089 H   0  0  0  0  0
   23.9545   58.0311  189.9121 H   0  0  0  0  0
   24.9011   56.6475  189.3115 H   0  0  0  0  0
   25.4660   57.5642  190.7298 H   0  0  0  0  0
   27.1896   57.1095  188.2098 H   0  0  0  0  0
   27.7442   58.7973  188.0884 H   0  0  0  0  0
   27.6484   58.0038  189.6797 H   0  0  0  0  0
   26.6084   58.1784  185.5210 H   0  0  0  0  0
   25.7342   55.3208  185.4276 H   0  0  0  0  0
   26.6257   57.0209  183.0780 H   0  0  0  0  0
   27.3713   54.6995  182.8873 H   0  0  0  0  0
   25.7190   54.1281  183.2255 H   0  0  0  0  0
   26.0583   55.0384  181.7330 H   0  0  0  0  0
   23.9137   55.8620  183.7878 H   0  0  0  0  0
   24.3689   57.5832  183.8254 H   0  0  0  0  0
   24.3221   56.7083  182.2751 H   0  0  0  0  0
   27.3235   53.9506  185.9028 H   0  0  0  0  0
   30.0663   55.0319  186.0339 H   0  0  0  0  0
   28.9958   52.3600  187.0335 H   0  0  0  0  0
   28.9452   53.3514  189.2420 H   0  0  0  0  0
   27.8960   54.2952  188.0850 H   0  0  0  0  0
   31.4125   52.3548  186.6913 H   0  0  0  0  0
   31.5691   53.8396  187.6619 H   0  0  0  0  0
   31.0256   52.3274  188.4293 H   0  0  0  0  0
   30.6533   55.0541  189.0473 H   0  0  0  0  0
   29.6295   55.9751  187.9182 H   0  0  0  0  0
   29.1156   55.7549  189.6089 H   0  0  0  0  0
   31.7263   54.3550  184.7691 H   0  0  0  0  0
   31.2119   52.3617  182.6489 H   0  0  0  0  0
   33.8121   53.6594  183.4258 H   0  0  0  0  0
   32.5918   54.3749  182.2869 H   0  0  0  0  0
   34.8858   52.8717  179.9572 H   0  0  0  0  0
   34.6206   54.3378  180.9065 H   0  0  0  0  0
   32.5345   49.3444  185.7543 H   0  0  0  0  0
   30.4600   48.1771  185.2206 H   0  0  0  0  0
   31.5749   47.1079  184.4660 H   0  0  0  0  0
   29.6569   48.2085  182.9947 H   0  0  0  0  0
   31.2506   48.0417  182.3103 H   0  0  0  0  0
   31.0152   50.3744  182.0185 H   0  0  0  0  0
   29.8892   50.5351  183.2951 H   0  0  0  0  0
   33.6489   49.9452  182.6396 H   0  0  0  0  0
   35.7024   47.8028  182.9935 H   0  0  0  0  0
   36.0269   47.8536  180.5898 H   0  0  0  0  0
   34.8195   49.2087  180.4534 H   0  0  0  0  0
   35.0100   45.7327  181.8917 H   0  0  0  0  0
   32.7351   48.6323  179.7237 H   0  0  0  0  0
   33.1775   44.0990  181.6266 H   0  0  0  0  0
   30.9065   47.0064  179.4544 H   0  0  0  0  0
   30.1968   44.9655  179.8784 H   0  0  0  0  0
   35.4743   50.7425  183.9397 H   0  0  0  0  0
   37.5221   52.2159  182.6173 H   0  0  0  0  0
   36.6231   52.2728  185.5073 H   0  0  0  0  0
   35.9971   53.2887  184.1230 H   0  0  0  0  0
   37.7812   54.7545  182.9515 H   0  0  0  0  0
   38.1823   53.1812  186.9078 H   0  0  0  0  0
   39.4447   56.5000  183.4762 H   0  0  0  0  0
   39.8482   54.9236  187.4337 H   0  0  0  0  0
   40.4851   56.5841  185.7159 H   0  0  0  0  0
   39.6571   52.1366  182.5949 H   0  0  0  0  0
   41.1345   50.8913  184.7856 H   0  0  0  0  0
   41.8078   51.6144  183.2675 H   0  0  0  0  0
   42.1350   49.0831  184.6679 H   0  0  0  0  0
  1  2  1  0  0  0
  2  3  1  0  0  0
  2  5  1  0  0  0
  3  4  2  0  0  0
  3  8  1  0  0  0
  5  6  1  0  0  0
  5  7  1  0  0  0
  8  9  1  0  0  0
  9 10  1  0  0  0
  9 12  1  0  0  0
 10 11  2  0  0  0
 10 16  1  0  0  0
 12 13  1  0  0  0
 13 14  1  0  0  0
 13 15  2  0  0  0
 16 17  1  0  0  0
 17 18  1  0  0  0
 17 20  1  0  0  0
 18 19  2  0  0  0
 18 25  1  0  0  0
 20 21  1  0  0  0
 21 22  1  0  0  0
 22 23  1  0  0  0
 23 24  1  0  0  0
 25 26  1  0  0  0
 26 27  1  0  0  0
 26 29  1  0  0  0
 27 28  2  0  0  0
 27 32  1  0  0  0
 29 30  1  0  0  0
 29 31  1  0  0  0
 32 33  1  0  0  0
 33 34  1  0  0  0
 33 36  1  0  0  0
 34 35  2  0  0  0
 34 39  1  0  0  0
 36 37  1  0  0  0
 36 38  1  0  0  0
 39 40  1  0  0  0
 40 41  1  0  0  0
 40 43  1  0  0  0
 41 42  2  0  0  0
 41 47  1  0  0  0
 43 44  1  0  0  0
 43 45  1  0  0  0
 44 46  1  0  0  0
 47 48  1  0  0  0
 48 49  1  0  0  0
 48 51  1  0  0  0
 49 50  2  0  0  0
 49 55  1  0  0  0
 51 52  1  0  0  0
 52 53  2  0  0  0
 52 54  1  0  0  0
 55 56  1  0  0  0
 55 61  1  0  0  0
 56 57  1  0  0  0
 56 59  1  0  0  0
 57 58  2  0  0  0
 57 62  1  0  0  0
 59 60  1  0  0  0
 60 61  1  0  0  0
 62 63  1  0  0  0
 63 64  1  0  0  0
 63 66  1  0  0  0
 64 65  2  0  0  0
 64 74  1  0  0  0
 66 67  1  0  0  0
 67 68  4  0  0  0
 67 69  4  0  0  0
 68 70  4  0  0  0
 69 71  4  0  0  0
 70 72  4  0  0  0
 71 72  4  0  0  0
 72 73  1  0  0  0
 74 75  1  0  0  0
 75 76  1  0  0  0
 75 78  1  0  0  0
 76 77  2  0  0  0
 76 85  1  0  0  0
 78 79  1  0  0  0
 79 80  4  0  0  0
 79 81  4  0  0  0
 80 82  4  0  0  0
 81 83  4  0  0  0
 82 84  4  0  0  0
 83 84  4  0  0  0
 85 86  1  0  0  0
 86 87  1  0  0  0
 87 88  2  0  0  0
 87 89  1  0  0  0
  1 90  1  0  0  0
  1 91  1  0  0  0
  1 92  1  0  0  0
  2 93  1  0  0  0
  5 94  1  0  0  0
  6 95  1  0  0  0
  6 96  1  0  0  0
  6 97  1  0  0  0
  7 98  1  0  0  0
  7 99  1  0  0  0
  7100  1  0  0  0
  8101  1  0  0  0
  9102  1  0  0  0
 12103  1  0  0  0
 12104  1  0  0  0
 14105  1  0  0  0
 16106  1  0  0  0
 17107  1  0  0  0
 20108  1  0  0  0
 20109  1  0  0  0
 21110  1  0  0  0
 21111  1  0  0  0
 22112  1  0  0  0
 22113  1  0  0  0
 23114  1  0  0  0
 23115  1  0  0  0
 24116  1  0  0  0
 24117  1  0  0  0
 24118  1  0  0  0
 25119  1  0  0  0
 26120  1  0  0  0
 29121  1  0  0  0
 30122  1  0  0  0
 30123  1  0  0  0
 30124  1  0  0  0
 31125  1  0  0  0
 31126  1  0  0  0
 31127  1  0  0  0
 32128  1  0  0  0
 33129  1  0  0  0
 36130  1  0  0  0
 37131  1  0  0  0
 37132  1  0  0  0
 37133  1  0  0  0
 38134  1  0  0  0
 38135  1  0  0  0
 38136  1  0  0  0
 39137  1  0  0  0
 40138  1  0  0  0
 43139  1  0  0  0
 44140  1  0  0  0
 44141  1  0  0  0
 45142  1  0  0  0
 45143  1  0  0  0
 45144  1  0  0  0
 46145  1  0  0  0
 46146  1  0  0  0
 46147  1  0  0  0
 47148  1  0  0  0
 48149  1  0  0  0
 51150  1  0  0  0
 51151  1  0  0  0
 54152  1  0  0  0
 54153  1  0  0  0
 56154  1  0  0  0
 59155  1  0  0  0
 59156  1  0  0  0
 60157  1  0  0  0
 60158  1  0  0  0
 61159  1  0  0  0
 61160  1  0  0  0
 62161  1  0  0  0
 63162  1  0  0  0
 66163  1  0  0  0
 66164  1  0  0  0
 68165  1  0  0  0
 69166  1  0  0  0
 70167  1  0  0  0
 71168  1  0  0  0
 73169  1  0  0  0
 74170  1  0  0  0
 75171  1  0  0  0
 78172  1  0  0  0
 78173  1  0  0  0
 80174  1  0  0  0
 81175  1  0  0  0
 82176  1  0  0  0
 83177  1  0  0  0
 84178  1  0  0  0
 85179  1  0  0  0
 86180  1  0  0  0
 86181  1  0  0  0
 89182  1  0  0  0
M  END
$$$$
