5dp7_ligand
  -I-interpret- 

 70 71  0  0  0  0  0  0  0  0999 V2000
    7.7680    7.4040   -1.3780 C   0  0  0  0  0
    8.5880    6.1510   -1.6220 C   0  0  0  0  0
    9.8340    5.9910   -0.8130 C   0  0  0  0  0
   10.7600    7.0040   -0.8390 C   0  0  0  0  0
   11.9440    6.8340   -0.0990 C   0  0  0  0  0
   12.1970    5.6760    0.6450 C   0  0  0  0  0
    1.6420    9.3050   -3.2610 N   0  0  0  0  0
   11.2690    4.6410    0.6430 C   0  0  0  0  0
    5.1070    7.6900    1.3650 C   0  0  0  0  0
    5.1450    8.7570    2.4830 C   0  0  0  0  0
    5.7690    8.1780    3.7330 C   0  0  0  0  0
    5.8450   10.0830    2.1870 C   0  0  0  0  0
    5.8420    8.0210    0.0840 C   0  0  0  0  0
    5.3910    8.9070   -0.6460 O   0  0  0  0  0
    6.9500    7.2720   -0.1690 N   0  0  0  0  0
   10.0860    4.8080   -0.0860 C   0  0  0  0  0
    6.9090    7.3850   -2.6370 C   0  0  0  0  0
    6.2330    6.3890   -2.8620 O   0  0  0  0  0
    6.8700    8.4300   -3.4880 N   0  0  0  0  0
    6.0490    8.3450   -4.7080 C   0  0  0  0  0
    4.8550    9.2390   -4.7440 C   0  0  0  0  0
    3.8830    8.9770   -3.5940 C   0  0  0  0  0
    2.7430    9.9550   -3.6410 C   0  0  0  0  0
    2.8990   11.1880   -3.9290 O   0  0  0  0  0
    1.8340    7.9010   -2.9520 C   0  0  0  0  0
    3.2210    7.5990   -3.5490 C   0  0  0  0  0
    7.0630    8.5230   -5.8420 C   0  0  0  0  0
    7.7830    7.2300   -6.2190 C   0  0  0  0  0
    6.9820    6.0570   -6.6890 C   0  0  0  0  0
    6.0330    6.1290   -7.4300 O   0  0  0  0  0
    7.4170    4.7370   -6.2710 O   0  0  0  0  0
    6.5980    3.9600   -5.4140 C   0  0  0  0  0
    6.0040    2.8470   -6.2290 C   0  0  0  0  0
    8.3402    8.3180   -1.2186 H   0  0  0  0  0
    8.9116    6.2036   -2.6615 H   0  0  0  0  0
    7.9446    5.3149   -1.3479 H   0  0  0  0  0
   10.5832    7.9121   -1.4153 H   0  0  0  0  0
   12.6886    7.6300   -0.1052 H   0  0  0  0  0
   13.1168    5.5861    1.2229 H   0  0  0  0  0
    0.7324    9.7615   -3.1928 H   0  0  0  0  0
   11.4582    3.7210    1.1962 H   0  0  0  0  0
    4.0580    7.5810    1.0896 H   0  0  0  0  0
    5.5999    6.8083    1.7746 H   0  0  0  0  0
    4.0914    9.0129    2.5955 H   0  0  0  0  0
    5.1792    7.3259    4.0708 H   0  0  0  0  0
    6.7859    7.8532    3.5129 H   0  0  0  0  0
    5.7901    8.9391    4.5130 H   0  0  0  0  0
    6.8896    9.8937    1.9400 H   0  0  0  0  0
    5.3541   10.5716    1.3453 H   0  0  0  0  0
    5.7887   10.7261    3.0653 H   0  0  0  0  0
    7.2277    6.5773    0.5243 H   0  0  0  0  0
    9.3449    4.0088   -0.0923 H   0  0  0  0  0
    7.4059    9.2746   -3.2882 H   0  0  0  0  0
    5.5308    7.3893   -4.7868 H   0  0  0  0  0
    4.3253    9.0506   -5.6778 H   0  0  0  0  0
    5.2056   10.2674   -4.6566 H   0  0  0  0  0
    4.5271    9.0683   -2.7194 H   0  0  0  0  0
    1.0498    7.2672   -3.3659 H   0  0  0  0  0
    1.7808    7.6934   -1.8833 H   0  0  0  0  0
    3.7868    6.8774   -2.9597 H   0  0  0  0  0
    3.1652    7.1248   -4.5288 H   0  0  0  0  0
    7.8173    9.2319   -5.5005 H   0  0  0  0  0
    6.5165    8.8636   -6.7214 H   0  0  0  0  0
    8.2536    6.8937   -5.2951 H   0  0  0  0  0
    8.4098    7.4980   -7.0695 H   0  0  0  0  0
    5.8085    4.5767   -4.9844 H   0  0  0  0  0
    7.1887    3.5535   -4.5931 H   0  0  0  0  0
    5.4100    3.2690   -7.0396 H   0  0  0  0  0
    6.8048    2.2350   -6.6441 H   0  0  0  0  0
    5.3677    2.2320   -5.5926 H   0  0  0  0  0
  1  2  1  0  0  0
  1 15  1  0  0  0
 17  1  1  0  0  0
  2  3  1  0  0  0
  3  4  4  0  0  0
  3 16  4  0  0  0
  4  5  4  0  0  0
  5  6  4  0  0  0
  8  6  4  0  0  0
 23  7  1  0  0  0
  7 25  1  0  0  0
 16  8  4  0  0  0
  9 10  1  0  0  0
 13  9  1  0  0  0
 10 11  1  0  0  0
 10 12  1  0  0  0
 13 14  2  0  0  0
 15 13  1  0  0  0
 17 18  2  0  0  0
 19 17  1  0  0  0
 20 19  1  0  0  0
 21 20  1  0  0  0
 20 27  1  0  0  0
 22 21  1  0  0  0
 22 23  1  0  0  0
 22 26  1  0  0  0
 23 24  2  0  0  0
 25 26  1  0  0  0
 27 28  1  0  0  0
 28 29  1  0  0  0
 29 30  2  0  0  0
 29 31  1  0  0  0
 31 32  1  0  0  0
 32 33  1  0  0  0
  1 34  1  0  0  0
  2 35  1  0  0  0
  2 36  1  0  0  0
  4 37  1  0  0  0
  5 38  1  0  0  0
  6 39  1  0  0  0
  7 40  1  0  0  0
  8 41  1  0  0  0
  9 42  1  0  0  0
  9 43  1  0  0  0
 10 44  1  0  0  0
 11 45  1  0  0  0
 11 46  1  0  0  0
 11 47  1  0  0  0
 12 48  1  0  0  0
 12 49  1  0  0  0
 12 50  1  0  0  0
 15 51  1  0  0  0
 16 52  1  0  0  0
 19 53  1  0  0  0
 20 54  1  0  0  0
 21 55  1  0  0  0
 21 56  1  0  0  0
 22 57  1  0  0  0
 25 58  1  0  0  0
 25 59  1  0  0  0
 26 60  1  0  0  0
 26 61  1  0  0  0
 27 62  1  0  0  0
 27 63  1  0  0  0
 28 64  1  0  0  0
 28 65  1  0  0  0
 32 66  1  0  0  0
 32 67  1  0  0  0
 33 68  1  0  0  0
 33 69  1  0  0  0
 33 70  1  0  0  0
M  END
$$$$
