### 
### Created by X-TOOL on Mon Sep 10 21:13:32 2018
### 

@<TRIPOS>MOLECULE
6axp_ligand
  209   209     1     0     0
SMALL
GAST_HUCK


@<TRIPOS>ATOM
      1 N          17.7170   34.1380   28.3970 N.4       1 GLN         0.2380
      2 CA         18.0800   35.5390   28.5810 C.3       1 GLN         0.0671
      3 C          19.5400   35.6490   29.0040 C.2       1 GLN         0.2270
      4 O          19.9990   34.9490   29.9100 O.2       1 GLN        -0.3907
      5 CB         17.1590   36.2050   29.6060 C.3       1 GLN         0.0247
      6 CG         17.7230   37.4650   30.2550 C.3       1 GLN         0.0443
      7 CD         16.8220   38.6730   30.0700 C.2       1 GLN         0.1738
      8 OE1        15.8950   38.6500   29.2600 O.2       1 GLN        -0.3973
      9 NE2        17.0930   39.7370   30.8200 N.am      1 GLN        -0.3009
     10 N          20.2610   36.5360   28.3310 N.am      1 PHE        -0.2592
     11 CA         21.7010   36.6370   28.4950 C.3       1 PHE         0.1406
     12 C          22.0530   37.4420   29.7410 C.2       1 PHE         0.2060
     13 O          21.4710   38.5000   30.0020 O.2       1 PHE        -0.3942
     14 CB         22.3100   37.2710   27.2460 C.3       1 PHE         0.0214
     15 CG         23.7930   37.4470   27.3160 C.ar      1 PHE        -0.0386
     16 CD1        24.6430   36.3620   27.1750 C.ar      1 PHE        -0.0601
     17 CD2        24.3400   38.7030   27.5020 C.ar      1 PHE        -0.0601
     18 CE1        26.0100   36.5290   27.2320 C.ar      1 PHE        -0.0686
     19 CE2        25.7100   38.8730   27.5580 C.ar      1 PHE        -0.0686
     20 CZ         26.5450   37.7850   27.4250 C.ar      1 PHE        -0.0687
     21 N          23.0230   36.9360   30.5050 N.am      1 ASP        -0.2620
     22 CA         23.4520   37.5280   31.7680 C.3       1 ASP         0.1423
     23 C          24.8840   38.0300   31.6290 C.2       1 ASP         0.2056
     24 O          25.7870   37.2560   31.2930 O.2       1 ASP        -0.3943
     25 CB         23.3410   36.5140   32.9060 C.3       1 ASP         0.0406
     26 CG         24.1170   36.9310   34.1400 C.2       1 ASP         0.0393
     27 OD1        24.0000   38.1040   34.5500 O.co2     1 ASP        -0.5688
     28 OD2        24.8350   36.0780   34.7070 O.co2     1 ASP        -0.5688
     29 N          25.0900   39.3190   31.9140 N.am      1 LEU        -0.2636
     30 CA         26.3820   39.9550   31.6770 C.3       1 LEU         0.1312
     31 C          27.4330   39.5530   32.7010 C.2       1 LEU         0.2040
     32 O          28.6270   39.7260   32.4430 O.2       1 LEU        -0.3944
     33 CB         26.2230   41.4760   31.6730 C.3       1 LEU        -0.0101
     34 CG         25.2210   42.0250   30.6590 C.3       1 LEU        -0.0425
     35 CD1        24.9170   43.4700   30.9620 C.3       1 LEU        -0.0625
     36 CD2        25.7600   41.8850   29.2520 C.3       1 LEU        -0.0625
     37 N          27.0240   39.0220   33.8510 N.am      1 SER        -0.2616
     38 CA         27.9990   38.6160   34.8560 C.3       1 SER         0.1539
     39 C          28.7260   37.3370   34.4460 C.2       1 SER         0.2063
     40 O          29.9350   37.2110   34.6600 O.2       1 SER        -0.3943
     41 CB         27.3050   38.4400   36.2060 C.3       1 SER         0.0843
     42 OG         26.5820   39.6070   36.5540 O.3       1 SER        -0.3903
     43 N          28.0180   36.3810   33.8540 N.am      1 THR        -0.2613
     44 CA         28.6190   35.0890   33.5180 C.3       1 THR         0.1565
     45 C          28.8180   34.9170   32.0190 C.2       1 THR         0.2065
     46 O          29.4870   33.9730   31.5740 O.2       1 THR        -0.3943
     47 CB         27.7570   33.9330   34.0200 C.3       1 THR         0.0924
     48 OG1        26.4100   34.0970   33.5470 O.3       1 THR        -0.3874
     49 CG2        27.7760   33.9040   35.5370 C.3       1 THR        -0.0346
     50 N          28.2210   35.8260   31.2550 N.am      1 C1J        -0.2636
     51 CA         28.1600   35.7230   29.8290 C.3       1 C1J         0.1311
     52 C          27.4340   34.4760   29.4170 C.2       1 C1J         0.2039
     53 O          27.8060   33.9090   28.3400 O.2       1 C1J        -0.3944
     54 CB         29.5450   35.7510   29.1890 C.3       1 C1J        -0.0092
     55 CG         30.1950   37.0990   29.4570 C.3       1 C1J        -0.0156
     56 CD         31.1480   37.4220   28.3510 C.3       1 C1J         0.0627
     57 NE         31.9830   38.5690   28.7180 N.pl3     1 C1J        -0.2722
     58 CZ         33.1220   38.8440   27.9760 C.cat     1 C1J         0.2903
     59 NH1        33.5110   38.0720   26.8930 N.pl3     1 C1J        -0.2848
     60 NH2        33.9760   39.8890   28.2390 N.pl3     1 C1J        -0.2722
     61 C01        34.6150   40.5080   30.5030 C.3       1 C1J        -0.0198
     62 C02        33.6790   40.7950   29.3610 C.3       1 C1J         0.0625
     63 C03        36.0410   40.7940   30.1020 C.3       1 C1J        -0.0499
     64 C04        37.0150   40.4450   31.2510 C.3       1 C1J        -0.0529
     65 C05        36.2800   40.4190   32.6100 C.3       1 C1J        -0.0531
     66 C06        36.3310   39.0400   33.1840 C.3       1 C1J        -0.0533
     67 C07        35.0400   38.7860   33.9660 C.3       1 C1J        -0.0559
     68 C08        35.0840   37.4070   34.5750 C.3       1 C1J        -0.0653
     69 N          26.4660   34.0220   30.2030 N.am      1 ARG        -0.2637
     70 CA         25.7330   32.8060   29.8860 C.3       1 ARG         0.1311
     71 C          24.2310   33.0430   29.8980 C.2       1 ARG         0.2039
     72 O          23.7450   33.9710   30.5410 O.2       1 ARG        -0.3944
     73 CB         26.0880   31.6900   30.8700 C.3       1 ARG        -0.0092
     74 CG         27.5300   31.2260   30.7810 C.3       1 ARG        -0.0156
     75 CD         27.8200   30.5480   29.4500 C.3       1 ARG         0.0627
     76 NE         26.8790   29.4660   29.1730 N.pl3     1 ARG        -0.2723
     77 CZ         26.9450   28.2570   29.7220 C.cat     1 ARG         0.2882
     78 NH1        27.9060   27.9690   30.5900 N.pl3     1 ARG        -0.2849
     79 NH2        26.0460   27.3350   29.4070 N.pl3     1 ARG        -0.2849
     80 N          23.4880   32.2010   29.1850 N.am      1 LEU        -0.2637
     81 CA         22.0360   32.3050   29.1950 C.3       1 LEU         0.1312
     82 C          21.4900   31.8280   30.5370 C.2       1 LEU         0.2033
     83 O          21.9010   30.7840   31.0510 O.2       1 LEU        -0.3944
     84 CB         21.4420   31.4940   28.0460 C.3       1 LEU        -0.0101
     85 CG         21.9040   31.9290   26.6550 C.3       1 LEU        -0.0425
     86 CD1        21.3140   31.0230   25.5860 C.3       1 LEU        -0.0625
     87 CD2        21.5340   33.3850   26.4020 C.3       1 LEU        -0.0625
     88 N          20.5730   32.5980   31.1110 N.am      1 LYS        -0.2695
     89 CA         20.0810   32.3020   32.4510 C.3       1 LYS         0.0944
     90 C          18.5600   32.2300   32.4910 C.2       1 LYS         0.0601
     91 O          17.9750   31.1750   32.2440 O.co2     1 LYS        -0.5666
     92 CB         20.5840   33.3530   33.4440 C.3       1 LYS        -0.0177
     93 CG         20.4570   32.9480   34.9050 C.3       1 LYS        -0.0446
     94 CD         21.6720   33.4200   35.6940 C.3       1 LYS        -0.0125
     95 CE         21.5210   33.1860   37.1900 C.3       1 LYS        -0.0354
     96 NZ         20.7670   34.2870   37.8530 N.4       1 LYS         0.2185
     97 OXT        17.8920   33.2260   32.7710 O.co2     1 LYS        -0.5666
     98 H1         16.7505   34.0753   28.1176 H         1 GLN         0.2015
     99 H2         17.8492   33.6400   29.2634 H         1 GLN         0.2015
    100 H3         18.3003   33.7307   27.6829 H         1 GLN         0.2015
    101 H4         17.9578   36.0591   27.6195 H         1 GLN         0.1100
    102 H5         16.9498   35.4753   30.4021 H         1 GLN         0.0370
    103 H6         16.2206   36.4731   29.0985 H         1 GLN         0.0370
    104 H7         18.7025   37.6844   29.8050 H         1 GLN         0.0506
    105 H8         17.8474   37.2805   31.3322 H         1 GLN         0.0506
    106 H9         16.5322   40.5611   30.7400 H         1 GLN         0.1814
    107 H10        17.8576   39.7131   31.4641 H         1 GLN         0.1814
    108 H11        19.8003   37.1527   27.6926 H         1 PHE         0.1886
    109 H12        22.1130   35.6237   28.6107 H         1 PHE         0.0823
    110 H13        21.8507   38.2599   27.1008 H         1 PHE         0.0474
    111 H14        22.0781   36.6287   26.3836 H         1 PHE         0.0474
    112 H15        24.2291   35.3725   27.0184 H         1 PHE         0.0557
    113 H16        23.6878   39.5627   27.6049 H         1 PHE         0.0557
    114 H17        26.6651   35.6720   27.1250 H         1 PHE         0.0599
    115 H18        26.1279   39.8621   27.7065 H         1 PHE         0.0599
    116 H19        27.6200   37.9162   27.4720 H         1 PHE         0.0559
    117 H20        23.4821   36.1037   30.1944 H         1 ASP         0.1884
    118 H21        22.7987   38.3825   31.9980 H         1 ASP         0.0819
    119 H22        23.7313   35.5473   32.5551 H         1 ASP         0.0478
    120 H23        22.2807   36.4046   33.1776 H         1 ASP         0.0478
    121 H24        24.3420   39.8601   32.2984 H         1 LEU         0.1883
    122 H25        26.7371   39.6388   30.6851 H         1 LEU         0.0800
    123 H26        27.2054   41.9198   31.4544 H         1 LEU         0.0315
    124 H27        25.8956   41.7861   32.6763 H         1 LEU         0.0315
    125 H28        24.2893   41.4455   30.7366 H         1 LEU         0.0298
    126 H29        24.1952   43.8548   30.2265 H         1 LEU         0.0232
    127 H30        25.8445   44.0589   30.9083 H         1 LEU         0.0232
    128 H31        24.4894   43.5507   31.9722 H         1 LEU         0.0232
    129 H32        25.9768   40.8264   29.0461 H         1 LEU         0.0232
    130 H33        26.6834   42.4744   29.1527 H         1 LEU         0.0232
    131 H34        25.0116   42.2523   28.5344 H         1 LEU         0.0232
    132 H35        26.0468   38.9014   34.0258 H         1 SER         0.1884
    133 H36        28.7473   39.4164   34.9529 H         1 SER         0.0823
    134 H37        28.0627   38.2412   36.9782 H         1 SER         0.0606
    135 H38        26.6102   37.5893   36.1465 H         1 SER         0.0606
    136 H39        27.1794   40.3436   36.6093 H         1 SER         0.2097
    137 H40        27.0568   36.5471   33.6339 H         1 THR         0.1884
    138 H41        29.6020   35.0354   34.0088 H         1 THR         0.0826
    139 H42        28.1619   32.9851   33.6359 H         1 THR         0.0639
    140 H43        26.0592   34.9179   33.8719 H         1 THR         0.2101
    141 H44        27.1543   33.0704   35.8956 H         1 THR         0.0257
    142 H45        27.3779   34.8524   35.9269 H         1 THR         0.0257
    143 H46        28.8095   33.7681   35.8883 H         1 THR         0.0257
    144 H47        27.7959   36.6165   31.6959 H         1 C1J         0.1883
    145 H48        27.5959   36.5896   29.4538 H         1 C1J         0.0800
    146 H49        29.4516   35.5974   28.1038 H         1 C1J         0.0313
    147 H50        30.1654   34.9517   29.6204 H         1 C1J         0.0313
    148 H51        30.7407   37.0596   30.4113 H         1 C1J         0.0301
    149 H52        29.4185   37.8763   29.5104 H         1 C1J         0.0301
    150 H53        30.5793   37.6636   27.4409 H         1 C1J         0.0689
    151 H54        31.7918   36.5507   28.1606 H         1 C1J         0.0689
    152 H55        31.7268   39.1645   29.5184 H         1 C1J         0.2642
    153 H56        34.3649   38.3123   26.3695 H         1 C1J         0.2615
    154 H57        32.9463   37.2579   26.6115 H         1 C1J         0.2615
    155 H58        34.8136   40.0363   27.6580 H         1 C1J         0.2642
    156 H59        34.5245   39.4494   30.7880 H         1 C1J         0.0299
    157 H60        34.3458   41.1428   31.3600 H         1 C1J         0.0299
    158 H61        32.6410   40.6410   29.6910 H         1 C1J         0.0689
    159 H62        33.8091   41.8372   29.0342 H         1 C1J         0.0689
    160 H63        36.1396   41.8619   29.8576 H         1 C1J         0.0266
    161 H64        36.2950   40.1905   29.2181 H         1 C1J         0.0266
    162 H65        37.8134   41.2008   31.2881 H         1 C1J         0.0265
    163 H66        37.4556   39.4551   31.0612 H         1 C1J         0.0265
    164 H67        35.2309   40.7157   32.4640 H         1 C1J         0.0265
    165 H68        36.7668   41.1215   33.3025 H         1 C1J         0.0265
    166 H69        37.1956   38.9514   33.8582 H         1 C1J         0.0265
    167 H70        36.4225   38.3040   32.3716 H         1 C1J         0.0265
    168 H71        34.1788   38.8589   33.2856 H         1 C1J         0.0263
    169 H72        34.9412   39.5363   34.7643 H         1 C1J         0.0263
    170 H73        34.1561   37.2246   35.1370 H         1 C1J         0.0230
    171 H74        35.9451   37.3340   35.2555 H         1 C1J         0.0230
    172 H75        35.1827   36.6566   33.7768 H         1 C1J         0.0230
    173 H76        26.2347   34.5283   31.0338 H         1 ARG         0.1883
    174 H77        26.0240   32.4846   28.8751 H         1 ARG         0.0800
    175 H78        25.4342   30.8289   30.6673 H         1 ARG         0.0313
    176 H79        25.9050   32.0572   31.8906 H         1 ARG         0.0313
    177 H80        27.7262   30.5126   31.5950 H         1 ARG         0.0301
    178 H81        28.1926   32.0973   30.8894 H         1 ARG         0.0301
    179 H82        28.8391   30.1348   29.4760 H         1 ARG         0.0689
    180 H83        27.7480   31.2961   28.6468 H         1 ARG         0.0689
    181 H84        26.1140   29.6518   28.5087 H         1 ARG         0.2642
    182 H85        27.9537   27.0311   31.0131 H         1 ARG         0.2615
    183 H86        28.6045   28.6833   30.8408 H         1 ARG         0.2615
    184 H87        25.2980   27.5539   28.7336 H         1 ARG         0.2615
    185 H88        26.0955   26.3998   29.8357 H         1 ARG         0.2615
    186 H89        23.9305   31.4907   28.6376 H         1 LEU         0.1883
    187 H90        21.7569   33.3602   29.0585 H         1 LEU         0.0800
    188 H91        20.3470   31.5889   28.0891 H         1 LEU         0.0315
    189 H92        21.7246   30.4404   28.1875 H         1 LEU         0.0315
    190 H93        22.9996   31.8408   26.6125 H         1 LEU         0.0298
    191 H94        21.6584   31.3530   24.5948 H         1 LEU         0.0232
    192 H95        20.2160   31.0731   25.6280 H         1 LEU         0.0232
    193 H96        21.6408   29.9875   25.7617 H         1 LEU         0.0232
    194 H97        21.9728   34.0168   27.1884 H         1 LEU         0.0232
    195 H98        20.4393   33.4925   26.4136 H         1 LEU         0.0232
    196 H99        21.9228   33.6971   25.4215 H         1 LEU         0.0232
    197 H100       20.2154   33.3910   30.6178 H         1 LYS         0.1875
    198 H101       20.4780   31.3213   32.7519 H         1 LYS         0.0726
    199 H102       20.0051   34.2758   33.2912 H         1 LYS         0.0305
    200 H103       21.6458   33.5468   33.2317 H         1 LYS         0.0305
    201 H104       20.3841   31.8525   34.9725 H         1 LYS         0.0269
    202 H105       19.5499   33.4027   35.3298 H         1 LYS         0.0269
    203 H106       21.8109   34.4968   35.5175 H         1 LYS         0.0317
    204 H107       22.5578   32.8729   35.3389 H         1 LYS         0.0317
    205 H108       22.5216   33.1184   37.6418 H         1 LYS         0.0813
    206 H109       20.9821   32.2403   37.3491 H         1 LYS         0.0813
    207 H110       20.6893   34.0945   38.8394 H         1 LYS         0.1994
    208 H111       19.8455   34.3534   37.4500 H         1 LYS         0.1994
    209 H112       21.2562   35.1579   37.7182 H         1 LYS         0.1994
@<TRIPOS>BOND
     1    1    2 1  
     2    2    3 1  
     3    2    5 1  
     4    3    4 2  
     5    3   10 am 
     6    5    6 1  
     7    6    7 1  
     8    7    8 2  
     9    7    9 am 
    10   10   11 1  
    11   11   12 1  
    12   11   14 1  
    13   12   13 2  
    14   12   21 am 
    15   14   15 1  
    16   15   16 ar 
    17   15   17 ar 
    18   16   18 ar 
    19   17   19 ar 
    20   18   20 ar 
    21   19   20 ar 
    22   21   22 1  
    23   22   23 1  
    24   22   25 1  
    25   23   24 2  
    26   23   29 am 
    27   25   26 1  
    28   26   27 ar 
    29   26   28 ar 
    30   29   30 1  
    31   30   31 1  
    32   30   33 1  
    33   31   32 2  
    34   31   37 am 
    35   33   34 1  
    36   34   35 1  
    37   34   36 1  
    38   37   38 1  
    39   38   39 1  
    40   38   41 1  
    41   39   40 2  
    42   39   43 am 
    43   41   42 1  
    44   43   44 1  
    45   44   45 1  
    46   44   47 1  
    47   45   46 2  
    48   45   50 am 
    49   47   48 1  
    50   47   49 1  
    51   50   51 1  
    52   51   52 1  
    53   51   54 1  
    54   52   53 2  
    55   52   69 am 
    56   54   55 1  
    57   55   56 1  
    58   56   57 1  
    59   57   58 ar 
    60   58   59 ar 
    61   58   60 ar 
    62   60   62 1  
    63   62   61 1  
    64   61   63 1  
    65   63   64 1  
    66   64   65 1  
    67   65   66 1  
    68   66   67 1  
    69   67   68 1  
    70   69   70 1  
    71   70   71 1  
    72   70   73 1  
    73   71   72 2  
    74   71   80 am 
    75   73   74 1  
    76   74   75 1  
    77   75   76 1  
    78   76   77 ar 
    79   77   78 ar 
    80   77   79 ar 
    81   80   81 1  
    82   81   82 1  
    83   81   84 1  
    84   82   83 2  
    85   82   88 am 
    86   84   85 1  
    87   85   86 1  
    88   85   87 1  
    89   88   89 1  
    90   89   90 1  
    91   89   92 1  
    92   90   91 ar 
    93   90   97 ar 
    94   92   93 1  
    95   93   94 1  
    96   94   95 1  
    97   95   96 1  
    98    1   98 1  
    99    1   99 1  
   100    1  100 1  
   101    2  101 1  
   102    5  102 1  
   103    5  103 1  
   104    6  104 1  
   105    6  105 1  
   106    9  106 1  
   107    9  107 1  
   108   10  108 1  
   109   11  109 1  
   110   14  110 1  
   111   14  111 1  
   112   16  112 1  
   113   17  113 1  
   114   18  114 1  
   115   19  115 1  
   116   20  116 1  
   117   21  117 1  
   118   22  118 1  
   119   25  119 1  
   120   25  120 1  
   121   29  121 1  
   122   30  122 1  
   123   33  123 1  
   124   33  124 1  
   125   34  125 1  
   126   35  126 1  
   127   35  127 1  
   128   35  128 1  
   129   36  129 1  
   130   36  130 1  
   131   36  131 1  
   132   37  132 1  
   133   38  133 1  
   134   41  134 1  
   135   41  135 1  
   136   42  136 1  
   137   43  137 1  
   138   44  138 1  
   139   47  139 1  
   140   48  140 1  
   141   49  141 1  
   142   49  142 1  
   143   49  143 1  
   144   50  144 1  
   145   51  145 1  
   146   54  146 1  
   147   54  147 1  
   148   55  148 1  
   149   55  149 1  
   150   56  150 1  
   151   56  151 1  
   152   57  152 1  
   153   59  153 1  
   154   59  154 1  
   155   60  155 1  
   156   61  156 1  
   157   61  157 1  
   158   62  158 1  
   159   62  159 1  
   160   63  160 1  
   161   63  161 1  
   162   64  162 1  
   163   64  163 1  
   164   65  164 1  
   165   65  165 1  
   166   66  166 1  
   167   66  167 1  
   168   67  168 1  
   169   67  169 1  
   170   68  170 1  
   171   68  171 1  
   172   68  172 1  
   173   69  173 1  
   174   70  174 1  
   175   73  175 1  
   176   73  176 1  
   177   74  177 1  
   178   74  178 1  
   179   75  179 1  
   180   75  180 1  
   181   76  181 1  
   182   78  182 1  
   183   78  183 1  
   184   79  184 1  
   185   79  185 1  
   186   80  186 1  
   187   81  187 1  
   188   84  188 1  
   189   84  189 1  
   190   85  190 1  
   191   86  191 1  
   192   86  192 1  
   193   86  193 1  
   194   87  194 1  
   195   87  195 1  
   196   87  196 1  
   197   88  197 1  
   198   89  198 1  
   199   92  199 1  
   200   92  200 1  
   201   93  201 1  
   202   93  202 1  
   203   94  203 1  
   204   94  204 1  
   205   95  205 1  
   206   95  206 1  
   207   96  207 1  
   208   96  208 1  
   209   96  209 1  
@<TRIPOS>SUBSTRUCTURE
     1 GLN         1

