6axp_ligand
  -I-interpret- 

209209  0  0  0  0  0  0  0  0999 V2000
   17.7170   34.1380   28.3970 N   0  3  0  0  0
   18.0800   35.5390   28.5810 C   0  0  0  0  0
   19.5400   35.6490   29.0040 C   0  0  0  0  0
   19.9990   34.9490   29.9100 O   0  0  0  0  0
   17.1590   36.2050   29.6060 C   0  0  0  0  0
   17.7230   37.4650   30.2550 C   0  0  0  0  0
   16.8220   38.6730   30.0700 C   0  0  0  0  0
   15.8950   38.6500   29.2600 O   0  0  0  0  0
   17.0930   39.7370   30.8200 N   0  0  0  0  0
   20.2610   36.5360   28.3310 N   0  0  0  0  0
   21.7010   36.6370   28.4950 C   0  0  0  0  0
   22.0530   37.4420   29.7410 C   0  0  0  0  0
   21.4710   38.5000   30.0020 O   0  0  0  0  0
   22.3100   37.2710   27.2460 C   0  0  0  0  0
   23.7930   37.4470   27.3160 C   0  0  0  0  0
   24.6430   36.3620   27.1750 C   0  0  0  0  0
   24.3400   38.7030   27.5020 C   0  0  0  0  0
   26.0100   36.5290   27.2320 C   0  0  0  0  0
   25.7100   38.8730   27.5580 C   0  0  0  0  0
   26.5450   37.7850   27.4250 C   0  0  0  0  0
   23.0230   36.9360   30.5050 N   0  0  0  0  0
   23.4520   37.5280   31.7680 C   0  0  0  0  0
   24.8840   38.0300   31.6290 C   0  0  0  0  0
   25.7870   37.2560   31.2930 O   0  0  0  0  0
   23.3410   36.5140   32.9060 C   0  0  0  0  0
   24.1170   36.9310   34.1400 C   0  0  0  0  0
   24.0000   38.1040   34.5500 O   0  0  0  0  0
   24.8350   36.0780   34.7070 O   0  0  0  0  0
   25.0900   39.3190   31.9140 N   0  0  0  0  0
   26.3820   39.9550   31.6770 C   0  0  0  0  0
   27.4330   39.5530   32.7010 C   0  0  0  0  0
   28.6270   39.7260   32.4430 O   0  0  0  0  0
   26.2230   41.4760   31.6730 C   0  0  0  0  0
   25.2210   42.0250   30.6590 C   0  0  0  0  0
   24.9170   43.4700   30.9620 C   0  0  0  0  0
   25.7600   41.8850   29.2520 C   0  0  0  0  0
   27.0240   39.0220   33.8510 N   0  0  0  0  0
   27.9990   38.6160   34.8560 C   0  0  0  0  0
   28.7260   37.3370   34.4460 C   0  0  0  0  0
   29.9350   37.2110   34.6600 O   0  0  0  0  0
   27.3050   38.4400   36.2060 C   0  0  0  0  0
   26.5820   39.6070   36.5540 O   0  0  0  0  0
   28.0180   36.3810   33.8540 N   0  0  0  0  0
   28.6190   35.0890   33.5180 C   0  0  0  0  0
   28.8180   34.9170   32.0190 C   0  0  0  0  0
   29.4870   33.9730   31.5740 O   0  0  0  0  0
   27.7570   33.9330   34.0200 C   0  0  0  0  0
   26.4100   34.0970   33.5470 O   0  0  0  0  0
   27.7760   33.9040   35.5370 C   0  0  0  0  0
   28.2210   35.8260   31.2550 N   0  0  0  0  0
   28.1600   35.7230   29.8290 C   0  0  0  0  0
   27.4340   34.4760   29.4170 C   0  0  0  0  0
   27.8060   33.9090   28.3400 O   0  0  0  0  0
   29.5450   35.7510   29.1890 C   0  0  0  0  0
   30.1950   37.0990   29.4570 C   0  0  0  0  0
   31.1480   37.4220   28.3510 C   0  0  0  0  0
   31.9830   38.5690   28.7180 N   0  0  0  0  0
   33.1220   38.8440   27.9760 C   0  0  0  0  0
   33.5110   38.0720   26.8930 N   0  0  0  0  0
   33.9760   39.8890   28.2390 N   0  0  0  0  0
   34.6150   40.5080   30.5030 C   0  0  0  0  0
   33.6790   40.7950   29.3610 C   0  0  0  0  0
   36.0410   40.7940   30.1020 C   0  0  0  0  0
   37.0150   40.4450   31.2510 C   0  0  0  0  0
   36.2800   40.4190   32.6100 C   0  0  0  0  0
   36.3310   39.0400   33.1840 C   0  0  0  0  0
   35.0400   38.7860   33.9660 C   0  0  0  0  0
   35.0840   37.4070   34.5750 C   0  0  0  0  0
   26.4660   34.0220   30.2030 N   0  0  0  0  0
   25.7330   32.8060   29.8860 C   0  0  0  0  0
   24.2310   33.0430   29.8980 C   0  0  0  0  0
   23.7450   33.9710   30.5410 O   0  0  0  0  0
   26.0880   31.6900   30.8700 C   0  0  0  0  0
   27.5300   31.2260   30.7810 C   0  0  0  0  0
   27.8200   30.5480   29.4500 C   0  0  0  0  0
   26.8790   29.4660   29.1730 N   0  0  0  0  0
   26.9450   28.2570   29.7220 C   0  0  0  0  0
   27.9060   27.9690   30.5900 N   0  0  0  0  0
   26.0460   27.3350   29.4070 N   0  0  0  0  0
   23.4880   32.2010   29.1850 N   0  0  0  0  0
   22.0360   32.3050   29.1950 C   0  0  0  0  0
   21.4900   31.8280   30.5370 C   0  0  0  0  0
   21.9010   30.7840   31.0510 O   0  0  0  0  0
   21.4420   31.4940   28.0460 C   0  0  0  0  0
   21.9040   31.9290   26.6550 C   0  0  0  0  0
   21.3140   31.0230   25.5860 C   0  0  0  0  0
   21.5340   33.3850   26.4020 C   0  0  0  0  0
   20.5730   32.5980   31.1110 N   0  0  0  0  0
   20.0810   32.3020   32.4510 C   0  0  0  0  0
   18.5600   32.2300   32.4910 C   0  0  0  0  0
   17.9750   31.1750   32.2440 O   0  0  0  0  0
   20.5840   33.3530   33.4440 C   0  0  0  0  0
   20.4570   32.9480   34.9050 C   0  0  0  0  0
   21.6720   33.4200   35.6940 C   0  0  0  0  0
   21.5210   33.1860   37.1900 C   0  0  0  0  0
   20.7670   34.2870   37.8530 N   0  3  0  0  0
   17.8920   33.2260   32.7710 O   0  0  0  0  0
   18.3416   33.7134   27.7114 H   0  0  0  0  0
   17.8020   33.6463   29.2866 H   0  0  0  0  0
   16.7545   34.0782   28.0647 H   0  0  0  0  0
   17.9560   36.0621   27.6328 H   0  0  0  0  0
   17.0026   35.4815   30.4061 H   0  0  0  0  0
   16.2564   36.5025   29.0722 H   0  0  0  0  0
   18.6798   37.6856   29.7818 H   0  0  0  0  0
   17.8160   37.2775   31.3247 H   0  0  0  0  0
   16.5224   40.5784   30.7367 H   0  0  0  0  0
   17.8715   39.7118   31.4786 H   0  0  0  0  0
   19.7911   37.1650   27.6799 H   0  0  0  0  0
   22.1149   35.6370   28.6248 H   0  0  0  0  0
   21.8710   38.2630   27.1397 H   0  0  0  0  0
   22.1024   36.6031   26.4100 H   0  0  0  0  0
   24.2268   35.3670   27.0175 H   0  0  0  0  0
   23.6842   39.5674   27.6055 H   0  0  0  0  0
   26.6687   35.6673   27.1244 H   0  0  0  0  0
   26.1302   39.8676   27.7074 H   0  0  0  0  0
   27.6259   37.9170   27.4723 H   0  0  0  0  0
   23.4913   36.0871   30.1882 H   0  0  0  0  0
   22.8009   38.3683   32.0089 H   0  0  0  0  0
   23.7553   35.5693   32.5538 H   0  0  0  0  0
   22.2896   36.4357   33.1827 H   0  0  0  0  0
   24.7808   35.2471   34.2292 H   0  0  0  0  0
   24.3271   39.8710   32.3060 H   0  0  0  0  0
   26.7309   39.6107   30.7034 H   0  0  0  0  0
   27.1953   41.8907   31.4069 H   0  0  0  0  0
   25.8524   41.7536   32.6597 H   0  0  0  0  0
   24.2989   41.4485   30.7330 H   0  0  0  0  0
   24.4934   43.5486   31.9632 H   0  0  0  0  0
   25.8368   44.0524   30.9085 H   0  0  0  0  0
   24.2018   43.8502   30.2326 H   0  0  0  0  0
   26.6935   42.4410   29.1649 H   0  0  0  0  0
   25.9414   40.8319   29.0369 H   0  0  0  0  0
   25.0320   42.2816   28.5443 H   0  0  0  0  0
   26.0273   38.8990   34.0293 H   0  0  0  0  0
   28.7513   39.4000   34.9425 H   0  0  0  0  0
   28.0610   38.2536   36.9688 H   0  0  0  0  0
   26.6105   37.6027   36.1383 H   0  0  0  0  0
   26.1545   39.4758   37.4035 H   0  0  0  0  0
   27.0376   36.5505   33.6295 H   0  0  0  0  0
   29.5917   35.0747   34.0096 H   0  0  0  0  0
   28.1552   32.9913   33.6422 H   0  0  0  0  0
   25.8700   33.3692   33.8638 H   0  0  0  0  0
   28.8006   33.7693   35.8837 H   0  0  0  0  0
   27.3814   34.8443   35.9221 H   0  0  0  0  0
   27.1597   33.0776   35.8911 H   0  0  0  0  0
   27.7874   36.6323   31.7047 H   0  0  0  0  0
   27.6110   36.5947   29.4729 H   0  0  0  0  0
   29.4533   35.5974   28.1138 H   0  0  0  0  0
   30.1599   34.9582   29.6149 H   0  0  0  0  0
   30.7358   37.0598   30.4026 H   0  0  0  0  0
   29.4255   37.8692   29.5098 H   0  0  0  0  0
   30.5810   37.6674   27.4530 H   0  0  0  0  0
   31.7886   36.5589   28.1698 H   0  0  0  0  0
   31.7292   39.1587   29.5106 H   0  0  0  0  0
   32.9518   37.2658   26.6143 H   0  0  0  0  0
   34.8055   40.0349   27.6636 H   0  0  0  0  0
   34.5281   39.4564   30.7764 H   0  0  0  0  0
   34.3499   41.1450   31.3468 H   0  0  0  0  0
   32.6507   40.6412   29.6882 H   0  0  0  0  0
   33.8092   41.8275   29.0369 H   0  0  0  0  0
   36.1352   41.8552   29.8715 H   0  0  0  0  0
   36.2904   40.1855   29.2328 H   0  0  0  0  0
   37.7964   41.2039   31.2901 H   0  0  0  0  0
   37.4387   39.4584   31.0632 H   0  0  0  0  0
   35.2401   40.7114   32.4640 H   0  0  0  0  0
   36.7642   41.1140   33.2960 H   0  0  0  0  0
   37.1905   38.9468   33.8479 H   0  0  0  0  0
   36.4281   38.3084   32.3819 H   0  0  0  0  0
   34.1866   38.8583   33.2917 H   0  0  0  0  0
   34.9422   39.5295   34.7570 H   0  0  0  0  0
   35.1819   36.6644   33.7831 H   0  0  0  0  0
   35.9377   37.3359   35.2490 H   0  0  0  0  0
   34.1641   37.2275   35.1315 H   0  0  0  0  0
   26.2300   34.5384   31.0504 H   0  0  0  0  0
   26.0244   32.5027   28.8804 H   0  0  0  0  0
   25.4571   30.8341   30.6302 H   0  0  0  0  0
   25.9361   32.0839   31.8749 H   0  0  0  0  0
   27.7099   30.5067   31.5800 H   0  0  0  0  0
   28.1781   32.0977   30.8716 H   0  0  0  0  0
   28.8237   30.1251   29.4936 H   0  0  0  0  0
   27.7264   31.2928   28.6597 H   0  0  0  0  0
   26.1215   29.6500   28.5152 H   0  0  0  0  0
   27.9510   27.0414   31.0119 H   0  0  0  0  0
   28.5999   28.6751   30.8355 H   0  0  0  0  0
   25.3030   27.5530   28.7430 H   0  0  0  0  0
   23.9394   31.4765   28.6266 H   0  0  0  0  0
   21.7507   33.3480   29.0579 H   0  0  0  0  0
   20.3618   31.6358   28.0814 H   0  0  0  0  0
   21.7687   30.4630   28.1819 H   0  0  0  0  0
   22.9894   31.8414   26.6077 H   0  0  0  0  0
   21.6385   29.9973   25.7613 H   0  0  0  0  0
   20.2260   31.0735   25.6287 H   0  0  0  0  0
   21.6560   31.3509   24.6044 H   0  0  0  0  0
   20.4522   33.5006   26.4691 H   0  0  0  0  0
   22.0151   34.0159   27.1493 H   0  0  0  0  0
   21.8708   33.6766   25.4072 H   0  0  0  0  0
   20.2082   33.4069   30.6080 H   0  0  0  0  0
   20.4674   31.3231   32.7349 H   0  0  0  0  0
   19.9719   34.2440   33.3045 H   0  0  0  0  0
   21.6453   33.5005   33.2438 H   0  0  0  0  0
   20.3925   31.8617   34.9682 H   0  0  0  0  0
   19.5613   33.4064   35.3241 H   0  0  0  0  0
   21.7839   34.4918   35.5305 H   0  0  0  0  0
   22.5374   32.8534   35.3503 H   0  0  0  0  0
   22.5170   33.1411   37.6305 H   0  0  0  0  0
   20.9684   32.2579   37.3361 H   0  0  0  0  0
   20.6890   34.0911   38.8510 H   0  0  0  0  0
   21.2629   35.1677   37.7159 H   0  0  0  0  0
   19.8348   34.3532   37.4444 H   0  0  0  0  0
   18.4790   33.9671   32.9378 H   0  0  0  0  0
  1  2  1  0  0  0
  2  3  1  0  0  0
  2  5  1  0  0  0
  3  4  2  0  0  0
  3 10  1  0  0  0
  5  6  1  0  0  0
  6  7  1  0  0  0
  7  8  2  0  0  0
  7  9  1  0  0  0
 10 11  1  0  0  0
 11 12  1  0  0  0
 11 14  1  0  0  0
 12 13  2  0  0  0
 12 21  1  0  0  0
 14 15  1  0  0  0
 15 16  4  0  0  0
 15 17  4  0  0  0
 16 18  4  0  0  0
 17 19  4  0  0  0
 18 20  4  0  0  0
 19 20  4  0  0  0
 21 22  1  0  0  0
 22 23  1  0  0  0
 22 25  1  0  0  0
 23 24  2  0  0  0
 23 29  1  0  0  0
 25 26  1  0  0  0
 26 27  2  0  0  0
 26 28  1  0  0  0
 29 30  1  0  0  0
 30 31  1  0  0  0
 30 33  1  0  0  0
 31 32  2  0  0  0
 31 37  1  0  0  0
 33 34  1  0  0  0
 34 35  1  0  0  0
 34 36  1  0  0  0
 37 38  1  0  0  0
 38 39  1  0  0  0
 38 41  1  0  0  0
 39 40  2  0  0  0
 39 43  1  0  0  0
 41 42  1  0  0  0
 43 44  1  0  0  0
 44 45  1  0  0  0
 44 47  1  0  0  0
 45 46  2  0  0  0
 45 50  1  0  0  0
 47 48  1  0  0  0
 47 49  1  0  0  0
 50 51  1  0  0  0
 51 52  1  0  0  0
 51 54  1  0  0  0
 52 53  2  0  0  0
 52 69  1  0  0  0
 54 55  1  0  0  0
 55 56  1  0  0  0
 56 57  1  0  0  0
 57 58  1  0  0  0
 58 59  2  0  0  0
 58 60  1  0  0  0
 60 62  1  0  0  0
 62 61  1  0  0  0
 61 63  1  0  0  0
 63 64  1  0  0  0
 64 65  1  0  0  0
 65 66  1  0  0  0
 66 67  1  0  0  0
 67 68  1  0  0  0
 69 70  1  0  0  0
 70 71  1  0  0  0
 70 73  1  0  0  0
 71 72  2  0  0  0
 71 80  1  0  0  0
 73 74  1  0  0  0
 74 75  1  0  0  0
 75 76  1  0  0  0
 76 77  1  0  0  0
 77 78  1  0  0  0
 77 79  2  0  0  0
 80 81  1  0  0  0
 81 82  1  0  0  0
 81 84  1  0  0  0
 82 83  2  0  0  0
 82 88  1  0  0  0
 84 85  1  0  0  0
 85 86  1  0  0  0
 85 87  1  0  0  0
 88 89  1  0  0  0
 89 90  1  0  0  0
 89 92  1  0  0  0
 90 91  2  0  0  0
 90 97  1  0  0  0
 92 93  1  0  0  0
 93 94  1  0  0  0
 94 95  1  0  0  0
 95 96  1  0  0  0
  1 98  1  0  0  0
  1 99  1  0  0  0
  1100  1  0  0  0
  2101  1  0  0  0
  5102  1  0  0  0
  5103  1  0  0  0
  6104  1  0  0  0
  6105  1  0  0  0
  9106  1  0  0  0
  9107  1  0  0  0
 10108  1  0  0  0
 11109  1  0  0  0
 14110  1  0  0  0
 14111  1  0  0  0
 16112  1  0  0  0
 17113  1  0  0  0
 18114  1  0  0  0
 19115  1  0  0  0
 20116  1  0  0  0
 21117  1  0  0  0
 22118  1  0  0  0
 25119  1  0  0  0
 25120  1  0  0  0
 28121  1  0  0  0
 29122  1  0  0  0
 30123  1  0  0  0
 33124  1  0  0  0
 33125  1  0  0  0
 34126  1  0  0  0
 35127  1  0  0  0
 35128  1  0  0  0
 35129  1  0  0  0
 36130  1  0  0  0
 36131  1  0  0  0
 36132  1  0  0  0
 37133  1  0  0  0
 38134  1  0  0  0
 41135  1  0  0  0
 41136  1  0  0  0
 42137  1  0  0  0
 43138  1  0  0  0
 44139  1  0  0  0
 47140  1  0  0  0
 48141  1  0  0  0
 49142  1  0  0  0
 49143  1  0  0  0
 49144  1  0  0  0
 50145  1  0  0  0
 51146  1  0  0  0
 54147  1  0  0  0
 54148  1  0  0  0
 55149  1  0  0  0
 55150  1  0  0  0
 56151  1  0  0  0
 56152  1  0  0  0
 57153  1  0  0  0
 59154  1  0  0  0
 60155  1  0  0  0
 61156  1  0  0  0
 61157  1  0  0  0
 62158  1  0  0  0
 62159  1  0  0  0
 63160  1  0  0  0
 63161  1  0  0  0
 64162  1  0  0  0
 64163  1  0  0  0
 65164  1  0  0  0
 65165  1  0  0  0
 66166  1  0  0  0
 66167  1  0  0  0
 67168  1  0  0  0
 67169  1  0  0  0
 68170  1  0  0  0
 68171  1  0  0  0
 68172  1  0  0  0
 69173  1  0  0  0
 70174  1  0  0  0
 73175  1  0  0  0
 73176  1  0  0  0
 74177  1  0  0  0
 74178  1  0  0  0
 75179  1  0  0  0
 75180  1  0  0  0
 76181  1  0  0  0
 78182  1  0  0  0
 78183  1  0  0  0
 79184  1  0  0  0
 80185  1  0  0  0
 81186  1  0  0  0
 84187  1  0  0  0
 84188  1  0  0  0
 85189  1  0  0  0
 86190  1  0  0  0
 86191  1  0  0  0
 86192  1  0  0  0
 87193  1  0  0  0
 87194  1  0  0  0
 87195  1  0  0  0
 88196  1  0  0  0
 89197  1  0  0  0
 92198  1  0  0  0
 92199  1  0  0  0
 93200  1  0  0  0
 93201  1  0  0  0
 94202  1  0  0  0
 94203  1  0  0  0
 95204  1  0  0  0
 95205  1  0  0  0
 96206  1  0  0  0
 96207  1  0  0  0
 96208  1  0  0  0
 97209  1  0  0  0
M  END
$$$$
