5csp_ligand
  -I-interpret- 

 19 19  0  0  0  0  0  0  0  0999 V2000
   93.0240   16.1560  131.5040 C   0  0  0  0  0
   92.7400   13.8610  130.9270 C   0  0  0  0  0
   92.3560   12.1020  132.6960 C   0  0  0  0  0
   92.6180   13.5150  132.2790 C   0  0  0  0  0
   92.7390   14.5270  133.2480 C   0  0  0  0  0
   92.9240   15.8430  132.8490 C   0  0  0  0  0
   92.3440   11.7790  133.8720 O   0  0  0  0  0
   92.1640   11.2640  131.7240 O   0  0  0  0  0
   92.6180   14.2750  134.5830 O   0  0  0  0  0
   92.9520   15.1730  130.5240 C   0  0  0  0  0
   93.1770   15.5060  129.0750 C   0  0  0  0  0
   93.1622   17.1957  131.2073 H   0  0  0  0  0
   92.6665   13.0793  130.1709 H   0  0  0  0  0
   92.9908   16.6331  133.5970 H   0  0  0  0  0
   92.2157   11.7300  130.8863 H   0  0  0  0  0
   92.7326   15.0923  135.0734 H   0  0  0  0  0
   92.4384   16.2402  128.7533 H   0  0  0  0  0
   94.1786   15.9173  128.9493 H   0  0  0  0  0
   93.0766   14.6011  128.4757 H   0  0  0  0  0
  1  6  4  0  0  0
 10  1  4  0  0  0
  2  4  4  0  0  0
  2 10  4  0  0  0
  4  3  1  0  0  0
  3  7  2  0  0  0
  3  8  1  0  0  0
  4  5  4  0  0  0
  5  6  4  0  0  0
  5  9  1  0  0  0
 10 11  1  0  0  0
  1 12  1  0  0  0
  2 13  1  0  0  0
  6 14  1  0  0  0
  8 15  1  0  0  0
  9 16  1  0  0  0
 11 17  1  0  0  0
 11 18  1  0  0  0
 11 19  1  0  0  0
M  END
$$$$
