3qnj_ligand
  -I-interpret- 

145149  0  0  0  0  0  0  0  0999 V2000
   -8.6030  -29.1640    2.4430 N   0  3  0  0  0
   -8.9380  -30.0320    1.2750 C   0  0  0  0  0
   -7.6510  -30.4960    0.5240 C   0  0  0  0  0
   -6.7040  -29.7020    0.3560 O   0  0  0  0  0
   -9.9750  -29.3370    0.3400 C   0  0  0  0  0
   -9.4440  -28.7880   -1.0240 C   0  0  0  0  0
  -10.5980  -28.3650   -1.9610 C   0  0  0  0  0
  -10.0860  -28.0100   -3.3700 C   0  0  0  0  0
  -11.1850  -27.7090   -4.3400 N   0  3  0  0  0
   -7.6150  -31.7890    0.1090 N   0  0  0  0  0
   -6.5080  -32.4210   -0.6350 C   0  0  0  0  0
   -5.8960  -31.5760   -1.7700 C   0  0  0  0  0
   -6.6240  -31.0540   -2.5940 O   0  0  0  0  0
   -7.1520  -33.6890   -1.1880 C   0  0  0  0  0
   -8.1530  -34.0750   -0.1140 C   0  0  0  0  0
   -8.6160  -32.7920    0.5450 C   0  0  0  0  0
   -4.5610  -31.4120   -1.7880 N   0  0  0  0  0
   -3.8890  -30.8330   -2.9530 C   0  0  0  0  0
   -3.7580  -31.8460   -4.0990 C   0  0  0  0  0
   -4.0180  -33.0750   -3.9840 O   0  0  0  0  0
   -2.5010  -30.4300   -2.4110 C   0  0  0  0  0
   -2.6280  -30.3970   -0.9620 C   0  0  0  0  0
   -3.6150  -31.5450   -0.6670 C   0  0  0  0  0
   -3.4210  -31.3030   -5.2360 N   0  0  0  0  0
   -3.5090  -32.0480   -6.4470 C   0  0  0  0  0
   -2.0950  -32.5060   -6.8540 C   0  0  0  0  0
   -1.1200  -31.7590   -6.7530 O   0  0  0  0  0
   -4.1250  -31.1060   -7.4480 C   0  0  0  0  0
   -5.5340  -30.6810   -7.0930 C   0  0  0  0  0
   -6.5830  -31.5850   -7.1640 C   0  0  0  0  0
   -5.8280  -29.3600   -6.7450 C   0  0  0  0  0
   -7.9110  -31.1960   -6.8540 C   0  0  0  0  0
   -7.1370  -28.9580   -6.4180 C   0  0  0  0  0
   -8.1740  -29.8840   -6.4740 C   0  0  0  0  0
   -9.4940  -29.5150   -6.1800 O   0  0  0  0  0
   -1.9490  -33.7120   -7.3420 N   0  0  0  0  0
   -0.6440  -34.0950   -7.8340 C   0  0  0  0  0
   -0.4530  -33.4910   -9.2170 C   0  0  0  0  0
   -1.3930  -32.9290   -9.7290 O   0  0  0  0  0
   -0.5470  -35.5830   -7.8620 C   0  0  0  0  0
   -0.5830  -35.9910   -6.4170 C   0  0  0  0  0
   -0.8730  -37.4990   -6.4080 C   0  0  0  0  0
    0.7230  -35.6930   -5.7810 C   0  0  0  0  0
    0.7690  -33.5250   -9.7880 N   0  0  0  0  0
    0.8140  -32.9590  -11.1400 C   0  0  0  0  0
   -0.2770  -33.6230  -11.9610 C   0  0  0  0  0
   -0.8940  -34.5800  -11.5080 O   0  0  0  0  0
    2.1820  -33.3830  -11.6630 C   0  0  0  0  0
    3.0200  -33.4270  -10.4030 C   0  0  0  0  0
    2.1150  -33.8170   -9.2690 C   0  0  0  0  0
   -0.5350  -33.1080  -13.1470 N   0  0  0  0  0
   -1.4090  -33.8350  -14.0290 C   0  0  0  0  0
   -0.5570  -34.3270  -15.2220 C   0  0  0  0  0
    0.6480  -34.0520  -15.2370 O   0  0  0  0  0
   -2.6430  -32.9900  -14.3620 C   0  0  0  0  0
   -2.3700  -31.9320  -15.3420 C   0  0  0  0  0
   -3.2140  -30.7430  -15.0660 C   0  0  0  0  0
   -2.3470  -29.5910  -15.1130 N   0  0  0  0  0
   -2.7250  -28.3790  -15.4620 C   0  0  0  0  0
   -3.9990  -28.1450  -15.7950 N   0  0  0  0  0
   -1.8160  -27.4020  -15.4470 N   0  0  0  0  0
   -1.1530  -35.0890  -16.1780 N   0  0  0  0  0
   -0.3650  -35.7320  -17.2560 C   0  0  0  0  0
    0.4580  -34.7500  -18.1160 C   0  0  0  0  0
    1.1930  -35.1830  -19.0260 O   0  0  0  0  0
   -1.4330  -36.4350  -18.1250 C   0  0  0  0  0
   -2.6410  -36.5530  -17.2810 C   0  0  0  0  0
   -2.5880  -35.4490  -16.2540 C   0  0  0  0  0
    0.3875  -33.5108  -17.8990 O   0  0  0  0  0
   -7.9247  -29.6415    3.0365 H   0  0  0  0  0
   -8.2059  -28.2856    2.1095 H   0  0  0  0  0
   -9.4504  -28.9740    2.9780 H   0  0  0  0  0
   -9.4155  -30.9389    1.6461 H   0  0  0  0  0
  -10.3366  -28.4683    0.8901 H   0  0  0  0  0
  -10.7084  -30.1028    0.0875 H   0  0  0  0  0
   -8.8771  -29.5793   -1.5144 H   0  0  0  0  0
   -8.8268  -27.9122   -0.8238 H   0  0  0  0  0
  -11.0787  -27.4831   -1.5377 H   0  0  0  0  0
  -11.2934  -29.1998   -2.0483 H   0  0  0  0  0
   -9.5389  -28.8732   -3.7491 H   0  0  0  0  0
   -9.4703  -27.1149   -3.2812 H   0  0  0  0  0
  -10.7819  -27.4828   -5.2492 H   0  0  0  0  0
  -11.7912  -28.5245   -4.4289 H   0  0  0  0  0
  -11.7284  -26.9153   -4.0007 H   0  0  0  0  0
   -5.6525  -32.5814    0.0212 H   0  0  0  0  0
   -6.4241  -34.4765   -1.3833 H   0  0  0  0  0
   -7.6212  -33.5302   -2.1589 H   0  0  0  0  0
   -7.6947  -34.7399    0.6181 H   0  0  0  0  0
   -8.9969  -34.6104   -0.5491 H   0  0  0  0  0
   -9.6305  -32.5191    0.2546 H   0  0  0  0  0
   -8.6706  -32.8792    1.6301 H   0  0  0  0  0
   -4.4436  -29.9950   -3.3753 H   0  0  0  0  0
   -2.1919  -29.4605   -2.8016 H   0  0  0  0  0
   -1.7349  -31.1397   -2.7233 H   0  0  0  0  0
   -2.9815  -29.4341   -0.5932 H   0  0  0  0  0
   -1.6722  -30.5239   -0.4537 H   0  0  0  0  0
   -3.1409  -32.5248   -0.6092 H   0  0  0  0  0
   -4.0864  -31.4749    0.3133 H   0  0  0  0  0
   -3.0920  -30.3378   -5.2582 H   0  0  0  0  0
   -4.1140  -32.9508   -6.3637 H   0  0  0  0  0
   -4.1723  -31.6292   -8.4030 H   0  0  0  0  0
   -3.5090  -30.2071   -7.4729 H   0  0  0  0  0
   -6.3832  -32.6138   -7.4637 H   0  0  0  0  0
   -5.0248  -28.6233   -6.7263 H   0  0  0  0  0
   -8.7220  -31.9218   -6.9132 H   0  0  0  0  0
   -7.3368  -27.9279   -6.1228 H   0  0  0  0  0
   -9.5187  -28.5870   -5.9354 H   0  0  0  0  0
   -2.7335  -34.3631   -7.3743 H   0  0  0  0  0
    0.1458  -33.7223   -7.1817 H   0  0  0  0  0
    0.3611  -35.9234   -8.3595 H   0  0  0  0  0
   -1.3581  -36.0340   -8.4336 H   0  0  0  0  0
   -1.3445  -35.4492   -5.8560 H   0  0  0  0  0
   -1.8305  -37.6865   -6.8940 H   0  0  0  0  0
   -0.0826  -38.0229   -6.9454 H   0  0  0  0  0
   -0.9111  -37.8542   -5.3782 H   0  0  0  0  0
    1.5100  -36.2460   -6.2938 H   0  0  0  0  0
    0.9240  -34.6239   -5.8504 H   0  0  0  0  0
    0.6917  -35.9908   -4.7329 H   0  0  0  0  0
    0.6690  -31.8793  -11.1775 H   0  0  0  0  0
    2.5799  -32.7017  -12.4151 H   0  0  0  0  0
    2.1587  -34.3357  -12.1920 H   0  0  0  0  0
    3.4709  -32.4532  -10.2120 H   0  0  0  0  0
    3.8291  -34.1496  -10.5095 H   0  0  0  0  0
    2.2339  -34.8611   -8.9796 H   0  0  0  0  0
    2.3363  -33.2721   -8.3513 H   0  0  0  0  0
   -0.1260  -32.2180  -13.4317 H   0  0  0  0  0
   -1.8362  -34.7287  -13.5742 H   0  0  0  0  0
   -2.9740  -32.5104  -13.4409 H   0  0  0  0  0
   -3.3926  -33.6542  -14.7923 H   0  0  0  0  0
   -2.5971  -32.3052  -16.3406 H   0  0  0  0  0
   -1.3203  -31.6465  -15.2739 H   0  0  0  0  0
   -3.6916  -30.8270  -14.0898 H   0  0  0  0  0
   -4.0115  -30.6561  -15.8040 H   0  0  0  0  0
   -1.3688  -29.7253  -14.8569 H   0  0  0  0  0
   -4.2957  -27.2018  -16.0455 H   0  0  0  0  0
   -4.6739  -28.9097  -15.7985 H   0  0  0  0  0
   -0.8553  -27.6035  -15.1698 H   0  0  0  0  0
    0.3834  -36.4004  -16.8303 H   0  0  0  0  0
   -1.0876  -37.4147  -18.4551 H   0  0  0  0  0
   -1.6407  -35.8639  -19.0299 H   0  0  0  0  0
   -2.6701  -37.5267  -16.7920 H   0  0  0  0  0
   -3.5408  -36.4639  -17.8896 H   0  0  0  0  0
   -3.2103  -34.5987  -16.5329 H   0  0  0  0  0
   -2.9832  -35.7666  -15.2891 H   0  0  0  0  0
   -0.2172  -33.3484  -17.1713 H   0  0  0  0  0
  1  2  1  0  0  0
  2  3  1  0  0  0
  2  5  1  0  0  0
  3  4  2  0  0  0
  3 10  1  0  0  0
  5  6  1  0  0  0
  6  7  1  0  0  0
  7  8  1  0  0  0
  8  9  1  0  0  0
 10 11  1  0  0  0
 10 16  1  0  0  0
 11 12  1  0  0  0
 11 14  1  0  0  0
 12 13  2  0  0  0
 12 17  1  0  0  0
 14 15  1  0  0  0
 15 16  1  0  0  0
 17 18  1  0  0  0
 17 23  1  0  0  0
 18 19  1  0  0  0
 18 21  1  0  0  0
 19 20  2  0  0  0
 19 24  1  0  0  0
 21 22  1  0  0  0
 22 23  1  0  0  0
 24 25  1  0  0  0
 25 26  1  0  0  0
 25 28  1  0  0  0
 26 27  2  0  0  0
 26 36  1  0  0  0
 28 29  1  0  0  0
 29 30  4  0  0  0
 29 31  4  0  0  0
 30 32  4  0  0  0
 31 33  4  0  0  0
 32 34  4  0  0  0
 33 34  4  0  0  0
 34 35  1  0  0  0
 36 37  1  0  0  0
 37 38  1  0  0  0
 37 40  1  0  0  0
 38 39  2  0  0  0
 38 44  1  0  0  0
 40 41  1  0  0  0
 41 42  1  0  0  0
 41 43  1  0  0  0
 44 45  1  0  0  0
 44 50  1  0  0  0
 45 46  1  0  0  0
 45 48  1  0  0  0
 46 47  2  0  0  0
 46 51  1  0  0  0
 48 49  1  0  0  0
 49 50  1  0  0  0
 51 52  1  0  0  0
 52 53  1  0  0  0
 52 55  1  0  0  0
 53 54  2  0  0  0
 53 62  1  0  0  0
 55 56  1  0  0  0
 56 57  1  0  0  0
 57 58  1  0  0  0
 58 59  1  0  0  0
 59 60  1  0  0  0
 59 61  2  0  0  0
 62 63  1  0  0  0
 62 68  1  0  0  0
 63 64  1  0  0  0
 63 66  1  0  0  0
 64 65  2  0  0  0
 66 67  1  0  0  0
 67 68  1  0  0  0
 64 69  1  0  0  0
  1 70  1  0  0  0
  1 71  1  0  0  0
  1 72  1  0  0  0
  2 73  1  0  0  0
  5 74  1  0  0  0
  5 75  1  0  0  0
  6 76  1  0  0  0
  6 77  1  0  0  0
  7 78  1  0  0  0
  7 79  1  0  0  0
  8 80  1  0  0  0
  8 81  1  0  0  0
  9 82  1  0  0  0
  9 83  1  0  0  0
  9 84  1  0  0  0
 11 85  1  0  0  0
 14 86  1  0  0  0
 14 87  1  0  0  0
 15 88  1  0  0  0
 15 89  1  0  0  0
 16 90  1  0  0  0
 16 91  1  0  0  0
 18 92  1  0  0  0
 21 93  1  0  0  0
 21 94  1  0  0  0
 22 95  1  0  0  0
 22 96  1  0  0  0
 23 97  1  0  0  0
 23 98  1  0  0  0
 24 99  1  0  0  0
 25100  1  0  0  0
 28101  1  0  0  0
 28102  1  0  0  0
 30103  1  0  0  0
 31104  1  0  0  0
 32105  1  0  0  0
 33106  1  0  0  0
 35107  1  0  0  0
 36108  1  0  0  0
 37109  1  0  0  0
 40110  1  0  0  0
 40111  1  0  0  0
 41112  1  0  0  0
 42113  1  0  0  0
 42114  1  0  0  0
 42115  1  0  0  0
 43116  1  0  0  0
 43117  1  0  0  0
 43118  1  0  0  0
 45119  1  0  0  0
 48120  1  0  0  0
 48121  1  0  0  0
 49122  1  0  0  0
 49123  1  0  0  0
 50124  1  0  0  0
 50125  1  0  0  0
 51126  1  0  0  0
 52127  1  0  0  0
 55128  1  0  0  0
 55129  1  0  0  0
 56130  1  0  0  0
 56131  1  0  0  0
 57132  1  0  0  0
 57133  1  0  0  0
 58134  1  0  0  0
 60135  1  0  0  0
 60136  1  0  0  0
 61137  1  0  0  0
 63138  1  0  0  0
 66139  1  0  0  0
 66140  1  0  0  0
 67141  1  0  0  0
 67142  1  0  0  0
 68143  1  0  0  0
 68144  1  0  0  0
 69145  1  0  0  0
M  END
$$$$
