### 
### Created by X-TOOL on Mon Sep 10 21:13:07 2018
### 

@<TRIPOS>MOLECULE
3qnj_ligand
  145   149     1     0     0
SMALL
GAST_HUCK


@<TRIPOS>ATOM
      1 N          -8.6030  -29.1640    2.4430 N.4       1 LYS         0.2379
      2 CA         -8.9380  -30.0320    1.2750 C.3       1 LYS         0.0652
      3 C          -7.6510  -30.4960    0.5240 C.2       1 LYS         0.2292
      4 O          -6.7040  -29.7020    0.3560 O.2       1 LYS        -0.3905
      5 CB         -9.9750  -29.3370    0.3400 C.3       1 LYS         0.0080
      6 CG         -9.4440  -28.7880   -1.0240 C.3       1 LYS        -0.0410
      7 CD        -10.5980  -28.3650   -1.9610 C.3       1 LYS        -0.0123
      8 CE        -10.0860  -28.0100   -3.3700 C.3       1 LYS        -0.0354
      9 NZ        -11.1850  -27.7090   -4.3400 N.4       1 LYS         0.2185
     10 N          -7.6150  -31.7890    0.1090 N.am      1 PRO        -0.2471
     11 CA         -6.5080  -32.4210   -0.6350 C.3       1 PRO         0.1341
     12 C          -5.8960  -31.5760   -1.7700 C.2       1 PRO         0.2066
     13 O          -6.6240  -31.0540   -2.5940 O.2       1 PRO        -0.3942
     14 CB         -7.1520  -33.6890   -1.1880 C.3       1 PRO        -0.0104
     15 CG         -8.1530  -34.0750   -0.1140 C.3       1 PRO        -0.0281
     16 CD         -8.6160  -32.7920    0.5450 C.3       1 PRO         0.0371
     17 N          -4.5610  -31.4120   -1.7880 N.am      1 PRO        -0.2498
     18 CA         -3.8890  -30.8330   -2.9530 C.3       1 PRO         0.1338
     19 C          -3.7580  -31.8460   -4.0990 C.2       1 PRO         0.2042
     20 O          -4.0180  -33.0750   -3.9840 O.2       1 PRO        -0.3944
     21 CB         -2.5010  -30.4300   -2.4110 C.3       1 PRO        -0.0104
     22 CG         -2.6280  -30.3970   -0.9620 C.3       1 PRO        -0.0281
     23 CD         -3.6150  -31.5450   -0.6670 C.3       1 PRO         0.0369
     24 N          -3.4210  -31.3030   -5.2360 N.am      1 TYR        -0.2621
     25 CA         -3.5090  -32.0480   -6.4470 C.3       1 TYR         0.1390
     26 C          -2.0950  -32.5060   -6.8540 C.2       1 TYR         0.2057
     27 O          -1.1200  -31.7590   -6.7530 O.2       1 TYR        -0.3942
     28 CB         -4.1250  -31.1060   -7.4480 C.3       1 TYR         0.0163
     29 CG         -5.5340  -30.6810   -7.0930 C.ar      1 TYR        -0.0493
     30 CD1        -6.5830  -31.5850   -7.1640 C.ar      1 TYR        -0.0685
     31 CD2        -5.8280  -29.3600   -6.7450 C.ar      1 TYR        -0.0685
     32 CE1        -7.9110  -31.1960   -6.8540 C.ar      1 TYR        -0.0398
     33 CE2        -7.1370  -28.9580   -6.4180 C.ar      1 TYR        -0.0398
     34 CZ         -8.1740  -29.8840   -6.4740 C.ar      1 TYR         0.0805
     35 OH         -9.4940  -29.5150   -6.1800 O.3       1 TYR        -0.3376
     36 N          -1.9490  -33.7120   -7.3420 N.am      1 LEU        -0.2636
     37 CA         -0.6440  -34.0950   -7.8340 C.3       1 LEU         0.1314
     38 C          -0.4530  -33.4910   -9.2170 C.2       1 LEU         0.2064
     39 O          -1.3930  -32.9290   -9.7290 O.2       1 LEU        -0.3942
     40 CB         -0.5470  -35.5830   -7.8620 C.3       1 LEU        -0.0101
     41 CG         -0.5830  -35.9910   -6.4170 C.3       1 LEU        -0.0425
     42 CD1        -0.8730  -37.4990   -6.4080 C.3       1 LEU        -0.0625
     43 CD2         0.7230  -35.6930   -5.7810 C.3       1 LEU        -0.0625
     44 N           0.7690  -33.5250   -9.7880 N.am      1 PRO        -0.2498
     45 CA          0.8140  -32.9590  -11.1400 C.3       1 PRO         0.1338
     46 C          -0.2770  -33.6230  -11.9610 C.2       1 PRO         0.2041
     47 O          -0.8940  -34.5800  -11.5080 O.2       1 PRO        -0.3944
     48 CB          2.1820  -33.3830  -11.6630 C.3       1 PRO        -0.0104
     49 CG          3.0200  -33.4270  -10.4030 C.3       1 PRO        -0.0281
     50 CD          2.1150  -33.8170   -9.2690 C.3       1 PRO         0.0369
     51 N          -0.5350  -33.1080  -13.1470 N.am      1 ARG        -0.2637
     52 CA         -1.4090  -33.8350  -14.0290 C.3       1 ARG         0.1312
     53 C          -0.5570  -34.3270  -15.2220 C.2       1 ARG         0.2058
     54 O           0.6480  -34.0520  -15.2370 O.2       1 ARG        -0.3942
     55 CB         -2.6430  -32.9900  -14.3620 C.3       1 ARG        -0.0092
     56 CG         -2.3700  -31.9320  -15.3420 C.3       1 ARG        -0.0156
     57 CD         -3.2140  -30.7430  -15.0660 C.3       1 ARG         0.0627
     58 NE         -2.3470  -29.5910  -15.1130 N.pl3     1 ARG        -0.2723
     59 CZ         -2.7250  -28.3790  -15.4620 C.cat     1 ARG         0.2882
     60 NH1        -3.9990  -28.1450  -15.7950 N.pl3     1 ARG        -0.2849
     61 NH2        -1.8160  -27.4020  -15.4470 N.pl3     1 ARG        -0.2849
     62 N          -1.1530  -35.0890  -16.1780 N.am      1 PRO        -0.2556
     63 CA         -0.3650  -35.7320  -17.2560 C.3       1 PRO         0.0972
     64 C           0.4580  -34.7500  -18.1160 C.2       1 PRO         0.0603
     65 O           1.1930  -35.1830  -19.0260 O.co2     1 PRO        -0.5666
     66 CB         -1.4330  -36.4350  -18.1250 C.3       1 PRO        -0.0159
     67 CG         -2.6410  -36.5530  -17.2810 C.3       1 PRO        -0.0288
     68 CD         -2.5880  -35.4490  -16.2540 C.3       1 PRO         0.0362
     69 H          -7.9247  -29.6415    3.0365 H         1 LYS         0.2015
     70 H          -8.2059  -28.2856    2.1095 H         1 LYS         0.2015
     71 H          -9.4504  -28.9740    2.9780 H         1 LYS         0.2015
     72 H          -9.4155  -30.9389    1.6461 H         1 LYS         0.1098
     73 H         -10.3366  -28.4683    0.8901 H         1 LYS         0.0346
     74 H         -10.7084  -30.1028    0.0875 H         1 LYS         0.0346
     75 H          -8.8771  -29.5793   -1.5144 H         1 LYS         0.0270
     76 H          -8.8268  -27.9122   -0.8238 H         1 LYS         0.0270
     77 H         -11.0787  -27.4831   -1.5377 H         1 LYS         0.0317
     78 H         -11.2934  -29.1998   -2.0483 H         1 LYS         0.0317
     79 H          -9.5389  -28.8732   -3.7491 H         1 LYS         0.0813
     80 H          -9.4703  -27.1149   -3.2812 H         1 LYS         0.0813
     81 H         -10.7819  -27.4828   -5.2492 H         1 LYS         0.1994
     82 H         -11.7912  -28.5245   -4.4289 H         1 LYS         0.1994
     83 H         -11.7284  -26.9153   -4.0007 H         1 LYS         0.1994
     84 H          -5.6525  -32.5814    0.0212 H         1 PRO         0.0802
     85 H          -6.4241  -34.4765   -1.3833 H         1 PRO         0.0313
     86 H          -7.6212  -33.5302   -2.1589 H         1 PRO         0.0313
     87 H          -7.6947  -34.7399    0.6181 H         1 PRO         0.0287
     88 H          -8.9969  -34.6104   -0.5491 H         1 PRO         0.0287
     89 H          -9.6305  -32.5191    0.2546 H         1 PRO         0.0524
     90 H          -8.6706  -32.8792    1.6301 H         1 PRO         0.0524
     91 H          -4.4436  -29.9950   -3.3753 H         1 PRO         0.0802
     92 H          -2.1919  -29.4605   -2.8016 H         1 PRO         0.0313
     93 H          -1.7349  -31.1397   -2.7233 H         1 PRO         0.0313
     94 H          -2.9815  -29.4341   -0.5932 H         1 PRO         0.0287
     95 H          -1.6722  -30.5239   -0.4537 H         1 PRO         0.0287
     96 H          -3.1409  -32.5248   -0.6092 H         1 PRO         0.0524
     97 H          -4.0864  -31.4749    0.3133 H         1 PRO         0.0524
     98 H          -3.0920  -30.3378   -5.2582 H         1 TYR         0.1885
     99 H          -4.1140  -32.9508   -6.3637 H         1 TYR         0.0821
    100 H          -4.1723  -31.6292   -8.4030 H         1 TYR         0.0453
    101 H          -3.5090  -30.2071   -7.4729 H         1 TYR         0.0453
    102 H          -6.3832  -32.6138   -7.4637 H         1 TYR         0.0530
    103 H          -5.0248  -28.6233   -6.7263 H         1 TYR         0.0530
    104 H          -8.7220  -31.9218   -6.9132 H         1 TYR         0.0525
    105 H          -7.3368  -27.9279   -6.1228 H         1 TYR         0.0525
    106 H         -10.0667  -30.2801   -6.2708 H         1 TYR         0.2458
    107 H          -2.7335  -34.3631   -7.3743 H         1 LEU         0.1883
    108 H           0.1458  -33.7223   -7.1817 H         1 LEU         0.0800
    109 H           0.3611  -35.9234   -8.3595 H         1 LEU         0.0315
    110 H          -1.3581  -36.0340   -8.4336 H         1 LEU         0.0315
    111 H          -1.3445  -35.4492   -5.8560 H         1 LEU         0.0298
    112 H          -1.8305  -37.6865   -6.8940 H         1 LEU         0.0232
    113 H          -0.0826  -38.0229   -6.9454 H         1 LEU         0.0232
    114 H          -0.9111  -37.8542   -5.3782 H         1 LEU         0.0232
    115 H           1.5100  -36.2460   -6.2938 H         1 LEU         0.0232
    116 H           0.9240  -34.6239   -5.8504 H         1 LEU         0.0232
    117 H           0.6917  -35.9908   -4.7329 H         1 LEU         0.0232
    118 H           0.6690  -31.8793  -11.1775 H         1 PRO         0.0802
    119 H           2.5799  -32.7017  -12.4151 H         1 PRO         0.0313
    120 H           2.1587  -34.3357  -12.1920 H         1 PRO         0.0313
    121 H           3.4709  -32.4532  -10.2120 H         1 PRO         0.0287
    122 H           3.8291  -34.1496  -10.5095 H         1 PRO         0.0287
    123 H           2.2339  -34.8611   -8.9796 H         1 PRO         0.0524
    124 H           2.3363  -33.2721   -8.3513 H         1 PRO         0.0524
    125 H          -0.1260  -32.2180  -13.4317 H         1 ARG         0.1883
    126 H          -1.8362  -34.7287  -13.5742 H         1 ARG         0.0800
    127 H          -2.9740  -32.5104  -13.4409 H         1 ARG         0.0313
    128 H          -3.3926  -33.6542  -14.7923 H         1 ARG         0.0313
    129 H          -2.5971  -32.3052  -16.3406 H         1 ARG         0.0301
    130 H          -1.3203  -31.6465  -15.2739 H         1 ARG         0.0301
    131 H          -3.6916  -30.8270  -14.0898 H         1 ARG         0.0689
    132 H          -4.0115  -30.6561  -15.8040 H         1 ARG         0.0689
    133 H          -1.3688  -29.7253  -14.8569 H         1 ARG         0.2642
    134 H          -4.6784  -28.9057  -15.7787 H         1 ARG         0.2615
    135 H          -4.2913  -27.2059  -16.0653 H         1 ARG         0.2615
    136 H          -0.8553  -27.6035  -15.1698 H         1 ARG         0.2615
    137 H          -2.0820  -26.4538  -15.7128 H         1 ARG         0.2615
    138 H           0.3834  -36.4004  -16.8303 H         1 PRO         0.0728
    139 O           0.3875  -33.5108  -17.8990 O.co2     1 PRO        -0.5666
    140 H          -1.0876  -37.4147  -18.4551 H         1 PRO         0.0306
    141 H          -1.6407  -35.8639  -19.0299 H         1 PRO         0.0306
    142 H          -2.6701  -37.5267  -16.7920 H         1 PRO         0.0286
    143 H          -3.5408  -36.4639  -17.8896 H         1 PRO         0.0286
    144 H          -3.2103  -34.5987  -16.5329 H         1 PRO         0.0524
    145 H          -2.9832  -35.7666  -15.2891 H         1 PRO         0.0524
@<TRIPOS>BOND
     1    1    2 1  
     2    2    3 1  
     3    2    5 1  
     4    3    4 2  
     5    3   10 am 
     6    5    6 1  
     7    6    7 1  
     8    7    8 1  
     9    8    9 1  
    10   10   11 1  
    11   10   16 1  
    12   11   12 1  
    13   11   14 1  
    14   12   13 2  
    15   12   17 am 
    16   14   15 1  
    17   15   16 1  
    18   17   18 1  
    19   17   23 1  
    20   18   19 1  
    21   18   21 1  
    22   19   20 2  
    23   19   24 am 
    24   21   22 1  
    25   22   23 1  
    26   24   25 1  
    27   25   26 1  
    28   25   28 1  
    29   26   27 2  
    30   26   36 am 
    31   28   29 1  
    32   29   30 ar 
    33   29   31 ar 
    34   30   32 ar 
    35   31   33 ar 
    36   32   34 ar 
    37   33   34 ar 
    38   34   35 1  
    39   36   37 1  
    40   37   38 1  
    41   37   40 1  
    42   38   39 2  
    43   38   44 am 
    44   40   41 1  
    45   41   42 1  
    46   41   43 1  
    47   44   45 1  
    48   44   50 1  
    49   45   46 1  
    50   45   48 1  
    51   46   47 2  
    52   46   51 am 
    53   48   49 1  
    54   49   50 1  
    55   51   52 1  
    56   52   53 1  
    57   52   55 1  
    58   53   54 2  
    59   53   62 am 
    60   55   56 1  
    61   56   57 1  
    62   57   58 1  
    63   58   59 ar 
    64   59   60 ar 
    65   59   61 ar 
    66   62   63 1  
    67   62   68 1  
    68   63   64 1  
    69   63   66 1  
    70   64   65 ar 
    71   66   67 1  
    72   67   68 1  
    73    1   69 1  
    74    1   70 1  
    75    1   71 1  
    76    2   72 1  
    77    5   73 1  
    78    5   74 1  
    79    6   75 1  
    80    6   76 1  
    81    7   77 1  
    82    7   78 1  
    83    8   79 1  
    84    8   80 1  
    85    9   81 1  
    86    9   82 1  
    87    9   83 1  
    88   11   84 1  
    89   14   85 1  
    90   14   86 1  
    91   15   87 1  
    92   15   88 1  
    93   16   89 1  
    94   16   90 1  
    95   18   91 1  
    96   21   92 1  
    97   21   93 1  
    98   22   94 1  
    99   22   95 1  
   100   23   96 1  
   101   23   97 1  
   102   24   98 1  
   103   25   99 1  
   104   28  100 1  
   105   28  101 1  
   106   30  102 1  
   107   31  103 1  
   108   32  104 1  
   109   33  105 1  
   110   35  106 1  
   111   36  107 1  
   112   37  108 1  
   113   40  109 1  
   114   40  110 1  
   115   41  111 1  
   116   42  112 1  
   117   42  113 1  
   118   42  114 1  
   119   43  115 1  
   120   43  116 1  
   121   43  117 1  
   122   45  118 1  
   123   48  119 1  
   124   48  120 1  
   125   49  121 1  
   126   49  122 1  
   127   50  123 1  
   128   50  124 1  
   129   51  125 1  
   130   52  126 1  
   131   55  127 1  
   132   55  128 1  
   133   56  129 1  
   134   56  130 1  
   135   57  131 1  
   136   57  132 1  
   137   58  133 1  
   138   60  134 1  
   139   60  135 1  
   140   61  136 1  
   141   61  137 1  
   142   63  138 1  
   143   64  139 ar 
   144   66  140 1  
   145   66  141 1  
   146   67  142 1  
   147   67  143 1  
   148   68  144 1  
   149   68  145 1  
@<TRIPOS>SUBSTRUCTURE
     1 LYS         1

