4psq_ligand
  -I-interpret- 

 48 51  0  0  0  0  0  0  0  0999 V2000
   30.1700    0.1160   -4.5260 Cl  0  0  0  0  0
   30.6710   -0.7720   -6.0080 C   0  0  0  0  0
   31.9980   -1.1650   -6.1510 C   0  0  0  0  0
   32.4080   -1.8500   -7.2890 C   0  0  0  0  0
   31.4830   -2.1430   -8.2860 C   0  0  0  0  0
   30.1540   -1.7530   -8.1410 C   0  0  0  0  0
   29.7360   -1.0550   -7.0000 C   0  0  0  0  0
   28.3920   -0.6400   -6.7920 N   0  0  0  0  0
   27.7000   -1.6690   -5.9940 C   0  0  0  0  0
   26.2570   -1.2740   -5.7000 C   0  0  0  0  0
   27.6270   -0.3930   -8.0330 C   0  0  0  0  0
   26.2640    0.1820   -7.6690 C   0  0  0  0  0
   25.5900   -0.8980   -6.9490 N   0  0  0  0  0
   24.4650   -1.5090   -7.3570 C   0  0  0  0  0
   23.9620   -2.3970   -6.6900 O   0  0  0  0  0
   23.7490   -1.1090   -8.6090 C   0  0  0  0  0
   23.3940   -1.8900   -9.7010 C   0  0  0  0  0
   23.2770    0.1320   -8.8490 N   0  0  0  0  0
   22.6730    0.1330  -10.0550 C   0  0  0  0  0
   22.7470   -1.0960  -10.5710 N   0  0  0  0  0
   22.1950   -1.4710  -11.8710 C   0  0  0  0  0
   23.1730   -1.1890  -12.9920 C   0  0  0  0  0
   23.1000    0.0040  -13.7100 C   0  0  0  0  0
   24.1480   -2.1330  -13.3170 C   0  0  0  0  0
   25.0520   -1.8840  -14.3490 C   0  0  0  0  0
   24.9830   -0.6880  -15.0610 C   0  0  0  0  0
   24.0070    0.2550  -14.7400 C   0  0  0  0  0
   32.7195   -0.9347   -5.3671 H   0  0  0  0  0
   33.4484   -2.1558   -7.3996 H   0  0  0  0  0
   31.7988   -2.6783   -9.1815 H   0  0  0  0  0
   29.4324   -1.9928   -8.9220 H   0  0  0  0  0
   28.2264   -1.7818   -5.0462 H   0  0  0  0  0
   27.6937   -2.5992   -6.5621 H   0  0  0  0  0
   26.2445   -0.4284   -5.0124 H   0  0  0  0  0
   25.7342   -2.1170   -5.2482 H   0  0  0  0  0
   27.4979   -1.3283   -8.5776 H   0  0  0  0  0
   28.1674    0.3130   -8.6636 H   0  0  0  0  0
   25.7049    0.4959   -8.5505 H   0  0  0  0  0
   26.3502    1.0844   -7.0637 H   0  0  0  0  0
   23.6020   -2.9523   -9.8290 H   0  0  0  0  0
   22.2026    0.9942  -10.5295 H   0  0  0  0  0
   21.2926   -0.8849  -12.0448 H   0  0  0  0  0
   21.9816   -2.5399  -11.8599 H   0  0  0  0  0
   22.3343    0.7406  -13.4666 H   0  0  0  0  0
   24.2031   -3.0693  -12.7616 H   0  0  0  0  0
   25.8121   -2.6243  -14.5987 H   0  0  0  0  0
   25.6900   -0.4901  -15.8667 H   0  0  0  0  0
   23.9526    1.1912  -15.2956 H   0  0  0  0  0
  1  2  1  0  0  0
  2  3  4  0  0  0
  2  7  4  0  0  0
  3  4  4  0  0  0
  4  5  4  0  0  0
  5  6  4  0  0  0
  6  7  4  0  0  0
  7  8  1  0  0  0
  8  9  1  0  0  0
  8 11  1  0  0  0
  9 10  1  0  0  0
 10 13  1  0  0  0
 11 12  1  0  0  0
 12 13  1  0  0  0
 13 14  1  0  0  0
 14 15  2  0  0  0
 14 16  1  0  0  0
 16 17  4  0  0  0
 16 18  4  0  0  0
 17 20  4  0  0  0
 18 19  4  0  0  0
 19 20  4  0  0  0
 20 21  1  0  0  0
 21 22  1  0  0  0
 22 23  4  0  0  0
 22 24  4  0  0  0
 23 27  4  0  0  0
 24 25  4  0  0  0
 25 26  4  0  0  0
 26 27  4  0  0  0
  3 28  1  0  0  0
  4 29  1  0  0  0
  5 30  1  0  0  0
  6 31  1  0  0  0
  9 32  1  0  0  0
  9 33  1  0  0  0
 10 34  1  0  0  0
 10 35  1  0  0  0
 11 36  1  0  0  0
 11 37  1  0  0  0
 12 38  1  0  0  0
 12 39  1  0  0  0
 17 40  1  0  0  0
 19 41  1  0  0  0
 21 42  1  0  0  0
 21 43  1  0  0  0
 23 44  1  0  0  0
 24 45  1  0  0  0
 25 46  1  0  0  0
 26 47  1  0  0  0
 27 48  1  0  0  0
M  END
$$$$
