5al2_ligand
  -I-interpret- 

 37 39  0  0  0  0  0  0  0  0999 V2000
  -38.6260  -10.5590    5.5990 C   0  0  0  0  0
  -39.9860  -10.3350    6.3020 C   0  0  0  0  0
  -40.5650   -8.9590    5.9510 C   0  0  0  0  0
  -39.9020  -10.4600    7.7230 C   0  0  0  0  0
  -40.5850  -11.5230    8.3180 C   0  0  0  0  0
  -40.5920  -11.7030    9.6830 C   0  0  0  0  0
  -39.1800   -9.5880    8.5660 C   0  0  0  0  0
  -39.1660   -9.7940    9.9390 C   0  0  0  0  0
  -39.8330  -10.8830   10.5160 C   0  0  0  0  0
  -39.9390  -11.0440   11.9110 C   0  0  0  0  0
  -38.9010  -10.5360   12.8320 N   0  0  0  0  0
  -39.0390  -10.6740   14.1870 C   0  0  0  0  0
  -38.1760  -10.1000   14.8980 O   0  0  0  0  0
  -40.0010  -11.5990   14.6890 C   0  0  0  0  0
  -40.1960  -11.7790   16.0550 C   0  0  0  0  0
  -41.1300  -12.7190   16.5120 C   0  0  0  0  0
  -41.8560  -13.4790   15.5810 C   0  0  0  0  0
  -41.6310  -13.3250   14.2090 N   0  0  0  0  0
  -40.7450  -12.3810   13.7930 C   0  0  0  0  0
  -40.5320  -12.2560   12.4320 N   0  0  0  0  0
  -37.9076   -9.8215    5.9569 H   0  0  0  0  0
  -38.2625  -11.5615    5.8248 H   0  0  0  0  0
  -38.7532  -10.4513    4.5218 H   0  0  0  0  0
  -40.6472  -11.1199    5.9347 H   0  0  0  0  0
  -41.5593   -8.8627    6.3870 H   0  0  0  0  0
  -39.9150   -8.1802    6.3498 H   0  0  0  0  0
  -40.6308   -8.8595    4.8675 H   0  0  0  0  0
  -41.1259  -12.2275    7.6862 H   0  0  0  0  0
  -41.1990  -12.4971   10.1178 H   0  0  0  0  0
  -38.6312   -8.7495    8.1374 H   0  0  0  0  0
  -38.6266   -9.0962   10.5795 H   0  0  0  0  0
  -40.6970  -10.2609   11.9257 H   0  0  0  0  0
  -38.0722  -10.0773   12.4538 H   0  0  0  0  0
  -39.6224  -11.1889   16.7697 H   0  0  0  0  0
  -41.2913  -12.8588   17.5809 H   0  0  0  0  0
  -42.6006  -14.1944   15.9300 H   0  0  0  0  0
  -40.7914  -13.0135   11.8000 H   0  0  0  0  0
  1  2  1  0  0  0
  2  3  1  0  0  0
  2  4  1  0  0  0
  4  5  4  0  0  0
  4  7  4  0  0  0
  5  6  4  0  0  0
  6  9  4  0  0  0
  7  8  4  0  0  0
  8  9  4  0  0  0
  9 10  1  0  0  0
 10 11  1  0  0  0
 10 20  1  0  0  0
 11 12  1  0  0  0
 12 13  2  0  0  0
 12 14  1  0  0  0
 14 15  4  0  0  0
 14 19  4  0  0  0
 15 16  4  0  0  0
 16 17  4  0  0  0
 17 18  4  0  0  0
 18 19  4  0  0  0
 19 20  1  0  0  0
  1 21  1  0  0  0
  1 22  1  0  0  0
  1 23  1  0  0  0
  2 24  1  0  0  0
  3 25  1  0  0  0
  3 26  1  0  0  0
  3 27  1  0  0  0
  5 28  1  0  0  0
  6 29  1  0  0  0
  7 30  1  0  0  0
  8 31  1  0  0  0
 10 32  1  0  0  0
 11 33  1  0  0  0
 15 34  1  0  0  0
 16 35  1  0  0  0
 17 36  1  0  0  0
 20 37  1  0  0  0
M  END
$$$$
