5hyq_ligand
  -I-interpret- 

206207  0  0  0  0  0  0  0  0999 V2000
   15.0490   32.3160   27.6310 N   0  3  0  0  0
   16.1550   32.5870   28.5440 C   0  0  0  0  0
   16.6350   34.0240   28.3880 C   0  0  0  0  0
   16.0000   34.8290   27.7060 O   0  0  0  0  0
   17.3120   31.6180   28.3030 C   0  0  0  0  0
   16.8460   29.8640   28.3800 S   0  0  0  0  0
   17.7580   34.3500   29.0210 N   0  0  0  0  0
   18.2280   35.7280   29.0370 C   0  0  0  0  0
   19.7220   35.7450   29.3150 C   0  0  0  0  0
   20.2030   35.0430   30.2160 O   0  0  0  0  0
   17.4750   36.5430   30.0880 C   0  0  0  0  0
   17.6060   38.0340   29.9260 C   0  0  0  0  0
   17.0140   38.7910   31.1010 C   0  0  0  0  0
   17.3580   39.9500   31.3520 O   0  0  0  0  0
   16.1230   38.1330   31.8350 N   0  0  0  0  0
   20.4460   36.5470   28.5380 N   0  0  0  0  0
   21.8930   36.6450   28.6580 C   0  0  0  0  0
   22.2820   37.3630   29.9480 C   0  0  0  0  0
   21.7250   38.4190   30.2760 O   0  0  0  0  0
   22.4560   37.3820   27.4440 C   0  0  0  0  0
   23.9460   37.4660   27.4260 C   0  0  0  0  0
   24.7120   36.3230   27.2560 C   0  0  0  0  0
   24.5890   38.6880   27.5640 C   0  0  0  0  0
   26.0980   36.3950   27.2280 C   0  0  0  0  0
   25.9780   38.7690   27.5400 C   0  0  0  0  0
   26.7300   37.6240   27.3770 C   0  0  0  0  0
   23.2560   36.7960   30.6660 N   0  0  0  0  0
   23.7460   37.3310   31.9360 C   0  0  0  0  0
   25.1110   37.9660   31.6990 C   0  0  0  0  0
   26.0560   37.2660   31.3220 O   0  0  0  0  0
   23.8280   36.2200   32.9880 C   0  0  0  0  0
   24.2710   36.7080   34.3500 C   0  0  0  0  0
   24.7750   37.8420   34.4800 O   0  0  0  0  0
   24.1310   35.9280   35.3100 O   0  0  0  0  0
   25.2120   39.2810   31.9520 N   0  0  0  0  0
   26.4560   40.0090   31.7030 C   0  0  0  0  0
   27.5770   39.5570   32.6250 C   0  0  0  0  0
   28.7590   39.6680   32.2670 O   0  0  0  0  0
   26.2310   41.5080   31.8700 C   0  0  0  0  0
   25.2450   42.0990   30.8760 C   0  0  0  0  0
   24.8730   43.4970   31.2890 C   0  0  0  0  0
   25.8190   42.0930   29.4820 C   0  0  0  0  0
   27.2310   39.0580   33.8170 N   0  0  0  0  0
   28.2550   38.6330   34.7690 C   0  0  0  0  0
   28.9770   37.3720   34.3010 C   0  0  0  0  0
   30.2110   37.3180   34.3030 O   0  0  0  0  0
   27.6260   38.4030   36.1390 C   0  0  0  0  0
   27.3470   39.6290   36.7800 O   0  0  0  0  0
   28.2320   36.3610   33.8740 N   0  0  0  0  0
   28.7770   35.0590   33.5130 C   0  0  0  0  0
   28.9380   34.8580   32.0110 C   0  0  0  0  0
   29.5600   33.8730   31.6070 O   0  0  0  0  0
   27.8730   33.9420   34.0670 C   0  0  0  0  0
   26.5540   34.0520   33.4980 O   0  0  0  0  0
   27.7750   34.0310   35.6020 C   0  0  0  0  0
   28.4000   35.7570   31.1850 N   0  0  0  0  0
   28.3330   35.5660   29.7370 C   0  0  0  0  0
   27.6280   34.2610   29.3700 C   0  0  0  0  0
   27.9610   33.6170   28.3760 O   0  0  0  0  0
   29.7270   35.6370   29.1050 C   0  0  0  0  0
   30.4050   36.9660   29.3220 C   0  0  0  0  0
   31.5510   37.1890   28.3670 C   0  0  0  0  0
   32.3050   38.3850   28.7430 N   0  0  0  0  0
   33.4000   38.8170   28.1240 C   0  0  0  0  0
   33.8910   38.1570   27.0880 N   0  0  0  0  0
   34.0090   39.9110   28.5480 N   0  0  0  0  0
   26.6330   33.8690   30.1580 N   0  0  0  0  0
   25.9000   32.6380   29.9310 C   0  0  0  0  0
   24.4090   32.9270   29.9680 C   0  0  0  0  0
   23.9630   33.9010   30.5840 O   0  0  0  0  0
   26.2580   31.5840   30.9770 C   0  0  0  0  0
   27.6860   31.0920   30.8850 C   0  0  0  0  0
   27.9770   30.3350   29.5830 C   0  0  0  0  0
   26.9480   29.3460   29.2750 N   0  0  0  0  0
   26.7980   28.1830   29.9060 C   0  0  0  0  0
   27.6190   27.8430   30.8970 N   0  0  0  0  0
   25.8200   27.3560   29.5440 N   0  0  0  0  0
   23.6410   32.0790   29.2920 N   0  0  0  0  0
   22.1950   32.2220   29.3300 C   0  0  0  0  0
   21.6810   31.7930   30.6940 C   0  0  0  0  0
   22.1350   30.7920   31.2570 O   0  0  0  0  0
   21.5340   31.3930   28.2330 C   0  0  0  0  0
   21.7430   31.8230   26.7750 C   0  0  0  0  0
   21.0790   30.8070   25.8390 C   0  0  0  0  0
   21.2120   33.2220   26.5060 C   0  0  0  0  0
   20.7560   32.5820   31.2370 N   0  0  0  0  0
   20.1230   32.2520   32.5060 C   0  0  0  0  0
   18.6370   32.0310   32.2300 C   0  0  0  0  0
   17.9340   32.9210   31.7320 O   0  0  0  0  0
   20.3560   33.3570   33.5430 C   0  0  0  0  0
   20.0220   32.9700   34.9750 C   0  0  0  0  0
   20.3740   34.0770   35.9690 C   0  0  0  0  0
   21.6880   33.7850   36.7030 C   0  0  0  0  0
   21.6120   32.5470   37.5370 N   0  3  0  0  0
   18.1750   30.8190   32.5130 N   0  0  0  0  0
   16.8250   30.4000   32.1250 C   0  0  0  0  0
   15.9840   30.2080   33.3820 C   0  0  0  0  0
   16.3360   30.6820   34.4640 O   0  0  0  0  0
   16.8750   29.0890   31.3390 C   0  0  0  0  0
   17.9950   29.1180   29.8780 S   0  0  0  0  0
   14.8790   29.4950   33.2020 N   0  0  0  0  0
   14.2913   32.9745   27.8117 H   0  0  0  0  0
   15.3704   32.4214   26.6687 H   0  0  0  0  0
   14.7150   31.3633   27.7767 H   0  0  0  0  0
   15.7934   32.4447   29.5624 H   0  0  0  0  0
   18.0444   31.7903   29.0917 H   0  0  0  0  0
   17.6844   31.8071   27.2962 H   0  0  0  0  0
   18.2955   33.6276   29.5001 H   0  0  0  0  0
   18.0384   36.1827   28.0647 H   0  0  0  0  0
   17.9008   36.2870   31.0582 H   0  0  0  0  0
   16.4173   36.3007   29.9847 H   0  0  0  0  0
   17.0652   38.3267   29.0260 H   0  0  0  0  0
   18.6668   38.2772   29.8649 H   0  0  0  0  0
   15.6939   38.5849   32.6425 H   0  0  0  0  0
   15.8681   37.1760   31.5910 H   0  0  0  0  0
   19.9706   37.1122   27.8345 H   0  0  0  0  0
   22.3140   35.6403   28.6945 H   0  0  0  0  0
   22.0739   38.4023   27.4779 H   0  0  0  0  0
   22.1516   36.8262   26.5571 H   0  0  0  0  0
   24.2203   35.3568   27.1430 H   0  0  0  0  0
   23.9989   39.5954   27.6928 H   0  0  0  0  0
   26.6893   35.4899   27.0895 H   0  0  0  0  0
   26.4707   39.7350   27.6498 H   0  0  0  0  0
   27.8183   37.6830   27.3651 H   0  0  0  0  0
   23.6821   35.9412   30.3079 H   0  0  0  0  0
   23.0575   38.0868   32.3140 H   0  0  0  0  0
   24.5673   35.4970   32.6432 H   0  0  0  0  0
   22.8280   35.8011   33.1000 H   0  0  0  0  0
   24.7930   38.2826   33.6273 H   0  0  0  0  0
   24.4056   39.7819   32.3251 H   0  0  0  0  0
   26.7573   39.7917   30.6783 H   0  0  0  0  0
   27.1900   41.9994   31.7056 H   0  0  0  0  0
   25.8184   41.6642   32.8667 H   0  0  0  0  0
   24.3460   41.4826   30.8715 H   0  0  0  0  0
   24.4150   43.4726   32.2778 H   0  0  0  0  0
   25.7692   44.1167   31.3174 H   0  0  0  0  0
   24.1662   43.9110   30.5699 H   0  0  0  0  0
   26.7335   42.6858   29.4645 H   0  0  0  0  0
   26.0433   41.0679   29.1872 H   0  0  0  0  0
   25.0937   42.5210   28.7900 H   0  0  0  0  0
   26.2448   38.9735   34.0633 H   0  0  0  0  0
   28.9972   39.4283   34.8381 H   0  0  0  0  0
   28.3259   37.8380   36.7546 H   0  0  0  0  0
   26.6920   37.8567   36.0076 H   0  0  0  0  0
   26.9526   39.4576   37.6383 H   0  0  0  0  0
   27.2250   36.5025   33.7942 H   0  0  0  0  0
   29.7732   35.0165   33.9533 H   0  0  0  0  0
   28.3114   32.9813   33.7969 H   0  0  0  0  0
   25.9966   33.3530   33.8477 H   0  0  0  0  0
   28.7699   33.9268   36.0350 H   0  0  0  0  0
   27.3545   34.9967   35.8826 H   0  0  0  0  0
   27.1315   33.2322   35.9706 H   0  0  0  0  0
   28.0184   36.6159   31.5814 H   0  0  0  0  0
   27.7369   36.3826   29.3297 H   0  0  0  0  0
   29.6122   35.4943   28.0305 H   0  0  0  0  0
   30.3433   34.8694   29.5730 H   0  0  0  0  0
   30.8036   36.9798   30.3364 H   0  0  0  0  0
   29.6685   37.7519   29.1546 H   0  0  0  0  0
   31.1532   37.3226   27.3610 H   0  0  0  0  0
   32.2152   36.3255   28.4027 H   0  0  0  0  0
   31.9662   38.9271   29.5378 H   0  0  0  0  0
   34.7339   38.4931   26.6222 H   0  0  0  0  0
   33.4267   37.3120   26.7550 H   0  0  0  0  0
   33.6390   40.4228   29.3490 H   0  0  0  0  0
   26.3749   34.4552   30.9519 H   0  0  0  0  0
   26.1733   32.2436   28.9523 H   0  0  0  0  0
   25.6073   30.7258   30.8094 H   0  0  0  0  0
   26.1356   32.0445   31.9573 H   0  0  0  0  0
   27.8540   30.4040   31.7135 H   0  0  0  0  0
   28.3399   31.9636   30.9154 H   0  0  0  0  0
   28.9252   29.8107   29.7015 H   0  0  0  0  0
   28.0037   31.0597   28.7693 H   0  0  0  0  0
   26.2960   29.5618   28.5209 H   0  0  0  0  0
   27.4976   26.9510   31.3765 H   0  0  0  0  0
   28.3695   28.4745   31.1769 H   0  0  0  0  0
   25.1886   27.6139   28.7856 H   0  0  0  0  0
   24.0657   31.3286   28.7471 H   0  0  0  0  0
   21.9422   33.2681   29.1574 H   0  0  0  0  0
   20.4623   31.4847   28.4093 H   0  0  0  0  0
   21.9850   30.4036   28.3087 H   0  0  0  0  0
   22.8160   31.8498   26.5851 H   0  0  0  0  0
   21.5256   29.8250   25.9952 H   0  0  0  0  0
   20.0114   30.7604   26.0540 H   0  0  0  0  0
   21.2294   31.1156   24.8045 H   0  0  0  0  0
   20.1431   33.2505   26.7178 H   0  0  0  0  0
   21.7299   33.9353   27.1472 H   0  0  0  0  0
   21.3836   33.4797   25.4609 H   0  0  0  0  0
   20.4845   33.4376   30.7526 H   0  0  0  0  0
   20.5583   31.3470   32.9298 H   0  0  0  0  0
   19.6973   34.1838   33.2772 H   0  0  0  0  0
   21.4198   33.5933   33.5194 H   0  0  0  0  0
   20.6046   32.0853   35.2321 H   0  0  0  0  0
   18.9490   32.7880   35.0358 H   0  0  0  0  0
   19.5753   34.1411   36.7080 H   0  0  0  0  0
   20.4895   35.0097   35.4169 H   0  0  0  0  0
   21.8984   34.6251   37.3649 H   0  0  0  0  0
   22.4672   33.6402   35.9547 H   0  0  0  0  0
   22.5069   32.3969   38.0029 H   0  0  0  0  0
   20.8771   32.6541   38.2362 H   0  0  0  0  0
   21.4003   31.7482   36.9391 H   0  0  0  0  0
   18.7747   30.1627   33.0131 H   0  0  0  0  0
   16.3821   31.1682   31.4912 H   0  0  0  0  0
   15.8681   28.9019   30.9657 H   0  0  0  0  0
   17.2544   28.3245   32.0170 H   0  0  0  0  0
   14.2583   29.3086   33.9897 H   0  0  0  0  0
   14.6505   29.1334   32.2760 H   0  0  0  0  0
  1  2  1  0  0  0
  2  3  1  0  0  0
  2  5  1  0  0  0
  3  4  2  0  0  0
  3  7  1  0  0  0
  5  6  1  0  0  0
  6100  1  0  0  0
  7  8  1  0  0  0
  8  9  1  0  0  0
  8 11  1  0  0  0
  9 10  2  0  0  0
  9 16  1  0  0  0
 11 12  1  0  0  0
 12 13  1  0  0  0
 13 14  2  0  0  0
 13 15  1  0  0  0
 16 17  1  0  0  0
 17 18  1  0  0  0
 17 20  1  0  0  0
 18 19  2  0  0  0
 18 27  1  0  0  0
 20 21  1  0  0  0
 21 22  4  0  0  0
 21 23  4  0  0  0
 22 24  4  0  0  0
 23 25  4  0  0  0
 24 26  4  0  0  0
 25 26  4  0  0  0
 27 28  1  0  0  0
 28 29  1  0  0  0
 28 31  1  0  0  0
 29 30  2  0  0  0
 29 35  1  0  0  0
 31 32  1  0  0  0
 32 33  1  0  0  0
 32 34  2  0  0  0
 35 36  1  0  0  0
 36 37  1  0  0  0
 36 39  1  0  0  0
 37 38  2  0  0  0
 37 43  1  0  0  0
 39 40  1  0  0  0
 40 41  1  0  0  0
 40 42  1  0  0  0
 43 44  1  0  0  0
 44 45  1  0  0  0
 44 47  1  0  0  0
 45 46  2  0  0  0
 45 49  1  0  0  0
 47 48  1  0  0  0
 49 50  1  0  0  0
 50 51  1  0  0  0
 50 53  1  0  0  0
 51 52  2  0  0  0
 51 56  1  0  0  0
 53 54  1  0  0  0
 53 55  1  0  0  0
 56 57  1  0  0  0
 57 58  1  0  0  0
 57 60  1  0  0  0
 58 59  2  0  0  0
 58 67  1  0  0  0
 60 61  1  0  0  0
 61 62  1  0  0  0
 62 63  1  0  0  0
 63 64  1  0  0  0
 64 65  1  0  0  0
 64 66  2  0  0  0
 67 68  1  0  0  0
 68 69  1  0  0  0
 68 71  1  0  0  0
 69 70  2  0  0  0
 69 78  1  0  0  0
 71 72  1  0  0  0
 72 73  1  0  0  0
 73 74  1  0  0  0
 74 75  1  0  0  0
 75 76  1  0  0  0
 75 77  2  0  0  0
 78 79  1  0  0  0
 79 80  1  0  0  0
 79 82  1  0  0  0
 80 81  2  0  0  0
 80 86  1  0  0  0
 82 83  1  0  0  0
 83 84  1  0  0  0
 83 85  1  0  0  0
 86 87  1  0  0  0
 87 88  1  0  0  0
 87 90  1  0  0  0
 88 89  2  0  0  0
 88 95  1  0  0  0
 90 91  1  0  0  0
 91 92  1  0  0  0
 92 93  1  0  0  0
 93 94  1  0  0  0
 95 96  1  0  0  0
 96 97  1  0  0  0
 96 99  1  0  0  0
 97 98  2  0  0  0
 97101  1  0  0  0
 99100  1  0  0  0
  1102  1  0  0  0
  1103  1  0  0  0
  1104  1  0  0  0
  2105  1  0  0  0
  5106  1  0  0  0
  5107  1  0  0  0
  7108  1  0  0  0
  8109  1  0  0  0
 11110  1  0  0  0
 11111  1  0  0  0
 12112  1  0  0  0
 12113  1  0  0  0
 15114  1  0  0  0
 15115  1  0  0  0
 16116  1  0  0  0
 17117  1  0  0  0
 20118  1  0  0  0
 20119  1  0  0  0
 22120  1  0  0  0
 23121  1  0  0  0
 24122  1  0  0  0
 25123  1  0  0  0
 26124  1  0  0  0
 27125  1  0  0  0
 28126  1  0  0  0
 31127  1  0  0  0
 31128  1  0  0  0
 33129  1  0  0  0
 35130  1  0  0  0
 36131  1  0  0  0
 39132  1  0  0  0
 39133  1  0  0  0
 40134  1  0  0  0
 41135  1  0  0  0
 41136  1  0  0  0
 41137  1  0  0  0
 42138  1  0  0  0
 42139  1  0  0  0
 42140  1  0  0  0
 43141  1  0  0  0
 44142  1  0  0  0
 47143  1  0  0  0
 47144  1  0  0  0
 48145  1  0  0  0
 49146  1  0  0  0
 50147  1  0  0  0
 53148  1  0  0  0
 54149  1  0  0  0
 55150  1  0  0  0
 55151  1  0  0  0
 55152  1  0  0  0
 56153  1  0  0  0
 57154  1  0  0  0
 60155  1  0  0  0
 60156  1  0  0  0
 61157  1  0  0  0
 61158  1  0  0  0
 62159  1  0  0  0
 62160  1  0  0  0
 63161  1  0  0  0
 65162  1  0  0  0
 65163  1  0  0  0
 66164  1  0  0  0
 67165  1  0  0  0
 68166  1  0  0  0
 71167  1  0  0  0
 71168  1  0  0  0
 72169  1  0  0  0
 72170  1  0  0  0
 73171  1  0  0  0
 73172  1  0  0  0
 74173  1  0  0  0
 76174  1  0  0  0
 76175  1  0  0  0
 77176  1  0  0  0
 78177  1  0  0  0
 79178  1  0  0  0
 82179  1  0  0  0
 82180  1  0  0  0
 83181  1  0  0  0
 84182  1  0  0  0
 84183  1  0  0  0
 84184  1  0  0  0
 85185  1  0  0  0
 85186  1  0  0  0
 85187  1  0  0  0
 86188  1  0  0  0
 87189  1  0  0  0
 90190  1  0  0  0
 90191  1  0  0  0
 91192  1  0  0  0
 91193  1  0  0  0
 92194  1  0  0  0
 92195  1  0  0  0
 93196  1  0  0  0
 93197  1  0  0  0
 94198  1  0  0  0
 94199  1  0  0  0
 94200  1  0  0  0
 95201  1  0  0  0
 96202  1  0  0  0
 99203  1  0  0  0
 99204  1  0  0  0
101205  1  0  0  0
101206  1  0  0  0
M  END
$$$$
