### 
### Created by X-TOOL on Mon Sep 10 21:13:26 2018
### 

@<TRIPOS>MOLECULE
5hyq_ligand
  207   208     1     0     0
SMALL
GAST_HUCK


@<TRIPOS>ATOM
      1 N          15.0490   32.3160   27.6310 N.4       1 CYS         0.2385
      2 CA         16.1550   32.5870   28.5440 C.3       1 CYS         0.0749
      3 C          16.6350   34.0240   28.3880 C.2       1 CYS         0.2275
      4 O          16.0000   34.8290   27.7060 O.2       1 CYS        -0.3907
      5 CB         17.3120   31.6180   28.3030 C.3       1 CYS         0.0643
      6 SG         16.8460   29.8640   28.3800 S.3       1 CYS        -0.0848
      7 N          17.7580   34.3500   29.0210 N.am      1 GLN        -0.2608
      8 CA         18.2280   35.7280   29.0370 C.3       1 GLN         0.1331
      9 C          19.7220   35.7450   29.3150 C.2       1 GLN         0.2042
     10 O          20.2030   35.0430   30.2160 O.2       1 GLN        -0.3944
     11 CB         17.4750   36.5430   30.0880 C.3       1 GLN         0.0045
     12 CG         17.6060   38.0340   29.9260 C.3       1 GLN         0.0412
     13 CD         17.0140   38.7910   31.1010 C.2       1 GLN         0.1737
     14 OE1        17.3580   39.9500   31.3520 O.2       1 GLN        -0.3973
     15 NE2        16.1230   38.1330   31.8350 N.am      1 GLN        -0.3009
     16 N          20.4460   36.5470   28.5380 N.am      1 PHE        -0.2619
     17 CA         21.8930   36.6450   28.6580 C.3       1 PHE         0.1404
     18 C          22.2820   37.3630   29.9480 C.2       1 PHE         0.2060
     19 O          21.7250   38.4190   30.2760 O.2       1 PHE        -0.3942
     20 CB         22.4560   37.3820   27.4440 C.3       1 PHE         0.0214
     21 CG         23.9460   37.4660   27.4260 C.ar      1 PHE        -0.0386
     22 CD1        24.7120   36.3230   27.2560 C.ar      1 PHE        -0.0601
     23 CD2        24.5890   38.6880   27.5640 C.ar      1 PHE        -0.0601
     24 CE1        26.0980   36.3950   27.2280 C.ar      1 PHE        -0.0686
     25 CE2        25.9780   38.7690   27.5400 C.ar      1 PHE        -0.0686
     26 CZ         26.7300   37.6240   27.3770 C.ar      1 PHE        -0.0687
     27 N          23.2560   36.7960   30.6660 N.am      1 ASP        -0.2620
     28 CA         23.7460   37.3310   31.9360 C.3       1 ASP         0.1423
     29 C          25.1110   37.9660   31.6990 C.2       1 ASP         0.2056
     30 O          26.0560   37.2660   31.3220 O.2       1 ASP        -0.3943
     31 CB         23.8280   36.2200   32.9880 C.3       1 ASP         0.0406
     32 CG         24.2710   36.7080   34.3500 C.2       1 ASP         0.0393
     33 OD1        24.7750   37.8420   34.4800 O.co2     1 ASP        -0.5688
     34 OD2        24.1310   35.9280   35.3100 O.co2     1 ASP        -0.5688
     35 N          25.2120   39.2810   31.9520 N.am      1 LEU        -0.2636
     36 CA         26.4560   40.0090   31.7030 C.3       1 LEU         0.1312
     37 C          27.5770   39.5570   32.6250 C.2       1 LEU         0.2040
     38 O          28.7590   39.6680   32.2670 O.2       1 LEU        -0.3944
     39 CB         26.2310   41.5080   31.8700 C.3       1 LEU        -0.0101
     40 CG         25.2450   42.0990   30.8760 C.3       1 LEU        -0.0425
     41 CD1        24.8730   43.4970   31.2890 C.3       1 LEU        -0.0625
     42 CD2        25.8190   42.0930   29.4820 C.3       1 LEU        -0.0625
     43 N          27.2310   39.0580   33.8170 N.am      1 SER        -0.2616
     44 CA         28.2550   38.6330   34.7690 C.3       1 SER         0.1539
     45 C          28.9770   37.3720   34.3010 C.2       1 SER         0.2063
     46 O          30.2110   37.3180   34.3030 O.2       1 SER        -0.3943
     47 CB         27.6260   38.4030   36.1390 C.3       1 SER         0.0843
     48 OG         27.3470   39.6290   36.7800 O.3       1 SER        -0.3903
     49 N          28.2320   36.3610   33.8740 N.am      1 THR        -0.2613
     50 CA         28.7770   35.0590   33.5130 C.3       1 THR         0.1565
     51 C          28.9380   34.8580   32.0110 C.2       1 THR         0.2065
     52 O          29.5600   33.8730   31.6070 O.2       1 THR        -0.3943
     53 CB         27.8730   33.9420   34.0670 C.3       1 THR         0.0924
     54 OG1        26.5540   34.0520   33.4980 O.3       1 THR        -0.3874
     55 CG2        27.7750   34.0310   35.6020 C.3       1 THR        -0.0346
     56 N          28.4000   35.7570   31.1850 N.am      1 ARG        -0.2636
     57 CA         28.3330   35.5660   29.7370 C.3       1 ARG         0.1311
     58 C          27.6280   34.2610   29.3700 C.2       1 ARG         0.2039
     59 O          27.9610   33.6170   28.3760 O.2       1 ARG        -0.3944
     60 CB         29.7270   35.6370   29.1050 C.3       1 ARG        -0.0092
     61 CG         30.4050   36.9660   29.3220 C.3       1 ARG        -0.0156
     62 CD         31.5510   37.1890   28.3670 C.3       1 ARG         0.0627
     63 NE         32.3050   38.3850   28.7430 N.pl3     1 ARG        -0.2723
     64 CZ         33.4000   38.8170   28.1240 C.cat     1 ARG         0.2882
     65 NH1        33.8910   38.1570   27.0880 N.pl3     1 ARG        -0.2849
     66 NH2        34.0090   39.9110   28.5480 N.pl3     1 ARG        -0.2849
     67 N          26.6330   33.8690   30.1580 N.am      1 ARG        -0.2637
     68 CA         25.9000   32.6380   29.9310 C.3       1 ARG         0.1311
     69 C          24.4090   32.9270   29.9680 C.2       1 ARG         0.2039
     70 O          23.9630   33.9010   30.5840 O.2       1 ARG        -0.3944
     71 CB         26.2580   31.5840   30.9770 C.3       1 ARG        -0.0092
     72 CG         27.6860   31.0920   30.8850 C.3       1 ARG        -0.0156
     73 CD         27.9770   30.3350   29.5830 C.3       1 ARG         0.0627
     74 NE         26.9480   29.3460   29.2750 N.pl3     1 ARG        -0.2723
     75 CZ         26.7980   28.1830   29.9060 C.cat     1 ARG         0.2882
     76 NH1        27.6190   27.8430   30.8970 N.pl3     1 ARG        -0.2849
     77 NH2        25.8200   27.3560   29.5440 N.pl3     1 ARG        -0.2849
     78 N          23.6410   32.0790   29.2920 N.am      1 LEU        -0.2637
     79 CA         22.1950   32.2220   29.3300 C.3       1 LEU         0.1312
     80 C          21.6810   31.7930   30.6940 C.2       1 LEU         0.2039
     81 O          22.1350   30.7920   31.2570 O.2       1 LEU        -0.3944
     82 CB         21.5340   31.3930   28.2330 C.3       1 LEU        -0.0101
     83 CG         21.7430   31.8230   26.7750 C.3       1 LEU        -0.0425
     84 CD1        21.0790   30.8070   25.8390 C.3       1 LEU        -0.0625
     85 CD2        21.2120   33.2220   26.5060 C.3       1 LEU        -0.0625
     86 N          20.7560   32.5820   31.2370 N.am      1 LYS        -0.2637
     87 CA         20.1230   32.2520   32.5060 C.3       1 LYS         0.1310
     88 C          18.6370   32.0310   32.2300 C.2       1 LYS         0.2039
     89 O          17.9340   32.9210   31.7320 O.2       1 LYS        -0.3944
     90 CB         20.3560   33.3570   33.5430 C.3       1 LYS        -0.0122
     91 CG         20.0220   32.9700   34.9750 C.3       1 LYS        -0.0440
     92 CD         20.3740   34.0770   35.9690 C.3       1 LYS        -0.0124
     93 CE         21.6880   33.7850   36.7030 C.3       1 LYS        -0.0354
     94 NZ         21.6120   32.5470   37.5370 N.4       1 LYS         0.2185
     95 N          18.1750   30.8190   32.5130 N.am      1 CY3        -0.2629
     96 CA         16.8250   30.4000   32.1250 C.3       1 CY3         0.1403
     97 C          15.9840   30.2080   33.3820 C.2       1 CY3         0.2000
     98 O          16.3360   30.6820   34.4640 O.2       1 CY3        -0.3947
     99 CB         16.8750   29.0890   31.3390 C.3       1 CY3         0.0443
    100 SG         17.9950   29.1180   29.8780 S.3       1 CY3        -0.0880
    101 N1         14.8790   29.4950   33.2020 N.am      1 CY3        -0.2989
    102 H1         14.7437   31.3624   27.7468 H         1 CYS         0.2015
    103 H2         15.3550   32.4578   26.6811 H         1 CYS         0.2015
    104 H3         14.2845   32.9406   27.8346 H         1 CYS         0.2015
    105 H4         15.7951   32.4490   29.5742 H         1 CYS         0.1107
    106 H5         18.0818   31.8038   29.0665 H         1 CYS         0.0466
    107 H6         17.7287   31.8203   27.3053 H         1 CYS         0.0466
    108 H7         18.2850   33.6417   29.4907 H         1 GLN         0.1885
    109 H8         18.0455   36.1768   28.0494 H         1 GLN         0.0801
    110 H9         17.8633   36.2688   31.0800 H         1 GLN         0.0337
    111 H10        16.4081   36.2822   30.0269 H         1 GLN         0.0337
    112 H11        17.0820   38.3383   29.0080 H         1 GLN         0.0504
    113 H12        18.6726   38.2891   29.8411 H         1 GLN         0.0504
    114 H13        15.6974   38.5783   32.6228 H         1 GLN         0.1814
    115 H14        15.8780   37.1925   31.5996 H         1 GLN         0.1814
    116 H15        19.9799   37.1011   27.8483 H         1 PHE         0.1885
    117 H16        22.3149   35.6294   28.6826 H         1 PHE         0.0823
    118 H17        22.0513   38.4048   27.4412 H         1 PHE         0.0474
    119 H18        22.1277   36.8552   26.5359 H         1 PHE         0.0474
    120 H19        24.2230   35.3621   27.1437 H         1 PHE         0.0557
    121 H20        24.0022   39.5904   27.6920 H         1 PHE         0.0557
    122 H21        26.6861   35.4949   27.0903 H         1 PHE         0.0599
    123 H22        26.4680   39.7297   27.6492 H         1 PHE         0.0599
    124 H23        27.8124   37.6827   27.3651 H         1 PHE         0.0559
    125 H24        23.6737   35.9580   30.3149 H         1 ASP         0.1884
    126 H25        23.0495   38.1032   32.2947 H         1 ASP         0.0819
    127 H26        24.5459   35.4630   32.6393 H         1 ASP         0.0478
    128 H27        22.8328   35.7625   33.0892 H         1 ASP         0.0478
    129 H28        24.4214   39.7721   32.3177 H         1 LEU         0.1883
    130 H29        26.7643   39.8139   30.6653 H         1 LEU         0.0800
    131 H30        27.1970   42.0190   31.7445 H         1 LEU         0.0315
    132 H31        25.8493   41.6896   32.8855 H         1 LEU         0.0315
    133 H32        24.3354   41.4805   30.8783 H         1 LEU         0.0298
    134 H33        24.1596   43.9159   30.5640 H         1 LEU         0.0232
    135 H34        25.7767   44.1235   31.3181 H         1 LEU         0.0232
    136 H35        24.4106   43.4738   32.2868 H         1 LEU         0.0232
    137 H36        26.0842   41.0636   29.1991 H         1 LEU         0.0232
    138 H37        26.7192   42.7245   29.4534 H         1 LEU         0.0232
    139 H38        25.0725   42.4864   28.7763 H         1 LEU         0.0232
    140 H39        26.2641   38.9752   34.0585 H         1 SER         0.1884
    141 H40        28.9978   39.4396   34.8570 H         1 SER         0.0823
    142 H41        28.3223   37.8220   36.7615 H         1 SER         0.0606
    143 H42        26.6888   37.8408   36.0147 H         1 SER         0.0606
    144 H43        28.1542   40.1169   36.8929 H         1 SER         0.2097
    145 H44        27.2448   36.4997   33.7958 H         1 THR         0.1884
    146 H45        29.7711   34.9714   33.9757 H         1 THR         0.0826
    147 H46        28.3036   32.9677   33.7926 H         1 THR         0.0639
    148 H47        26.0024   33.3603   33.8440 H         1 THR         0.2101
    149 H48        27.1258   33.2253   35.9753 H         1 THR         0.0257
    150 H49        27.3507   35.0052   35.8865 H         1 THR         0.0257
    151 H50        28.7785   33.9260   36.0402 H         1 THR         0.0257
    152 H51        28.0259   36.5990   31.5736 H         1 ARG         0.1883
    153 H52        27.7369   36.3920   29.3218 H         1 ARG         0.0800
    154 H53        29.6304   35.4653   28.0228 H         1 ARG         0.0313
    155 H54        30.3530   34.8479   29.5471 H         1 ARG         0.0313
    156 H55        30.7909   37.0019   30.3515 H         1 ARG         0.0301
    157 H56        29.6653   37.7675   29.1795 H         1 ARG         0.0301
    158 H57        31.1545   37.3162   27.3489 H         1 ARG         0.0689
    159 H58        32.2198   36.3161   28.3937 H         1 ARG         0.0689
    160 H59        31.9629   38.9324   29.5456 H         1 ARG         0.2642
    161 H60        34.7395   38.4989   26.6147 H         1 ARG         0.2615
    162 H61        33.4248   37.3012   26.7546 H         1 ARG         0.2615
    163 H62        33.6328   40.4303   29.3540 H         1 ARG         0.2615
    164 H63        34.8597   40.2441   28.0724 H         1 ARG         0.2615
    165 H64        26.3800   34.4437   30.9363 H         1 ARG         0.1883
    166 H65        26.1633   32.2482   28.9367 H         1 ARG         0.0800
    167 H66        25.5857   30.7233   30.8462 H         1 ARG         0.0313
    168 H67        26.1053   32.0202   31.9752 H         1 ARG         0.0313
    169 H68        27.8799   30.4184   31.7327 H         1 ARG         0.0301
    170 H69        28.3600   31.9593   30.9442 H         1 ARG         0.0301
    171 H70        28.9441   29.8202   29.6817 H         1 ARG         0.0689
    172 H71        28.0298   31.0594   28.7569 H         1 ARG         0.0689
    173 H72        26.2896   29.5640   28.5135 H         1 ARG         0.2642
    174 H73        27.4970   26.9418   31.3806 H         1 ARG         0.2615
    175 H74        28.3763   28.4811   31.1803 H         1 ARG         0.2615
    176 H75        25.1829   27.6160   28.7776 H         1 ARG         0.2615
    177 H76        25.7002   26.4560   30.0303 H         1 ARG         0.2615
    178 H77        24.0574   31.3433   28.7578 H         1 LEU         0.1883
    179 H78        21.9406   33.2802   29.1704 H         1 LEU         0.0800
    180 H79        20.4508   31.4032   28.4241 H         1 LEU         0.0315
    181 H80        21.9134   30.3648   28.3275 H         1 LEU         0.0315
    182 H81        22.8241   31.8273   26.5722 H         1 LEU         0.0298
    183 H82        21.2301   31.1173   24.7946 H         1 LEU         0.0232
    184 H83        20.0015   30.7591   26.0550 H         1 LEU         0.0232
    185 H84        21.5289   29.8155   25.9956 H         1 LEU         0.0232
    186 H85        21.6993   33.9362   27.1861 H         1 LEU         0.0232
    187 H86        20.1249   33.2400   26.6730 H         1 LEU         0.0232
    188 H87        21.4277   33.5021   25.4644 H         1 LEU         0.0232
    189 H88        20.4898   33.4208   30.7621 H         1 LYS         0.1883
    190 H89        20.5573   31.3188   32.8940 H         1 LYS         0.0800
    191 H90        19.7330   34.2208   33.2681 H         1 LYS         0.0312
    192 H91        21.4174   33.6434   33.5049 H         1 LYS         0.0312
    193 H92        20.5878   32.0642   35.2384 H         1 LYS         0.0269
    194 H93        18.9441   32.7619   35.0436 H         1 LYS         0.0269
    195 H94        19.5642   34.1624   36.7086 H         1 LYS         0.0317
    196 H95        20.4742   35.0270   35.4235 H         1 LYS         0.0317
    197 H96        21.9243   34.6374   37.3569 H         1 LYS         0.0813
    198 H97        22.4884   33.6608   35.9587 H         1 LYS         0.0813
    199 H98        22.4959   32.3976   37.9979 H         1 LYS         0.1994
    200 H99        21.4029   31.7568   36.9472 H         1 LYS         0.1994
    201 H100       20.8860   32.6517   38.2284 H         1 LYS         0.1994
    202 H101       18.7629   30.1756   33.0033 H         1 CY3         0.1884
    203 H102       16.3705   31.1798   31.4963 H         1 CY3         0.0808
    204 H103       15.8581   28.8597   30.9879 H         1 CY3         0.0432
    205 H104       17.2165   28.2939   32.0181 H         1 CY3         0.0432
    206 H105       14.2666   29.3188   33.9726 H         1 CY3         0.1815
    207 H106       14.6589   29.1340   32.2957 H         1 CY3         0.1815
@<TRIPOS>BOND
     1    1    2 1  
     2    2    3 1  
     3    2    5 1  
     4    3    4 2  
     5    3    7 am 
     6    5    6 1  
     7    6  100 1  
     8    7    8 1  
     9    8    9 1  
    10    8   11 1  
    11    9   10 2  
    12    9   16 am 
    13   11   12 1  
    14   12   13 1  
    15   13   14 2  
    16   13   15 am 
    17   16   17 1  
    18   17   18 1  
    19   17   20 1  
    20   18   19 2  
    21   18   27 am 
    22   20   21 1  
    23   21   22 ar 
    24   21   23 ar 
    25   22   24 ar 
    26   23   25 ar 
    27   24   26 ar 
    28   25   26 ar 
    29   27   28 1  
    30   28   29 1  
    31   28   31 1  
    32   29   30 2  
    33   29   35 am 
    34   31   32 1  
    35   32   33 ar 
    36   32   34 ar 
    37   35   36 1  
    38   36   37 1  
    39   36   39 1  
    40   37   38 2  
    41   37   43 am 
    42   39   40 1  
    43   40   41 1  
    44   40   42 1  
    45   43   44 1  
    46   44   45 1  
    47   44   47 1  
    48   45   46 2  
    49   45   49 am 
    50   47   48 1  
    51   49   50 1  
    52   50   51 1  
    53   50   53 1  
    54   51   52 2  
    55   51   56 am 
    56   53   54 1  
    57   53   55 1  
    58   56   57 1  
    59   57   58 1  
    60   57   60 1  
    61   58   59 2  
    62   58   67 am 
    63   60   61 1  
    64   61   62 1  
    65   62   63 1  
    66   63   64 ar 
    67   64   65 ar 
    68   64   66 ar 
    69   67   68 1  
    70   68   69 1  
    71   68   71 1  
    72   69   70 2  
    73   69   78 am 
    74   71   72 1  
    75   72   73 1  
    76   73   74 1  
    77   74   75 ar 
    78   75   76 ar 
    79   75   77 ar 
    80   78   79 1  
    81   79   80 1  
    82   79   82 1  
    83   80   81 2  
    84   80   86 am 
    85   82   83 1  
    86   83   84 1  
    87   83   85 1  
    88   86   87 1  
    89   87   88 1  
    90   87   90 1  
    91   88   89 2  
    92   88   95 am 
    93   90   91 1  
    94   91   92 1  
    95   92   93 1  
    96   93   94 1  
    97   95   96 1  
    98   96   97 1  
    99   96   99 1  
   100   97   98 2  
   101   97  101 am 
   102   99  100 1  
   103    1  102 1  
   104    1  103 1  
   105    1  104 1  
   106    2  105 1  
   107    5  106 1  
   108    5  107 1  
   109    7  108 1  
   110    8  109 1  
   111   11  110 1  
   112   11  111 1  
   113   12  112 1  
   114   12  113 1  
   115   15  114 1  
   116   15  115 1  
   117   16  116 1  
   118   17  117 1  
   119   20  118 1  
   120   20  119 1  
   121   22  120 1  
   122   23  121 1  
   123   24  122 1  
   124   25  123 1  
   125   26  124 1  
   126   27  125 1  
   127   28  126 1  
   128   31  127 1  
   129   31  128 1  
   130   35  129 1  
   131   36  130 1  
   132   39  131 1  
   133   39  132 1  
   134   40  133 1  
   135   41  134 1  
   136   41  135 1  
   137   41  136 1  
   138   42  137 1  
   139   42  138 1  
   140   42  139 1  
   141   43  140 1  
   142   44  141 1  
   143   47  142 1  
   144   47  143 1  
   145   48  144 1  
   146   49  145 1  
   147   50  146 1  
   148   53  147 1  
   149   54  148 1  
   150   55  149 1  
   151   55  150 1  
   152   55  151 1  
   153   56  152 1  
   154   57  153 1  
   155   60  154 1  
   156   60  155 1  
   157   61  156 1  
   158   61  157 1  
   159   62  158 1  
   160   62  159 1  
   161   63  160 1  
   162   65  161 1  
   163   65  162 1  
   164   66  163 1  
   165   66  164 1  
   166   67  165 1  
   167   68  166 1  
   168   71  167 1  
   169   71  168 1  
   170   72  169 1  
   171   72  170 1  
   172   73  171 1  
   173   73  172 1  
   174   74  173 1  
   175   76  174 1  
   176   76  175 1  
   177   77  176 1  
   178   77  177 1  
   179   78  178 1  
   180   79  179 1  
   181   82  180 1  
   182   82  181 1  
   183   83  182 1  
   184   84  183 1  
   185   84  184 1  
   186   84  185 1  
   187   85  186 1  
   188   85  187 1  
   189   85  188 1  
   190   86  189 1  
   191   87  190 1  
   192   90  191 1  
   193   90  192 1  
   194   91  193 1  
   195   91  194 1  
   196   92  195 1  
   197   92  196 1  
   198   93  197 1  
   199   93  198 1  
   200   94  199 1  
   201   94  200 1  
   202   94  201 1  
   203   95  202 1  
   204   96  203 1  
   205   99  204 1  
   206   99  205 1  
   207  101  206 1  
   208  101  207 1  
@<TRIPOS>SUBSTRUCTURE
     1 CYS         1

