5kr0_ligand
  -I-interpret- 

 70 72  0  0  0  0  0  0  0  0999 V2000
  -18.6840   16.9350  -25.3020 C   0  0  0  0  0
  -19.8140   15.1650  -24.4130 C   0  0  0  0  0
  -17.6260   14.8100  -22.3820 C   0  0  0  0  0
  -18.5860   15.5870  -24.5160 C   0  0  0  0  0
  -16.7170   14.1520  -20.1650 C   0  0  0  0  0
  -17.6500   13.7790  -19.0340 C   0  0  0  0  0
  -15.4510   14.8710  -19.6530 C   0  0  0  0  0
  -14.5540   15.1770  -20.8630 C   0  0  0  0  0
  -14.5950   16.4430  -21.4800 C   0  0  0  0  0
  -13.7190   14.2030  -21.3560 C   0  0  0  0  0
  -13.7860   16.7030  -22.5700 C   0  0  0  0  0
  -12.9090   14.4760  -22.4600 C   0  0  0  0  0
  -12.9470   15.7280  -23.0640 C   0  0  0  0  0
  -17.0500   12.6840  -18.1150 C   0  0  0  0  0
  -18.2250   10.4710  -18.3870 C   0  0  0  0  0
  -19.5530   10.7480  -19.1700 C   0  0  0  0  0
  -15.1420    9.6410  -17.6850 C   0  0  0  0  0
  -14.4330   10.3000  -16.6770 C   0  0  0  0  0
  -14.0180    9.6010  -15.5500 C   0  0  0  0  0
  -14.3130    8.2370  -15.4360 C   0  0  0  0  0
  -15.0220    7.5720  -16.4420 C   0  0  0  0  0
  -15.4450    8.2760  -17.5880 C   0  0  0  0  0
  -19.3560   10.5340  -20.6470 C   0  0  0  0  0
  -20.5830    9.7390  -18.6880 C   0  0  0  0  0
  -20.7840   16.4600  -24.6610 C   0  0  0  0  0
  -17.3930   15.0680  -21.0080 N   0  0  0  0  0
  -17.1200   11.3700  -18.7330 N   0  0  0  0  0
  -13.8620    7.5350  -14.2510 N   0  0  0  0  0
  -18.0870   15.9190  -23.1880 O   0  0  0  0  0
  -17.4650   13.7160  -22.8640 O   0  0  0  0  0
  -17.9080   14.9080  -18.2780 O   0  0  0  0  0
  -14.6360   11.6060  -19.3630 O   0  0  0  0  0
  -15.8090    9.8090  -20.2470 O   0  0  0  0  0
  -19.9980   17.5150  -24.7630 O   0  0  0  0  0
  -15.6560   10.6250  -19.1020 S   0  0  0  0  0
  -18.6770   16.8081  -26.3846 H   0  0  0  0  0
  -17.8257   17.5896  -25.1504 H   0  0  0  0  0
  -19.9925   14.7308  -23.4293 H   0  0  0  0  0
  -20.0172   14.3837  -25.1454 H   0  0  0  0  0
  -17.9433   14.8444  -24.9889 H   0  0  0  0  0
  -16.4272   13.2349  -20.6779 H   0  0  0  0  0
  -18.5646   13.3799  -19.4725 H   0  0  0  0  0
  -14.9203   14.2374  -18.9424 H   0  0  0  0  0
  -15.7237   15.7954  -19.1439 H   0  0  0  0  0
  -15.2630   17.2153  -21.0987 H   0  0  0  0  0
  -13.6892   13.2199  -20.8863 H   0  0  0  0  0
  -13.8118   17.6853  -23.0417 H   0  0  0  0  0
  -12.2445   13.7050  -22.8498 H   0  0  0  0  0
  -12.3143   15.9377  -23.9265 H   0  0  0  0  0
  -17.6232   12.6599  -17.1882 H   0  0  0  0  0
  -16.0024   12.9235  -17.9323 H   0  0  0  0  0
  -17.9074    9.4602  -18.6429 H   0  0  0  0  0
  -18.4401   10.6206  -17.3290 H   0  0  0  0  0
  -19.8684   11.7771  -18.9980 H   0  0  0  0  0
  -14.2057   11.3615  -16.7748 H   0  0  0  0  0
  -13.4666   10.1110  -14.7601 H   0  0  0  0  0
  -15.2472    6.5104  -16.3400 H   0  0  0  0  0
  -15.9955    7.7699  -18.3810 H   0  0  0  0  0
  -18.5842   11.2120  -21.0113 H   0  0  0  0  0
  -19.0499    9.5033  -20.8258 H   0  0  0  0  0
  -20.2918   10.7324  -21.1696 H   0  0  0  0  0
  -20.2234    8.7300  -18.8897 H   0  0  0  0  0
  -20.7378    9.8635  -17.6162 H   0  0  0  0  0
  -21.5237    9.9027  -19.2137 H   0  0  0  0  0
  -21.4865   16.5800  -23.8363 H   0  0  0  0  0
  -21.3767   16.3309  -25.5666 H   0  0  0  0  0
  -17.7248   15.9470  -20.6109 H   0  0  0  0  0
  -13.3446    8.0350  -13.5280 H   0  0  0  0  0
  -14.0620    6.5410  -14.1400 H   0  0  0  0  0
  -18.2800   15.5907  -18.8411 H   0  0  0  0  0
  4  1  1  0  0  0
  1 34  1  0  0  0
  4  2  1  0  0  0
  2 25  1  0  0  0
 26  3  1  0  0  0
  3 29  1  0  0  0
  3 30  2  0  0  0
 29  4  1  0  0  0
  6  5  1  0  0  0
  5  7  1  0  0  0
  5 26  1  0  0  0
 14  6  1  0  0  0
  6 31  1  0  0  0
  7  8  1  0  0  0
  8  9  4  0  0  0
  8 10  4  0  0  0
  9 11  4  0  0  0
 10 12  4  0  0  0
 11 13  4  0  0  0
 12 13  4  0  0  0
 27 14  1  0  0  0
 15 16  1  0  0  0
 27 15  1  0  0  0
 16 23  1  0  0  0
 16 24  1  0  0  0
 17 18  4  0  0  0
 17 22  4  0  0  0
 35 17  1  0  0  0
 18 19  4  0  0  0
 19 20  4  0  0  0
 21 20  4  0  0  0
 20 28  1  0  0  0
 22 21  4  0  0  0
 25 34  1  0  0  0
 27 35  1  0  0  0
 35 32  2  0  0  0
 35 33  2  0  0  0
  1 36  1  0  0  0
  1 37  1  0  0  0
  2 38  1  0  0  0
  2 39  1  0  0  0
  4 40  1  0  0  0
  5 41  1  0  0  0
  6 42  1  0  0  0
  7 43  1  0  0  0
  7 44  1  0  0  0
  9 45  1  0  0  0
 10 46  1  0  0  0
 11 47  1  0  0  0
 12 48  1  0  0  0
 13 49  1  0  0  0
 14 50  1  0  0  0
 14 51  1  0  0  0
 15 52  1  0  0  0
 15 53  1  0  0  0
 16 54  1  0  0  0
 18 55  1  0  0  0
 19 56  1  0  0  0
 21 57  1  0  0  0
 22 58  1  0  0  0
 23 59  1  0  0  0
 23 60  1  0  0  0
 23 61  1  0  0  0
 24 62  1  0  0  0
 24 63  1  0  0  0
 24 64  1  0  0  0
 25 65  1  0  0  0
 25 66  1  0  0  0
 26 67  1  0  0  0
 28 68  1  0  0  0
 28 69  1  0  0  0
 31 70  1  0  0  0
M  END
$$$$
