2b7f_ligand
  -I-interpret- 

154156  0  0  0  0  0  0  0  0999 V2000
   79.9990   66.6450   48.2050 C   0  0  0  0  0
   79.0330   66.6900   48.9620 O   0  0  0  0  0
   80.6940   67.9330   47.7350 C   0  0  0  0  0
   80.4810   65.5020   47.7240 N   0  0  0  0  0
   80.1500   64.1910   48.2400 C   0  0  0  0  0
   80.3760   64.0820   49.7650 C   0  0  0  0  0
   81.2790   64.7330   50.3180 O   0  0  0  0  0
   81.0370   63.2290   47.5630 C   0  0  0  0  0
   79.6030   63.2180   50.4570 N   0  0  0  0  0
   80.1790   62.9150   51.7640 C   0  0  0  0  0
   81.5090   62.1240   51.6100 C   0  0  0  0  0
   81.7290   61.4690   50.5880 O   0  0  0  0  0
   79.0770   62.0880   52.4390 C   0  0  0  0  0
   78.3270   61.4860   51.3300 C   0  0  0  0  0
   78.3430   62.4850   50.2140 C   0  0  0  0  0
   82.3980   62.2070   52.5930 N   0  0  0  0  0
   83.6750   61.4480   52.5880 C   0  0  0  0  0
   83.6090   60.2030   53.4440 C   0  0  0  0  0
   83.0260   60.2250   54.5260 O   0  0  0  0  0
   84.8100   62.2870   53.1480 C   0  0  0  0  0
   85.4820   63.1930   52.1780 C   0  0  0  0  0
   86.3750   64.1540   52.9080 C   0  0  0  0  0
   86.8720   63.8190   53.9910 O   0  0  0  0  0
   86.5730   65.3670   52.3430 N   0  0  0  0  0
   84.2160   59.1350   52.9630 N   0  0  0  0  0
   84.3320   57.9200   53.7270 C   0  0  0  0  0
   85.7520   57.3890   53.6080 C   0  0  0  0  0
   86.1270   56.8540   52.5740 O   0  0  0  0  0
   83.3050   56.8310   53.2940 C   0  0  0  0  0
   83.5080   55.5270   54.0940 C   0  0  0  0  0
   81.9030   57.3410   53.4610 C   0  0  0  0  0
   86.4380   57.3840   54.7480 N   0  0  0  0  0
   87.8440   57.1050   54.7640 C   0  0  0  0  0
   88.6130   58.4200   55.0020 C   0  0  0  0  0
   88.9110   59.4230   53.8600 C   0  0  0  0  0
   87.9020   60.5630   53.8170 C   0  0  0  0  0
   89.2550   58.8930   52.4400 C   0  0  0  0  0
   88.2300   55.9800   55.8230 C   0  0  0  0  0
   87.6220   56.2410   57.0800 O   0  0  0  0  0
   87.9770   54.4870   55.4220 C   0  0  0  0  0
   89.1890   53.9590   54.6210 C   0  0  0  0  0
   89.2650   54.1650   53.4310 O   0  0  0  0  0
   90.1920   53.4180   55.3050 N   0  0  0  0  0
   91.4130   52.9360   54.6040 C   0  0  0  0  0
   91.8860   51.6070   55.1760 C   0  0  0  0  0
   92.2050   51.4910   56.3510 O   0  0  0  0  0
   92.5980   53.9360   54.7040 C   0  0  0  0  0
   93.7740   53.4190   53.9680 C   0  0  0  0  0
   92.2080   55.3010   54.1930 C   0  0  0  0  0
   91.9620   50.5920   54.3410 N   0  0  0  0  0
   92.3780   49.2590   54.7980 C   0  0  0  0  0
   93.6340   48.7400   54.1040 C   0  0  0  0  0
   93.8980   49.0590   52.9520 O   0  0  0  0  0
   91.2210   48.2760   54.6200 C   0  0  0  0  0
   89.8820   48.9150   54.8140 C   0  0  0  0  0
   88.8540   48.0090   55.9760 S   0  0  0  0  0
   88.2480   46.6010   55.0240 C   0  0  0  0  0
   94.3890   47.8970   54.7950 N   0  0  0  0  0
   95.5420   47.2470   54.1580 C   0  0  0  0  0
   95.2180   46.0670   53.2320 C   0  0  0  0  0
   94.0570   45.9210   52.8030 O   0  0  0  0  0
   96.6050   46.8960   55.1620 C   0  0  0  0  0
   97.9700   47.3620   54.7410 C   0  0  0  0  0
   99.1020   46.5530   54.8050 N   0  0  0  0  0
   98.3860   48.5530   54.2280 C   0  0  0  0  0
  100.1590   47.2390   54.3830 C   0  0  0  0  0
   99.7500   48.4490   54.0210 N   0  0  0  0  0
   96.1930   45.1660   52.9510 N   0  0  0  0  0
   96.1650   44.5530   51.6070 C   0  0  0  0  0
   95.0290   45.0510   50.6620 C   0  0  0  0  0
   94.1100   44.3270   50.2000 O   0  0  0  0  0
   96.0820   43.0490   51.9480 C   0  0  0  0  0
   96.9450   42.9630   53.3060 C   0  0  0  0  0
   97.1620   44.4300   53.7880 C   0  0  0  0  0
   95.0270   46.2390   50.3340 O   0  0  0  0  0
   79.9781   68.5556   47.1985 H   0  0  0  0  0
   81.0731   68.4764   48.6005 H   0  0  0  0  0
   81.5220   67.6771   47.0739 H   0  0  0  0  0
   81.1284   65.5532   46.9374 H   0  0  0  0  0
   79.0940   63.9939   48.0555 H   0  0  0  0  0
   82.0744   63.4625   47.8025 H   0  0  0  0  0
   80.8028   62.2199   47.9021 H   0  0  0  0  0
   80.8877   63.2953   46.4853 H   0  0  0  0  0
   80.4492   63.7965   52.3455 H   0  0  0  0  0
   78.4390   62.7033   53.0734 H   0  0  0  0  0
   79.4890   61.3322   53.1076 H   0  0  0  0  0
   77.3055   61.2531   51.6307 H   0  0  0  0  0
   78.7799   60.5450   51.0179 H   0  0  0  0  0
   78.3017   62.0232   49.2275 H   0  0  0  0  0
   77.4666   63.1331   50.2091 H   0  0  0  0  0
   82.1955   62.8175   53.3847 H   0  0  0  0  0
   83.8481   61.1811   51.5455 H   0  0  0  0  0
   85.5702   61.5865   53.4937 H   0  0  0  0  0
   84.3722   62.9260   53.9149 H   0  0  0  0  0
   84.7264   63.7530   51.6271 H   0  0  0  0  0
   86.0816   62.5991   51.4882 H   0  0  0  0  0
   87.1571   66.0590   52.8124 H   0  0  0  0  0
   86.1382   65.5896   51.4476 H   0  0  0  0  0
   84.6139   59.1709   52.0245 H   0  0  0  0  0
   84.1046   58.1593   54.7658 H   0  0  0  0  0
   83.4714   56.6062   52.2405 H   0  0  0  0  0
   84.5146   55.1475   53.9184 H   0  0  0  0  0
   83.3750   55.7298   55.1567 H   0  0  0  0  0
   82.7772   54.7860   53.7700 H   0  0  0  0  0
   81.7326   57.5957   54.5070 H   0  0  0  0  0
   81.7642   58.2277   52.8425 H   0  0  0  0  0
   81.1978   56.5685   53.1543 H   0  0  0  0  0
   85.9557   57.5819   55.6247 H   0  0  0  0  0
   88.1313   56.6962   53.7953 H   0  0  0  0  0
   89.6032   58.0829   55.3085 H   0  0  0  0  0
   87.9567   58.9808   55.6674 H   0  0  0  0  0
   89.8868   59.7927   54.1750 H   0  0  0  0  0
   86.9030   60.1565   53.6591 H   0  0  0  0  0
   87.9294   61.1066   54.7614 H   0  0  0  0  0
   88.1540   61.2389   52.9998 H   0  0  0  0  0
   90.1503   58.2734   52.4919 H   0  0  0  0  0
   88.4220   58.2993   52.0635 H   0  0  0  0  0
   89.4331   59.7359   51.7723 H   0  0  0  0  0
   89.3159   56.0621   55.8701 H   0  0  0  0  0
   87.8674   55.5522   57.7021 H   0  0  0  0  0
   87.0785   54.4218   54.8084 H   0  0  0  0  0
   87.8448   53.8856   56.3214 H   0  0  0  0  0
   90.1242   53.3325   56.3191 H   0  0  0  0  0
   91.1229   52.8277   53.5589 H   0  0  0  0  0
   92.8632   54.0390   55.7562 H   0  0  0  0  0
   94.0779   52.4639   54.3963 H   0  0  0  0  0
   93.5127   53.2815   52.9188 H   0  0  0  0  0
   94.5941   54.1324   54.0490 H   0  0  0  0  0
   91.9057   55.2239   53.1486 H   0  0  0  0  0
   91.3778   55.6858   54.7854 H   0  0  0  0  0
   93.0597   55.9760   54.2772 H   0  0  0  0  0
   91.7277   50.7336   53.3584 H   0  0  0  0  0
   92.6374   49.3498   55.8528 H   0  0  0  0  0
   91.3293   47.4935   55.3710 H   0  0  0  0  0
   91.2631   47.8921   53.6007 H   0  0  0  0  0
   89.3716   48.9284   53.8510 H   0  0  0  0  0
   90.0406   49.9167   55.2134 H   0  0  0  0  0
   87.6785   46.9614   54.1673 H   0  0  0  0  0
   89.0939   46.0081   54.6762 H   0  0  0  0  0
   87.6068   45.9860   55.6555 H   0  0  0  0  0
   94.1686   47.6994   55.7711 H   0  0  0  0  0
   95.9345   48.0069   53.4822 H   0  0  0  0  0
   96.6341   45.8104   55.2555 H   0  0  0  0  0
   96.3562   47.3891   56.1017 H   0  0  0  0  0
   97.7628   49.4228   54.0200 H   0  0  0  0  0
  101.1844   46.8717   54.3413 H   0  0  0  0  0
   97.0348   44.8260   51.0094 H   0  0  0  0  0
   94.2175   43.4297   50.5240 H   0  0  0  0  0
   96.4620   42.4056   51.1544 H   0  0  0  0  0
   95.0596   42.6891   52.0636 H   0  0  0  0  0
   97.8987   42.4652   53.1309 H   0  0  0  0  0
   96.4234   42.3772   54.0629 H   0  0  0  0  0
   97.0024   44.5642   54.8579 H   0  0  0  0  0
   98.1885   44.7781   53.6728 H   0  0  0  0  0
  1  2  2  0  0  0
  1  3  1  0  0  0
  1  4  1  0  0  0
  4  5  1  0  0  0
  5  6  1  0  0  0
  5  8  1  0  0  0
  6  7  2  0  0  0
  6  9  1  0  0  0
  9 10  1  0  0  0
  9 15  1  0  0  0
 10 11  1  0  0  0
 10 13  1  0  0  0
 11 12  2  0  0  0
 11 16  1  0  0  0
 13 14  1  0  0  0
 14 15  1  0  0  0
 16 17  1  0  0  0
 17 18  1  0  0  0
 17 20  1  0  0  0
 18 19  2  0  0  0
 18 25  1  0  0  0
 20 21  1  0  0  0
 21 22  1  0  0  0
 22 23  2  0  0  0
 22 24  1  0  0  0
 25 26  1  0  0  0
 26 27  1  0  0  0
 26 29  1  0  0  0
 27 28  2  0  0  0
 27 32  1  0  0  0
 29 30  1  0  0  0
 29 31  1  0  0  0
 32 33  1  0  0  0
 33 34  1  0  0  0
 33 38  1  0  0  0
 34 35  1  0  0  0
 35 36  1  0  0  0
 35 37  1  0  0  0
 38 39  1  0  0  0
 38 40  1  0  0  0
 40 41  1  0  0  0
 41 42  2  0  0  0
 41 43  1  0  0  0
 43 44  1  0  0  0
 44 45  1  0  0  0
 44 47  1  0  0  0
 45 46  2  0  0  0
 45 50  1  0  0  0
 47 48  1  0  0  0
 47 49  1  0  0  0
 50 51  1  0  0  0
 51 52  1  0  0  0
 51 54  1  0  0  0
 52 53  2  0  0  0
 52 58  1  0  0  0
 54 55  1  0  0  0
 55 56  1  0  0  0
 56 57  1  0  0  0
 58 59  1  0  0  0
 59 60  1  0  0  0
 59 62  1  0  0  0
 60 61  2  0  0  0
 60 68  1  0  0  0
 62 63  1  0  0  0
 63 64  4  0  0  0
 63 65  4  0  0  0
 64 66  4  0  0  0
 65 67  4  0  0  0
 66 67  4  0  0  0
 68 69  1  0  0  0
 68 74  1  0  0  0
 69 70  1  0  0  0
 69 72  1  0  0  0
 70 71  1  0  0  0
 70 75  2  0  0  0
 72 73  1  0  0  0
 73 74  1  0  0  0
  3 76  1  0  0  0
  3 77  1  0  0  0
  3 78  1  0  0  0
  4 79  1  0  0  0
  5 80  1  0  0  0
  8 81  1  0  0  0
  8 82  1  0  0  0
  8 83  1  0  0  0
 10 84  1  0  0  0
 13 85  1  0  0  0
 13 86  1  0  0  0
 14 87  1  0  0  0
 14 88  1  0  0  0
 15 89  1  0  0  0
 15 90  1  0  0  0
 16 91  1  0  0  0
 17 92  1  0  0  0
 20 93  1  0  0  0
 20 94  1  0  0  0
 21 95  1  0  0  0
 21 96  1  0  0  0
 24 97  1  0  0  0
 24 98  1  0  0  0
 25 99  1  0  0  0
 26100  1  0  0  0
 29101  1  0  0  0
 30102  1  0  0  0
 30103  1  0  0  0
 30104  1  0  0  0
 31105  1  0  0  0
 31106  1  0  0  0
 31107  1  0  0  0
 32108  1  0  0  0
 33109  1  0  0  0
 34110  1  0  0  0
 34111  1  0  0  0
 35112  1  0  0  0
 36113  1  0  0  0
 36114  1  0  0  0
 36115  1  0  0  0
 37116  1  0  0  0
 37117  1  0  0  0
 37118  1  0  0  0
 38119  1  0  0  0
 39120  1  0  0  0
 40121  1  0  0  0
 40122  1  0  0  0
 43123  1  0  0  0
 44124  1  0  0  0
 47125  1  0  0  0
 48126  1  0  0  0
 48127  1  0  0  0
 48128  1  0  0  0
 49129  1  0  0  0
 49130  1  0  0  0
 49131  1  0  0  0
 50132  1  0  0  0
 51133  1  0  0  0
 54134  1  0  0  0
 54135  1  0  0  0
 55136  1  0  0  0
 55137  1  0  0  0
 57138  1  0  0  0
 57139  1  0  0  0
 57140  1  0  0  0
 58141  1  0  0  0
 59142  1  0  0  0
 62143  1  0  0  0
 62144  1  0  0  0
 65145  1  0  0  0
 66146  1  0  0  0
 69147  1  0  0  0
 71148  1  0  0  0
 72149  1  0  0  0
 72150  1  0  0  0
 73151  1  0  0  0
 73152  1  0  0  0
 74153  1  0  0  0
 74154  1  0  0  0
M  END
$$$$
