### 
### Created by X-TOOL on Mon Sep 10 21:12:52 2018
### 

@<TRIPOS>MOLECULE
2b7f_ligand
  154   156     1     0     0
SMALL
GAST_HUCK


@<TRIPOS>ATOM
      1 C          79.9990   66.6450   48.2050 C.2       1 ACE         0.1751
      2 O          79.0330   66.6900   48.9620 O.2       1 ACE        -0.3972
      3 CH3        80.6940   67.9330   47.7350 C.3       1 ACE         0.0258
      4 N          80.4810   65.5020   47.7240 N.am      1 ALA        -0.2661
      5 CA         80.1500   64.1910   48.2400 C.3       1 ALA         0.1283
      6 C          80.3760   64.0820   49.7650 C.2       1 ALA         0.2061
      7 O          81.2790   64.7330   50.3180 O.2       1 ALA        -0.3942
      8 CB         81.0370   63.2290   47.5630 C.3       1 ALA        -0.0244
      9 N          79.6030   63.2180   50.4570 N.am      1 PRO        -0.2498
     10 CA         80.1790   62.9150   51.7640 C.3       1 PRO         0.1338
     11 C          81.5090   62.1240   51.6100 C.2       1 PRO         0.2041
     12 O          81.7290   61.4690   50.5880 O.2       1 PRO        -0.3944
     13 CB         79.0770   62.0880   52.4390 C.3       1 PRO        -0.0104
     14 CG         78.3270   61.4860   51.3300 C.3       1 PRO        -0.0281
     15 CD         78.3430   62.4850   50.2140 C.3       1 PRO         0.0369
     16 N          82.3980   62.2070   52.5930 N.am      1 GLN        -0.2636
     17 CA         83.6750   61.4480   52.5880 C.3       1 GLN         0.1330
     18 C          83.6090   60.2030   53.4440 C.2       1 GLN         0.2040
     19 O          83.0260   60.2250   54.5260 O.2       1 GLN        -0.3944
     20 CB         84.8100   62.2870   53.1480 C.3       1 GLN         0.0045
     21 CG         85.4820   63.1930   52.1780 C.3       1 GLN         0.0412
     22 CD         86.3750   64.1540   52.9080 C.2       1 GLN         0.1737
     23 OE1        86.8720   63.8190   53.9910 O.2       1 GLN        -0.3973
     24 NE2        86.5730   65.3670   52.3430 N.am      1 GLN        -0.3009
     25 N          84.2160   59.1350   52.9630 N.am      1 VAL        -0.2635
     26 CA         84.3320   57.9200   53.7270 C.3       1 VAL         0.1331
     27 C          85.7520   57.3890   53.6080 C.2       1 VAL         0.2022
     28 O          86.1270   56.8540   52.5740 O.2       1 VAL        -0.3945
     29 CB         83.3050   56.8310   53.2940 C.3       1 VAL        -0.0063
     30 CG1        83.5080   55.5270   54.0940 C.3       1 VAL        -0.0584
     31 CG2        81.9030   57.3410   53.4610 C.3       1 VAL        -0.0584
     32 N          86.4380   57.3840   54.7480 N.am      1 STA        -0.2793
     33 CA         87.8440   57.1050   54.7640 C.3       1 STA         0.0703
     34 CB         88.6130   58.4200   55.0020 C.3       1 STA        -0.0250
     35 CG         88.9110   59.4230   53.8600 C.3       1 STA        -0.0446
     36 CD1        87.9020   60.5630   53.8170 C.3       1 STA        -0.0626
     37 CD2        89.2550   58.8930   52.4400 C.3       1 STA        -0.0626
     38 CH         88.2300   55.9800   55.8230 C.3       1 STA         0.0947
     39 OH         87.6220   56.2410   57.0800 O.3       1 STA        -0.3872
     40 CM         87.9770   54.4870   55.4220 C.3       1 STA         0.0655
     41 C          89.1890   53.9590   54.6210 C.2       1 STA         0.1808
     42 O          89.2650   54.1650   53.4310 O.2       1 STA        -0.3968
     43 N          90.1920   53.4180   55.3050 N.am      1 VAL        -0.2653
     44 CA         91.4130   52.9360   54.6040 C.3       1 VAL         0.1332
     45 C          91.8860   51.6070   55.1760 C.2       1 VAL         0.2041
     46 O          92.2050   51.4910   56.3510 O.2       1 VAL        -0.3944
     47 CB         92.5980   53.9360   54.7040 C.3       1 VAL        -0.0063
     48 CG1        93.7740   53.4190   53.9680 C.3       1 VAL        -0.0584
     49 CG2        92.2080   55.3010   54.1930 C.3       1 VAL        -0.0584
     50 N          91.9620   50.5920   54.3410 N.am      1 MET        -0.2637
     51 CA         92.3780   49.2590   54.7980 C.3       1 MET         0.1317
     52 C          93.6340   48.7400   54.1040 C.2       1 MET         0.2040
     53 O          93.8980   49.0590   52.9520 O.2       1 MET        -0.3944
     54 CB         91.2210   48.2760   54.6200 C.3       1 MET        -0.0034
     55 CG         89.8820   48.9150   54.8140 C.3       1 MET        -0.0024
     56 SD         88.8540   48.0090   55.9760 S.3       1 MET        -0.1639
     57 CE         88.2480   46.6010   55.0240 C.3       1 MET        -0.0181
     58 N          94.3890   47.8970   54.7950 N.am      1 HIS        -0.2625
     59 CA         95.5420   47.2470   54.1580 C.3       1 HIS         0.1371
     60 C          95.2180   46.0670   53.2320 C.2       1 HIS         0.2073
     61 O          94.0570   45.9210   52.8030 O.2       1 HIS        -0.3941
     62 CB         96.6050   46.8960   55.1620 C.3       1 HIS         0.0145
     63 CG         97.9700   47.3620   54.7410 C.2       1 HIS        -0.0027
     64 ND1        99.1020   46.5530   54.8050 N.2       1 HIS        -0.3252
     65 CD2        98.3860   48.5530   54.2280 C.2       1 HIS         0.0291
     66 CE1       100.1590   47.2390   54.3830 C.2       1 HIS         0.0907
     67 NE2        99.7500   48.4490   54.0210 N.pl3     1 HIS        -0.2752
     68 N          96.1930   45.1660   52.9510 N.am      1 PRO        -0.2555
     69 CA         96.1650   44.5530   51.6070 C.3       1 PRO         0.0972
     70 C          95.0290   45.0510   50.6620 C.2       1 PRO         0.0603
     71 O          94.1100   44.3270   50.2000 O.co2     1 PRO        -0.5666
     72 CB         96.0820   43.0490   51.9480 C.3       1 PRO        -0.0159
     73 CG         96.9450   42.9630   53.3060 C.3       1 PRO        -0.0288
     74 CD         97.1620   44.4300   53.7880 C.3       1 PRO         0.0362
     75 OXT        95.0270   46.2390   50.3340 O.co2     1 PRO        -0.5666
     76 H1         81.5298   67.6760   47.0677 H         1 ACE         0.0467
     77 H2         81.0771   68.4823   48.6076 H         1 ACE         0.0467
     78 H3         79.9725   68.5623   47.1933 H         1 ACE         0.0467
     79 H4         81.1157   65.5522   46.9529 H         1 ALA         0.1882
     80 H5         79.0978   63.9630   48.0143 H         1 ALA         0.0797
     81 H6         80.8207   62.2131   47.9253 H         1 ALA         0.0277
     82 H7         82.0854   63.4806   47.7811 H         1 ALA         0.0277
     83 H8         80.8671   63.2749   46.4772 H         1 ALA         0.0277
     84 H9         80.3734   63.8369   52.3318 H         1 PRO         0.0802
     85 H10        78.4231   62.7338   53.0434 H         1 PRO         0.0313
     86 H11        79.5150   61.3079   53.0790 H         1 PRO         0.0313
     87 H12        77.2920   61.2786   51.6395 H         1 PRO         0.0287
     88 H13        78.8084   60.5503   51.0093 H         1 PRO         0.0287
     89 H14        78.3566   61.9856   49.2340 H         1 PRO         0.0524
     90 H15        77.4747   63.1579   50.2707 H         1 PRO         0.0524
     91 H16        82.1995   62.8055   53.3691 H         1 GLN         0.1883
     92 H17        83.9044   61.1637   51.5505 H         1 GLN         0.0801
     93 H18        85.5695   61.6015   53.5522 H         1 GLN         0.0337
     94 H19        84.4036   62.9052   53.9621 H         1 GLN         0.0337
     95 H20        84.7210   63.7563   51.6180 H         1 GLN         0.0504
     96 H21        86.0846   62.5953   51.4783 H         1 GLN         0.0504
     97 H22        87.1604   66.0389   52.7942 H         1 GLN         0.1814
     98 H23        86.1320   65.5919   51.4741 H         1 GLN         0.1814
     99 H24        84.6061   59.1702   52.0429 H         1 VAL         0.1883
    100 H25        84.1380   58.1626   54.7822 H         1 VAL         0.0802
    101 H26        83.4675   56.6088   52.2290 H         1 VAL         0.0343
    102 H27        82.7710   54.7783   53.7679 H         1 VAL         0.0234
    103 H28        83.3740   55.7303   55.1667 H         1 VAL         0.0234
    104 H29        84.5235   55.1429   53.9176 H         1 VAL         0.0234
    105 H30        81.7794   58.2693   52.8839 H         1 VAL         0.0234
    106 H31        81.7104   57.5424   54.5251 H         1 VAL         0.0234
    107 H32        81.1919   56.5851   53.0963 H         1 VAL         0.0234
    108 H33        85.9652   57.5780   55.6075 H         1 STA         0.1856
    109 H34        88.1235   56.7254   53.7701 H         1 STA         0.0583
    110 H35        89.5891   58.1328   55.4200 H         1 STA         0.0291
    111 H36        88.0402   58.9775   55.7577 H         1 STA         0.0291
    112 H37        89.8497   59.8965   54.1834 H         1 STA         0.0296
    113 H38        88.1552   61.2458   52.9926 H         1 STA         0.0232
    114 H39        87.9287   61.1125   54.7695 H         1 STA         0.0232
    115 H40        86.8933   60.1541   53.6577 H         1 STA         0.0232
    116 H41        89.9845   58.0737   52.5212 H         1 STA         0.0232
    117 H42        89.6842   59.7078   51.8385 H         1 STA         0.0232
    118 H43        88.3398   58.5223   51.9553 H         1 STA         0.0232
    119 H44        89.3171   56.0707   55.9644 H         1 STA         0.0642
    120 H45        87.9183   57.0831   57.4051 H         1 STA         0.2101
    121 H46        87.0707   54.4219   54.8020 H         1 STA         0.0529
    122 H47        87.8446   53.8803   56.3300 H         1 STA         0.0529
    123 H48        90.1256   53.3341   56.2993 H         1 VAL         0.1883
    124 H49        91.1602   52.7974   53.5425 H         1 VAL         0.0802
    125 H50        92.8726   54.0351   55.7646 H         1 VAL         0.0343
    126 H51        94.6024   54.1381   54.0490 H         1 VAL         0.0234
    127 H52        93.5116   53.2798   52.9089 H         1 VAL         0.0234
    128 H53        94.0818   52.4550   54.3993 H         1 VAL         0.0234
    129 H54        91.3339   55.6659   54.7523 H         1 VAL         0.0234
    130 H55        91.9576   55.2346   53.1240 H         1 VAL         0.0234
    131 H56        93.0481   55.9977   54.3303 H         1 VAL         0.0234
    132 H57        91.7323   50.7309   53.3777 H         1 MET         0.1883
    133 H58        92.6035   49.3320   55.8722 H         1 MET         0.0800
    134 H59        91.3329   47.4648   55.3544 H         1 MET         0.0320
    135 H60        91.2673   47.8591   53.6031 H         1 MET         0.0320
    136 H61        89.3661   48.9563   53.8434 H         1 MET         0.0378
    137 H62        90.0296   49.9364   55.1946 H         1 MET         0.0378
    138 H63        87.6007   45.9796   55.6602 H         1 MET         0.0340
    139 H64        89.1008   46.0017   54.6724 H         1 MET         0.0340
    140 H65        87.6730   46.9633   54.1591 H         1 MET         0.0340
    141 H66        94.1730   47.7033   55.7520 H         1 HIS         0.1885
    142 H67        95.9825   48.0144   53.5045 H         1 HIS         0.0817
    143 H68        96.6276   45.8031   55.2845 H         1 HIS         0.0420
    144 H69        96.3521   47.3676   56.1231 H         1 HIS         0.0420
    145 H70        97.7634   49.4220   54.0202 H         1 HIS         0.0729
    146 H71       101.1835   46.8721   54.3413 H         1 HIS         0.1199
    147 H72       100.3538   49.1939   53.6448 H         1 HIS         0.2361
    148 H73        97.1169   44.7610   51.0965 H         1 PRO         0.0728
    149 H74        96.5274   42.4339   51.1522 H         1 PRO         0.0306
    150 H75        95.0414   42.7344   52.1156 H         1 PRO         0.0306
    151 H76        97.9139   42.4803   53.1103 H         1 PRO         0.0286
    152 H77        96.3972   42.3899   54.0685 H         1 PRO         0.0286
    153 H78        96.9316   44.5388   54.8581 H         1 PRO         0.0524
    154 H79        98.1921   44.7661   53.5987 H         1 PRO         0.0524
@<TRIPOS>BOND
     1    1    2 2  
     2    1    3 1  
     3    1    4 am 
     4    4    5 1  
     5    5    6 1  
     6    5    8 1  
     7    6    7 2  
     8    6    9 am 
     9    9   10 1  
    10    9   15 1  
    11   10   11 1  
    12   10   13 1  
    13   11   12 2  
    14   11   16 am 
    15   13   14 1  
    16   14   15 1  
    17   16   17 1  
    18   17   18 1  
    19   17   20 1  
    20   18   19 2  
    21   18   25 am 
    22   20   21 1  
    23   21   22 1  
    24   22   23 2  
    25   22   24 am 
    26   25   26 1  
    27   26   27 1  
    28   26   29 1  
    29   27   28 2  
    30   27   32 am 
    31   29   30 1  
    32   29   31 1  
    33   32   33 1  
    34   33   34 1  
    35   33   38 1  
    36   34   35 1  
    37   35   36 1  
    38   35   37 1  
    39   38   39 1  
    40   38   40 1  
    41   40   41 1  
    42   41   42 2  
    43   41   43 am 
    44   43   44 1  
    45   44   45 1  
    46   44   47 1  
    47   45   46 2  
    48   45   50 am 
    49   47   48 1  
    50   47   49 1  
    51   50   51 1  
    52   51   52 1  
    53   51   54 1  
    54   52   53 2  
    55   52   58 am 
    56   54   55 1  
    57   55   56 1  
    58   56   57 1  
    59   58   59 1  
    60   59   60 1  
    61   59   62 1  
    62   60   61 2  
    63   60   68 am 
    64   62   63 1  
    65   63   64 1  
    66   63   65 2  
    67   64   66 2  
    68   65   67 1  
    69   66   67 1  
    70   68   69 1  
    71   68   74 1  
    72   69   70 1  
    73   69   72 1  
    74   70   71 ar 
    75   70   75 ar 
    76   72   73 1  
    77   73   74 1  
    78    3   76 1  
    79    3   77 1  
    80    3   78 1  
    81    4   79 1  
    82    5   80 1  
    83    8   81 1  
    84    8   82 1  
    85    8   83 1  
    86   10   84 1  
    87   13   85 1  
    88   13   86 1  
    89   14   87 1  
    90   14   88 1  
    91   15   89 1  
    92   15   90 1  
    93   16   91 1  
    94   17   92 1  
    95   20   93 1  
    96   20   94 1  
    97   21   95 1  
    98   21   96 1  
    99   24   97 1  
   100   24   98 1  
   101   25   99 1  
   102   26  100 1  
   103   29  101 1  
   104   30  102 1  
   105   30  103 1  
   106   30  104 1  
   107   31  105 1  
   108   31  106 1  
   109   31  107 1  
   110   32  108 1  
   111   33  109 1  
   112   34  110 1  
   113   34  111 1  
   114   35  112 1  
   115   36  113 1  
   116   36  114 1  
   117   36  115 1  
   118   37  116 1  
   119   37  117 1  
   120   37  118 1  
   121   38  119 1  
   122   39  120 1  
   123   40  121 1  
   124   40  122 1  
   125   43  123 1  
   126   44  124 1  
   127   47  125 1  
   128   48  126 1  
   129   48  127 1  
   130   48  128 1  
   131   49  129 1  
   132   49  130 1  
   133   49  131 1  
   134   50  132 1  
   135   51  133 1  
   136   54  134 1  
   137   54  135 1  
   138   55  136 1  
   139   55  137 1  
   140   57  138 1  
   141   57  139 1  
   142   57  140 1  
   143   58  141 1  
   144   59  142 1  
   145   62  143 1  
   146   62  144 1  
   147   65  145 1  
   148   66  146 1  
   149   67  147 1  
   150   69  148 1  
   151   72  149 1  
   152   72  150 1  
   153   73  151 1  
   154   73  152 1  
   155   74  153 1  
   156   74  154 1  
@<TRIPOS>SUBSTRUCTURE
     1 ACE         1

