3i6m_ligand
  -I-interpret- 

 65 69  0  0  0  0  0  0  0  0999 V2000
    2.5760   68.0970   63.2320 C   0  0  0  0  0
    2.7350   68.5370   61.9470 C   0  0  0  0  0
    4.1020   68.5730   61.2700 C   0  0  0  0  0
    5.1840   68.8450   62.3430 C   0  0  0  0  0
    5.4180   66.4380   62.9160 O   0  0  0  0  0
    4.7220   64.1510   63.7200 C   0  0  0  0  0
    3.7750   63.4550   64.5180 C   0  0  0  0  0
    2.7550   64.1640   65.1940 C   0  0  0  0  0
    1.4690   66.2790   65.7830 C   0  0  0  0  0
    1.8830   67.3520   66.7520 N   0  3  0  0  0
    2.3970   68.6250   66.1400 C   0  0  0  0  0
    3.7720   68.4980   65.4610 C   0  0  0  0  0
    4.6330   65.5580   63.6060 C   0  0  0  0  0
    3.6240   66.2330   64.2900 C   0  0  0  0  0
    2.6630   65.5720   65.0880 C   0  0  0  0  0
    5.4870   62.1210   62.7380 C   0  0  0  0  0
    5.7690   63.4940   63.0770 O   0  0  0  0  0
    4.3090   67.3090   60.6060 O   0  0  0  0  0
    0.7920   67.6620   67.7080 C   0  0  0  0  0
    0.6320   66.6180   68.8170 C   0  0  0  0  0
    1.8410   66.5920   69.7480 C   0  0  0  0  0
    2.9890   65.9680   69.0730 N   0  3  0  0  0
    3.1530   64.5320   69.4200 C   0  0  0  0  0
    4.2150   63.9100   68.5060 C   0  0  0  0  0
    5.5220   64.7140   68.5980 C   0  0  0  0  0
    5.2840   66.1830   68.2300 C   0  0  0  0  0
    4.2200   66.7890   69.1470 C   0  0  0  0  0
    5.1390   67.7630   63.4890 C   0  0  0  0  0
    3.7170   67.6190   64.1980 C   0  0  0  0  0
    1.5588   68.0762   63.6231 H   0  0  0  0  0
    1.8598   68.8717   61.3902 H   0  0  0  0  0
    4.1606   69.3682   60.5268 H   0  0  0  0  0
    4.9977   69.8246   62.7832 H   0  0  0  0  0
    6.1634   68.8049   61.8662 H   0  0  0  0  0
    3.8347   62.3705   64.6096 H   0  0  0  0  0
    2.0325   63.6204   65.8028 H   0  0  0  0  0
    0.8738   66.7553   65.0039 H   0  0  0  0  0
    0.9256   65.5216   66.3479 H   0  0  0  0  0
    2.6813   66.9433   67.2378 H   0  0  0  0  0
    2.5069   69.3462   66.9499 H   0  0  0  0  0
    1.6858   68.9169   65.3673 H   0  0  0  0  0
    4.4584   68.0329   66.1686 H   0  0  0  0  0
    4.0986   69.4954   65.1665 H   0  0  0  0  0
    5.2681   61.5612   63.6473 H   0  0  0  0  0
    4.6265   62.0824   62.0700 H   0  0  0  0  0
    6.3540   61.6853   62.2414 H   0  0  0  0  0
    3.6205   67.1768   59.9502 H   0  0  0  0  0
   -0.1402   67.6840   67.1435 H   0  0  0  0  0
    1.0364   68.6108   68.1857 H   0  0  0  0  0
    0.5353   65.6365   68.3528 H   0  0  0  0  0
   -0.2487   66.8750   69.4056 H   0  0  0  0  0
    1.5933   66.0138   70.6382 H   0  0  0  0  0
    2.1014   67.6141   70.0230 H   0  0  0  0  0
    2.7733   65.9514   68.0762 H   0  0  0  0  0
    2.2044   64.0125   69.2845 H   0  0  0  0  0
    3.4668   64.4407   70.4599 H   0  0  0  0  0
    3.8562   63.9245   67.4769 H   0  0  0  0  0
    4.4022   62.8831   68.8200 H   0  0  0  0  0
    6.2455   64.2899   67.9017 H   0  0  0  0  0
    5.8945   64.6637   69.6211 H   0  0  0  0  0
    4.9415   66.2420   67.1969 H   0  0  0  0  0
    6.2154   66.7367   68.3481 H   0  0  0  0  0
    4.5876   66.8058   70.1730 H   0  0  0  0  0
    4.0000   67.8080   68.8288 H   0  0  0  0  0
    5.8733   68.0960   64.2224 H   0  0  0  0  0
  2  1  2  0  0  0
  1 29  1  0  0  0
  3  2  1  0  0  0
  4  3  1  0  0  0
  3 18  1  0  0  0
 28  4  1  0  0  0
 13  5  1  0  0  0
  5 28  1  0  0  0
  7  6  4  0  0  0
  6 13  4  0  0  0
  6 17  1  0  0  0
  8  7  4  0  0  0
 15  8  4  0  0  0
  9 10  1  0  0  0
  9 15  1  0  0  0
 10 11  1  0  0  0
 10 19  1  0  0  0
 11 12  1  0  0  0
 12 29  1  0  0  0
 13 14  4  0  0  0
 14 15  4  0  0  0
 14 29  1  0  0  0
 17 16  1  0  0  0
 19 20  1  0  0  0
 20 21  1  0  0  0
 21 22  1  0  0  0
 22 23  1  0  0  0
 22 27  1  0  0  0
 23 24  1  0  0  0
 24 25  1  0  0  0
 25 26  1  0  0  0
 26 27  1  0  0  0
 28 29  1  0  0  0
  1 30  1  0  0  0
  2 31  1  0  0  0
  3 32  1  0  0  0
  4 33  1  0  0  0
  4 34  1  0  0  0
  7 35  1  0  0  0
  8 36  1  0  0  0
  9 37  1  0  0  0
  9 38  1  0  0  0
 10 39  1  0  0  0
 11 40  1  0  0  0
 11 41  1  0  0  0
 12 42  1  0  0  0
 12 43  1  0  0  0
 16 44  1  0  0  0
 16 45  1  0  0  0
 16 46  1  0  0  0
 18 47  1  0  0  0
 19 48  1  0  0  0
 19 49  1  0  0  0
 20 50  1  0  0  0
 20 51  1  0  0  0
 21 52  1  0  0  0
 21 53  1  0  0  0
 22 54  1  0  0  0
 23 55  1  0  0  0
 23 56  1  0  0  0
 24 57  1  0  0  0
 24 58  1  0  0  0
 25 59  1  0  0  0
 25 60  1  0  0  0
 26 61  1  0  0  0
 26 62  1  0  0  0
 27 63  1  0  0  0
 27 64  1  0  0  0
 28 65  1  0  0  0
M  END
$$$$
