5mod_ligand
  -I-interpret- 

 28 28  0  0  0  0  0  0  0  0999 V2000
    6.1710  142.8150  353.2660 Cl  0  0  0  0  0
    5.3190  141.3200  353.0650 C   0  0  0  0  0
    5.8850  140.1530  353.5300 C   0  0  0  0  0
    5.2160  138.9450  353.3960 C   0  0  0  0  0
    5.8400  137.6640  353.8700 C   0  0  0  0  0
    5.0050  137.0630  354.9050 N   0  3  0  0  0
    3.9660  138.9460  352.7960 C   0  0  0  0  0
    3.3940  140.1170  352.3250 C   0  0  0  0  0
    4.0750  141.3160  352.4480 C   0  0  0  0  0
    3.6460  142.5240  351.9590 O   0  0  0  0  0
    3.1380  143.5350  352.8690 C   0  0  0  0  0
    3.5260  144.8840  352.3410 C   0  0  0  0  0
    1.6580  143.3460  352.9490 C   0  0  0  0  0
    6.8650  140.1791  354.0064 H   0  0  0  0  0
    6.8281  137.8736  354.2797 H   0  0  0  0  0
    5.9285  136.9735  353.0313 H   0  0  0  0  0
    5.4331  136.1937  355.2233 H   0  0  0  0  0
    4.9206  137.7091  355.6898 H   0  0  0  0  0
    4.0797  136.8677  354.5228 H   0  0  0  0  0
    3.4224  138.0069  352.6927 H   0  0  0  0  0
    2.4092  140.0941  351.8583 H   0  0  0  0  0
    3.5527  143.4517  353.8736 H   0  0  0  0  0
    4.6122  144.9495  352.2782 H   0  0  0  0  0
    3.0945  145.0226  351.3497 H   0  0  0  0  0
    3.1523  145.6569  353.0127 H   0  0  0  0  0
    1.2234  143.4666  351.9567 H   0  0  0  0  0
    1.4405  142.3456  353.3232 H   0  0  0  0  0
    1.2342  144.0884  353.6253 H   0  0  0  0  0
  1  2  1  0  0  0
  2  3  4  0  0  0
  2  9  4  0  0  0
  3  4  4  0  0  0
  4  5  1  0  0  0
  4  7  4  0  0  0
  5  6  1  0  0  0
  7  8  4  0  0  0
  8  9  4  0  0  0
  9 10  1  0  0  0
 10 11  1  0  0  0
 11 12  1  0  0  0
 11 13  1  0  0  0
  3 14  1  0  0  0
  5 15  1  0  0  0
  5 16  1  0  0  0
  6 17  1  0  0  0
  6 18  1  0  0  0
  6 19  1  0  0  0
  7 20  1  0  0  0
  8 21  1  0  0  0
 11 22  1  0  0  0
 12 23  1  0  0  0
 12 24  1  0  0  0
 12 25  1  0  0  0
 13 26  1  0  0  0
 13 27  1  0  0  0
 13 28  1  0  0  0
M  END
$$$$
