### 
### Created by X-TOOL on Mon Aug  2 16:17:05 2021
### 

@<TRIPOS>MOLECULE
6hol_ligand
  170   174     1     0     0
SMALL
GAST_HUCK


@<TRIPOS>ATOM
      1 N          10.9460    6.8680   23.8780 N.4       1 ASP         0.2391
      2 CA         11.3200    7.9430   22.9630 C.3       1 ASP         0.0765
      3 C          11.7040    7.4280   21.5430 C.2       1 ASP         0.2285
      4 O          10.8730    7.4210   20.6290 O.2       1 ASP        -0.3906
      5 CB         12.4290    8.8180   23.5800 C.3       1 ASP         0.0607
      6 CG         13.7560    8.0640   23.7940 C.2       1 ASP         0.0425
      7 OD1        13.7690    6.8120   24.0200 O.co2     1 ASP        -0.5686
      8 OD2        14.8110    8.7420   23.7090 O.co2     1 ASP        -0.5686
      9 N          12.9570    7.0220   21.3830 N.am      1 ASP        -0.2599
     10 CA         13.4420    6.4440   20.1440 C.3       1 ASP         0.1353
     11 C          13.1960    4.9360   20.1320 C.2       1 ASP         0.2052
     12 O          13.0340    4.2700   21.1620 O.2       1 ASP        -0.3942
     13 CB         14.9400    6.6930   19.9750 C.3       1 ASP         0.0042
     14 CG         15.2530    8.0830   19.5930 C.2       1 ASP        -0.0418
     15 CD1        15.4580    9.1320   20.4430 C.2       1 ASP         0.0167
     16 CD2        15.3960    8.6020   18.2730 C.ar      1 ASP        -0.0214
     17 NE1        15.7070   10.2660   19.7240 N.pl3     1 ASP        -0.2890
     18 CE2        15.6730    9.9680   18.3910 C.ar      1 ASP         0.0603
     19 CE3        15.2860    8.0420   16.9980 C.ar      1 ASP        -0.0747
     20 CZ2        15.8560   10.7790   17.2980 C.ar      1 ASP        -0.0443
     21 CZ3        15.4510    8.8510   15.9190 C.ar      1 ASP        -0.0792
     22 CH2        15.7400   10.2080   16.0720 C.ar      1 ASP        -0.0768
     23 N          13.1600    4.3900   18.9350 N.am      1 ASP        -0.2635
     24 CA         13.0730    2.9450   18.7790 C.3       1 ASP         0.1325
     25 C          14.2360    2.5190   17.8940 C.2       1 ASP         0.2041
     26 O          14.3150    2.9500   16.7410 O.2       1 ASP        -0.3944
     27 CB         11.7470    2.5620   18.1210 C.3       1 ASP        -0.0008
     28 CG         11.5650    1.0690   17.8250 C.3       1 ASP         0.0044
     29 CD         11.4680    0.1970   19.0800 C.2       1 ASP         0.0350
     30 OE1        11.1250    0.7260   20.1750 O.co2     1 ASP        -0.5690
     31 OE2        11.7140   -1.0300   18.9520 O.co2     1 ASP        -0.5690
     32 N          15.1130    1.6560   18.4140 N.am      1 ASP        -0.2616
     33 CA         16.2290    1.1050   17.6570 C.3       1 ASP         0.1476
     34 C          15.7580   -0.1690   16.9670 C.2       1 ASP         0.2063
     35 O          15.3840   -1.1360   17.6350 O.2       1 ASP        -0.3942
     36 CB         17.3510    0.7570   18.6330 C.3       1 ASP         0.0773
     37 CG         18.6010    0.3650   17.9340 C.2       1 ASP         0.1780
     38 OD1        18.9590    0.9910   16.9430 O.2       1 ASP        -0.3970
     39 ND2        19.2780   -0.6700   18.4220 N.am      1 ASP        -0.3007
     40 N          15.7720   -0.1700   15.6150 N.am      1 ASP        -0.2636
     41 CA         15.3210   -1.3450   14.8530 C.3       1 ASP         0.1314
     42 C          16.4480   -2.3610   14.6930 C.2       1 ASP         0.2064
     43 O          17.6140   -1.9760   14.5620 O.2       1 ASP        -0.3942
     44 CB         14.8720   -0.9100   13.4860 C.3       1 ASP        -0.0101
     45 CG         13.5970   -0.0620   13.5640 C.3       1 ASP        -0.0425
     46 CD1        13.0970    0.1820   12.1400 C.3       1 ASP        -0.0625
     47 CD2        12.5420   -0.7930   14.3540 C.3       1 ASP        -0.0625
     48 N          16.1010   -3.6420   14.7710 N.am      1 ASP        -0.2498
     49 CA         17.0870   -4.7160   14.5760 C.3       1 ASP         0.1338
     50 C          17.5420   -4.8400   13.1280 C.2       1 ASP         0.2042
     51 O          16.9150   -4.3390   12.1910 O.2       1 ASP        -0.3944
     52 CB         16.3000   -5.9800   14.9400 C.3       1 ASP        -0.0104
     53 CG         14.8840   -5.6380   14.5620 C.3       1 ASP        -0.0281
     54 CD         14.7280   -4.1550   14.8990 C.3       1 ASP         0.0369
     55 N          18.6590   -5.5520   12.9750 N.am      1 ASP        -0.2616
     56 CA         19.0500   -5.9730   11.6320 C.3       1 ASP         0.1541
     57 C          18.7780   -7.4670   11.4260 C.2       1 ASP         0.2087
     58 O          18.7620   -8.2400   12.3940 O.2       1 ASP        -0.3941
     59 CB         20.5540   -5.7690   11.4200 C.3       1 ASP         0.0843
     60 OG         20.8600   -4.4010   11.4400 O.3       1 ASP        -0.3903
     61 N          18.5400   -7.9090   10.1860 N.am      1 ASP        -0.2498
     62 CA         18.3230   -9.3350    9.9420 C.3       1 ASP         0.1338
     63 C          19.6420  -10.0760   10.0110 C.2       1 ASP         0.2041
     64 O          20.7130   -9.4720   10.0140 O.2       1 ASP        -0.3944
     65 CB         17.7580   -9.3610    8.5220 C.3       1 ASP        -0.0104
     66 CG         18.4150   -8.1910    7.8460 C.3       1 ASP        -0.0281
     67 CD         18.4410   -7.1090    8.9490 C.3       1 ASP         0.0369
     68 N          19.5610  -11.4030   10.0370 N.am      1 ASP        -0.2637
     69 CA         20.7290  -12.2530   10.2280 C.3       1 ASP         0.1311
     70 C          20.7050  -13.4320    9.2540 C.2       1 ASP         0.2035
     71 O          19.6350  -13.9000    8.8440 O.2       1 ASP        -0.3944
     72 CB         20.7550  -12.8250   11.6570 C.3       1 ASP        -0.0092
     73 CG         20.9610  -11.7850   12.7570 C.3       1 ASP        -0.0156
     74 CD         22.4400  -11.4880   12.8970 C.3       1 ASP         0.0627
     75 NE         22.7130  -10.5170   13.9530 N.pl3     1 ASP        -0.2723
     76 CZ         22.7350   -9.2040   13.7760 C.cat     1 ASP         0.2882
     77 NH1        23.0000   -8.4080   14.8050 N.pl3     1 ASP        -0.2849
     78 NH2        22.4950   -8.6900   12.5780 N.pl3     1 ASP        -0.2849
     79 N          21.9030  -13.9330    8.9150 N.am      1 ASP        -0.2677
     80 CA         22.0600  -15.1460    8.0810 C.3       1 ASP         0.1039
     81 C          21.9180  -16.3850    8.9700 C.2       1 ASP         0.0621
     82 O          22.1050  -16.2970   10.1860 O.co2     1 ASP        -0.5664
     83 CB         23.4320  -15.1970    7.3940 C.3       1 ASP         0.0159
     84 CG         23.5300  -14.3080    6.2130 C.ar      1 ASP        -0.0392
     85 CD1        22.8910  -14.6320    5.0300 C.ar      1 ASP        -0.0602
     86 CD2        24.2340  -13.1310    6.2920 C.ar      1 ASP        -0.0602
     87 CE1        22.9570  -13.7880    3.9510 C.ar      1 ASP        -0.0686
     88 CE2        24.3440  -12.2870    5.1840 C.ar      1 ASP        -0.0686
     89 CZ         23.6920  -12.6160    4.0260 C.ar      1 ASP        -0.0687
     90 OXT        21.6430  -17.5080    8.4970 O.co2     1 ASP        -0.5664
     91 H1         10.7089    7.2588   24.7764 H         1 ASP         0.2016
     92 H2         11.7202    6.2310   23.9824 H         1 ASP         0.2016
     93 H3         10.1507    6.3722   23.5068 H         1 ASP         0.2016
     94 H4         10.4334    8.5821   22.8385 H         1 ASP         0.1117
     95 H5         12.0783    9.1898   24.5541 H         1 ASP         0.0512
     96 H6         12.6159    9.6689   22.9084 H         1 ASP         0.0512
     97 H7         13.5935    7.1184   22.1483 H         1 ASP         0.1886
     98 H8         12.9033    6.9058   19.3035 H         1 ASP         0.0815
     99 H9         15.3213    6.0201   19.1928 H         1 ASP         0.0397
    100 H10        15.4423    6.4696   20.9278 H         1 ASP         0.0397
    101 H11        15.4275    9.0731   21.5300 H         1 ASP         0.0795
    102 H12        15.8911   11.1976   20.1230 H         1 ASP         0.2216
    103 H13        15.0739    6.9864   16.8724 H         1 ASP         0.0540
    104 H14        16.0839   11.8329   17.4098 H         1 ASP         0.0541
    105 H15        15.3566    8.4355   14.9222 H         1 ASP         0.0510
    106 H16        15.8753   10.8218   15.1888 H         1 ASP         0.0530
    107 H17        13.1928    4.9739   18.1239 H         1 ASP         0.1883
    108 H18        13.1481    2.4557   19.7613 H         1 ASP         0.0801
    109 H19        11.6706    3.1081   17.1692 H         1 ASP         0.0330
    110 H20        10.9329    2.8765   18.7906 H         1 ASP         0.0330
    111 H21        12.4245    0.7261   17.2302 H         1 ASP         0.0433
    112 H22        10.6411    0.9412   17.2418 H         1 ASP         0.0433
    113 H23        14.9982    1.3752   19.3669 H         1 ASP         0.1885
    114 H24        16.5839    1.8330   16.9126 H         1 ASP         0.0826
    115 H25        17.0223   -0.0798   19.2669 H         1 ASP         0.0551
    116 H26        17.5577    1.6349   19.2627 H         1 ASP         0.0551
    117 H27        20.1250   -0.9663   17.9807 H         1 ASP         0.1814
    118 H28        18.9402   -1.1521   19.2304 H         1 ASP         0.1814
    119 H29        16.0939    0.6404   15.1254 H         1 ASP         0.1883
    120 H30        14.4809   -1.8166   15.3839 H         1 ASP         0.0800
    121 H31        14.6728   -1.8016   12.8733 H         1 ASP         0.0315
    122 H32        15.6704   -0.3149   13.0187 H         1 ASP         0.0315
    123 H33        13.8190    0.8991   14.0507 H         1 ASP         0.0298
    124 H34        12.1808    0.7899   12.1722 H         1 ASP         0.0232
    125 H35        12.8804   -0.7823   11.6571 H         1 ASP         0.0232
    126 H36        13.8700    0.7140   11.5661 H         1 ASP         0.0232
    127 H37        12.9052   -0.9667   15.3777 H         1 ASP         0.0232
    128 H38        12.3266   -1.7583   13.8726 H         1 ASP         0.0232
    129 H39        11.6243   -0.1875   14.3884 H         1 ASP         0.0232
    130 H40        17.9584   -4.5730   15.2318 H         1 ASP         0.0802
    131 H41        16.3780   -6.1947   16.0160 H         1 ASP         0.0313
    132 H42        16.6611   -6.8461   14.3661 H         1 ASP         0.0313
    133 H43        14.1725   -6.2428   15.1433 H         1 ASP         0.0287
    134 H44        14.7191   -5.8092   13.4880 H         1 ASP         0.0287
    135 H45        14.0517   -3.6569   14.1887 H         1 ASP         0.0524
    136 H46        14.3489   -4.0197   15.9227 H         1 ASP         0.0524
    137 H47        19.2199   -5.7938   13.7668 H         1 ASP         0.1884
    138 H48        18.4849   -5.3857   10.8933 H         1 ASP         0.0823
    139 H49        20.8457   -6.1933   10.4479 H         1 ASP         0.0606
    140 H50        21.1074   -6.2777   12.2231 H         1 ASP         0.0606
    141 H51        21.7935   -4.2845   11.3079 H         1 ASP         0.2097
    142 H52        17.6122   -9.7645   10.6633 H         1 ASP         0.0802
    143 H53        16.6646   -9.2416    8.5343 H         1 ASP         0.0313
    144 H54        18.0184  -10.3018    8.0150 H         1 ASP         0.0313
    145 H55        17.8264   -7.8556    6.9794 H         1 ASP         0.0287
    146 H56        19.4343   -8.4459    7.5205 H         1 ASP         0.0287
    147 H57        19.3116   -6.4465    8.8343 H         1 ASP         0.0524
    148 H58        17.5193   -6.5087    8.9375 H         1 ASP         0.0524
    149 H59        18.6658  -11.8333    9.9212 H         1 ASP         0.1883
    150 H60        21.6361  -11.6549   10.0563 H         1 ASP         0.0800
    151 H61        21.5747  -13.5559   11.7187 H         1 ASP         0.0313
    152 H62        19.7965  -13.3325   11.8405 H         1 ASP         0.0313
    153 H63        20.5734  -12.1761   13.7093 H         1 ASP         0.0301
    154 H64        20.4244  -10.8614   12.4942 H         1 ASP         0.0301
    155 H65        22.8121  -11.0867   11.9428 H         1 ASP         0.0689
    156 H66        22.9680  -12.4239   13.1320 H         1 ASP         0.0689
    157 H67        22.9012  -10.8771   14.8995 H         1 ASP         0.2642
    158 H68        23.0187   -7.3865   14.6744 H         1 ASP         0.2615
    159 H69        23.1869   -8.8120   15.7339 H         1 ASP         0.2615
    160 H70        22.2899   -9.3115   11.7826 H         1 ASP         0.2615
    161 H71        22.5136   -7.6691   12.4425 H         1 ASP         0.2615
    162 H72        22.7256  -13.4665    9.2400 H         1 ASP         0.1877
    163 H73        21.2741  -15.1526    7.3114 H         1 ASP         0.0749
    164 H74        23.6216  -16.2307    7.0693 H         1 ASP         0.0467
    165 H75        24.1987  -14.8950    8.1227 H         1 ASP         0.0467
    166 H76        22.3343  -15.5591    4.9551 H         1 ASP         0.0557
    167 H77        24.7101  -12.8536    7.2255 H         1 ASP         0.0557
    168 H78        22.4322  -14.0388    3.0362 H         1 ASP         0.0599
    169 H79        24.9386  -11.3824    5.2406 H         1 ASP         0.0599
    170 H80        23.7509  -11.9584    3.1663 H         1 ASP         0.0559
@<TRIPOS>BOND
     1    1    2 1  
     2    2    3 1  
     3    2    5 1  
     4    3    4 2  
     5    3    9 am 
     6    5    6 1  
     7    6    7 ar 
     8    6    8 ar 
     9    9   10 1  
    10   10   11 1  
    11   10   13 1  
    12   11   12 2  
    13   11   23 am 
    14   13   14 1  
    15   14   15 2  
    16   14   16 1  
    17   15   17 1  
    18   16   18 ar 
    19   16   19 ar 
    20   17   18 1  
    21   18   20 ar 
    22   19   21 ar 
    23   20   22 ar 
    24   21   22 ar 
    25   23   24 1  
    26   24   25 1  
    27   24   27 1  
    28   25   26 2  
    29   25   32 am 
    30   27   28 1  
    31   28   29 1  
    32   29   30 ar 
    33   29   31 ar 
    34   32   33 1  
    35   33   34 1  
    36   33   36 1  
    37   34   35 2  
    38   34   40 am 
    39   36   37 1  
    40   37   38 2  
    41   37   39 am 
    42   40   41 1  
    43   41   42 1  
    44   41   44 1  
    45   42   43 2  
    46   42   48 am 
    47   44   45 1  
    48   45   46 1  
    49   45   47 1  
    50   48   49 1  
    51   48   54 1  
    52   49   50 1  
    53   49   52 1  
    54   50   51 2  
    55   50   55 am 
    56   52   53 1  
    57   53   54 1  
    58   55   56 1  
    59   56   57 1  
    60   56   59 1  
    61   57   58 2  
    62   57   61 am 
    63   59   60 1  
    64   61   62 1  
    65   61   67 1  
    66   62   63 1  
    67   62   65 1  
    68   63   64 2  
    69   63   68 am 
    70   65   66 1  
    71   66   67 1  
    72   68   69 1  
    73   69   70 1  
    74   69   72 1  
    75   70   71 2  
    76   70   79 am 
    77   72   73 1  
    78   73   74 1  
    79   74   75 1  
    80   75   76 ar 
    81   76   77 ar 
    82   76   78 ar 
    83   79   80 1  
    84   80   81 1  
    85   80   83 1  
    86   81   82 ar 
    87   81   90 ar 
    88   83   84 1  
    89   84   85 ar 
    90   84   86 ar 
    91   85   87 ar 
    92   86   88 ar 
    93   87   89 ar 
    94   88   89 ar 
    95    1   91 1  
    96    1   92 1  
    97    1   93 1  
    98    2   94 1  
    99    5   95 1  
   100    5   96 1  
   101    9   97 1  
   102   10   98 1  
   103   13   99 1  
   104   13  100 1  
   105   15  101 1  
   106   17  102 1  
   107   19  103 1  
   108   20  104 1  
   109   21  105 1  
   110   22  106 1  
   111   23  107 1  
   112   24  108 1  
   113   27  109 1  
   114   27  110 1  
   115   28  111 1  
   116   28  112 1  
   117   32  113 1  
   118   33  114 1  
   119   36  115 1  
   120   36  116 1  
   121   39  117 1  
   122   39  118 1  
   123   40  119 1  
   124   41  120 1  
   125   44  121 1  
   126   44  122 1  
   127   45  123 1  
   128   46  124 1  
   129   46  125 1  
   130   46  126 1  
   131   47  127 1  
   132   47  128 1  
   133   47  129 1  
   134   49  130 1  
   135   52  131 1  
   136   52  132 1  
   137   53  133 1  
   138   53  134 1  
   139   54  135 1  
   140   54  136 1  
   141   55  137 1  
   142   56  138 1  
   143   59  139 1  
   144   59  140 1  
   145   60  141 1  
   146   62  142 1  
   147   65  143 1  
   148   65  144 1  
   149   66  145 1  
   150   66  146 1  
   151   67  147 1  
   152   67  148 1  
   153   68  149 1  
   154   69  150 1  
   155   72  151 1  
   156   72  152 1  
   157   73  153 1  
   158   73  154 1  
   159   74  155 1  
   160   74  156 1  
   161   75  157 1  
   162   77  158 1  
   163   77  159 1  
   164   78  160 1  
   165   78  161 1  
   166   79  162 1  
   167   80  163 1  
   168   83  164 1  
   169   83  165 1  
   170   85  166 1  
   171   86  167 1  
   172   87  168 1  
   173   88  169 1  
   174   89  170 1  
@<TRIPOS>SUBSTRUCTURE
     1 ASP         1

