6hol_ligand
  -I-interpret- 

171175  0  0  0  0  0  0  0  0999 V2000
   10.9460    6.8680   23.8780 N   0  3  0  0  0
   11.3200    7.9430   22.9630 C   0  0  0  0  0
   11.7040    7.4280   21.5430 C   0  0  0  0  0
   10.8730    7.4210   20.6290 O   0  0  0  0  0
   12.4290    8.8180   23.5800 C   0  0  0  0  0
   13.7560    8.0640   23.7940 C   0  0  0  0  0
   13.7690    6.8120   24.0200 O   0  0  0  0  0
   14.8110    8.7420   23.7090 O   0  0  0  0  0
   12.9570    7.0220   21.3830 N   0  0  0  0  0
   13.4420    6.4440   20.1440 C   0  0  0  0  0
   13.1960    4.9360   20.1320 C   0  0  0  0  0
   13.0340    4.2700   21.1620 O   0  0  0  0  0
   14.9400    6.6930   19.9750 C   0  0  0  0  0
   15.2530    8.0830   19.5930 C   0  0  0  0  0
   15.4580    9.1320   20.4430 C   0  0  0  0  0
   15.3960    8.6020   18.2730 C   0  0  0  0  0
   15.7070   10.2660   19.7240 N   0  0  0  0  0
   15.6730    9.9680   18.3910 C   0  0  0  0  0
   15.2860    8.0420   16.9980 C   0  0  0  0  0
   15.8560   10.7790   17.2980 C   0  0  0  0  0
   15.4510    8.8510   15.9190 C   0  0  0  0  0
   15.7400   10.2080   16.0720 C   0  0  0  0  0
   13.1600    4.3900   18.9350 N   0  0  0  0  0
   13.0730    2.9450   18.7790 C   0  0  0  0  0
   14.2360    2.5190   17.8940 C   0  0  0  0  0
   14.3150    2.9500   16.7410 O   0  0  0  0  0
   11.7470    2.5620   18.1210 C   0  0  0  0  0
   11.5650    1.0690   17.8250 C   0  0  0  0  0
   11.4680    0.1970   19.0800 C   0  0  0  0  0
   11.1250    0.7260   20.1750 O   0  0  0  0  0
   11.7140   -1.0300   18.9520 O   0  0  0  0  0
   15.1130    1.6560   18.4140 N   0  0  0  0  0
   16.2290    1.1050   17.6570 C   0  0  0  0  0
   15.7580   -0.1690   16.9670 C   0  0  0  0  0
   15.3840   -1.1360   17.6350 O   0  0  0  0  0
   17.3510    0.7570   18.6330 C   0  0  0  0  0
   18.6010    0.3650   17.9340 C   0  0  0  0  0
   18.9590    0.9910   16.9430 O   0  0  0  0  0
   19.2780   -0.6700   18.4220 N   0  0  0  0  0
   15.7720   -0.1700   15.6150 N   0  0  0  0  0
   15.3210   -1.3450   14.8530 C   0  0  0  0  0
   16.4480   -2.3610   14.6930 C   0  0  0  0  0
   17.6140   -1.9760   14.5620 O   0  0  0  0  0
   14.8720   -0.9100   13.4860 C   0  0  0  0  0
   13.5970   -0.0620   13.5640 C   0  0  0  0  0
   13.0970    0.1820   12.1400 C   0  0  0  0  0
   12.5420   -0.7930   14.3540 C   0  0  0  0  0
   16.1010   -3.6420   14.7710 N   0  0  0  0  0
   17.0870   -4.7160   14.5760 C   0  0  0  0  0
   17.5420   -4.8400   13.1280 C   0  0  0  0  0
   16.9150   -4.3390   12.1910 O   0  0  0  0  0
   16.3000   -5.9800   14.9400 C   0  0  0  0  0
   14.8840   -5.6380   14.5620 C   0  0  0  0  0
   14.7280   -4.1550   14.8990 C   0  0  0  0  0
   18.6590   -5.5520   12.9750 N   0  0  0  0  0
   19.0500   -5.9730   11.6320 C   0  0  0  0  0
   18.7780   -7.4670   11.4260 C   0  0  0  0  0
   18.7620   -8.2400   12.3940 O   0  0  0  0  0
   20.5540   -5.7690   11.4200 C   0  0  0  0  0
   20.8600   -4.4010   11.4400 O   0  0  0  0  0
   18.5400   -7.9090   10.1860 N   0  0  0  0  0
   18.3230   -9.3350    9.9420 C   0  0  0  0  0
   19.6420  -10.0760   10.0110 C   0  0  0  0  0
   20.7130   -9.4720   10.0140 O   0  0  0  0  0
   17.7580   -9.3610    8.5220 C   0  0  0  0  0
   18.4150   -8.1910    7.8460 C   0  0  0  0  0
   18.4410   -7.1090    8.9490 C   0  0  0  0  0
   19.5610  -11.4030   10.0370 N   0  0  0  0  0
   20.7290  -12.2530   10.2280 C   0  0  0  0  0
   20.7050  -13.4320    9.2540 C   0  0  0  0  0
   19.6350  -13.9000    8.8440 O   0  0  0  0  0
   20.7550  -12.8250   11.6570 C   0  0  0  0  0
   20.9610  -11.7850   12.7570 C   0  0  0  0  0
   22.4400  -11.4880   12.8970 C   0  0  0  0  0
   22.7130  -10.5170   13.9530 N   0  0  0  0  0
   22.7350   -9.2040   13.7760 C   0  0  0  0  0
   23.0000   -8.4080   14.8050 N   0  0  0  0  0
   22.4950   -8.6900   12.5780 N   0  0  0  0  0
   21.9030  -13.9330    8.9150 N   0  0  0  0  0
   22.0600  -15.1460    8.0810 C   0  0  0  0  0
   21.9180  -16.3850    8.9700 C   0  0  0  0  0
   22.1050  -16.2970   10.1860 O   0  0  0  0  0
   23.4320  -15.1970    7.3940 C   0  0  0  0  0
   23.5300  -14.3080    6.2130 C   0  0  0  0  0
   22.8910  -14.6320    5.0300 C   0  0  0  0  0
   24.2340  -13.1310    6.2920 C   0  0  0  0  0
   22.9570  -13.7880    3.9510 C   0  0  0  0  0
   24.3440  -12.2870    5.1840 C   0  0  0  0  0
   23.6920  -12.6160    4.0260 C   0  0  0  0  0
   21.6430  -17.5080    8.4970 O   0  0  0  0  0
   10.2124    6.3010   23.4528 H   0  0  0  0  0
   11.7613    6.2850   24.0671 H   0  0  0  0  0
   10.6040    7.2697   24.7509 H   0  0  0  0  0
   10.4361    8.5643   22.8189 H   0  0  0  0  0
   12.0792    9.1510   24.5571 H   0  0  0  0  0
   12.6245    9.6370   22.8878 H   0  0  0  0  0
   12.8674    6.4835   24.0474 H   0  0  0  0  0
   13.6062    7.1204   22.1636 H   0  0  0  0  0
   12.9017    6.9180   19.3246 H   0  0  0  0  0
   15.2975    6.0408   19.1781 H   0  0  0  0  0
   15.4199    6.4957   20.9336 H   0  0  0  0  0
   15.4275    9.0731   21.5310 H   0  0  0  0  0
   15.0727    6.9806   16.8717 H   0  0  0  0  0
   16.0852   11.8387   17.4104 H   0  0  0  0  0
   15.3561    8.4332   14.9167 H   0  0  0  0  0
   15.8761   10.8252   15.1839 H   0  0  0  0  0
   13.1934    4.9856   18.1076 H   0  0  0  0  0
   13.1196    2.4496   19.7488 H   0  0  0  0  0
   11.7176    3.0751   17.1598 H   0  0  0  0  0
   10.9606    2.8375   18.8236 H   0  0  0  0  0
   12.4415    0.7392   17.2672 H   0  0  0  0  0
   10.6282    0.9579   17.2790 H   0  0  0  0  0
   10.9882    1.6673   20.0453 H   0  0  0  0  0
   14.9959    1.3696   19.3859 H   0  0  0  0  0
   16.5855    1.8229   16.9183 H   0  0  0  0  0
   17.0229   -0.0869   19.2399 H   0  0  0  0  0
   17.5622    1.6403   19.2358 H   0  0  0  0  0
   20.1385   -0.9764   17.9680 H   0  0  0  0  0
   18.9369   -1.1577   19.2504 H   0  0  0  0  0
   16.1003    0.6566   15.1156 H   0  0  0  0  0
   14.4998   -1.8094   15.3990 H   0  0  0  0  0
   14.6628   -1.7982   12.8898 H   0  0  0  0  0
   15.6620   -0.3092   13.0355 H   0  0  0  0  0
   13.8080    0.8862   14.0585 H   0  0  0  0  0
   13.8638    0.7092   11.5724 H   0  0  0  0  0
   12.8827   -0.7742   11.6627 H   0  0  0  0  0
   12.1892    0.7844   12.1733 H   0  0  0  0  0
   12.3150   -1.7403   13.8650 H   0  0  0  0  0
   12.9108   -0.9822   15.3621 H   0  0  0  0  0
   11.6399   -0.1832   14.4042 H   0  0  0  0  0
   17.9859   -4.5373   15.1660 H   0  0  0  0  0
   16.3979   -6.2425   15.9934 H   0  0  0  0  0
   16.6680   -6.8640   14.4192 H   0  0  0  0  0
   14.1635   -6.2518   15.1025 H   0  0  0  0  0
   14.6902   -5.8339   13.5074 H   0  0  0  0  0
   14.0227   -3.6442   14.2435 H   0  0  0  0  0
   14.3049   -3.9885   15.8896 H   0  0  0  0  0
   19.2311   -5.7987   13.7826 H   0  0  0  0  0
   18.4690   -5.3732   10.9314 H   0  0  0  0  0
   20.8398   -6.1863   10.4544 H   0  0  0  0  0
   21.1000   -6.2703   12.2192 H   0  0  0  0  0
   21.8034   -4.2833   11.3065 H   0  0  0  0  0
   17.6642   -9.8101   10.6688 H   0  0  0  0  0
   16.6706   -9.2874    8.5093 H   0  0  0  0  0
   17.9659  -10.3019    8.0125 H   0  0  0  0  0
   17.8785   -7.8672    6.9541 H   0  0  0  0  0
   19.4098   -8.4293    7.4694 H   0  0  0  0  0
   19.2629   -6.4026    8.8325 H   0  0  0  0  0
   17.5643   -6.4616    8.9303 H   0  0  0  0  0
   18.6479  -11.8419    9.9189 H   0  0  0  0  0
   21.6108  -11.6371   10.0513 H   0  0  0  0  0
   21.5992  -13.5126   11.7083 H   0  0  0  0  0
   19.7823  -13.2844   11.8327 H   0  0  0  0  0
   20.5762  -12.1718   13.7006 H   0  0  0  0  0
   20.4287  -10.8699   12.4974 H   0  0  0  0  0
   22.7916  -11.0696   11.9539 H   0  0  0  0  0
   22.9488  -12.4175   13.1526 H   0  0  0  0  0
   22.8994  -10.8736   14.8903 H   0  0  0  0  0
   23.0195   -7.3964   14.6755 H   0  0  0  0  0
   23.1841   -8.8080   15.7251 H   0  0  0  0  0
   22.2929   -9.3055   11.7901 H   0  0  0  0  0
   22.7421  -13.4572    9.2465 H   0  0  0  0  0
   21.2903  -15.1207    7.3097 H   0  0  0  0  0
   23.5904  -16.2193    7.0506 H   0  0  0  0  0
   24.1756  -14.8650    8.1186 H   0  0  0  0  0
   22.3313  -15.5643    4.9547 H   0  0  0  0  0
   24.7127  -12.8521    7.2307 H   0  0  0  0  0
   22.4293  -14.0402    3.0312 H   0  0  0  0  0
   24.9419  -11.3774    5.2409 H   0  0  0  0  0
   23.7513  -11.9547    3.1615 H   0  0  0  0  0
   21.5236  -17.4335    7.5474 H   0  0  0  0  0
  1  2  1  0  0  0
  2  3  1  0  0  0
  2  5  1  0  0  0
  3  4  2  0  0  0
  3  9  1  0  0  0
  5  6  1  0  0  0
  6  7  1  0  0  0
  6  8  2  0  0  0
  9 10  1  0  0  0
 10 11  1  0  0  0
 10 13  1  0  0  0
 11 12  2  0  0  0
 11 23  1  0  0  0
 13 14  1  0  0  0
 14 15  4  0  0  0
 14 16  4  0  0  0
 15 17  4  0  0  0
 16 18  4  0  0  0
 16 19  4  0  0  0
 17 18  4  0  0  0
 18 20  4  0  0  0
 19 21  4  0  0  0
 20 22  4  0  0  0
 21 22  4  0  0  0
 23 24  1  0  0  0
 24 25  1  0  0  0
 24 27  1  0  0  0
 25 26  2  0  0  0
 25 32  1  0  0  0
 27 28  1  0  0  0
 28 29  1  0  0  0
 29 30  1  0  0  0
 29 31  2  0  0  0
 32 33  1  0  0  0
 33 34  1  0  0  0
 33 36  1  0  0  0
 34 35  2  0  0  0
 34 40  1  0  0  0
 36 37  1  0  0  0
 37 38  2  0  0  0
 37 39  1  0  0  0
 40 41  1  0  0  0
 41 42  1  0  0  0
 41 44  1  0  0  0
 42 43  2  0  0  0
 42 48  1  0  0  0
 44 45  1  0  0  0
 45 46  1  0  0  0
 45 47  1  0  0  0
 48 49  1  0  0  0
 48 54  1  0  0  0
 49 50  1  0  0  0
 49 52  1  0  0  0
 50 51  2  0  0  0
 50 55  1  0  0  0
 52 53  1  0  0  0
 53 54  1  0  0  0
 55 56  1  0  0  0
 56 57  1  0  0  0
 56 59  1  0  0  0
 57 58  2  0  0  0
 57 61  1  0  0  0
 59 60  1  0  0  0
 61 62  1  0  0  0
 61 67  1  0  0  0
 62 63  1  0  0  0
 62 65  1  0  0  0
 63 64  2  0  0  0
 63 68  1  0  0  0
 65 66  1  0  0  0
 66 67  1  0  0  0
 68 69  1  0  0  0
 69 70  1  0  0  0
 69 72  1  0  0  0
 70 71  2  0  0  0
 70 79  1  0  0  0
 72 73  1  0  0  0
 73 74  1  0  0  0
 74 75  1  0  0  0
 75 76  1  0  0  0
 76 77  1  0  0  0
 76 78  2  0  0  0
 79 80  1  0  0  0
 80 81  1  0  0  0
 80 83  1  0  0  0
 81 82  2  0  0  0
 81 90  1  0  0  0
 83 84  1  0  0  0
 84 85  4  0  0  0
 84 86  4  0  0  0
 85 87  4  0  0  0
 86 88  4  0  0  0
 87 89  4  0  0  0
 88 89  4  0  0  0
  1 91  1  0  0  0
  1 92  1  0  0  0
  1 93  1  0  0  0
  2 94  1  0  0  0
  5 95  1  0  0  0
  5 96  1  0  0  0
  7 97  1  0  0  0
  9 98  1  0  0  0
 10 99  1  0  0  0
 13100  1  0  0  0
 13101  1  0  0  0
 15102  1  0  0  0
 19103  1  0  0  0
 20104  1  0  0  0
 21105  1  0  0  0
 22106  1  0  0  0
 23107  1  0  0  0
 24108  1  0  0  0
 27109  1  0  0  0
 27110  1  0  0  0
 28111  1  0  0  0
 28112  1  0  0  0
 30113  1  0  0  0
 32114  1  0  0  0
 33115  1  0  0  0
 36116  1  0  0  0
 36117  1  0  0  0
 39118  1  0  0  0
 39119  1  0  0  0
 40120  1  0  0  0
 41121  1  0  0  0
 44122  1  0  0  0
 44123  1  0  0  0
 45124  1  0  0  0
 46125  1  0  0  0
 46126  1  0  0  0
 46127  1  0  0  0
 47128  1  0  0  0
 47129  1  0  0  0
 47130  1  0  0  0
 49131  1  0  0  0
 52132  1  0  0  0
 52133  1  0  0  0
 53134  1  0  0  0
 53135  1  0  0  0
 54136  1  0  0  0
 54137  1  0  0  0
 55138  1  0  0  0
 56139  1  0  0  0
 59140  1  0  0  0
 59141  1  0  0  0
 60142  1  0  0  0
 62143  1  0  0  0
 65144  1  0  0  0
 65145  1  0  0  0
 66146  1  0  0  0
 66147  1  0  0  0
 67148  1  0  0  0
 67149  1  0  0  0
 68150  1  0  0  0
 69151  1  0  0  0
 72152  1  0  0  0
 72153  1  0  0  0
 73154  1  0  0  0
 73155  1  0  0  0
 74156  1  0  0  0
 74157  1  0  0  0
 75158  1  0  0  0
 77159  1  0  0  0
 77160  1  0  0  0
 78161  1  0  0  0
 79162  1  0  0  0
 80163  1  0  0  0
 83164  1  0  0  0
 83165  1  0  0  0
 85166  1  0  0  0
 86167  1  0  0  0
 87168  1  0  0  0
 88169  1  0  0  0
 89170  1  0  0  0
 90171  1  0  0  0
M  END
$$$$
