4dcx_ligand
  -I-interpret- 

 57 64  0  0  0  0  0  0  0  0999 V2000
   -1.3840   -6.6840  -31.3440 C   0  0  0  0  0
   -0.5720   -7.7260  -31.7520 C   0  0  0  0  0
   -0.1740   -7.8160  -33.0790 C   0  0  0  0  0
   -0.5990   -6.8570  -33.9810 C   0  0  0  0  0
   -1.3790   -5.8800  -33.5650 N   0  0  0  0  0
   -1.7970   -5.7640  -32.2930 C   0  0  0  0  0
   -2.6870   -4.5710  -31.9350 C   0  0  0  0  0
   -2.9330   -4.0310  -33.2480 N   0  0  0  0  0
   -3.9520   -4.9310  -33.8780 C   0  0  0  0  0
   -3.9600   -4.9290  -35.4390 C   0  0  0  0  0
   -2.9160   -4.5690  -36.0500 O   0  0  0  0  0
   -4.9700   -5.4200  -36.0020 O   0  0  0  0  0
   -3.2740   -2.6070  -33.0640 C   0  0  0  0  0
   -4.7160   -2.4640  -32.5510 C   0  0  0  0  0
   -5.0150   -0.9800  -32.3880 C   0  0  0  0  0
   -4.8610   -0.2580  -33.7410 C   0  0  0  0  0
   -3.4230   -0.4580  -34.2370 C   0  0  0  0  0
   -3.1640   -1.9570  -34.3990 C   0  0  0  0  0
   -1.7650   -2.1450  -34.8670 N   0  0  0  0  0
   -0.8770   -1.3420  -33.9950 C   0  0  0  0  0
    0.2490   -2.1910  -33.3720 C   0  0  0  0  0
    0.1410   -3.4400  -33.3810 O   0  0  0  0  0
    1.1950   -1.5670  -32.8540 O   0  0  0  0  0
   -1.5930   -1.6750  -36.2530 C   0  0  0  0  0
   -0.3010   -2.3190  -36.7450 C   0  0  0  0  0
    0.5750   -1.6580  -37.5960 C   0  0  0  0  0
    1.7300   -2.3140  -38.0020 C   0  0  0  0  0
    1.9610   -3.6150  -37.5620 C   0  0  0  0  0
    1.0390   -4.2280  -36.7250 C   0  0  0  0  0
   -0.0440   -3.5690  -36.3490 N   0  0  0  0  0
   -1.3600   -4.1340  -34.6760 Fe  0  0  0  0  0
   -1.6911   -6.5892  -30.3025 H   0  0  0  0  0
   -0.2446   -8.4763  -31.0323 H   0  0  0  0  0
    0.4671   -8.6343  -33.4070 H   0  0  0  0  0
   -0.2916   -6.9092  -35.0255 H   0  0  0  0  0
   -2.2325   -3.8662  -31.2388 H   0  0  0  0  0
   -3.5891   -4.8349  -31.3830 H   0  0  0  0  0
   -4.9299   -4.5711  -33.5581 H   0  0  0  0  0
   -3.7098   -5.9470  -33.5662 H   0  0  0  0  0
   -2.6047   -2.1468  -32.3371 H   0  0  0  0  0
   -4.8275   -2.9769  -31.5957 H   0  0  0  0  0
   -5.4129   -2.9121  -33.2592 H   0  0  0  0  0
   -4.3152   -0.5504  -31.6712 H   0  0  0  0  0
   -6.0377   -0.8578  -32.0313 H   0  0  0  0  0
   -5.0695    0.8052  -33.6218 H   0  0  0  0  0
   -5.5652   -0.6685  -34.4646 H   0  0  0  0  0
   -2.7211   -0.0367  -33.5173 H   0  0  0  0  0
   -3.2878    0.0466  -35.1937 H   0  0  0  0  0
   -3.8782   -2.3838  -35.1032 H   0  0  0  0  0
   -1.4789   -0.9297  -33.1852 H   0  0  0  0  0
   -0.4177   -0.5631  -34.6036 H   0  0  0  0  0
   -1.5407   -0.5874  -36.3021 H   0  0  0  0  0
   -2.4414   -1.9547  -36.8775 H   0  0  0  0  0
    0.3607   -0.6455  -37.9382 H   0  0  0  0  0
    2.4462   -1.8171  -38.6564 H   0  0  0  0  0
    2.8595   -4.1481  -37.8728 H   0  0  0  0  0
    1.2069   -5.2480  -36.3792 H   0  0  0  0  0
  1  2  4  0  0  0
  1  6  4  0  0  0
  2  3  4  0  0  0
  3  4  4  0  0  0
  4  5  4  0  0  0
  5  6  4  0  0  0
  6  7  1  0  0  0
  7  8  1  0  0  0
  8  9  1  0  0  0
  8 13  1  0  0  0
  9 10  1  0  0  0
 10 11  1  0  0  0
 10 12  2  0  0  0
 13 14  1  0  0  0
 13 18  1  0  0  0
 14 15  1  0  0  0
 15 16  1  0  0  0
 16 17  1  0  0  0
 17 18  1  0  0  0
 18 19  1  0  0  0
 19 20  1  0  0  0
 19 24  1  0  0  0
 20 21  1  0  0  0
 21 22  1  0  0  0
 21 23  2  0  0  0
 24 25  1  0  0  0
 25 26  4  0  0  0
 25 30  4  0  0  0
 26 27  4  0  0  0
 27 28  4  0  0  0
 28 29  4  0  0  0
 29 30  4  0  0  0
  5 31  1  0  0  0
 31  8  1  0  0  0
 31 11  1  0  0  0
 31 19  1  0  0  0
 31 22  1  0  0  0
 31 30  1  0  0  0
  1 32  1  0  0  0
  2 33  1  0  0  0
  3 34  1  0  0  0
  4 35  1  0  0  0
  7 36  1  0  0  0
  7 37  1  0  0  0
  9 38  1  0  0  0
  9 39  1  0  0  0
 13 40  1  0  0  0
 14 41  1  0  0  0
 14 42  1  0  0  0
 15 43  1  0  0  0
 15 44  1  0  0  0
 16 45  1  0  0  0
 16 46  1  0  0  0
 17 47  1  0  0  0
 17 48  1  0  0  0
 18 49  1  0  0  0
 20 50  1  0  0  0
 20 51  1  0  0  0
 24 52  1  0  0  0
 24 53  1  0  0  0
 26 54  1  0  0  0
 27 55  1  0  0  0
 28 56  1  0  0  0
 29 57  1  0  0  0
M  END
$$$$
