### 
### Created by X-TOOL on Mon Sep 10 21:13:08 2018
### 

@<TRIPOS>MOLECULE
4dcx_ligand
   57    64     1     0     0
SMALL
GAST_HUCK


@<TRIPOS>ATOM
      1 CAK        -1.3840   -6.6840  -31.3440 C.ar      1 L2D         0.0754
      2 CAG        -0.5720   -7.7260  -31.7520 C.ar      1 L2D         0.0441
      3 CAE        -0.1740   -7.8160  -33.0790 C.ar      1 L2D         0.0567
      4 CAI        -0.5990   -6.8570  -33.9810 C.ar      1 L2D         0.1038
      5 NAU        -1.3790   -5.8800  -33.5650 N.ar      1 L2D        -0.1805
      6 CAY        -1.7970   -5.7640  -32.2930 C.ar      1 L2D         0.2041
      7 CAS        -2.6870   -4.5710  -31.9350 C.3       1 L2D         0.2279
      8 N          -2.9330   -4.0310  -33.2480 N.3       1 L2D        -0.1037
      9 CA         -3.9520   -4.9310  -33.8780 C.3       1 L2D         0.2337
     10 C          -3.9600   -4.9290  -35.4390 C.2       1 L2D         0.3354
     11 OXT        -2.9160   -4.5690  -36.0500 O.3       1 L2D        -0.0845
     12 O          -4.9700   -5.4200  -36.0020 O.2       1 L2D        -0.3601
     13 CBA        -3.2740   -2.6070  -33.0640 C.3       1 L2D         0.2005
     14 CAO        -4.7160   -2.4640  -32.5510 C.3       1 L2D         0.0112
     15 CAM        -5.0150   -0.9800  -32.3880 C.3       1 L2D        -0.0470
     16 CAN        -4.8610   -0.2580  -33.7410 C.3       1 L2D        -0.0470
     17 CAP        -3.4230   -0.4580  -34.2370 C.3       1 L2D         0.0112
     18 CBB        -3.1640   -1.9570  -34.3990 C.3       1 L2D         0.2005
     19 NBD        -1.7650   -2.1450  -34.8670 N.3       1 L2D        -0.1037
     20 CAR        -0.8770   -1.3420  -33.9950 C.3       1 L2D         0.2337
     21 CAX         0.2490   -2.1910  -33.3720 C.2       1 L2D         0.3354
     22 OAD         0.1410   -3.4400  -33.3810 O.3       1 L2D        -0.0845
     23 OAB         1.1950   -1.5670  -32.8540 O.2       1 L2D        -0.3601
     24 CAT        -1.5930   -1.6750  -36.2530 C.3       1 L2D         0.2279
     25 CAZ        -0.3010   -2.3190  -36.7450 C.ar      1 L2D         0.2041
     26 CAL         0.5750   -1.6580  -37.5960 C.ar      1 L2D         0.0754
     27 CAH         1.7300   -2.3140  -38.0020 C.ar      1 L2D         0.0441
     28 CAF         1.9610   -3.6150  -37.5620 C.ar      1 L2D         0.0567
     29 CAJ         1.0390   -4.2280  -36.7250 C.ar      1 L2D         0.1038
     30 NAV        -0.0440   -3.5690  -36.3490 N.ar      1 L2D        -0.1805
     31 FE         -1.3600   -4.1340  -34.6760 Fe        1 L2D         2.0000
     32 H          -1.6911   -6.5892  -30.3025 H         1 L2D         0.1279
     33 H          -0.2446   -8.4763  -31.0323 H         1 L2D         0.0965
     34 H           0.4671   -8.6343  -33.4070 H         1 L2D         0.1439
     35 H          -0.2916   -6.9092  -35.0255 H         1 L2D         0.1360
     36 H          -2.2325   -3.8662  -31.2388 H         1 L2D         0.1521
     37 H          -3.5891   -4.8349  -31.3830 H         1 L2D         0.1521
     38 H          -4.9299   -4.5711  -33.5581 H         1 L2D         0.1242
     39 H          -3.7098   -5.9470  -33.5662 H         1 L2D         0.1242
     40 H          -2.6047   -2.1468  -32.3371 H         1 L2D         0.1073
     41 H          -4.8275   -2.9769  -31.5957 H         1 L2D         0.0327
     42 H          -5.4129   -2.9121  -33.2592 H         1 L2D         0.0327
     43 H          -4.3152   -0.5504  -31.6712 H         1 L2D         0.0267
     44 H          -6.0377   -0.8578  -32.0313 H         1 L2D         0.0267
     45 H          -5.0695    0.8052  -33.6218 H         1 L2D         0.0267
     46 H          -5.5652   -0.6685  -34.4646 H         1 L2D         0.0267
     47 H          -2.7211   -0.0367  -33.5173 H         1 L2D         0.0327
     48 H          -3.2878    0.0466  -35.1937 H         1 L2D         0.0327
     49 H          -3.8782   -2.3838  -35.1032 H         1 L2D         0.1073
     50 H          -1.4789   -0.9297  -33.1852 H         1 L2D         0.1242
     51 H          -0.4177   -0.5631  -34.6036 H         1 L2D         0.1242
     52 H          -1.5407   -0.5874  -36.3021 H         1 L2D         0.1521
     53 H          -2.4414   -1.9547  -36.8775 H         1 L2D         0.1521
     54 H           0.3607   -0.6455  -37.9382 H         1 L2D         0.1279
     55 H           2.4462   -1.8171  -38.6564 H         1 L2D         0.0965
     56 H           2.8595   -4.1481  -37.8728 H         1 L2D         0.1439
     57 H           1.2069   -5.2480  -36.3792 H         1 L2D         0.1360
@<TRIPOS>BOND
     1    1    2 ar 
     2    1    6 ar 
     3    2    3 ar 
     4    3    4 ar 
     5    4    5 ar 
     6    5    6 ar 
     7    6    7 1  
     8    7    8 1  
     9    8    9 1  
    10    8   13 1  
    11    9   10 1  
    12   10   11 1  
    13   10   12 2  
    14   13   14 1  
    15   13   18 1  
    16   14   15 1  
    17   15   16 1  
    18   16   17 1  
    19   17   18 1  
    20   18   19 1  
    21   19   20 1  
    22   19   24 1  
    23   20   21 1  
    24   21   22 1  
    25   21   23 2  
    26   24   25 1  
    27   25   26 ar 
    28   25   30 ar 
    29   26   27 ar 
    30   27   28 ar 
    31   28   29 ar 
    32   29   30 ar 
    33    5   31 1  
    34   31    8 1  
    35   31   11 1  
    36   31   19 1  
    37   31   22 1  
    38   31   30 1  
    39    1   32 1  
    40    2   33 1  
    41    3   34 1  
    42    4   35 1  
    43    7   36 1  
    44    7   37 1  
    45    9   38 1  
    46    9   39 1  
    47   13   40 1  
    48   14   41 1  
    49   14   42 1  
    50   15   43 1  
    51   15   44 1  
    52   16   45 1  
    53   16   46 1  
    54   17   47 1  
    55   17   48 1  
    56   18   49 1  
    57   20   50 1  
    58   20   51 1  
    59   24   52 1  
    60   24   53 1  
    61   26   54 1  
    62   27   55 1  
    63   28   56 1  
    64   29   57 1  
@<TRIPOS>SUBSTRUCTURE
     1 L2D         1

