5m53_ligand
  -I-interpret- 

 54 57  0  0  0  0  0  0  0  0999 V2000
   35.2520   -3.6560   12.1180 C   0  0  0  0  0
   34.2710   -4.5290   11.6730 C   0  0  0  0  0
   33.1330   -4.7270   12.4570 C   0  0  0  0  0
   35.8560   -4.5130   10.1750 C   0  0  0  0  0
   33.0280   -4.0580   13.6360 N   0  0  0  0  0
   33.8950   -2.4970   15.2700 N   0  0  0  0  0
   35.0520   -3.0260   13.3250 N   0  0  0  0  0
   30.1720   -7.3500   11.2440 C   0  0  0  0  0
   29.1300   -8.5750   10.9450 C   0  0  0  0  0
   27.6490   -8.1330   11.2820 C   0  0  0  0  0
   27.5390   -7.7880   12.7710 C   0  0  0  0  0
   28.6630   -6.7000   13.2570 C   0  0  0  0  0
   30.1360   -6.9310   12.7150 C   0  0  0  0  0
   30.9100   -5.6410   12.9020 C   0  0  0  0  0
   32.1130   -5.6290   12.0030 O   0  0  0  0  0
   34.6790   -5.0380   10.4680 N   0  0  0  0  0
   36.2140   -3.6730   11.1500 N   0  0  0  0  0
   33.9790   -3.2180   14.0390 C   0  0  0  0  0
   32.7730   -2.4280   16.1760 C   0  0  0  0  0
   31.5780   -3.1400   15.9740 C   0  0  0  0  0
   32.9070   -1.6110   17.3060 C   0  0  0  0  0
   31.8580   -1.5060   18.2290 C   0  0  0  0  0
   30.6620   -2.2050   18.0190 C   0  0  0  0  0
   30.5190   -3.0150   16.8890 C   0  0  0  0  0
   29.1910   -3.7930   16.7050 C   0  0  0  0  0
   28.8520   -4.5400   17.6050 O   0  0  0  0  0
   28.3350   -3.6800   15.5320 N   0  0  0  0  0
   27.1140   -4.4530   15.4840 C   0  0  0  0  0
   28.6580   -2.8070   14.4230 C   0  0  0  0  0
   36.4407   -4.7305    9.2812 H   0  0  0  0  0
   34.7250   -1.9693   15.5402 H   0  0  0  0  0
   29.8835   -6.4942   10.6337 H   0  0  0  0  0
   31.1804   -7.6881   11.0055 H   0  0  0  0  0
   29.3966   -9.4283   11.5685 H   0  0  0  0  0
   29.1895   -8.8425    9.8900 H   0  0  0  0  0
   26.9663   -8.9501   11.0491 H   0  0  0  0  0
   27.3895   -7.2567   10.6880 H   0  0  0  0  0
   27.6962   -8.7055   13.3381 H   0  0  0  0  0
   26.5556   -7.3491   12.9396 H   0  0  0  0  0
   28.7200   -6.7834   14.3423 H   0  0  0  0  0
   28.3419   -5.7340   12.8675 H   0  0  0  0  0
   30.5831   -7.7503   13.2779 H   0  0  0  0  0
   31.2366   -5.5658   13.9392 H   0  0  0  0  0
   30.2668   -4.7973   12.6517 H   0  0  0  0  0
   31.4726   -3.7905   15.1057 H   0  0  0  0  0
   33.8305   -1.0550   17.4678 H   0  0  0  0  0
   31.9727   -0.8787   19.1130 H   0  0  0  0  0
   29.8450   -2.1173   18.7352 H   0  0  0  0  0
   27.3545   -5.5141   15.5492 H   0  0  0  0  0
   26.4745   -4.1720   16.3207 H   0  0  0  0  0
   26.5959   -4.2536   14.5460 H   0  0  0  0  0
   28.7196   -1.7783   14.7780 H   0  0  0  0  0
   29.6161   -3.1033   13.9961 H   0  0  0  0  0
   27.8806   -2.8845   13.6629 H   0  0  0  0  0
  2  1  4  0  0  0
  1  7  4  0  0  0
  1 17  4  0  0  0
  3  2  4  0  0  0
  2 16  4  0  0  0
  3  5  4  0  0  0
 15  3  1  0  0  0
 16  4  4  0  0  0
  4 17  4  0  0  0
  5 18  4  0  0  0
 18  6  1  0  0  0
  6 19  1  0  0  0
 18  7  4  0  0  0
  8  9  1  0  0  0
 13  8  1  0  0  0
  9 10  1  0  0  0
 11 10  1  0  0  0
 12 11  1  0  0  0
 13 12  1  0  0  0
 14 13  1  0  0  0
 14 15  1  0  0  0
 19 20  4  0  0  0
 19 21  4  0  0  0
 20 24  4  0  0  0
 21 22  4  0  0  0
 22 23  4  0  0  0
 23 24  4  0  0  0
 24 25  1  0  0  0
 25 26  2  0  0  0
 25 27  1  0  0  0
 27 28  1  0  0  0
 27 29  1  0  0  0
  4 30  1  0  0  0
  6 31  1  0  0  0
  8 32  1  0  0  0
  8 33  1  0  0  0
  9 34  1  0  0  0
  9 35  1  0  0  0
 10 36  1  0  0  0
 10 37  1  0  0  0
 11 38  1  0  0  0
 11 39  1  0  0  0
 12 40  1  0  0  0
 12 41  1  0  0  0
 13 42  1  0  0  0
 14 43  1  0  0  0
 14 44  1  0  0  0
 20 45  1  0  0  0
 21 46  1  0  0  0
 22 47  1  0  0  0
 23 48  1  0  0  0
 28 49  1  0  0  0
 28 50  1  0  0  0
 28 51  1  0  0  0
 29 52  1  0  0  0
 29 53  1  0  0  0
 29 54  1  0  0  0
M  END
$$$$
