5a81_ligand
  -I-interpret- 

 58 61  0  0  0  0  0  0  0  0999 V2000
  -23.6050   44.8200    9.9600 C   0  0  0  0  0
  -24.9320   44.8210   10.6730 C   0  0  0  0  0
  -25.8350   45.7580   10.3440 C   0  0  0  0  0
  -27.1100   45.7880   11.0090 C   0  0  0  0  0
  -28.1080   46.7260   10.7420 C   0  0  0  0  0
  -29.2890   46.6400   11.4480 C   0  0  0  0  0
  -29.5420   45.7100   12.3860 N   0  0  0  0  0
  -28.6130   44.7760   12.6820 C   0  0  0  0  0
  -28.9240   43.8750   13.6390 N   0  0  0  0  0
  -30.2590   43.5430   14.1140 C   0  0  0  0  0
  -30.2040   43.0400   15.5540 C   0  0  0  0  0
  -31.5890   42.6520   16.0260 C   0  0  0  0  0
  -32.1350   41.5970   15.1670 N   0  3  0  0  0
  -32.2750   42.0770   13.7930 C   0  0  0  0  0
  -30.9250   42.4970   13.2320 C   0  0  0  0  0
  -31.1050   43.0550   11.9270 O   0  0  0  0  0
  -31.2000   42.1040   10.8630 C   0  0  0  0  0
  -31.2180   42.8150    9.5330 C   0  0  0  0  0
  -29.8960   43.5310    9.2870 C   0  0  0  0  0
  -29.8420   44.2050    7.9200 C   0  0  0  0  0
  -30.1030   43.2090    6.8080 C   0  0  0  0  0
  -31.4190   42.4830    7.0250 C   0  0  0  0  0
  -31.4650   41.8240    8.4020 C   0  0  0  0  0
  -27.3740   44.8200   11.9850 C   0  0  0  0  0
  -26.4000   43.8800   12.2760 N   0  0  0  0  0
  -25.1820   43.8100   11.6910 C   0  0  0  0  0
  -24.3860   42.9320   12.0200 O   0  0  0  0  0
  -23.7687   44.6866    8.8907 H   0  0  0  0  0
  -23.0989   45.7692   10.1357 H   0  0  0  0  0
  -22.9907   44.0035   10.3395 H   0  0  0  0  0
  -25.6026   46.4944    9.5747 H   0  0  0  0  0
  -27.9579   47.5057    9.9953 H   0  0  0  0  0
  -30.0671   47.3722   11.2323 H   0  0  0  0  0
  -28.1457   43.3778   14.0719 H   0  0  0  0  0
  -30.8550   44.4546   14.0707 H   0  0  0  0  0
  -29.8182   43.8333   16.1943 H   0  0  0  0  0
  -29.5532   42.1669   15.6022 H   0  0  0  0  0
  -32.2407   43.5245   15.9802 H   0  0  0  0  0
  -31.5286   42.2845   17.0504 H   0  0  0  0  0
  -33.0532   41.3255   15.5184 H   0  0  0  0  0
  -31.4990   40.7996   15.1764 H   0  0  0  0  0
  -32.9434   42.9380   13.7862 H   0  0  0  0  0
  -32.6784   41.2729   13.1775 H   0  0  0  0  0
  -30.2894   41.6124   13.1920 H   0  0  0  0  0
  -32.1210   41.5320   10.9755 H   0  0  0  0  0
  -30.3384   41.4374   10.9008 H   0  0  0  0  0
  -32.0247   43.5476    9.5575 H   0  0  0  0  0
  -29.0990   42.7886    9.3275 H   0  0  0  0  0
  -29.7857   44.3040   10.0475 H   0  0  0  0  0
  -28.8481   44.6301    7.7804 H   0  0  0  0  0
  -30.6096   44.9780    7.8823 H   0  0  0  0  0
  -29.2966   42.4757    6.7991 H   0  0  0  0  0
  -30.1525   43.7470    5.8613 H   0  0  0  0  0
  -31.5187   41.7083    6.2648 H   0  0  0  0  0
  -32.2311   43.2070    6.9582 H   0  0  0  0  0
  -32.4598   41.3998    8.5383 H   0  0  0  0  0
  -30.6797   41.0690    8.4395 H   0  0  0  0  0
  -26.6183   43.1840   12.9890 H   0  0  0  0  0
  1  2  1  0  0  0
  2  3  2  0  0  0
  2 26  1  0  0  0
  3  4  1  0  0  0
  4  5  4  0  0  0
  4 24  4  0  0  0
  5  6  4  0  0  0
  6  7  4  0  0  0
  7  8  4  0  0  0
  8  9  1  0  0  0
  8 24  4  0  0  0
  9 10  1  0  0  0
 10 11  1  0  0  0
 10 15  1  0  0  0
 11 12  1  0  0  0
 12 13  1  0  0  0
 13 14  1  0  0  0
 14 15  1  0  0  0
 15 16  1  0  0  0
 16 17  1  0  0  0
 17 18  1  0  0  0
 18 19  1  0  0  0
 18 23  1  0  0  0
 19 20  1  0  0  0
 20 21  1  0  0  0
 21 22  1  0  0  0
 22 23  1  0  0  0
 24 25  1  0  0  0
 25 26  1  0  0  0
 26 27  2  0  0  0
  1 28  1  0  0  0
  1 29  1  0  0  0
  1 30  1  0  0  0
  3 31  1  0  0  0
  5 32  1  0  0  0
  6 33  1  0  0  0
  9 34  1  0  0  0
 10 35  1  0  0  0
 11 36  1  0  0  0
 11 37  1  0  0  0
 12 38  1  0  0  0
 12 39  1  0  0  0
 13 40  1  0  0  0
 13 41  1  0  0  0
 14 42  1  0  0  0
 14 43  1  0  0  0
 15 44  1  0  0  0
 17 45  1  0  0  0
 17 46  1  0  0  0
 18 47  1  0  0  0
 19 48  1  0  0  0
 19 49  1  0  0  0
 20 50  1  0  0  0
 20 51  1  0  0  0
 21 52  1  0  0  0
 21 53  1  0  0  0
 22 54  1  0  0  0
 22 55  1  0  0  0
 23 56  1  0  0  0
 23 57  1  0  0  0
 25 58  1  0  0  0
M  END
$$$$
