6e59_ligand
  -I-interpret- 

 69 72  0  0  0  0  0  0  0  0999 V2000
  -12.9740   53.0850   55.7000 F   0  0  0  0  0
  -14.2790   53.4530   55.7840 C   0  0  0  0  0
  -15.2620   52.5270   56.1470 C   0  0  0  0  0
  -16.5990   52.9230   56.2260 C   0  0  0  0  0
  -14.6340   54.7690   55.5010 C   0  0  0  0  0
  -15.9650   55.1560   55.5750 C   0  0  0  0  0
  -16.9570   54.2480   55.9430 C   0  0  0  0  0
  -18.2860   54.7170   56.0110 C   0  0  0  0  0
  -19.1830   54.1740   57.0530 N   0  3  0  0  0
  -18.6230   54.1610   58.4390 C   0  0  0  0  0
  -17.8750   55.4280   58.8490 C   0  0  0  0  0
  -18.3610   56.4650   59.4940 C   0  0  0  0  0
  -19.7850   56.6710   60.0130 C   0  0  0  0  0
  -19.7920   56.6370   61.4920 N   0  3  0  0  0
  -21.1660   56.8180   61.9900 C   0  0  0  0  0
  -19.1910   55.3900   62.0200 C   0  0  0  0  0
  -17.3580   57.3090   59.6440 N   0  0  0  0  0
  -16.3340   56.7790   59.0990 N   0  0  0  0  0
  -16.5900   55.6760   58.6280 N   0  0  0  0  0
  -20.5160   54.8290   56.9800 C   0  0  0  0  0
  -21.1000   54.6560   55.5850 C   0  0  0  0  0
  -20.1890   55.2050   54.6760 O   0  0  0  0  0
  -18.9560   54.4820   54.6780 C   0  0  0  0  0
  -19.2050   53.0610   54.5220 O   0  0  0  0  0
  -19.4100   52.7110   53.1560 C   0  0  0  0  0
  -20.1460   51.3760   53.0700 C   0  0  0  0  0
  -18.1530   52.6660   52.5580 C   0  0  0  0  0
  -17.8860   53.5540   51.5270 C   0  0  0  0  0
  -16.6350   53.5520   50.9350 C   0  0  0  0  0
  -16.3770   54.4420   49.9220 C   0  0  0  0  0
  -15.0880   54.5090   49.7510 F   0  0  0  0  0
  -16.8510   55.6820   50.3220 F   0  0  0  0  0
  -16.9760   54.0490   48.8040 F   0  0  0  0  0
  -15.6450   52.6820   51.3750 C   0  0  0  0  0
  -15.9030   51.7950   52.4100 C   0  0  0  0  0
  -17.1610   51.7980   53.0140 C   0  0  0  0  0
  -14.8860   50.9400   52.8280 C   0  0  0  0  0
  -14.6320   50.0250   51.8590 F   0  0  0  0  0
  -13.7950   51.6430   53.0550 F   0  0  0  0  0
  -15.2380   50.3310   53.9580 F   0  0  0  0  0
  -14.9848   51.4963   56.3683 H   0  0  0  0  0
  -17.3649   52.2006   56.5081 H   0  0  0  0  0
  -13.8689   55.4935   55.2221 H   0  0  0  0  0
  -16.2387   56.1850   55.3420 H   0  0  0  0  0
  -18.1533   55.7630   56.2873 H   0  0  0  0  0
  -19.2884   53.1825   56.8381 H   0  0  0  0  0
  -17.9016   53.3448   58.4778 H   0  0  0  0  0
  -19.4699   54.0635   59.1182 H   0  0  0  0  0
  -20.4250   55.8751   59.6322 H   0  0  0  0  0
  -20.1546   57.6388   59.6740 H   0  0  0  0  0
  -19.2139   57.4066   61.8295 H   0  0  0  0  0
  -21.5508   57.7794   61.6497 H   0  0  0  0  0
  -21.7981   56.0164   61.6080 H   0  0  0  0  0
  -21.1626   56.7917   63.0797 H   0  0  0  0  0
  -19.7574   54.5328   61.6560 H   0  0  0  0  0
  -18.1576   55.3146   61.6816 H   0  0  0  0  0
  -19.2174   55.4084   63.1095 H   0  0  0  0  0
  -20.4075   55.8919   57.1959 H   0  0  0  0  0
  -21.1834   54.3701   57.7095 H   0  0  0  0  0
  -22.0635   55.1601   55.5102 H   0  0  0  0  0
  -21.2644   53.6003   55.3690 H   0  0  0  0  0
  -18.3273   54.8204   53.8544 H   0  0  0  0  0
  -20.0317   53.4392   52.6350 H   0  0  0  0  0
  -19.5511   50.6026   53.5558 H   0  0  0  0  0
  -21.1109   51.4616   53.5698 H   0  0  0  0  0
  -20.2996   51.1141   52.0232 H   0  0  0  0  0
  -18.6546   54.2475   51.1858 H   0  0  0  0  0
  -14.6616   52.6965   50.9050 H   0  0  0  0  0
  -17.3686   51.1214   53.8429 H   0  0  0  0  0
  1  2  1  0  0  0
  2  3  4  0  0  0
  2  5  4  0  0  0
  3  4  4  0  0  0
  4  7  4  0  0  0
  5  6  4  0  0  0
  6  7  4  0  0  0
  7  8  1  0  0  0
  8  9  1  0  0  0
  8 23  1  0  0  0
  9 10  1  0  0  0
  9 20  1  0  0  0
 10 11  1  0  0  0
 11 12  4  0  0  0
 11 19  4  0  0  0
 12 13  1  0  0  0
 12 17  4  0  0  0
 13 14  1  0  0  0
 14 15  1  0  0  0
 14 16  1  0  0  0
 17 18  4  0  0  0
 18 19  4  0  0  0
 20 21  1  0  0  0
 21 22  1  0  0  0
 22 23  1  0  0  0
 23 24  1  0  0  0
 24 25  1  0  0  0
 25 26  1  0  0  0
 25 27  1  0  0  0
 27 28  4  0  0  0
 27 36  4  0  0  0
 28 29  4  0  0  0
 29 30  1  0  0  0
 29 34  4  0  0  0
 30 31  1  0  0  0
 30 32  1  0  0  0
 30 33  1  0  0  0
 34 35  4  0  0  0
 35 36  4  0  0  0
 35 37  1  0  0  0
 37 38  1  0  0  0
 37 39  1  0  0  0
 37 40  1  0  0  0
  3 41  1  0  0  0
  4 42  1  0  0  0
  5 43  1  0  0  0
  6 44  1  0  0  0
  8 45  1  0  0  0
  9 46  1  0  0  0
 10 47  1  0  0  0
 10 48  1  0  0  0
 13 49  1  0  0  0
 13 50  1  0  0  0
 14 51  1  0  0  0
 15 52  1  0  0  0
 15 53  1  0  0  0
 15 54  1  0  0  0
 16 55  1  0  0  0
 16 56  1  0  0  0
 16 57  1  0  0  0
 20 58  1  0  0  0
 20 59  1  0  0  0
 21 60  1  0  0  0
 21 61  1  0  0  0
 23 62  1  0  0  0
 25 63  1  0  0  0
 26 64  1  0  0  0
 26 65  1  0  0  0
 26 66  1  0  0  0
 28 67  1  0  0  0
 34 68  1  0  0  0
 36 69  1  0  0  0
M  END
$$$$
