3hfz_ligand
  -I-interpret- 

 25 25  0  0  0  0  0  0  0  0999 V2000
   19.8840   62.7180   19.5950 N   0  3  0  0  0
   18.8820   63.5880   18.9670 C   0  0  0  0  0
   19.1460   63.6650   17.4630 C   0  0  0  0  0
   20.5220   64.2290   17.2220 C   0  0  0  0  0
   20.6930   65.5940   17.0880 C   0  0  0  0  0
   21.9550   66.1140   16.8680 C   0  0  0  0  0
   21.6100   63.3840   17.1400 C   0  0  0  0  0
   22.8750   63.9030   16.9140 C   0  0  0  0  0
   23.0450   65.2730   16.7810 C   0  0  0  0  0
   23.9480   63.0720   16.8290 O   0  0  0  0  0
   17.5060   63.0230   19.2070 C   0  0  0  0  0
   17.3520   61.8330   19.3230 O   0  0  0  0  0
   16.4490   63.8470   19.2920 O   0  0  0  0  0
   20.8152   63.1011   19.4321 H   0  0  0  0  0
   19.7069   62.6665   20.5982 H   0  0  0  0  0
   19.8236   61.7840   19.1895 H   0  0  0  0  0
   18.9452   64.5868   19.3989 H   0  0  0  0  0
   18.4021   64.3108   16.9965 H   0  0  0  0  0
   19.0825   62.6660   17.0317 H   0  0  0  0  0
   19.8331   66.2604   17.1558 H   0  0  0  0  0
   22.0890   67.1906   16.7631 H   0  0  0  0  0
   21.4744   62.3084   17.2530 H   0  0  0  0  0
   24.0392   65.6849   16.6078 H   0  0  0  0  0
   24.7407   63.5899   16.6712 H   0  0  0  0  0
   16.7419   64.7542   19.1786 H   0  0  0  0  0
  1  2  1  0  0  0
  2  3  1  0  0  0
  2 11  1  0  0  0
  3  4  1  0  0  0
  4  5  4  0  0  0
  4  7  4  0  0  0
  5  6  4  0  0  0
  6  9  4  0  0  0
  7  8  4  0  0  0
  8  9  4  0  0  0
  8 10  1  0  0  0
 11 12  2  0  0  0
 11 13  1  0  0  0
  1 14  1  0  0  0
  1 15  1  0  0  0
  1 16  1  0  0  0
  2 17  1  0  0  0
  3 18  1  0  0  0
  3 19  1  0  0  0
  5 20  1  0  0  0
  6 21  1  0  0  0
  7 22  1  0  0  0
  9 23  1  0  0  0
 10 24  1  0  0  0
 13 25  1  0  0  0
M  END
$$$$
