3ant_ligand
  -I-interpret- 

 52 55  0  0  0  0  0  0  0  0999 V2000
   24.2230   25.1070  116.2560 N   0  0  0  0  0
   25.4360   24.5360  116.5590 C   0  0  0  0  0
   26.0590   23.8900  115.5220 N   0  0  0  0  0
   26.8300   22.7310  115.8000 C   0  0  0  0  0
   28.3280   22.7740  115.8050 C   0  0  0  0  0
   27.6020   22.0100  114.7430 C   0  0  0  0  0
   29.1500   22.0800  116.8130 C   0  0  0  0  0
   28.6150   21.4890  117.9390 C   0  0  0  0  0
   29.4000   20.8490  118.8740 C   0  0  0  0  0
   30.7630   20.7910  118.6970 C   0  0  0  0  0
   31.3180   21.3790  117.5820 C   0  0  0  0  0
   30.5160   22.0100  116.6570 C   0  0  0  0  0
   25.9190   24.5870  117.6800 O   0  0  0  0  0
   23.4080   25.5590  117.3480 C   0  0  0  0  0
   23.5170   27.0600  117.4660 C   0  0  0  0  0
   23.0590   27.6900  116.1690 C   0  0  0  0  0
   23.8150   27.1600  114.9660 C   0  0  0  0  0
   23.9220   25.6490  114.9540 C   0  0  0  0  0
   21.5950   27.6060  116.0080 C   0  0  0  0  0
   20.6590   27.6240  116.9280 N   0  0  0  0  0
   19.5230   27.5190  116.1700 C   0  0  0  0  0
   19.7290   27.4420  114.8490 N   0  0  0  0  0
   21.1150   27.5020  114.7400 O   0  0  0  0  0
   18.1790   27.4960  116.7840 C   0  0  0  0  0
   17.7000   26.0870  117.0460 C   0  0  0  0  0
   17.1570   28.2870  115.9980 C   0  0  0  0  0
   25.9698   24.2366  114.5668 H   0  0  0  0  0
   26.0581   22.4433  116.5138 H   0  0  0  0  0
   29.0649   23.5768  115.8284 H   0  0  0  0  0
   27.6073   21.9158  113.6571 H   0  0  0  0  0
   27.6309   21.0217  114.2842 H   0  0  0  0  0
   27.5369   21.5295  118.0943 H   0  0  0  0  0
   28.9424   20.3905  119.7506 H   0  0  0  0  0
   31.3946   20.2870  119.4286 H   0  0  0  0  0
   32.3969   21.3448  117.4309 H   0  0  0  0  0
   30.9745   22.4655  115.7792 H   0  0  0  0  0
   23.7490   25.0951  118.2735 H   0  0  0  0  0
   22.3695   25.2823  117.1664 H   0  0  0  0  0
   24.5517   27.3391  117.6652 H   0  0  0  0  0
   22.8910   27.4108  118.2865 H   0  0  0  0  0
   23.3053   28.7502  116.2272 H   0  0  0  0  0
   24.8264   27.5645  115.0044 H   0  0  0  0  0
   23.2700   27.4617  114.0716 H   0  0  0  0  0
   22.9605   25.2460  114.6358 H   0  0  0  0  0
   24.7330   25.3744  114.2795 H   0  0  0  0  0
   18.2842   27.9944  117.7477 H   0  0  0  0  0
   17.6541   25.5393  116.1047 H   0  0  0  0  0
   18.3931   25.5892  117.7241 H   0  0  0  0  0
   16.7084   26.1198  117.4975 H   0  0  0  0  0
   17.4752   29.3276  115.9347 H   0  0  0  0  0
   17.0706   27.8705  114.9944 H   0  0  0  0  0
   16.1913   28.2309  116.5004 H   0  0  0  0  0
  1  2  1  0  0  0
  1 14  1  0  0  0
  1 18  1  0  0  0
  2  3  1  0  0  0
  2 13  2  0  0  0
  3  4  1  0  0  0
  4  5  1  0  0  0
  4  6  1  0  0  0
  5  6  1  0  0  0
  5  7  1  0  0  0
  7  8  4  0  0  0
  7 12  4  0  0  0
  8  9  4  0  0  0
  9 10  4  0  0  0
 10 11  4  0  0  0
 11 12  4  0  0  0
 14 15  1  0  0  0
 15 16  1  0  0  0
 16 17  1  0  0  0
 16 19  1  0  0  0
 17 18  1  0  0  0
 19 20  4  0  0  0
 19 23  4  0  0  0
 20 21  4  0  0  0
 21 22  4  0  0  0
 21 24  1  0  0  0
 22 23  4  0  0  0
 24 25  1  0  0  0
 24 26  1  0  0  0
  3 27  1  0  0  0
  4 28  1  0  0  0
  5 29  1  0  0  0
  6 30  1  0  0  0
  6 31  1  0  0  0
  8 32  1  0  0  0
  9 33  1  0  0  0
 10 34  1  0  0  0
 11 35  1  0  0  0
 12 36  1  0  0  0
 14 37  1  0  0  0
 14 38  1  0  0  0
 15 39  1  0  0  0
 15 40  1  0  0  0
 16 41  1  0  0  0
 17 42  1  0  0  0
 17 43  1  0  0  0
 18 44  1  0  0  0
 18 45  1  0  0  0
 24 46  1  0  0  0
 25 47  1  0  0  0
 25 48  1  0  0  0
 25 49  1  0  0  0
 26 50  1  0  0  0
 26 51  1  0  0  0
 26 52  1  0  0  0
M  END
$$$$
