### 
### Created by X-TOOL on Mon Sep 10 21:12:55 2018
### 

@<TRIPOS>MOLECULE
2pvw_ligand
   21    20     1     0     0
SMALL
GAST_HUCK


@<TRIPOS>ATOM
      1 O6         13.2570   47.2300   39.6550 O.co2     1 G88        -0.5690
      2 C6         16.6740   45.2800   43.1190 C.3       1 G88         0.0339
      3 O7         18.7430   44.7750   44.7620 O.co2     1 G88        -0.5622
      4 C5         16.0990   44.7150   41.7680 C.3       1 G88         0.0282
      5 C4         17.1720   44.7800   40.6730 C.2       1 G88         0.0393
      6 C2         14.8170   45.4990   41.3340 C.3       1 G88        -0.0257
      7 C3         15.1910   46.9740   41.1330 C.3       1 G88         0.0020
      8 O5         13.9730   49.0030   40.7900 O.co2     1 G88        -0.5690
      9 O4         17.0980   43.9790   39.6900 O.co2     1 G88        -0.5687
     10 C1         14.0610   47.7720   40.4770 C.2       1 G88         0.0349
     11 P1         17.6870   44.0350   44.0120 P.3       1 G88         0.0597
     12 O2         18.4410   43.1880   42.9290 O.co2     1 G88        -0.5622
     13 O3         18.1070   45.6220   40.7610 O.co2     1 G88        -0.5687
     14 O1         16.7900   43.1960   44.8410 O.co2     1 G88        -0.5622
     15 H1         15.8350   45.5825   43.7628 H         1 G88         0.0472
     16 H2         17.3016   46.1561   42.8987 H         1 G88         0.0472
     17 H3         15.8226   43.6615   41.9221 H         1 G88         0.0481
     18 H4         14.0483   45.4147   42.1162 H         1 G88         0.0304
     19 H5         14.4291   45.0833   40.3924 H         1 G88         0.0304
     20 H6         16.0827   47.0293   40.4913 H         1 G88         0.0432
     21 H7         15.4165   47.4192   42.1133 H         1 G88         0.0432
@<TRIPOS>BOND
     1   10    1 ar 
     2    4    2 1  
     3    2   11 1  
     4   11    3 ar 
     5    4    5 1  
     6    6    4 1  
     7    5    9 ar 
     8    5   13 ar 
     9    7    6 1  
    10    7   10 1  
    11   10    8 ar 
    12   11   12 ar 
    13   11   14 ar 
    14    2   15 1  
    15    2   16 1  
    16    4   17 1  
    17    6   18 1  
    18    6   19 1  
    19    7   20 1  
    20    7   21 1  
@<TRIPOS>SUBSTRUCTURE
     1 G88         1

