2pvw_ligand
  -I-interpret- 

 25 24  0  0  0  0  0  0  0  0999 V2000
   13.2570   47.2300   39.6550 O   0  0  0  0  0
   16.6740   45.2800   43.1190 C   0  0  0  0  0
   18.7430   44.7750   44.7620 O   0  0  0  0  0
   16.0990   44.7150   41.7680 C   0  0  0  0  0
   17.1720   44.7800   40.6730 C   0  0  0  0  0
   14.8170   45.4990   41.3340 C   0  0  0  0  0
   15.1910   46.9740   41.1330 C   0  0  0  0  0
   13.9730   49.0030   40.7900 O   0  0  0  0  0
   17.0980   43.9790   39.6900 O   0  0  0  0  0
   14.0610   47.7720   40.4770 C   0  0  0  0  0
   17.6870   44.0350   44.0120 P   0  0  0  0  0
   18.4410   43.1880   42.9290 O   0  0  0  0  0
   18.1070   45.6220   40.7610 O   0  0  0  0  0
   16.7900   43.1960   44.8410 O   0  0  0  0  0
   15.8345   45.5565   43.7569 H   0  0  0  0  0
   17.3107   46.1338   42.8872 H   0  0  0  0  0
   19.2716   45.2877   44.1461 H   0  0  0  0  0
   15.8162   43.6735   41.9207 H   0  0  0  0  0
   14.0499   45.4117   42.1034 H   0  0  0  0  0
   14.4251   45.0851   40.4049 H   0  0  0  0  0
   16.0615   47.0173   40.4784 H   0  0  0  0  0
   15.3906   47.4100   42.1119 H   0  0  0  0  0
   14.6640   49.2222   41.4194 H   0  0  0  0  0
   16.3266   43.4171   39.7939 H   0  0  0  0  0
   19.0105   43.7638   42.4135 H   0  0  0  0  0
 10  1  2  0  0  0
  4  2  1  0  0  0
  2 11  1  0  0  0
 11  3  1  0  0  0
  4  5  1  0  0  0
  6  4  1  0  0  0
  5  9  1  0  0  0
  5 13  2  0  0  0
  7  6  1  0  0  0
  7 10  1  0  0  0
 10  8  1  0  0  0
 11 12  1  0  0  0
 11 14  2  0  0  0
  2 15  1  0  0  0
  2 16  1  0  0  0
  3 17  1  0  0  0
  4 18  1  0  0  0
  6 19  1  0  0  0
  6 20  1  0  0  0
  7 21  1  0  0  0
  7 22  1  0  0  0
  8 23  1  0  0  0
  9 24  1  0  0  0
 12 25  1  0  0  0
M  END
$$$$
