4zy6_ligand
  -I-interpret- 

 42 46  0  0  0  0  0  0  0  0999 V2000
   16.7120  -12.1470   13.0380 C   0  0  0  0  0
   15.7970  -13.1840   12.8160 C   0  0  0  0  0
   14.6310  -13.2590   13.5680 C   0  0  0  0  0
   13.6480  -14.3840   13.2620 C   0  0  0  0  0
   13.5790  -15.9670   17.0880 C   0  0  0  0  0
   16.3610  -16.6320   15.6630 C   0  0  0  0  0
   18.5680  -17.1900   14.3930 C   0  0  0  0  0
   18.0850  -17.0850   12.9540 C   0  0  0  0  0
   14.3820  -12.2850   14.5540 C   0  0  0  0  0
   15.2840  -11.2540   14.7980 C   0  0  0  0  0
   16.4570  -11.1840   14.0310 C   0  0  0  0  0
   12.4520  -14.3080   14.1190 N   0  0  0  0  0
   12.4670  -14.8160   15.4120 C   0  0  0  0  0
   11.3900  -14.6550   16.1830 N   0  0  0  0  0
   11.3430  -15.1470   17.4250 C   0  0  0  0  0
   12.4440  -15.8350   17.9180 C   0  0  0  0  0
   13.5490  -15.4780   15.8490 N   0  0  0  0  0
   14.6750  -16.6300   17.5880 N   0  0  0  0  0
   15.8610  -16.9860   16.9360 C   0  0  0  0  0
   17.5690  -17.2390   15.5290 C   0  0  0  0  0
   17.8060  -17.9290   16.6610 N   0  0  0  0  0
   16.7300  -17.7630   17.5220 N   0  0  0  0  0
   18.7700  -15.8850   13.6240 C   0  0  0  0  0
   16.1650  -14.3740   11.6040 Cl  0  0  0  0  0
   17.9000  -11.8320   12.4650 N   0  0  0  0  0
   18.3750  -10.7430   12.9930 C   0  0  0  0  0
   17.5380  -10.3200   13.9830 N   0  0  0  0  0
   14.1453  -15.3358   13.4487 H   0  0  0  0  0
   13.3330  -14.2925   12.2225 H   0  0  0  0  0
   15.8708  -15.9934   14.9282 H   0  0  0  0  0
   19.2202  -17.8772   14.9319 H   0  0  0  0  0
   17.1849  -17.2950   12.3762 H   0  0  0  0  0
   18.1529  -17.6516   12.0253 H   0  0  0  0  0
   13.4635  -12.3398   15.1383 H   0  0  0  0  0
   15.0828  -10.5132   15.5719 H   0  0  0  0  0
   11.6012  -13.8764   13.7580 H   0  0  0  0  0
   10.4544  -15.0103   18.0412 H   0  0  0  0  0
   12.4325  -16.2625   18.9206 H   0  0  0  0  0
   14.6153  -16.8996   18.5699 H   0  0  0  0  0
   19.5660  -15.1709   13.4132 H   0  0  0  0  0
   18.6043  -14.8165   13.7619 H   0  0  0  0  0
   19.2972  -10.2462   12.6917 H   0  0  0  0  0
  2  1  4  0  0  0
  1 11  4  0  0  0
  1 25  4  0  0  0
  3  2  4  0  0  0
  2 24  1  0  0  0
  4  3  1  0  0  0
  3  9  4  0  0  0
 12  4  1  0  0  0
  5 16  4  0  0  0
  5 17  4  0  0  0
 18  5  1  0  0  0
 19  6  4  0  0  0
  6 20  4  0  0  0
  7  8  1  0  0  0
 20  7  1  0  0  0
  7 23  1  0  0  0
 23  8  1  0  0  0
  9 10  4  0  0  0
 10 11  4  0  0  0
 11 27  4  0  0  0
 13 12  1  0  0  0
 13 14  4  0  0  0
 17 13  4  0  0  0
 15 14  4  0  0  0
 16 15  4  0  0  0
 18 19  1  0  0  0
 19 22  4  0  0  0
 20 21  4  0  0  0
 21 22  4  0  0  0
 25 26  4  0  0  0
 26 27  4  0  0  0
  4 28  1  0  0  0
  4 29  1  0  0  0
  6 30  1  0  0  0
  7 31  1  0  0  0
  8 32  1  0  0  0
  8 33  1  0  0  0
  9 34  1  0  0  0
 10 35  1  0  0  0
 12 36  1  0  0  0
 15 37  1  0  0  0
 16 38  1  0  0  0
 18 39  1  0  0  0
 23 40  1  0  0  0
 23 41  1  0  0  0
 26 42  1  0  0  0
M  END
$$$$
